# generated using pymatgen
data_BaCrF7
_symmetry_space_group_name_H-M   'P 1'
_cell_length_a   5.52278468
_cell_length_b   9.97832268
_cell_length_c   10.00099500
_cell_angle_alpha   90.00000000
_cell_angle_beta   90.00000000
_cell_angle_gamma   94.47908623
_symmetry_Int_Tables_number   1
_chemical_formula_structural   BaCrF7
_chemical_formula_sum   'Ba4 Cr4 F28'
_cell_volume   549.45288714
_cell_formula_units_Z   4
loop_
 _symmetry_equiv_pos_site_id
 _symmetry_equiv_pos_as_xyz
  1  'x, y, z'
loop_
 _atom_site_type_symbol
 _atom_site_label
 _atom_site_symmetry_multiplicity
 _atom_site_fract_x
 _atom_site_fract_y
 _atom_site_fract_z
 _atom_site_occupancy
  Ba  Ba0  1  0.25696300  0.49293500  0.29214400  1
  Ba  Ba1  1  0.74303700  0.00706500  0.79214400  1
  Ba  Ba2  1  0.74303700  0.50706500  0.70785600  1
  Ba  Ba3  1  0.25696300  0.99293500  0.20785600  1
  Cr  Cr4  1  0.18660200  0.81165300  0.61322200  1
  Cr  Cr5  1  0.81339800  0.18834800  0.38677800  1
  Cr  Cr6  1  0.18660200  0.31165300  0.88677800  1
  Cr  Cr7  1  0.81339800  0.68834700  0.11322200  1
  F  F8  1  0.09115300  0.12867100  0.44966500  1
  F  F9  1  0.34081600  0.36313000  0.03981600  1
  F  F10  1  0.46398100  0.75946700  0.69080300  1
  F  F11  1  0.53601900  0.24053300  0.30919700  1
  F  F12  1  0.89359600  0.35950900  0.45308500  1
  F  F13  1  0.25565600  0.47811100  0.80699500  1
  F  F14  1  0.00706900  0.75945700  0.76418700  1
  F  F15  1  0.10640400  0.14049100  0.95308500  1
  F  F16  1  0.34081600  0.86313000  0.46018400  1
  F  F17  1  0.53601900  0.74053300  0.19080300  1
  F  F18  1  0.09115300  0.62867100  0.05033500  1
  F  F19  1  0.90884700  0.87132900  0.55033500  1
  F  F20  1  0.99293100  0.74054300  0.26418700  1
  F  F21  1  0.40717900  0.91540900  0.96806800  1
  F  F22  1  0.10640400  0.64049100  0.54691500  1
  F  F23  1  0.89359600  0.85950900  0.04691500  1
  F  F24  1  0.99293100  0.24054300  0.23581300  1
  F  F25  1  0.90884700  0.37132900  0.94966500  1
  F  F26  1  0.59282100  0.58459100  0.46806800  1
  F  F27  1  0.65918400  0.63687000  0.96018400  1
  F  F28  1  0.59282100  0.08459100  0.03193200  1
  F  F29  1  0.00706900  0.25945700  0.73581300  1
  F  F30  1  0.40717900  0.41540900  0.53193200  1
  F  F31  1  0.74434400  0.02188900  0.30699500  1
  F  F32  1  0.74434400  0.52188900  0.19300500  1
  F  F33  1  0.25565600  0.97811100  0.69300500  1
  F  F34  1  0.65918400  0.13687000  0.53981600  1
  F  F35  1  0.46398100  0.25946800  0.80919700  1
