# generated using pymatgen
data_SrV(PO4)2
_symmetry_space_group_name_H-M   'P 1'
_cell_length_a   8.50277947
_cell_length_b   9.59994923
_cell_length_c   9.55787364
_cell_angle_alpha   64.54198623
_cell_angle_beta   98.61640515
_cell_angle_gamma   87.32822146
_symmetry_Int_Tables_number   1
_chemical_formula_structural   SrV(PO4)2
_chemical_formula_sum   'Sr4 V4 P8 O32'
_cell_volume   691.06233591
_cell_formula_units_Z   4
loop_
 _symmetry_equiv_pos_site_id
 _symmetry_equiv_pos_as_xyz
  1  'x, y, z'
loop_
 _atom_site_type_symbol
 _atom_site_label
 _atom_site_symmetry_multiplicity
 _atom_site_fract_x
 _atom_site_fract_y
 _atom_site_fract_z
 _atom_site_occupancy
  Sr  Sr0  1  0.51379500  0.76448500  0.28579200  1
  Sr  Sr1  1  0.01377000  0.26447500  0.78582900  1
  Sr  Sr2  1  0.98622800  0.73552600  0.21417000  1
  Sr  Sr3  1  0.48620800  0.23551300  0.71420800  1
  V  V4  1  0.01446900  0.71974600  0.82364200  1
  V  V5  1  0.98553500  0.28025600  0.17635700  1
  V  V6  1  0.51448000  0.21972300  0.32365100  1
  V  V7  1  0.48551200  0.78027200  0.67634500  1
  P  P8  1  0.70352200  0.10085600  0.11971600  1
  P  P9  1  0.20351400  0.60084300  0.61969300  1
  P  P10  1  0.79648300  0.39915500  0.38030800  1
  P  P11  1  0.29647800  0.89914500  0.88028500  1
  P  P12  1  0.71463800  0.56085400  0.73698400  1
  P  P13  1  0.21466500  0.06086200  0.23697800  1
  P  P14  1  0.78533300  0.93913900  0.76302000  1
  P  P15  1  0.28536400  0.43914700  0.26301700  1
  O  O16  1  0.73712100  0.57085100  0.31877300  1
  O  O17  1  0.23710100  0.07083200  0.81877100  1
  O  O18  1  0.76289800  0.92916900  0.18122800  1
  O  O19  1  0.26288000  0.42914800  0.68122900  1
  O  O20  1  0.55667200  0.16310400  0.99197200  1
  O  O21  1  0.05667100  0.66308600  0.49192000  1
  O  O22  1  0.94332800  0.33691500  0.50808000  1
  O  O23  1  0.44332700  0.83689900  0.00802800  1
  O  O24  1  0.65332000  0.29608900  0.43777300  1
  O  O25  1  0.15331600  0.79608000  0.93777800  1
  O  O26  1  0.84669000  0.20392300  0.06222400  1
  O  O27  1  0.34667600  0.70390900  0.56222300  1
  O  O28  1  0.83804400  0.78360400  0.91768600  1
  O  O29  1  0.33807600  0.28360900  0.41770100  1
  O  O30  1  0.66192200  0.71639200  0.58229900  1
  O  O31  1  0.16195900  0.21639700  0.08231300  1
  O  O32  1  0.40991800  0.40916000  0.16449600  1
  O  O33  1  0.90989100  0.90917200  0.66447700  1
  O  O34  1  0.09010800  0.09083100  0.33552500  1
  O  O35  1  0.59008100  0.59083800  0.83550400  1
  O  O36  1  0.79787100  0.08439100  0.78516800  1
  O  O37  1  0.29790500  0.58441300  0.28515300  1
  O  O38  1  0.70209600  0.41558900  0.71484800  1
  O  O39  1  0.20212800  0.91560700  0.21483300  1
  O  O40  1  0.67282700  0.12546500  0.26807300  1
  O  O41  1  0.17276900  0.62547800  0.76804200  1
  O  O42  1  0.82723800  0.37451900  0.23195700  1
  O  O43  1  0.32717000  0.87453700  0.73192900  1
  O  O44  1  0.38892500  0.05255400  0.32506700  1
  O  O45  1  0.88891300  0.55257300  0.82504300  1
  O  O46  1  0.11108800  0.44742900  0.17495600  1
  O  O47  1  0.61107300  0.94744300  0.67493500  1
