# generated using pymatgen
data_NiSnP2O9
_symmetry_space_group_name_H-M   'P 1'
_cell_length_a   6.43853689
_cell_length_b   7.94293073
_cell_length_c   14.16812302
_cell_angle_alpha   89.95865300
_cell_angle_beta   89.98434784
_cell_angle_gamma   90.26717800
_symmetry_Int_Tables_number   1
_chemical_formula_structural   NiSnP2O9
_chemical_formula_sum   'Ni4 Sn4 P8 O36'
_cell_volume   724.56179537
_cell_formula_units_Z   4
loop_
 _symmetry_equiv_pos_site_id
 _symmetry_equiv_pos_as_xyz
  1  'x, y, z'
loop_
 _atom_site_type_symbol
 _atom_site_label
 _atom_site_symmetry_multiplicity
 _atom_site_fract_x
 _atom_site_fract_y
 _atom_site_fract_z
 _atom_site_occupancy
  Ni  Ni0  1  0.49998500  0.99997000  0.99998700  1
  Ni  Ni1  1  0.50007900  0.49996400  0.49999600  1
  Ni  Ni2  1  0.99991500  0.49997400  0.49998900  1
  Ni  Ni3  1  0.00001400  0.99997700  0.00000400  1
  Sn  Sn4  1  0.74924200  0.34938600  0.87839500  1
  Sn  Sn5  1  0.25076300  0.65055200  0.12161000  1
  Sn  Sn6  1  0.24937000  0.85098700  0.62218200  1
  Sn  Sn7  1  0.75063000  0.14900900  0.37784700  1
  P  P8  1  0.24965700  0.34633100  0.93660300  1
  P  P9  1  0.75034700  0.65363100  0.06340200  1
  P  P10  1  0.74944500  0.84613600  0.56358500  1
  P  P11  1  0.25055200  0.15385100  0.43643800  1
  P  P12  1  0.74953000  0.39322600  0.68277600  1
  P  P13  1  0.25045700  0.60680300  0.31723200  1
  P  P14  1  0.24967800  0.89236600  0.81716200  1
  P  P15  1  0.75029200  0.10769600  0.18285200  1
  O  O16  1  0.04840200  0.59602100  0.37661300  1
  O  O17  1  0.54847300  0.40362900  0.62288300  1
  O  O18  1  0.95171700  0.09686400  0.12357400  1
  O  O19  1  0.45120200  0.90393200  0.87622400  1
  O  O20  1  0.95151500  0.40403800  0.62338800  1
  O  O21  1  0.45160000  0.59643300  0.37712900  1
  O  O22  1  0.04833500  0.90315600  0.87645400  1
  O  O23  1  0.54877800  0.09607400  0.12380700  1
  O  O24  1  0.25065600  0.33423000  0.47805500  1
  O  O25  1  0.74934000  0.66581400  0.52188300  1
  O  O26  1  0.75052200  0.83460800  0.02223200  1
  O  O27  1  0.24948200  0.16540500  0.97778000  1
  O  O28  1  0.74748200  0.13143000  0.95552200  1
  O  O29  1  0.25252100  0.86855400  0.04451000  1
  O  O30  1  0.24859800  0.63194800  0.54482100  1
  O  O31  1  0.75139200  0.36806300  0.45509700  1
  O  O32  1  0.74923900  0.22656000  0.74133100  1
  O  O33  1  0.25074400  0.77346600  0.25864200  1
  O  O34  1  0.24909500  0.72666600  0.75802600  1
  O  O35  1  0.75092100  0.27337100  0.24196800  1
  O  O36  1  0.43901900  0.13214000  0.37047900  1
  O  O37  1  0.93785400  0.86773800  0.62966600  1
  O  O38  1  0.56207800  0.63213000  0.12971300  1
  O  O39  1  0.06090900  0.36677700  0.87058100  1
  O  O40  1  0.56099300  0.86782300  0.62952400  1
  O  O41  1  0.06213300  0.13221600  0.37033700  1
  O  O42  1  0.43793500  0.36783100  0.87027100  1
  O  O43  1  0.93909600  0.63319500  0.12940100  1
  O  O44  1  0.75001700  0.96864000  0.26204200  1
  O  O45  1  0.24997300  0.03137600  0.73795200  1
  O  O46  1  0.24951900  0.46943200  0.23741300  1
  O  O47  1  0.75049900  0.53048900  0.76260000  1
  O  O48  1  0.75015400  0.97780800  0.48492200  1
  O  O49  1  0.24984900  0.02226200  0.51510700  1
  O  O50  1  0.24987800  0.47754100  0.01502100  1
  O  O51  1  0.75012300  0.52248500  0.98497200  1
