# generated using pymatgen
data_MnZn(GeO3)2
_symmetry_space_group_name_H-M   'P 1'
_cell_length_a   5.55638873
_cell_length_b   7.01931728
_cell_length_c   13.78745031
_cell_angle_alpha   92.24802290
_cell_angle_beta   98.86113598
_cell_angle_gamma   75.93970524
_symmetry_Int_Tables_number   1
_chemical_formula_structural   MnZn(GeO3)2
_chemical_formula_sum   'Mn4 Zn4 Ge8 O24'
_cell_volume   515.40180088
_cell_formula_units_Z   4
loop_
 _symmetry_equiv_pos_site_id
 _symmetry_equiv_pos_as_xyz
  1  'x, y, z'
loop_
 _atom_site_type_symbol
 _atom_site_label
 _atom_site_symmetry_multiplicity
 _atom_site_fract_x
 _atom_site_fract_y
 _atom_site_fract_z
 _atom_site_occupancy
  Mn  Mn0  1  0.30128900  0.89892700  0.55156200  1
  Mn  Mn1  1  0.19862300  0.10139200  0.94845300  1
  Mn  Mn2  1  0.80209500  0.89701300  0.05197000  1
  Mn  Mn3  1  0.69799700  0.10250100  0.44813600  1
  Zn  Zn4  1  0.13211400  0.23575600  0.38233200  1
  Zn  Zn5  1  0.63247300  0.23477900  0.88264100  1
  Zn  Zn6  1  0.36788700  0.76434200  0.11764100  1
  Zn  Zn7  1  0.86759000  0.76509600  0.61741000  1
  Ge  Ge8  1  0.84060800  0.38948000  0.10900900  1
  Ge  Ge9  1  0.34032600  0.39045000  0.60899600  1
  Ge  Ge10  1  0.07431900  0.78170400  0.30540900  1
  Ge  Ge11  1  0.57428600  0.78169600  0.80523100  1
  Ge  Ge12  1  0.65940900  0.61032900  0.39098400  1
  Ge  Ge13  1  0.15964400  0.60966200  0.89096300  1
  Ge  Ge14  1  0.42574400  0.21828200  0.19463600  1
  Ge  Ge15  1  0.92563200  0.21845000  0.69474200  1
  O  O16  1  0.69985500  0.31335900  0.20451900  1
  O  O17  1  0.19981800  0.31348100  0.70439200  1
  O  O18  1  0.34796400  0.59026800  0.34331200  1
  O  O19  1  0.84796600  0.59033700  0.84322400  1
  O  O20  1  0.80009800  0.68672400  0.29549700  1
  O  O21  1  0.30008300  0.68665000  0.79554400  1
  O  O22  1  0.15201500  0.40961200  0.15666100  1
  O  O23  1  0.65199800  0.40981200  0.65672600  1
  O  O24  1  0.41697200  0.14106600  0.31327200  1
  O  O25  1  0.91741400  0.14090500  0.81340000  1
  O  O26  1  0.82485300  0.37292400  0.42945700  1
  O  O27  1  0.32489500  0.37226200  0.92959900  1
  O  O28  1  0.08312800  0.85897500  0.18677500  1
  O  O29  1  0.58254800  0.85918100  0.68656000  1
  O  O30  1  0.67507900  0.62686800  0.07051900  1
  O  O31  1  0.17510600  0.62784100  0.57035300  1
  O  O32  1  0.86694900  0.20273200  0.01771700  1
  O  O33  1  0.36642200  0.20404100  0.51747200  1
  O  O34  1  0.04964200  0.96495800  0.39842700  1
  O  O35  1  0.55010500  0.96426900  0.89861500  1
  O  O36  1  0.63312900  0.79709300  0.48229700  1
  O  O37  1  0.13355600  0.79598300  0.98253200  1
  O  O38  1  0.45057000  0.03504300  0.10160500  1
  O  O39  1  0.94980000  0.03575800  0.60140800  1
