# generated using pymatgen
data_CaCr(GeO3)2
_symmetry_space_group_name_H-M   'P 1'
_cell_length_a   5.48645153
_cell_length_b   10.36783608
_cell_length_c   9.40291094
_cell_angle_alpha   90.00780042
_cell_angle_beta   90.00584029
_cell_angle_gamma   104.51070438
_symmetry_Int_Tables_number   1
_chemical_formula_structural   CaCr(GeO3)2
_chemical_formula_sum   'Ca4 Cr4 Ge8 O24'
_cell_volume   517.80063978
_cell_formula_units_Z   4
loop_
 _symmetry_equiv_pos_site_id
 _symmetry_equiv_pos_as_xyz
  1  'x, y, z'
loop_
 _atom_site_type_symbol
 _atom_site_label
 _atom_site_symmetry_multiplicity
 _atom_site_fract_x
 _atom_site_fract_y
 _atom_site_fract_z
 _atom_site_occupancy
  Ca  Ca0  1  0.24999400  0.50000700  0.19735900  1
  Ca  Ca1  1  0.74999000  0.99998700  0.69731600  1
  Ca  Ca2  1  0.75005700  0.50001500  0.80267100  1
  Ca  Ca3  1  0.25003700  0.99999300  0.30266200  1
  Cr  Cr4  1  0.75001900  0.00002600  0.09315600  1
  Cr  Cr5  1  0.75000300  0.50000100  0.40683800  1
  Cr  Cr6  1  0.25000300  0.49999900  0.59314100  1
  Cr  Cr7  1  0.25000100  0.99999700  0.90685900  1
  Ge  Ge8  1  0.06406900  0.28509500  0.90258300  1
  Ge  Ge9  1  0.56404100  0.78507600  0.40260700  1
  Ge  Ge10  1  0.43592600  0.71492100  0.90262400  1
  Ge  Ge11  1  0.93590000  0.21490300  0.40259300  1
  Ge  Ge12  1  0.93594800  0.71492400  0.09740800  1
  Ge  Ge13  1  0.43593600  0.21491700  0.59740000  1
  Ge  Ge14  1  0.56407700  0.28508900  0.09738100  1
  Ge  Ge15  1  0.06408300  0.78508900  0.59739600  1
  O  O16  1  0.88096300  0.35579300  0.03175400  1
  O  O17  1  0.38098000  0.85580200  0.53176300  1
  O  O18  1  0.61903900  0.64420200  0.03175500  1
  O  O19  1  0.11901300  0.14420000  0.53172700  1
  O  O20  1  0.11901900  0.64420300  0.96825300  1
  O  O21  1  0.61902800  0.14420200  0.46823700  1
  O  O22  1  0.38098500  0.35580900  0.96825900  1
  O  O23  1  0.88095700  0.85579600  0.46825400  1
  O  O24  1  0.51824000  0.36470000  0.25292600  1
  O  O25  1  0.01827300  0.86470800  0.75291700  1
  O  O26  1  0.98173000  0.63528600  0.25292100  1
  O  O27  1  0.48174000  0.13528600  0.75289700  1
  O  O28  1  0.48173800  0.63529600  0.74709700  1
  O  O29  1  0.98168900  0.13526600  0.24706300  1
  O  O30  1  0.01827500  0.36472500  0.74708700  1
  O  O31  1  0.51819200  0.86467600  0.24708900  1
  O  O32  1  0.98119600  0.11005700  0.90355600  1
  O  O33  1  0.48114500  0.61003100  0.40363800  1
  O  O34  1  0.51888000  0.88997000  0.90365700  1
  O  O35  1  0.01884900  0.38995200  0.40361100  1
  O  O36  1  0.01885300  0.88996400  0.09638500  1
  O  O37  1  0.51883600  0.38995500  0.59638200  1
  O  O38  1  0.48113500  0.11004000  0.09637800  1
  O  O39  1  0.98116100  0.61004100  0.59639900  1
