# generated using pymatgen
data_CaTi2O4
_symmetry_space_group_name_H-M   'P 1'
_cell_length_a   6.28540259
_cell_length_b   6.27654238
_cell_length_c   6.28114469
_cell_angle_alpha   90.08346790
_cell_angle_beta   119.99503401
_cell_angle_gamma   119.91856399
_symmetry_Int_Tables_number   1
_chemical_formula_structural   CaTi2O4
_chemical_formula_sum   'Ca2 Ti4 O8'
_cell_volume   175.31840938
_cell_formula_units_Z   2
loop_
 _symmetry_equiv_pos_site_id
 _symmetry_equiv_pos_as_xyz
  1  'x, y, z'
loop_
 _atom_site_type_symbol
 _atom_site_label
 _atom_site_symmetry_multiplicity
 _atom_site_fract_x
 _atom_site_fract_y
 _atom_site_fract_z
 _atom_site_occupancy
  Ca  Ca0  1  0.24927600  0.12500900  0.87505900  1
  Ca  Ca1  1  0.75069900  0.87499200  0.12490900  1
  Ti  Ti2  1  0.50012800  0.99999900  0.49990200  1
  Ti  Ti3  1  0.50011500  0.50010600  0.50020900  1
  Ti  Ti4  1  0.99987200  0.50010300  0.00001400  1
  Ti  Ti5  1  0.99989700  0.49980700  0.49989300  1
  O  O6  1  0.03523800  0.73340500  0.26734200  1
  O  O7  1  0.46582900  0.73341600  0.69797500  1
  O  O8  1  0.46483700  0.73216900  0.26626400  1
  O  O9  1  0.96468200  0.69816400  0.73323900  1
  O  O10  1  0.53504800  0.26764100  0.73360700  1
  O  O11  1  0.53406600  0.26663200  0.30199800  1
  O  O12  1  0.03543200  0.30182600  0.26671000  1
  O  O13  1  0.96488200  0.26673300  0.73287800  1
