# generated using pymatgen
data_Zn(NiO2)2
_symmetry_space_group_name_H-M   'P 1'
_cell_length_a   5.98663811
_cell_length_b   5.98663811
_cell_length_c   5.98663811
_cell_angle_alpha   123.42490208
_cell_angle_beta   123.42490208
_cell_angle_gamma   84.16367254
_symmetry_Int_Tables_number   1
_chemical_formula_structural   Zn(NiO2)2
_chemical_formula_sum   'Zn2 Ni4 O8'
_cell_volume   143.05096701
_cell_formula_units_Z   2
loop_
 _symmetry_equiv_pos_site_id
 _symmetry_equiv_pos_as_xyz
  1  'x, y, z'
loop_
 _atom_site_type_symbol
 _atom_site_label
 _atom_site_symmetry_multiplicity
 _atom_site_fract_x
 _atom_site_fract_y
 _atom_site_fract_z
 _atom_site_occupancy
  Zn  Zn0  1  0.50000000  0.50000000  0.00000000  1
  Zn  Zn1  1  0.25000000  0.75000000  0.50000000  1
  Ni  Ni2  1  0.87500000  0.12500000  0.25000000  1
  Ni  Ni3  1  0.37500000  0.12500000  0.25000000  1
  Ni  Ni4  1  0.87500000  0.62500000  0.75000000  1
  Ni  Ni5  1  0.87500000  0.12500000  0.75000000  1
  O  O6  1  0.66195700  0.88661100  0.77534700  1
  O  O7  1  0.11338900  0.88873600  0.77534700  1
  O  O8  1  0.11338900  0.33804300  0.22465300  1
  O  O9  1  0.08804300  0.36338900  0.72465300  1
  O  O10  1  0.63873600  0.36338900  0.27534700  1
  O  O11  1  0.63661100  0.36126400  0.72465300  1
  O  O12  1  0.11126400  0.88661100  0.22465300  1
  O  O13  1  0.63661100  0.91195700  0.27534700  1
