# generated using pymatgen
data_YMn(WO4)2
_symmetry_space_group_name_H-M   'P 1'
_cell_length_a   5.21994481
_cell_length_b   5.87918863
_cell_length_c   10.11408862
_cell_angle_alpha   89.49644597
_cell_angle_beta   93.80884200
_cell_angle_gamma   88.94250487
_symmetry_Int_Tables_number   1
_chemical_formula_structural   YMn(WO4)2
_chemical_formula_sum   'Y2 Mn2 W4 O16'
_cell_volume   309.63773603
_cell_formula_units_Z   2
loop_
 _symmetry_equiv_pos_site_id
 _symmetry_equiv_pos_as_xyz
  1  'x, y, z'
loop_
 _atom_site_type_symbol
 _atom_site_label
 _atom_site_symmetry_multiplicity
 _atom_site_fract_x
 _atom_site_fract_y
 _atom_site_fract_z
 _atom_site_occupancy
  Y  Y0  1  0.24197900  0.68201300  0.23996800  1
  Y  Y1  1  0.75801500  0.31798500  0.76002900  1
  Mn  Mn2  1  0.74698100  0.30250000  0.23664300  1
  Mn  Mn3  1  0.25301600  0.69749900  0.76336300  1
  W  W4  1  0.24880800  0.16964900  0.49552100  1
  W  W5  1  0.75119200  0.83035300  0.50448000  1
  W  W6  1  0.24315300  0.16777500  0.00475400  1
  W  W7  1  0.75684800  0.83222200  0.99524600  1
  O  O8  1  0.39030700  0.37185600  0.14052800  1
  O  O9  1  0.60969600  0.62814200  0.85947200  1
  O  O10  1  0.09494100  0.36585400  0.37108500  1
  O  O11  1  0.90505600  0.63414900  0.62891200  1
  O  O12  1  0.45357000  0.90102200  0.60562300  1
  O  O13  1  0.54643300  0.09898700  0.39437600  1
  O  O14  1  0.04500900  0.92110800  0.88414200  1
  O  O15  1  0.95499400  0.07888600  0.11586100  1
  O  O16  1  0.87418700  0.60983000  0.12307900  1
  O  O17  1  0.12581200  0.39016000  0.87692200  1
  O  O18  1  0.60994900  0.63172700  0.38339500  1
  O  O19  1  0.39004400  0.36828000  0.61660200  1
  O  O20  1  0.43302600  0.88943800  0.09684600  1
  O  O21  1  0.56697800  0.11055900  0.90315500  1
  O  O22  1  0.05440200  0.89140800  0.40260400  1
  O  O23  1  0.94559900  0.10859400  0.59739300  1
