# generated using pymatgen
data_YFe(WO4)2
_symmetry_space_group_name_H-M   'P 1'
_cell_length_a   5.21706431
_cell_length_b   5.85197354
_cell_length_c   10.07169070
_cell_angle_alpha   89.95113041
_cell_angle_beta   94.45322620
_cell_angle_gamma   91.31671166
_symmetry_Int_Tables_number   1
_chemical_formula_structural   YFe(WO4)2
_chemical_formula_sum   'Y2 Fe2 W4 O16'
_cell_volume   306.48057112
_cell_formula_units_Z   2
loop_
 _symmetry_equiv_pos_site_id
 _symmetry_equiv_pos_as_xyz
  1  'x, y, z'
loop_
 _atom_site_type_symbol
 _atom_site_label
 _atom_site_symmetry_multiplicity
 _atom_site_fract_x
 _atom_site_fract_y
 _atom_site_fract_z
 _atom_site_occupancy
  Y  Y0  1  0.25438900  0.68300600  0.25979300  1
  Y  Y1  1  0.74514200  0.31729800  0.74036300  1
  Fe  Fe2  1  0.74941800  0.31106400  0.26312500  1
  Fe  Fe3  1  0.25056100  0.69031900  0.73531100  1
  W  W4  1  0.74223200  0.83386900  0.50580900  1
  W  W5  1  0.74847500  0.83071600  0.99386100  1
  W  W6  1  0.25792000  0.16607100  0.49424400  1
  W  W7  1  0.25200100  0.16860500  0.00624400  1
  O  O8  1  0.41182000  0.36209400  0.13273800  1
  O  O9  1  0.58809900  0.63812100  0.86744000  1
  O  O10  1  0.09817600  0.36868100  0.35548000  1
  O  O11  1  0.90101200  0.63226700  0.64493000  1
  O  O12  1  0.45691400  0.92005300  0.61839800  1
  O  O13  1  0.54309800  0.07949600  0.38192700  1
  O  O14  1  0.04315400  0.90577900  0.89290000  1
  O  O15  1  0.95752500  0.09330200  0.10735400  1
  O  O16  1  0.88756700  0.62500900  0.11442100  1
  O  O17  1  0.11282500  0.37335000  0.88524000  1
  O  O18  1  0.62066300  0.60816200  0.38144800  1
  O  O19  1  0.37872500  0.39206600  0.61873500  1
  O  O20  1  0.44617500  0.88759500  0.09650900  1
  O  O21  1  0.55461400  0.11243200  0.90384400  1
  O  O22  1  0.06842300  0.88552000  0.40558400  1
  O  O23  1  0.93107100  0.11512800  0.59429900  1
