# generated using pymatgen
data_Ba3Y5(NiO5)3
_symmetry_space_group_name_H-M   'P 1'
_cell_length_a   11.32310303
_cell_length_b   5.80364881
_cell_length_c   6.62655054
_cell_angle_alpha   115.97053023
_cell_angle_beta   106.69302976
_cell_angle_gamma   90.00000039
_symmetry_Int_Tables_number   1
_chemical_formula_structural   Ba3Y5(NiO5)3
_chemical_formula_sum   'Ba3 Y5 Ni3 O15'
_cell_volume   370.97160578
_cell_formula_units_Z   1
loop_
 _symmetry_equiv_pos_site_id
 _symmetry_equiv_pos_as_xyz
  1  'x, y, z'
loop_
 _atom_site_type_symbol
 _atom_site_label
 _atom_site_symmetry_multiplicity
 _atom_site_fract_x
 _atom_site_fract_y
 _atom_site_fract_z
 _atom_site_occupancy
  Ba  Ba0  1  0.00031000  0.99799200  0.99598400  1
  Ba  Ba1  1  0.33711400  0.00649000  0.01298000  1
  Ba  Ba2  1  0.65791400  0.98964100  0.97928200  1
  Y  Y3  1  0.26244600  0.29429300  0.58858800  1
  Y  Y4  1  0.59672400  0.28965000  0.57929900  1
  Y  Y5  1  0.93393100  0.29318600  0.58637000  1
  Y  Y6  1  0.07004900  0.70535700  0.41071200  1
  Y  Y7  1  0.73415700  0.70270800  0.40541200  1
  Ni  Ni8  1  0.17467600  0.51407500  0.02815200  1
  Ni  Ni9  1  0.83364300  0.49910200  0.99820400  1
  Ni  Ni10  1  0.50122700  0.50786400  0.01573000  1
  O  O11  1  0.45640300  0.16074500  0.74849500  1
  O  O12  1  0.45640300  0.58775100  0.74849400  1
  O  O13  1  0.11807400  0.11606400  0.70679900  1
  O  O14  1  0.78323000  0.11751300  0.70266200  1
  O  O15  1  0.19553400  0.89156300  0.28081100  1
  O  O16  1  0.56311900  0.88407800  0.27637900  1
  O  O17  1  0.88312300  0.88163000  0.29239600  1
  O  O18  1  0.19553300  0.38924800  0.28081100  1
  O  O19  1  0.56311900  0.39230100  0.27637900  1
  O  O20  1  0.88312300  0.41076700  0.29239600  1
  O  O21  1  0.11807400  0.59073300  0.70679800  1
  O  O22  1  0.78323100  0.58514800  0.70266100  1
  O  O23  1  0.00045800  0.49670600  0.99341200  1
  O  O24  1  0.33207600  0.49577600  0.99155200  1
  O  O25  1  0.66520100  0.49628800  0.99257600  1
