# generated using pymatgen
data_CaV(GeO3)2
_symmetry_space_group_name_H-M   'P 1'
_cell_length_a   5.51123054
_cell_length_b   10.38907049
_cell_length_c   9.18674016
_cell_angle_alpha   89.99871213
_cell_angle_beta   89.99899171
_cell_angle_gamma   75.53782266
_symmetry_Int_Tables_number   1
_chemical_formula_structural   CaV(GeO3)2
_chemical_formula_sum   'Ca4 V4 Ge8 O24'
_cell_volume   509.33361295
_cell_formula_units_Z   4
loop_
 _symmetry_equiv_pos_site_id
 _symmetry_equiv_pos_as_xyz
  1  'x, y, z'
loop_
 _atom_site_type_symbol
 _atom_site_label
 _atom_site_symmetry_multiplicity
 _atom_site_fract_x
 _atom_site_fract_y
 _atom_site_fract_z
 _atom_site_occupancy
  Ca  Ca0  1  0.74998800  0.50000000  0.19824400  1
  Ca  Ca1  1  0.75001300  0.00000500  0.69807200  1
  Ca  Ca2  1  0.24998400  0.49999500  0.80193700  1
  Ca  Ca3  1  0.25001100  0.00000200  0.30176100  1
  V  V4  1  0.74979000  0.00014600  0.08718200  1
  V  V5  1  0.25016500  0.49984300  0.41279500  1
  V  V6  1  0.75022500  0.49987800  0.58805600  1
  V  V7  1  0.24985000  0.00011000  0.91189200  1
  Ge  Ge8  1  0.77328600  0.28736000  0.90151400  1
  Ge  Ge9  1  0.77298500  0.78706200  0.40192600  1
  Ge  Ge10  1  0.72672300  0.71265200  0.90151100  1
  Ge  Ge11  1  0.72701800  0.21293500  0.40193600  1
  Ge  Ge12  1  0.22703000  0.71295100  0.09806000  1
  Ge  Ge13  1  0.22669900  0.21263400  0.59849500  1
  Ge  Ge14  1  0.27296100  0.28705900  0.09805500  1
  Ge  Ge15  1  0.27328800  0.78736000  0.59850000  1
  O  O16  1  0.52370700  0.35809700  0.03317000  1
  O  O17  1  0.52376300  0.85839000  0.53360300  1
  O  O18  1  0.97629500  0.64190700  0.03316200  1
  O  O19  1  0.97622300  0.14160600  0.53360700  1
  O  O20  1  0.47624400  0.64160400  0.96639000  1
  O  O21  1  0.47631600  0.14187800  0.46686300  1
  O  O22  1  0.02376800  0.35840200  0.96638700  1
  O  O23  1  0.02367900  0.85811700  0.46687300  1
  O  O24  1  0.15135100  0.36675800  0.25748700  1
  O  O25  1  0.15158000  0.86741300  0.75791500  1
  O  O26  1  0.34862800  0.63322400  0.25749000  1
  O  O27  1  0.34843500  0.13259200  0.75791100  1
  O  O28  1  0.84844200  0.63262300  0.74208200  1
  O  O29  1  0.84863800  0.13321700  0.24252200  1
  O  O30  1  0.65154700  0.36738100  0.74208500  1
  O  O31  1  0.65137900  0.86679900  0.24251900  1
  O  O32  1  0.86025400  0.11302300  0.90581700  1
  O  O33  1  0.85876600  0.61264400  0.40685100  1
  O  O34  1  0.63975800  0.88699800  0.90581800  1
  O  O35  1  0.64122000  0.38734300  0.40685000  1
  O  O36  1  0.14125300  0.88735700  0.09313700  1
  O  O37  1  0.13975300  0.38697900  0.59419800  1
  O  O38  1  0.35875100  0.11266200  0.09313600  1
  O  O39  1  0.36023500  0.61299900  0.59419200  1
