# generated using pymatgen
data_LaFeBiO6
_symmetry_space_group_name_H-M   'P 1'
_cell_length_a   5.95663300
_cell_length_b   5.62563038
_cell_length_c   7.98653911
_cell_angle_alpha   90.37703034
_cell_angle_beta   90.00000000
_cell_angle_gamma   90.00000000
_symmetry_Int_Tables_number   1
_chemical_formula_structural   LaFeBiO6
_chemical_formula_sum   'La2 Fe2 Bi2 O12'
_cell_volume   267.62165854
_cell_formula_units_Z   2
loop_
 _symmetry_equiv_pos_site_id
 _symmetry_equiv_pos_as_xyz
  1  'x, y, z'
loop_
 _atom_site_type_symbol
 _atom_site_label
 _atom_site_symmetry_multiplicity
 _atom_site_fract_x
 _atom_site_fract_y
 _atom_site_fract_z
 _atom_site_occupancy
  La  La0  1  0.07341500  0.98481800  0.25061500  1
  La  La1  1  0.42658500  0.48481800  0.75061500  1
  Fe  Fe2  1  0.52446500  0.99355500  0.00029900  1
  Fe  Fe3  1  0.97553500  0.49355500  0.50029900  1
  Bi  Bi4  1  0.53282600  0.99281300  0.49966800  1
  Bi  Bi5  1  0.96717400  0.49281300  0.99966800  1
  O  O6  1  0.02533300  0.56433000  0.73989800  1
  O  O7  1  0.22071600  0.21731400  0.97042700  1
  O  O8  1  0.22802500  0.22645600  0.52519400  1
  O  O9  1  0.27197500  0.72645600  0.02519400  1
  O  O10  1  0.27928400  0.71731400  0.47042700  1
  O  O11  1  0.47466700  0.06433000  0.23989800  1
  O  O12  1  0.51144000  0.90151500  0.75975700  1
  O  O13  1  0.70485600  0.31280700  0.55466300  1
  O  O14  1  0.67592600  0.29599300  0.94966700  1
  O  O15  1  0.82407400  0.79599300  0.44966700  1
  O  O16  1  0.79514400  0.81280700  0.05466300  1
  O  O17  1  0.98856000  0.40151500  0.25975700  1
