# generated using pymatgen
data_ZnCo(GeO3)2
_symmetry_space_group_name_H-M   'P 1'
_cell_length_a   7.71992310
_cell_length_b   9.67919662
_cell_length_c   7.71688229
_cell_angle_alpha   109.77674172
_cell_angle_beta   74.21178538
_cell_angle_gamma   75.85847379
_symmetry_Int_Tables_number   1
_chemical_formula_structural   ZnCo(GeO3)2
_chemical_formula_sum   'Zn4 Co4 Ge8 O24'
_cell_volume   484.78127972
_cell_formula_units_Z   4
loop_
 _symmetry_equiv_pos_site_id
 _symmetry_equiv_pos_as_xyz
  1  'x, y, z'
loop_
 _atom_site_type_symbol
 _atom_site_label
 _atom_site_symmetry_multiplicity
 _atom_site_fract_x
 _atom_site_fract_y
 _atom_site_fract_z
 _atom_site_occupancy
  Zn  Zn0  1  0.88119800  0.87531000  0.24379700  1
  Zn  Zn1  1  0.38116400  0.37531800  0.24388900  1
  Zn  Zn2  1  0.61882900  0.62467300  0.75608300  1
  Zn  Zn3  1  0.11880400  0.12474800  0.75618500  1
  Co  Co4  1  0.72405200  0.37440200  0.90102300  1
  Co  Co5  1  0.77595900  0.12553800  0.09895400  1
  Co  Co6  1  0.22402300  0.87455400  0.90104600  1
  Co  Co7  1  0.27585100  0.62577900  0.09914200  1
  Ge  Ge8  1  0.53326000  0.67765200  0.38943600  1
  Ge  Ge9  1  0.03315800  0.17778600  0.38961300  1
  Ge  Ge10  1  0.53795400  0.07241200  0.78903000  1
  Ge  Ge11  1  0.03776400  0.57230500  0.78906800  1
  Ge  Ge12  1  0.96674000  0.82227700  0.61056000  1
  Ge  Ge13  1  0.46685700  0.32225200  0.61038100  1
  Ge  Ge14  1  0.96209700  0.42759500  0.21095700  1
  Ge  Ge15  1  0.46225500  0.92767700  0.21096000  1
  O  O16  1  0.79107400  0.62368800  0.30324700  1
  O  O17  1  0.29104600  0.12369300  0.30331100  1
  O  O18  1  0.57071700  0.12617800  0.58501300  1
  O  O19  1  0.07057100  0.62621500  0.58510200  1
  O  O20  1  0.70893300  0.87629800  0.69670800  1
  O  O21  1  0.20896800  0.37626800  0.69665900  1
  O  O22  1  0.92928000  0.37383000  0.41498900  1
  O  O23  1  0.42942300  0.87377200  0.41490700  1
  O  O24  1  0.19260400  0.43698300  0.13333000  1
  O  O25  1  0.69253500  0.93714700  0.13331800  1
  O  O26  1  0.05384200  0.81270400  0.37030000  1
  O  O27  1  0.55382300  0.31268100  0.37026600  1
  O  O28  1  0.30741200  0.06297300  0.86668700  1
  O  O29  1  0.80745000  0.56286900  0.86666100  1
  O  O30  1  0.44619400  0.68713600  0.62964000  1
  O  O31  1  0.94619700  0.18730200  0.62972100  1
  O  O32  1  0.48275400  0.54790800  0.20057700  1
  O  O33  1  0.98274900  0.04797500  0.20057100  1
  O  O34  1  0.59737100  0.20206800  0.96898800  1
  O  O35  1  0.09721100  0.70209300  0.96902600  1
  O  O36  1  0.01713700  0.95213400  0.79953500  1
  O  O37  1  0.51732800  0.45199200  0.79939900  1
  O  O38  1  0.90264300  0.29791500  0.03102000  1
  O  O39  1  0.40277100  0.79789800  0.03090200  1
