# generated using pymatgen
data_NiP2O7
_symmetry_space_group_name_H-M   'P 1'
_cell_length_a   6.61279570
_cell_length_b   6.37608492
_cell_length_c   6.97570046
_cell_angle_alpha   113.52467051
_cell_angle_beta   90.57461187
_cell_angle_gamma   85.93582698
_symmetry_Int_Tables_number   1
_chemical_formula_structural   NiP2O7
_chemical_formula_sum   'Ni2 P4 O14'
_cell_volume   268.94493892
_cell_formula_units_Z   2
loop_
 _symmetry_equiv_pos_site_id
 _symmetry_equiv_pos_as_xyz
  1  'x, y, z'
loop_
 _atom_site_type_symbol
 _atom_site_label
 _atom_site_symmetry_multiplicity
 _atom_site_fract_x
 _atom_site_fract_y
 _atom_site_fract_z
 _atom_site_occupancy
  Ni  Ni0  1  0.64125400  0.09535900  0.20333200  1
  Ni  Ni1  1  0.35880700  0.90461100  0.79660400  1
  P  P2  1  0.39017000  0.33522200  0.64505100  1
  P  P3  1  0.60983400  0.66478900  0.35492800  1
  P  P4  1  0.14464300  0.21338500  0.24946600  1
  P  P5  1  0.85534600  0.78662700  0.75061200  1
  O  O6  1  0.61163600  0.41178100  0.20577200  1
  O  O7  1  0.90186300  0.58267400  0.81311500  1
  O  O8  1  0.09777800  0.41729100  0.18696700  1
  O  O9  1  0.05015500  0.90426700  0.77006000  1
  O  O10  1  0.20116100  0.30694600  0.49220500  1
  O  O11  1  0.34906300  0.21548600  0.79005100  1
  O  O12  1  0.32978500  0.06087600  0.12607500  1
  O  O13  1  0.38863700  0.58820700  0.79420600  1
  O  O14  1  0.79874600  0.69326600  0.50790800  1
  O  O15  1  0.58354500  0.24228200  0.51261000  1
  O  O16  1  0.94994200  0.09549400  0.22987200  1
  O  O17  1  0.67025900  0.93932200  0.87400700  1
  O  O18  1  0.65100800  0.78450200  0.20991400  1
  O  O19  1  0.41636700  0.75761400  0.48724100  1
