# generated using pymatgen
data_Na2CoCSO7
_symmetry_space_group_name_H-M   'P 1'
_cell_length_a   5.27955161
_cell_length_b   11.31335183
_cell_length_c   11.29316007
_cell_angle_alpha   106.68217013
_cell_angle_beta   91.58561731
_cell_angle_gamma   88.43534022
_symmetry_Int_Tables_number   1
_chemical_formula_structural   Na2CoCSO7
_chemical_formula_sum   'Na8 Co4 C4 S4 O28'
_cell_volume   645.76461679
_cell_formula_units_Z   4
loop_
 _symmetry_equiv_pos_site_id
 _symmetry_equiv_pos_as_xyz
  1  'x, y, z'
loop_
 _atom_site_type_symbol
 _atom_site_label
 _atom_site_symmetry_multiplicity
 _atom_site_fract_x
 _atom_site_fract_y
 _atom_site_fract_z
 _atom_site_occupancy
  Na  Na0  1  0.23254000  0.35832600  0.14483100  1
  Na  Na1  1  0.23340700  0.85805000  0.64636800  1
  Na  Na2  1  0.23249400  0.60460800  0.39142400  1
  Na  Na3  1  0.23195300  0.10580700  0.89206900  1
  Na  Na4  1  0.76708600  0.64194100  0.85559100  1
  Na  Na5  1  0.76652900  0.14183200  0.35497300  1
  Na  Na6  1  0.76703400  0.39502500  0.60842600  1
  Na  Na7  1  0.77025000  0.89401600  0.10875000  1
  Co  Co8  1  0.77443400  0.05234700  0.69672200  1
  Co  Co9  1  0.22400800  0.94846200  0.30474500  1
  Co  Co10  1  0.77431000  0.55201300  0.19709700  1
  Co  Co11  1  0.22599300  0.44811100  0.80302200  1
  C  C12  1  0.72532100  0.41658600  0.33359100  1
  C  C13  1  0.72539100  0.91688600  0.83329000  1
  C  C14  1  0.27506500  0.58352800  0.66662900  1
  C  C15  1  0.27414800  0.08354800  0.16704800  1
  S  S16  1  0.71975200  0.33536200  0.91408000  1
  S  S17  1  0.72377900  0.83616700  0.41267400  1
  S  S18  1  0.27811000  0.66366000  0.08612400  1
  S  S19  1  0.27901800  0.16459100  0.58630200  1
  O  O20  1  0.30529000  0.15237900  0.09835200  1
  O  O21  1  0.30359800  0.65244000  0.59772000  1
  O  O22  1  0.69625700  0.84800300  0.90209900  1
  O  O23  1  0.69575500  0.34761400  0.40229500  1
  O  O24  1  0.94767000  0.44676800  0.30332800  1
  O  O25  1  0.94772500  0.94611600  0.80195400  1
  O  O26  1  0.05288900  0.55316800  0.69704500  1
  O  O27  1  0.05076800  0.05541400  0.19801200  1
  O  O28  1  0.53313000  0.46552100  0.28506800  1
  O  O29  1  0.53311000  0.96660200  0.78561500  1
  O  O30  1  0.46768100  0.53501500  0.71515900  1
  O  O31  1  0.46635900  0.03277900  0.21390600  1
  O  O32  1  0.16229300  0.58752600  0.15848200  1
  O  O33  1  0.16223300  0.09149500  0.66138200  1
  O  O34  1  0.83769200  0.40930500  0.84013600  1
  O  O35  1  0.83964800  0.91035800  0.33843400  1
  O  O36  1  0.43494700  0.34630500  0.90363100  1
  O  O37  1  0.43916300  0.84597300  0.40121800  1
  O  O38  1  0.56316600  0.65459000  0.09734400  1
  O  O39  1  0.56378200  0.15197100  0.59456100  1
  O  O40  1  0.79915700  0.20338500  0.86720100  1
  O  O41  1  0.80513600  0.70445500  0.36655400  1
  O  O42  1  0.80026700  0.38168800  0.04625700  1
  O  O43  1  0.80371100  0.88349300  0.54485100  1
  O  O44  1  0.19954100  0.61777500  0.95351200  1
  O  O45  1  0.19342900  0.11764600  0.45494100  1
  O  O46  1  0.19275800  0.79443800  0.13425200  1
  O  O47  1  0.20222100  0.29691200  0.63293600  1
