# generated using pymatgen
data_Na3MnSiCO7
_symmetry_space_group_name_H-M   'P 1'
_cell_length_a   6.50423600
_cell_length_b   10.61604100
_cell_length_c   10.47932755
_cell_angle_alpha   119.36234397
_cell_angle_beta   90.00003057
_cell_angle_gamma   90.00003402
_symmetry_Int_Tables_number   1
_chemical_formula_structural   Na3MnSiCO7
_chemical_formula_sum   'Na12 Mn4 Si4 C4 O28'
_cell_volume   630.63453676
_cell_formula_units_Z   4
loop_
 _symmetry_equiv_pos_site_id
 _symmetry_equiv_pos_as_xyz
  1  'x, y, z'
loop_
 _atom_site_type_symbol
 _atom_site_label
 _atom_site_symmetry_multiplicity
 _atom_site_fract_x
 _atom_site_fract_y
 _atom_site_fract_z
 _atom_site_occupancy
  Na  Na0  1  0.24999900  0.43798700  0.09199400  1
  Na  Na1  1  0.25000100  0.93799500  0.09200200  1
  Na  Na2  1  0.74999900  0.56201000  0.90800000  1
  Na  Na3  1  0.74999800  0.06200200  0.90799400  1
  Na  Na4  1  0.00657600  0.26382500  0.26634200  1
  Na  Na5  1  0.00657400  0.76383300  0.26634800  1
  Na  Na6  1  0.49342400  0.26382400  0.26634100  1
  Na  Na7  1  0.49342500  0.76383100  0.26634500  1
  Na  Na8  1  0.50657700  0.73617700  0.73365600  1
  Na  Na9  1  0.50657500  0.23616700  0.73365100  1
  Na  Na10  1  0.99342300  0.73617400  0.73365500  1
  Na  Na11  1  0.99342700  0.23616500  0.73364600  1
  Mn  Mn12  1  0.75000300  0.06729300  0.35270600  1
  Mn  Mn13  1  0.25000000  0.93272400  0.64733200  1
  Mn  Mn14  1  0.75000000  0.56725100  0.35263600  1
  Mn  Mn15  1  0.25000100  0.43275100  0.64737300  1
  Si  Si16  1  0.25000100  0.56013500  0.42736900  1
  Si  Si17  1  0.25000200  0.06015900  0.42737800  1
  Si  Si18  1  0.75000000  0.43986300  0.57263100  1
  Si  Si19  1  0.75000000  0.93983400  0.57261700  1
  C  C20  1  0.75000000  0.38463400  0.05402300  1
  C  C21  1  0.75000000  0.88462400  0.05402800  1
  C  C22  1  0.24999900  0.61536900  0.94597500  1
  C  C23  1  0.24999900  0.11538000  0.94597200  1
  O  O24  1  0.24999900  0.16494000  0.08579500  1
  O  O25  1  0.24999900  0.66492500  0.08579500  1
  O  O26  1  0.74999900  0.83505800  0.91420000  1
  O  O27  1  0.75000000  0.33507500  0.91420100  1
  O  O28  1  0.75000100  0.52639300  0.13965300  1
  O  O29  1  0.75000200  0.02637700  0.13966000  1
  O  O30  1  0.25000000  0.47360700  0.86034800  1
  O  O31  1  0.24999900  0.97362200  0.86034100  1
  O  O32  1  0.75000000  0.30159100  0.11129500  1
  O  O33  1  0.74999900  0.80156500  0.11128300  1
  O  O34  1  0.24999900  0.69841000  0.88870100  1
  O  O35  1  0.24999900  0.19843100  0.88871200  1
  O  O36  1  0.24999900  0.42036500  0.45869500  1
  O  O37  1  0.25000000  0.92035500  0.45866500  1
  O  O38  1  0.75000100  0.57963400  0.54131000  1
  O  O39  1  0.75000000  0.07964800  0.54134600  1
  O  O40  1  0.74999900  0.28875800  0.42019800  1
  O  O41  1  0.75000000  0.78873800  0.42019800  1
  O  O42  1  0.25000100  0.71124500  0.57980000  1
  O  O43  1  0.25000100  0.21126000  0.57979800  1
  O  O44  1  0.04963100  0.53747700  0.31983000  1
  O  O45  1  0.04962500  0.03749200  0.31984300  1
  O  O46  1  0.45037000  0.53747700  0.31983000  1
  O  O47  1  0.45037600  0.03749200  0.31984200  1
  O  O48  1  0.54963100  0.46252100  0.68016700  1
  O  O49  1  0.54962800  0.96250800  0.68015600  1
  O  O50  1  0.95036800  0.46252100  0.68016800  1
  O  O51  1  0.95037200  0.96251000  0.68015600  1
