# generated using pymatgen
data_CrSn(PO4)2
_symmetry_space_group_name_H-M   'P 1'
_cell_length_a   7.96152091
_cell_length_b   7.96200104
_cell_length_c   11.25142806
_cell_angle_alpha   105.76239080
_cell_angle_beta   105.75601537
_cell_angle_gamma   101.61335043
_symmetry_Int_Tables_number   1
_chemical_formula_structural   CrSn(PO4)2
_chemical_formula_sum   'Cr4 Sn4 P8 O32'
_cell_volume   630.81013461
_cell_formula_units_Z   4
loop_
 _symmetry_equiv_pos_site_id
 _symmetry_equiv_pos_as_xyz
  1  'x, y, z'
loop_
 _atom_site_type_symbol
 _atom_site_label
 _atom_site_symmetry_multiplicity
 _atom_site_fract_x
 _atom_site_fract_y
 _atom_site_fract_z
 _atom_site_occupancy
  Cr  Cr0  1  0.19600100  0.44590000  0.21767600  1
  Cr  Cr1  1  0.30408800  0.05390400  0.78234900  1
  Cr  Cr2  1  0.69576900  0.94585100  0.21742700  1
  Cr  Cr3  1  0.80392700  0.55399500  0.78247800  1
  Sn  Sn4  1  0.74507100  0.49504900  0.28290600  1
  Sn  Sn5  1  0.24508600  0.99496400  0.28291000  1
  Sn  Sn6  1  0.75498700  0.00500600  0.71710700  1
  Sn  Sn7  1  0.25492500  0.50501600  0.71714700  1
  P  P8  1  0.37580100  0.12586600  0.10069900  1
  P  P9  1  0.87589000  0.62581700  0.10072700  1
  P  P10  1  0.12420100  0.37413200  0.89930800  1
  P  P11  1  0.62413300  0.87418300  0.89922500  1
  P  P12  1  0.03280100  0.28280000  0.40345600  1
  P  P13  1  0.53278700  0.78276000  0.40341000  1
  P  P14  1  0.46718500  0.21721800  0.59656900  1
  P  P15  1  0.96724300  0.71726900  0.59657900  1
  O  O16  1  0.71688400  0.96686000  0.04569300  1
  O  O17  1  0.21683000  0.46671000  0.04578000  1
  O  O18  1  0.78315800  0.53318500  0.95425600  1
  O  O19  1  0.28313000  0.03324500  0.95423800  1
  O  O20  1  0.54095500  0.29102700  0.13036600  1
  O  O21  1  0.04105000  0.79094800  0.13034600  1
  O  O22  1  0.95903000  0.20899300  0.86963800  1
  O  O23  1  0.45897000  0.70910000  0.86964300  1
  O  O24  1  0.67557000  0.92557900  0.38889300  1
  O  O25  1  0.17573100  0.42571700  0.38913400  1
  O  O26  1  0.82436900  0.57439700  0.61100400  1
  O  O27  1  0.32427900  0.07427900  0.61090700  1
  O  O28  1  0.43748500  0.18748400  0.44882400  1
  O  O29  1  0.93750000  0.68750700  0.44884300  1
  O  O30  1  0.06247900  0.31253600  0.55120300  1
  O  O31  1  0.56257900  0.81257900  0.55116000  1
  O  O32  1  0.24059000  0.18241900  0.17396700  1
  O  O33  1  0.74071100  0.68249300  0.17397800  1
  O  O34  1  0.43248900  0.99064500  0.17391500  1
  O  O35  1  0.93251400  0.49061600  0.17395800  1
  O  O36  1  0.06752800  0.50938400  0.82611200  1
  O  O37  1  0.56752600  0.00943000  0.82603900  1
  O  O38  1  0.25942800  0.31754800  0.82606900  1
  O  O39  1  0.75930400  0.81751300  0.82597700  1
  O  O40  1  0.03123000  0.08076000  0.33422700  1
  O  O41  1  0.53123700  0.58070900  0.33425700  1
  O  O42  1  0.83076200  0.28126900  0.33423400  1
  O  O43  1  0.33070600  0.78116600  0.33424500  1
  O  O44  1  0.46874300  0.41924900  0.66578500  1
  O  O45  1  0.96881800  0.91930900  0.66577700  1
  O  O46  1  0.66922800  0.21878200  0.66577600  1
  O  O47  1  0.16929100  0.71882900  0.66578600  1
