# generated using pymatgen
data_Na3CoBAsO7
_symmetry_space_group_name_H-M   'P 1'
_cell_length_a   5.29307494
_cell_length_b   11.39472785
_cell_length_c   11.38640119
_cell_angle_alpha   106.36316743
_cell_angle_beta   90.83927695
_cell_angle_gamma   89.13550885
_symmetry_Int_Tables_number   1
_chemical_formula_structural   Na3CoBAsO7
_chemical_formula_sum   'Na12 Co4 B4 As4 O28'
_cell_volume   658.81940657
_cell_formula_units_Z   4
loop_
 _symmetry_equiv_pos_site_id
 _symmetry_equiv_pos_as_xyz
  1  'x, y, z'
loop_
 _atom_site_type_symbol
 _atom_site_label
 _atom_site_symmetry_multiplicity
 _atom_site_fract_x
 _atom_site_fract_y
 _atom_site_fract_z
 _atom_site_occupancy
  Na  Na0  1  0.76207400  0.16563300  0.08397400  1
  Na  Na1  1  0.75815500  0.66576300  0.58467100  1
  Na  Na2  1  0.23800400  0.83439900  0.91606200  1
  Na  Na3  1  0.24175900  0.33420700  0.41534000  1
  Na  Na4  1  0.24504900  0.12234800  0.87743700  1
  Na  Na5  1  0.24343600  0.62214300  0.37774300  1
  Na  Na6  1  0.24580400  0.37241500  0.12827400  1
  Na  Na7  1  0.24308100  0.87268900  0.62764300  1
  Na  Na8  1  0.75429800  0.62760100  0.87170800  1
  Na  Na9  1  0.75697400  0.12730400  0.37236000  1
  Na  Na10  1  0.75493400  0.87764700  0.12255300  1
  Na  Na11  1  0.75643800  0.37785400  0.62227000  1
  Co  Co12  1  0.77656700  0.04206200  0.70809700  1
  Co  Co13  1  0.22346500  0.95793200  0.29186800  1
  Co  Co14  1  0.77681400  0.54194100  0.20816300  1
  Co  Co15  1  0.22313100  0.45804500  0.79183900  1
  B  B16  1  0.74034800  0.40656000  0.34324600  1
  B  B17  1  0.73739700  0.90710100  0.84326800  1
  B  B18  1  0.25958000  0.59341900  0.65675300  1
  B  B19  1  0.26266600  0.09290800  0.15671500  1
  As  As20  1  0.71324000  0.33742500  0.91275800  1
  As  As21  1  0.71414800  0.83726900  0.41300700  1
  As  As22  1  0.28674400  0.66257400  0.08726100  1
  As  As23  1  0.28587200  0.16272000  0.58697100  1
  O  O24  1  0.31453700  0.16515400  0.08489900  1
  O  O25  1  0.31079700  0.66565800  0.58488900  1
  O  O26  1  0.68552300  0.83487100  0.91509900  1
  O  O27  1  0.68909900  0.33432600  0.41511400  1
  O  O28  1  0.97759300  0.43690900  0.31187400  1
  O  O29  1  0.97514400  0.93847900  0.81337400  1
  O  O30  1  0.02234900  0.56299700  0.68806800  1
  O  O31  1  0.02492200  0.06148900  0.18657000  1
  O  O32  1  0.54630800  0.46276200  0.28877900  1
  O  O33  1  0.54423600  0.96201800  0.78703200  1
  O  O34  1  0.45364200  0.53729300  0.71128500  1
  O  O35  1  0.45582200  0.03801300  0.21297400  1
  O  O36  1  0.39105600  0.35615600  0.89347100  1
  O  O37  1  0.39214100  0.85667700  0.39433800  1
  O  O38  1  0.60892300  0.64390200  0.10660200  1
  O  O39  1  0.60789700  0.14333000  0.60562900  1
  O  O40  1  0.13135600  0.58067300  0.16891500  1
  O  O41  1  0.13041200  0.08117500  0.66887300  1
  O  O42  1  0.86859400  0.41935300  0.83111700  1
  O  O43  1  0.86962700  0.91879900  0.33109200  1
  O  O44  1  0.79098300  0.18395800  0.87031200  1
  O  O45  1  0.79154600  0.68365900  0.37071700  1
  O  O46  1  0.79038800  0.37963300  0.06639500  1
  O  O47  1  0.79244700  0.87943000  0.56655400  1
  O  O48  1  0.20963600  0.62035800  0.93361200  1
  O  O49  1  0.20752500  0.12058800  0.43343600  1
  O  O50  1  0.20905100  0.81604600  0.12967600  1
  O  O51  1  0.20846700  0.31633200  0.62932200  1
