# generated using pymatgen
data_CuCO3
_symmetry_space_group_name_H-M   'P 1'
_cell_length_a   13.84116790
_cell_length_b   13.83440898
_cell_length_c   3.38051229
_cell_angle_alpha   88.79107800
_cell_angle_beta   91.18274229
_cell_angle_gamma   119.80575092
_symmetry_Int_Tables_number   1
_chemical_formula_structural   CuCO3
_chemical_formula_sum   'Cu9 C9 O27'
_cell_volume   561.52205994
_cell_formula_units_Z   9
loop_
 _symmetry_equiv_pos_site_id
 _symmetry_equiv_pos_as_xyz
  1  'x, y, z'
loop_
 _atom_site_type_symbol
 _atom_site_label
 _atom_site_symmetry_multiplicity
 _atom_site_fract_x
 _atom_site_fract_y
 _atom_site_fract_z
 _atom_site_occupancy
  Cu  Cu0  1  0.24125900  0.78215500  0.07449300  1
  Cu  Cu1  1  0.21286200  0.45639700  0.00171400  1
  Cu  Cu2  1  0.21347700  0.09395600  0.02119000  1
  Cu  Cu3  1  0.54221000  0.75936400  0.94114100  1
  Cu  Cu4  1  0.57345400  0.46161900  0.93712700  1
  Cu  Cu5  1  0.53897400  0.11309800  0.08045800  1
  Cu  Cu6  1  0.88084000  0.78787000  0.95204600  1
  Cu  Cu7  1  0.88779400  0.42544000  0.95003800  1
  Cu  Cu8  1  0.90594500  0.11797800  0.03304200  1
  C  C9  1  0.00393100  0.66870200  0.00303300  1
  C  C10  1  0.33345400  0.66706200  0.00060400  1
  C  C11  1  0.66443200  0.99568100  0.00630200  1
  C  C12  1  0.33016900  0.33549100  0.99103600  1
  C  C13  1  0.32734600  0.99761300  0.52225700  1
  C  C14  1  0.67016500  0.67263200  0.47527000  1
  C  C15  1  0.66585800  0.33297900  0.99858900  1
  C  C16  1  0.99972700  0.99986900  0.00384500  1
  C  C17  1  0.00075900  0.32876600  0.50723100  1
  O  O18  1  0.02676700  0.92298900  0.01413300  1
  O  O19  1  0.09566200  0.76053000  0.06551900  1
  O  O20  1  0.00488000  0.57572900  0.98937900  1
  O  O21  1  0.29917000  0.89357600  0.54735700  1
  O  O22  1  0.10455200  0.40561200  0.51760200  1
  O  O23  1  0.22642600  0.60527400  0.02130700  1
  O  O24  1  0.37873900  0.77319100  0.05701200  1
  O  O25  1  0.07548200  0.10351100  0.01794600  1
  O  O26  1  0.57080200  0.99470700  0.02805600  1
  O  O27  1  0.23770500  0.33487700  0.03697700  1
  O  O28  1  0.39463300  0.62385400  0.92430600  1
  O  O29  1  0.42306400  0.42934100  0.97068400  1
  O  O30  1  0.66503000  0.90482500  0.93370200  1
  O  O31  1  0.33132000  0.24331800  0.96706600  1
  O  O32  1  0.25293800  0.02959100  0.52147000  1
  O  O33  1  0.59448800  0.70116700  0.44859400  1
  O  O34  1  0.43277300  0.07384600  0.50605100  1
  O  O35  1  0.64032900  0.56650200  0.48878100  1
  O  O36  1  0.77571600  0.74684600  0.48194600  1
  O  O37  1  0.89580400  0.97268500  0.97889600  1
  O  O38  1  0.56660500  0.31977200  0.01975400  1
  O  O39  1  0.75137800  0.43211400  0.99326200  1
  O  O40  1  0.67870600  0.24693200  0.98178300  1
  O  O41  1  0.91105700  0.66800700  0.95459100  1
  O  O42  1  0.75646800  0.08789000  0.05588300  1
  O  O43  1  0.92395000  0.35845600  0.50087700  1
  O  O44  1  0.97052700  0.22370700  0.49961200  1
