# generated using pymatgen
data_Na2NiCSO7
_symmetry_space_group_name_H-M   'P 1'
_cell_length_a   8.50118877
_cell_length_b   8.50079932
_cell_length_c   10.28182982
_cell_angle_alpha   107.35144527
_cell_angle_beta   107.34882285
_cell_angle_gamma   103.46423224
_symmetry_Int_Tables_number   1
_chemical_formula_structural   Na2NiCSO7
_chemical_formula_sum   'Na8 Ni4 C4 S4 O28'
_cell_volume   633.33319015
_cell_formula_units_Z   4
loop_
 _symmetry_equiv_pos_site_id
 _symmetry_equiv_pos_as_xyz
  1  'x, y, z'
loop_
 _atom_site_type_symbol
 _atom_site_label
 _atom_site_symmetry_multiplicity
 _atom_site_fract_x
 _atom_site_fract_y
 _atom_site_fract_z
 _atom_site_occupancy
  Na  Na0  1  0.72162700  0.72384600  0.21438200  1
  Na  Na1  1  0.22162900  0.22379900  0.21433100  1
  Na  Na2  1  0.47380800  0.97161600  0.21433500  1
  Na  Na3  1  0.97380800  0.47163200  0.21437000  1
  Na  Na4  1  0.02619500  0.52839200  0.78566700  1
  Na  Na5  1  0.52619100  0.02836400  0.78562800  1
  Na  Na6  1  0.77837800  0.77615900  0.78562100  1
  Na  Na7  1  0.27836500  0.27619800  0.78566200  1
  Ni  Ni8  1  0.44039700  0.69042000  0.35396900  1
  Ni  Ni9  1  0.05959200  0.80956700  0.64602400  1
  Ni  Ni10  1  0.94035700  0.19036400  0.35386100  1
  Ni  Ni11  1  0.55962200  0.30962000  0.64614300  1
  C  C12  1  0.77836100  0.02836500  0.08403700  1
  C  C13  1  0.27836600  0.52836900  0.08410700  1
  C  C14  1  0.72164200  0.47164100  0.91597000  1
  C  C15  1  0.22163400  0.97163000  0.91588600  1
  S  S16  1  0.69853900  0.44852100  0.42339800  1
  S  S17  1  0.19856900  0.94856500  0.42336000  1
  S  S18  1  0.80146200  0.05147900  0.57660300  1
  S  S19  1  0.30143200  0.55143600  0.57663700  1
  O  O20  1  0.30713500  0.05712600  0.05401000  1
  O  O21  1  0.80713600  0.55714600  0.05408900  1
  O  O22  1  0.19287100  0.44287700  0.94598500  1
  O  O23  1  0.69286700  0.94285900  0.94591600  1
  O  O24  1  0.92008500  0.17007500  0.14293900  1
  O  O25  1  0.42009400  0.67007600  0.14302100  1
  O  O26  1  0.57991800  0.32992900  0.85707100  1
  O  O27  1  0.07990900  0.82992400  0.85697800  1
  O  O28  1  0.73251800  0.98254600  0.18329100  1
  O  O29  1  0.23252900  0.48255500  0.18336000  1
  O  O30  1  0.76748000  0.51745500  0.81671200  1
  O  O31  1  0.26746700  0.01744000  0.81663100  1
  O  O32  1  0.66777700  0.91777300  0.42828100  1
  O  O33  1  0.16781600  0.41774400  0.42830000  1
  O  O34  1  0.83222500  0.58222900  0.57171900  1
  O  O35  1  0.33218400  0.08225500  0.57169900  1
  O  O36  1  0.56732400  0.31719100  0.44603000  1
  O  O37  1  0.06729300  0.81717800  0.44592400  1
  O  O38  1  0.93268100  0.18281000  0.55397600  1
  O  O39  1  0.43270800  0.68282400  0.55407300  1
  O  O40  1  0.60586900  0.53604100  0.33730200  1
  O  O41  1  0.10589600  0.03605100  0.33723400  1
  O  O42  1  0.78610100  0.35599000  0.33725000  1
  O  O43  1  0.28616300  0.85603600  0.33726800  1
  O  O44  1  0.71390300  0.14401200  0.66275400  1
  O  O45  1  0.21384000  0.64396600  0.66273100  1
  O  O46  1  0.89413300  0.96395900  0.66269900  1
  O  O47  1  0.39410500  0.46395200  0.66276600  1
