# generated using pymatgen
data_Mg(NiS2)2
_symmetry_space_group_name_H-M   'P 1'
_cell_length_a   6.96816153
_cell_length_b   6.97346243
_cell_length_c   6.95664426
_cell_angle_alpha   60.06775954
_cell_angle_beta   60.18120352
_cell_angle_gamma   60.14325248
_symmetry_Int_Tables_number   1
_chemical_formula_structural   Mg(NiS2)2
_chemical_formula_sum   'Mg2 Ni4 S8'
_cell_volume   239.73693600
_cell_formula_units_Z   2
loop_
 _symmetry_equiv_pos_site_id
 _symmetry_equiv_pos_as_xyz
  1  'x, y, z'
loop_
 _atom_site_type_symbol
 _atom_site_label
 _atom_site_symmetry_multiplicity
 _atom_site_fract_x
 _atom_site_fract_y
 _atom_site_fract_z
 _atom_site_occupancy
  Mg  Mg0  1  0.87331145  0.87827811  0.87340236  1
  Mg  Mg1  1  0.12435696  0.12220645  0.12394650  1
  Ni  Ni2  1  0.50085840  0.50079409  0.50061666  1
  Ni  Ni3  1  0.49965105  0.49989517  0.00110899  1
  Ni  Ni4  1  0.00090799  0.49992650  0.49974229  1
  Ni  Ni5  1  0.49994455  0.99942704  0.49970233  1
  S  S6  1  0.73269531  0.73422354  0.73345810  1
  S  S7  1  0.26723894  0.26668962  0.70055950  1
  S  S8  1  0.26784194  0.69896890  0.26784625  1
  S  S9  1  0.70111262  0.26580785  0.26727919  1
  S  S10  1  0.73357655  0.30137350  0.73387015  1
  S  S11  1  0.29745160  0.73460943  0.73460989  1
  S  S12  1  0.26633075  0.26437149  0.26579325  1
  S  S13  1  0.73472588  0.73342331  0.29806653  1
