# generated using pymatgen
data_V4ZnS8
_symmetry_space_group_name_H-M   'P 1'
_cell_length_a   7.46767078
_cell_length_b   7.46767082
_cell_length_c   7.46767137
_cell_angle_alpha   50.88477291
_cell_angle_beta   50.88476494
_cell_angle_gamma   50.88477191
_symmetry_Int_Tables_number   1
_chemical_formula_structural   V4ZnS8
_chemical_formula_sum   'V4 Zn1 S8'
_cell_volume   231.17684115
_cell_formula_units_Z   1
loop_
 _symmetry_equiv_pos_site_id
 _symmetry_equiv_pos_as_xyz
  1  'x, y, z'
loop_
 _atom_site_type_symbol
 _atom_site_label
 _atom_site_symmetry_multiplicity
 _atom_site_fract_x
 _atom_site_fract_y
 _atom_site_fract_z
 _atom_site_occupancy
  V  V0  1  0.50000100  0.99999900  0.50000100  1
  V  V1  1  0.99999900  0.50000000  0.50000100  1
  V  V2  1  0.50000000  0.50000000  0.00000000  1
  V  V3  1  0.00000000  0.00000000  0.00000000  1
  Zn  Zn4  1  0.50000000  0.50000100  0.49999900  1
  S  S5  1  0.75476700  0.26129700  0.75476700  1
  S  S6  1  0.24523200  0.24523300  0.73870300  1
  S  S7  1  0.24523200  0.73870400  0.24523200  1
  S  S8  1  0.73870200  0.24523300  0.24523300  1
  S  S9  1  0.25820600  0.25820700  0.25820600  1
  S  S10  1  0.74179400  0.74179400  0.74179400  1
  S  S11  1  0.26129800  0.75476800  0.75476700  1
  S  S12  1  0.75476800  0.75476800  0.26129700  1
