# generated using pymatgen
data_YCu3(WO4)6
_symmetry_space_group_name_H-M   'P 1'
_cell_length_a   14.76014327
_cell_length_b   6.30486381
_cell_length_c   6.13584189
_cell_angle_alpha   110.99178928
_cell_angle_beta   116.70577236
_cell_angle_gamma   92.85567214
_symmetry_Int_Tables_number   1
_chemical_formula_structural   YCu3(WO4)6
_chemical_formula_sum   'Y1 Cu3 W6 O24'
_cell_volume   460.77587507
_cell_formula_units_Z   1
loop_
 _symmetry_equiv_pos_site_id
 _symmetry_equiv_pos_as_xyz
  1  'x, y, z'
loop_
 _atom_site_type_symbol
 _atom_site_label
 _atom_site_symmetry_multiplicity
 _atom_site_fract_x
 _atom_site_fract_y
 _atom_site_fract_z
 _atom_site_occupancy
  Y  Y0  1  0.87478620  0.72311038  0.09872019  1
  Cu  Cu1  1  0.04323994  0.22423591  0.10385819  1
  Cu  Cu2  1  0.37485569  0.22300695  0.09975405  1
  Cu  Cu3  1  0.70682421  0.22293021  0.09581299  1
  W  W4  1  0.29178374  0.40510771  0.60446039  1
  W  W5  1  0.61260824  0.38072287  0.57707692  1
  W  W6  1  0.96158524  0.40562688  0.60436164  1
  W  W7  1  0.13728541  0.06600864  0.62180465  1
  W  W8  1  0.45835504  0.04149672  0.59564535  1
  W  W9  1  0.78785339  0.03961993  0.59456657  1
  O  O10  1  0.04206347  0.68856415  0.80737811  1
  O  O11  1  0.37319598  0.68978208  0.79808543  1
  O  O12  1  0.71218989  0.66240339  0.79000752  1
  O  O13  1  0.17583535  0.44212605  0.32313928  1
  O  O14  1  0.50691459  0.43475487  0.30740032  1
  O  O15  1  0.84944164  0.44523404  0.31154365  1
  O  O16  1  0.05156865  0.21744061  0.80261602  1
  O  O17  1  0.38389343  0.20858174  0.79552629  1
  O  O18  1  0.71931033  0.20805776  0.79865020  1
  O  O19  1  0.18340325  0.04355555  0.38515319  1
  O  O20  1  0.51875343  0.04032003  0.38099219  1
  O  O21  1  0.85361290  0.03445971  0.38603988  1
  O  O22  1  0.24268519  0.01141861  0.89157473  1
  O  O23  1  0.57453495  0.00553043  0.87725872  1
  O  O24  1  0.89956439  0.99952049  0.88775876  1
  O  O25  1  0.03727459  0.78498078  0.40853336  1
  O  O26  1  0.37737459  0.75689442  0.40339249  1
  O  O27  1  0.70627805  0.75789119  0.38918590  1
  O  O28  1  0.03055705  0.23918579  0.40068650  1
  O  O29  1  0.36603001  0.23761186  0.40431009  1
  O  O30  1  0.69861003  0.22963023  0.39723800  1
  O  O31  1  0.23126106  0.40613082  0.81873503  1
  O  O32  1  0.56648084  0.40337633  0.81380486  1
  O  O33  1  0.89642726  0.41044187  0.81425455  1
