# generated using pymatgen
data_Mn13Si2(SbO14)2
_symmetry_space_group_name_H-M   'P 1'
_cell_length_a   5.58741780
_cell_length_b   8.84550620
_cell_length_c   11.75375328
_cell_angle_alpha   87.52253280
_cell_angle_beta   76.10954960
_cell_angle_gamma   79.00803641
_symmetry_Int_Tables_number   1
_chemical_formula_structural   Mn13Si2(SbO14)2
_chemical_formula_sum   'Mn13 Si2 Sb2 O28'
_cell_volume   553.57641618
_cell_formula_units_Z   1
loop_
 _symmetry_equiv_pos_site_id
 _symmetry_equiv_pos_as_xyz
  1  'x, y, z'
loop_
 _atom_site_type_symbol
 _atom_site_label
 _atom_site_symmetry_multiplicity
 _atom_site_fract_x
 _atom_site_fract_y
 _atom_site_fract_z
 _atom_site_occupancy
  Mn  Mn0  1  0.95883741  0.63055296  0.68356557  1
  Mn  Mn1  1  0.64900720  0.35352958  0.14846904  1
  Mn  Mn2  1  0.35725666  0.36567826  0.68332809  1
  Mn  Mn3  1  0.03570426  0.36820004  0.31908265  1
  Mn  Mn4  1  0.35552112  0.64555212  0.85067881  1
  Mn  Mn5  1  0.28599346  -0.00185345  0.42845641  1
  Mn  Mn6  1  0.20389309  0.64361233  0.14896799  1
  Mn  Mn7  1  0.00100815  -0.00054941  0.00090098  1
  Mn  Mn8  1  0.42390488  0.00095662  0.14864808  1
  Mn  Mn9  1  0.79425346  0.35365951  0.85371219  1
  Mn  Mn10  1  0.63615126  0.63255798  0.31498877  1
  Mn  Mn11  1  0.57848325  0.99877201  0.85158027  1
  Mn  Mn12  1  0.71401102  0.00066072  0.57130618  1
  Si  Si13  1  0.23359805  0.31719218  0.00042909  1
  Si  Si14  1  0.77114222  0.68243207  0.00048993  1
  Sb  Sb15  1  0.85359618  -0.00017226  0.29227307  1
  Sb  Sb16  1  0.14873858  0.99749413  0.70829372  1
  O  O17  1  0.70362374  0.40675100  0.30026517  1
  O  O18  1  0.19167071  0.35948430  0.42676951  1
  O  O19  1  0.93621930  0.34875701  0.00093749  1
  O  O20  1  0.31751665  0.12644175  0.00058846  1
  O  O21  1  0.82053069  0.63912861  0.57029979  1
  O  O22  1  0.29083132  0.59050639  0.70079988  1
  O  O23  1  0.00238786  0.09858805  0.57764793  1
  O  O24  1  0.00804645  0.89755940  0.41962608  1
  O  O25  1  0.68717880  0.87257042  0.00022428  1
  O  O26  1  0.11854454  0.88390280  0.16025612  1
  O  O27  1  0.28531012  0.38597504  0.11998892  1
  O  O28  1  0.98494274  0.59304880  0.29878646  1
  O  O29  1  0.43029771  0.89552301  0.58052400  1
  O  O30  1  0.72263137  0.11386705  0.15940581  1
  O  O31  1  0.60001872  0.61517868  0.12134162  1
  O  O32  1  0.06941629  0.64972382  -0.00103659  1
  O  O33  1  0.28405548  0.88573920  0.84154448  1
  O  O34  1  0.88020780  0.11367806  0.83975020  1
  O  O35  1  0.57520468  0.09963403  0.42289190  1
  O  O36  1  0.11435598  0.13693200  0.28919532  1
  O  O37  1  0.88406960  0.86209334  0.71119436  1
  O  O38  1  0.40236797  0.38418259  0.87938486  1
  O  O39  1  0.40661738  0.13486058  0.71085910  1
  O  O40  1  0.61078743  0.35462620  0.56967461  1
  O  O41  1  0.71999975  0.61332080  0.88093241  1
  O  O42  1  0.58575540  0.86649921  0.28979355  1
  O  O43  1  0.00639284  0.40553909  0.70338752  1
  O  O44  1  0.38094848  0.64153937  0.42730492  1
