# generated using pymatgen
data_MgCr4(CuO4)3
_symmetry_space_group_name_H-M   'P 1'
_cell_length_a   6.34356174
_cell_length_b   6.35495103
_cell_length_c   6.35483135
_cell_angle_alpha   109.50438499
_cell_angle_beta   109.43267513
_cell_angle_gamma   109.43538860
_symmetry_Int_Tables_number   1
_chemical_formula_structural   MgCr4(CuO4)3
_chemical_formula_sum   'Mg1 Cr4 Cu3 O12'
_cell_volume   197.30952476
_cell_formula_units_Z   1
loop_
 _symmetry_equiv_pos_site_id
 _symmetry_equiv_pos_as_xyz
  1  'x, y, z'
loop_
 _atom_site_type_symbol
 _atom_site_label
 _atom_site_symmetry_multiplicity
 _atom_site_fract_x
 _atom_site_fract_y
 _atom_site_fract_z
 _atom_site_occupancy
  Mg  Mg0  1  0.00000700  0.00000000  0.00000100  1
  Cr  Cr1  1  0.99999900  0.00000000  0.50000100  1
  Cr  Cr2  1  0.99999500  0.50000300  0.99999800  1
  Cr  Cr3  1  0.49999400  0.49999900  0.49999900  1
  Cr  Cr4  1  0.50000200  0.99999900  0.99999400  1
  Cu  Cu5  1  0.49999700  0.49999500  0.00000300  1
  Cu  Cu6  1  0.00000400  0.50000400  0.50000300  1
  Cu  Cu7  1  0.49999900  0.99999700  0.49999700  1
  O  O8  1  0.83226000  0.30895600  0.13992900  1
  O  O9  1  0.16774000  0.69104900  0.86007500  1
  O  O10  1  0.83125200  0.69121400  0.52234300  1
  O  O11  1  0.30883700  0.47767900  0.16881400  1
  O  O12  1  0.47669100  0.16901700  0.30893700  1
  O  O13  1  0.14005600  0.83123800  0.30888400  1
  O  O14  1  0.69234600  0.86003000  0.16901800  1
  O  O15  1  0.52331400  0.83098500  0.69106700  1
  O  O16  1  0.16874700  0.30878000  0.47765800  1
  O  O17  1  0.69116200  0.52232200  0.83118600  1
  O  O18  1  0.85994400  0.16876300  0.69111400  1
  O  O19  1  0.30765500  0.13997000  0.83097900  1
