# generated using pymatgen
data_Ba2Ca3Tl2(CoO3)4
_symmetry_space_group_name_H-M   'P 1'
_cell_length_a   3.85159110
_cell_length_b   3.85159104
_cell_length_c   22.01793111
_cell_angle_alpha   95.01777595
_cell_angle_beta   95.01777659
_cell_angle_gamma   89.99999532
_symmetry_Int_Tables_number   1
_chemical_formula_structural   Ba2Ca3Tl2(CoO3)4
_chemical_formula_sum   'Ba2 Ca3 Tl2 Co4 O12'
_cell_volume   324.12220020
_cell_formula_units_Z   1
loop_
 _symmetry_equiv_pos_site_id
 _symmetry_equiv_pos_as_xyz
  1  'x, y, z'
loop_
 _atom_site_type_symbol
 _atom_site_label
 _atom_site_symmetry_multiplicity
 _atom_site_fract_x
 _atom_site_fract_y
 _atom_site_fract_z
 _atom_site_occupancy
  Ba  Ba0  1  0.15896057  0.15896057  0.31792015  1
  Ba  Ba1  1  0.84103943  0.84103943  0.68207985  1
  Ca  Ca2  1  0.07518158  0.07518158  0.15036316  1
  Ca  Ca3  1  0.92481842  0.92481842  0.84963684  1
  Ca  Ca4  1  0.00000000  0.00000000  0.00000000  1
  Tl  Tl5  1  0.72354594  0.72354594  0.44709089  1
  Tl  Tl6  1  0.27645406  0.27645406  0.55290911  1
  Co  Co7  1  0.53739580  0.53739580  0.07479161  1
  Co  Co8  1  0.39040112  0.39040112  0.78080223  1
  Co  Co9  1  0.60959888  0.60959888  0.21919777  1
  Co  Co10  1  0.46260420  0.46260420  0.92520839  1
  O  O11  1  0.39028401  0.89028401  0.78056803  1
  O  O12  1  0.53697321  0.03697321  0.07394742  1
  O  O13  1  0.22754986  0.22754986  0.45509971  1
  O  O14  1  0.96302679  0.46302679  0.92605258  1
  O  O15  1  0.77245014  0.77245014  0.54490029  1
  O  O16  1  0.10971599  0.60971599  0.21943197  1
  O  O17  1  0.60971599  0.10971599  0.21943197  1
  O  O18  1  0.32450237  0.32450237  0.64900475  1
  O  O19  1  0.89028401  0.39028401  0.78056803  1
  O  O20  1  0.03697321  0.53697321  0.07394742  1
  O  O21  1  0.46302679  0.96302679  0.92605258  1
  O  O22  1  0.67549763  0.67549763  0.35099525  1
