# generated using pymatgen
data_Ba2CaTl2(CuO3)4
_symmetry_space_group_name_H-M   'P 1'
_cell_length_a   3.76136181
_cell_length_b   3.76136186
_cell_length_c   22.93495359
_cell_angle_alpha   94.70358001
_cell_angle_beta   94.70357981
_cell_angle_gamma   89.99999571
_symmetry_Int_Tables_number   1
_chemical_formula_structural   Ba2CaTl2(CuO3)4
_chemical_formula_sum   'Ba2 Ca1 Tl2 Cu4 O12'
_cell_volume   322.29088856
_cell_formula_units_Z   1
loop_
 _symmetry_equiv_pos_site_id
 _symmetry_equiv_pos_as_xyz
  1  'x, y, z'
loop_
 _atom_site_type_symbol
 _atom_site_label
 _atom_site_symmetry_multiplicity
 _atom_site_fract_x
 _atom_site_fract_y
 _atom_site_fract_z
 _atom_site_occupancy
  Ba  Ba0  1  0.84530050  0.84530050  0.69060101  1
  Ba  Ba1  1  0.15469950  0.15469950  0.30939899  1
  Ca  Ca2  1  0.00000000  0.00000000  0.00000000  1
  Tl  Tl3  1  0.72305724  0.72305724  0.44611448  1
  Tl  Tl4  1  0.27694276  0.27694276  0.55388552  1
  Cu  Cu5  1  0.39590307  0.39590307  0.79180514  1
  Cu  Cu6  1  0.54197267  0.54197267  0.08394434  1
  Cu  Cu7  1  0.60409693  0.60409693  0.20819486  1
  Cu  Cu8  1  0.45802733  0.45802733  0.91605566  1
  O  O9  1  0.46675055  0.96675055  0.93350211  1
  O  O10  1  0.67718343  0.67718343  0.35436686  1
  O  O11  1  0.53324945  0.03324945  0.06649789  1
  O  O12  1  0.96675055  0.46675055  0.93350211  1
  O  O13  1  0.32281657  0.32281657  0.64563314  1
  O  O14  1  0.11257019  0.61257019  0.22514037  1
  O  O15  1  0.75000000  0.25000000  0.50000000  1
  O  O16  1  0.61257019  0.11257019  0.22514037  1
  O  O17  1  0.88742981  0.38742981  0.77485963  1
  O  O18  1  0.03324945  0.53324945  0.06649789  1
  O  O19  1  0.38742981  0.88742981  0.77485963  1
  O  O20  1  0.25000000  0.75000000  0.50000000  1
