# generated using pymatgen
data_CaMn2(P2O7)2
_symmetry_space_group_name_H-M   'P 1'
_cell_length_a   6.28883271
_cell_length_b   7.50097646
_cell_length_c   6.27255474
_cell_angle_alpha   65.54725057
_cell_angle_beta   82.90136808
_cell_angle_gamma   85.34418644
_symmetry_Int_Tables_number   1
_chemical_formula_structural   CaMn2(P2O7)2
_chemical_formula_sum   'Ca1 Mn2 P4 O14'
_cell_volume   267.13859061
_cell_formula_units_Z   1
loop_
 _symmetry_equiv_pos_site_id
 _symmetry_equiv_pos_as_xyz
  1  'x, y, z'
loop_
 _atom_site_type_symbol
 _atom_site_label
 _atom_site_symmetry_multiplicity
 _atom_site_fract_x
 _atom_site_fract_y
 _atom_site_fract_z
 _atom_site_occupancy
  Ca  Ca0  1  0.33275000  0.57456200  0.35195800  1
  Mn  Mn1  1  0.15352800  0.25911900  0.07616200  1
  Mn  Mn2  1  0.84993800  0.74531900  0.91326300  1
  P  P3  1  0.88080200  0.85694700  0.35214900  1
  P  P4  1  0.11573600  0.15275900  0.64187400  1
  P  P5  1  0.64410000  0.25094300  0.20090400  1
  P  P6  1  0.35758100  0.76376300  0.78600500  1
  O  O7  1  0.91285600  0.04331100  0.75300700  1
  O  O8  1  0.09507700  0.95155700  0.23522500  1
  O  O9  1  0.18029900  0.29161600  0.74696900  1
  O  O10  1  0.80883500  0.73091800  0.23322800  1
  O  O11  1  0.12395900  0.28815700  0.37532900  1
  O  O12  1  0.89059900  0.72108100  0.61483300  1
  O  O13  1  0.46479800  0.25688200  0.04987200  1
  O  O14  1  0.53443700  0.73575000  0.95009800  1
  O  O15  1  0.69962700  0.01965200  0.34486500  1
  O  O16  1  0.31123600  0.99535500  0.66584700  1
  O  O17  1  0.85078400  0.33995600  0.03967600  1
  O  O18  1  0.41432300  0.68917800  0.60009900  1
  O  O19  1  0.57996500  0.33913700  0.37530300  1
  O  O20  1  0.15965100  0.66613200  0.96363400  1
