# generated using pymatgen
data_MgCr(SiO3)2
_symmetry_space_group_name_H-M   'P 1'
_cell_length_a   5.31410655
_cell_length_b   6.89711986
_cell_length_c   6.89755970
_cell_angle_alpha   87.39581935
_cell_angle_beta   75.79367855
_cell_angle_gamma   75.79495751
_symmetry_Int_Tables_number   1
_chemical_formula_structural   MgCr(SiO3)2
_chemical_formula_sum   'Mg2 Cr2 Si4 O12'
_cell_volume   237.55522896
_cell_formula_units_Z   2
loop_
 _symmetry_equiv_pos_site_id
 _symmetry_equiv_pos_as_xyz
  1  'x, y, z'
loop_
 _atom_site_type_symbol
 _atom_site_label
 _atom_site_symmetry_multiplicity
 _atom_site_fract_x
 _atom_site_fract_y
 _atom_site_fract_z
 _atom_site_occupancy
  Mg  Mg0  1  0.75001000  0.24437300  0.75563300  1
  Mg  Mg1  1  0.25000100  0.75559400  0.24439800  1
  Cr  Cr2  1  0.75000900  0.89785800  0.10214500  1
  Cr  Cr3  1  0.24999300  0.10191000  0.89808700  1
  Si  Si4  1  0.24031300  0.20983000  0.38357700  1
  Si  Si5  1  0.25967900  0.61642900  0.79016900  1
  Si  Si6  1  0.74037000  0.38354600  0.20976800  1
  Si  Si7  1  0.75963600  0.79023700  0.61645100  1
  O  O8  1  0.49303700  0.31390200  0.37375100  1
  O  O9  1  0.00695800  0.62624600  0.68610700  1
  O  O10  1  0.50694100  0.68616800  0.62615600  1
  O  O11  1  0.99306300  0.37385100  0.31382100  1
  O  O12  1  0.12408100  0.14908200  0.61021300  1
  O  O13  1  0.37590800  0.38977500  0.85091800  1
  O  O14  1  0.87597200  0.85096700  0.38979900  1
  O  O15  1  0.62404000  0.61020800  0.14902400  1
  O  O16  1  0.84937600  0.21798000  0.02347700  1
  O  O17  1  0.65060500  0.97654000  0.78199500  1
  O  O18  1  0.34930600  0.02349700  0.21801200  1
  O  O19  1  0.15069600  0.78200900  0.97649800  1
