# generated using pymatgen
data_Ta4Mn2Zn3O16
_symmetry_space_group_name_H-M   'P 1'
_cell_length_a   5.92044854
_cell_length_b   10.09060328
_cell_length_c   10.41718855
_cell_angle_alpha   89.53424532
_cell_angle_beta   92.32535452
_cell_angle_gamma   104.69682976
_symmetry_Int_Tables_number   1
_chemical_formula_structural   Ta4Mn2Zn3O16
_chemical_formula_sum   'Ta8 Mn4 Zn6 O32'
_cell_volume   601.47339017
_cell_formula_units_Z   2
loop_
 _symmetry_equiv_pos_site_id
 _symmetry_equiv_pos_as_xyz
  1  'x, y, z'
loop_
 _atom_site_type_symbol
 _atom_site_label
 _atom_site_symmetry_multiplicity
 _atom_site_fract_x
 _atom_site_fract_y
 _atom_site_fract_z
 _atom_site_occupancy
  Ta  Ta0  1  0.27772100  0.22980000  0.37003300  1
  Ta  Ta1  1  0.27767000  0.22979500  0.87007300  1
  Ta  Ta2  1  0.04509200  0.76616100  0.38854000  1
  Ta  Ta3  1  0.04507900  0.76615500  0.88847800  1
  Ta  Ta4  1  0.73008600  0.76433700  0.12915100  1
  Ta  Ta5  1  0.73013600  0.76438400  0.62916600  1
  Ta  Ta6  1  0.95681700  0.23796200  0.11772300  1
  Ta  Ta7  1  0.95684300  0.23797300  0.61768800  1
  Mn  Mn8  1  0.65029400  0.99958500  0.87389000  1
  Mn  Mn9  1  0.35367300  0.99698900  0.12788200  1
  Mn  Mn10  1  0.65025400  0.99965100  0.37376500  1
  Mn  Mn11  1  0.35453100  0.99733400  0.62801000  1
  Zn  Zn12  1  0.44008800  0.57155900  0.38374100  1
  Zn  Zn13  1  0.44000500  0.57150900  0.88371100  1
  Zn  Zn14  1  0.88296700  0.44749800  0.35720700  1
  Zn  Zn15  1  0.88292700  0.44747200  0.85721000  1
  Zn  Zn16  1  0.54307900  0.43914300  0.11440400  1
  Zn  Zn17  1  0.54310500  0.43914500  0.61442700  1
  O  O18  1  0.21045500  0.13215100  0.03736600  1
  O  O19  1  0.21065100  0.13228000  0.53731000  1
  O  O20  1  0.03730700  0.86525000  0.22272200  1
  O  O21  1  0.03738300  0.86526100  0.72271700  1
  O  O22  1  0.80072300  0.87212600  0.46181800  1
  O  O23  1  0.80065600  0.87216500  0.96180800  1
  O  O24  1  0.97176000  0.13435600  0.28044400  1
  O  O25  1  0.97186100  0.13434700  0.78048500  1
  O  O26  1  0.44324200  0.10785200  0.29070400  1
  O  O27  1  0.44346800  0.10804300  0.79068600  1
  O  O28  1  0.31275900  0.88840500  0.47094000  1
  O  O29  1  0.31265500  0.88835700  0.97096300  1
  O  O30  1  0.56112700  0.89316500  0.21100000  1
  O  O31  1  0.56132800  0.89336000  0.71096000  1
  O  O32  1  0.70270400  0.11356400  0.02823700  1
  O  O33  1  0.70277400  0.11355000  0.52828600  1
  O  O34  1  0.27199000  0.34370400  0.21177100  1
  O  O35  1  0.27202500  0.34370600  0.71180800  1
  O  O36  1  0.92804200  0.66483400  0.04177300  1
  O  O37  1  0.92812400  0.66484900  0.54179400  1
  O  O38  1  0.80077500  0.36447200  0.18164800  1
  O  O39  1  0.80076800  0.36446600  0.68164900  1
  O  O40  1  0.47240400  0.61765200  0.07032600  1
  O  O41  1  0.47252200  0.61768400  0.57032900  1
  O  O42  1  0.15216600  0.61326100  0.33256400  1
  O  O43  1  0.15208300  0.61325100  0.83254600  1
  O  O44  1  0.54958800  0.38599400  0.42453200  1
  O  O45  1  0.54955700  0.38601000  0.92455300  1
  O  O46  1  0.07434800  0.34100700  0.45938900  1
  O  O47  1  0.07431900  0.34100700  0.95947700  1
  O  O48  1  0.72219300  0.65313000  0.29144100  1
  O  O49  1  0.72216200  0.65311700  0.79145200  1
