# generated using pymatgen
data_Te4Mo(WSe)2
_symmetry_space_group_name_H-M   'P 1'
_cell_length_a   3.47740977
_cell_length_b   3.47740946
_cell_length_c   32.07518692
_cell_angle_alpha   90.00001092
_cell_angle_beta   90.00000000
_cell_angle_gamma   120.00000281
_symmetry_Int_Tables_number   1
_chemical_formula_structural   Te4Mo(WSe)2
_chemical_formula_sum   'Te4 Mo1 W2 Se2'
_cell_volume   335.90117038
_cell_formula_units_Z   1
loop_
 _symmetry_equiv_pos_site_id
 _symmetry_equiv_pos_as_xyz
  1  'x, y, z'
loop_
 _atom_site_type_symbol
 _atom_site_label
 _atom_site_symmetry_multiplicity
 _atom_site_fract_x
 _atom_site_fract_y
 _atom_site_fract_z
 _atom_site_occupancy
  Te  Te0  1  0.666647  0.333293  0.058310  1
  Te  Te1  1  0.666646  0.333291  0.520585  1
  Te  Te2  1  0.666648  0.333294  0.173009  1
  Te  Te3  1  0.666647  0.333292  0.636035  1
  Mo  Mo4  1  0.333309  0.666619  0.115649  1
  W  W5  1  0.333310  0.666621  0.578316  1
  W  W6  1  0.666688  0.333375  0.346979  1
  Se  Se7  1  0.333353  0.666708  0.397799  1
  Se  Se8  1  0.333353  0.666707  0.296158  1
