# generated using pymatgen
data_Th7Rh3
_symmetry_space_group_name_H-M   'P 1'
_cell_length_a   10.03778080
_cell_length_b   10.03778080
_cell_length_c   6.30086558
_cell_angle_alpha   90.00000000
_cell_angle_beta   90.00000000
_cell_angle_gamma   120.00000000
_symmetry_Int_Tables_number   1
_chemical_formula_structural   Th7Rh3
_chemical_formula_sum   'Th14 Rh6'
_cell_volume   549.80193176
_cell_formula_units_Z   2
loop_
 _symmetry_equiv_pos_site_id
 _symmetry_equiv_pos_as_xyz
  1  'x, y, z'
loop_
 _atom_site_type_symbol
 _atom_site_label
 _atom_site_symmetry_multiplicity
 _atom_site_fract_x
 _atom_site_fract_y
 _atom_site_fract_z
 _atom_site_occupancy
  Rh  Rh0  1  0.186100  0.813900  0.551541  1
  Rh  Rh1  1  0.372200  0.186100  0.051541  1
  Rh  Rh2  1  0.813900  0.627800  0.051541  1
  Rh  Rh3  1  0.186100  0.372200  0.551541  1
  Rh  Rh4  1  0.627800  0.813900  0.551541  1
  Rh  Rh5  1  0.813900  0.186100  0.051541  1
  Th  Th6  1  0.744435  0.872218  0.997263  1
  Th  Th7  1  0.872218  0.127782  0.497263  1
  Th  Th8  1  0.542728  0.457272  0.791430  1
  Th  Th9  1  0.085456  0.542728  0.291430  1
  Th  Th10  1  0.457272  0.914544  0.291430  1
  Th  Th11  1  0.542728  0.085456  0.791430  1
  Th  Th12  1  0.914544  0.457272  0.791430  1
  Th  Th13  1  0.457272  0.542728  0.291430  1
  Th  Th14  1  0.127782  0.255565  0.997263  1
  Th  Th15  1  0.872218  0.744435  0.497263  1
  Th  Th16  1  0.255565  0.127782  0.497263  1
  Th  Th17  1  0.127782  0.872218  0.997263  1
  Th  Th18  1  0.666667  0.333333  0.321300  1
  Th  Th19  1  0.333333  0.666667  0.821300  1
