# generated using pymatgen
data_TeMoWSeS2
_symmetry_space_group_name_H-M   'P 1'
_cell_length_a   3.30387658
_cell_length_b   3.30384683
_cell_length_c   37.65470899
_cell_angle_alpha   90.00053798
_cell_angle_beta   90.00000000
_cell_angle_gamma   120.00029784
_symmetry_Int_Tables_number   1
_chemical_formula_structural   TeMoWSeS2
_chemical_formula_sum   'Te2 Mo2 W2 Se2 S4'
_cell_volume   355.95274324
_cell_formula_units_Z   2
loop_
 _symmetry_equiv_pos_site_id
 _symmetry_equiv_pos_as_xyz
  1  'x, y, z'
loop_
 _atom_site_type_symbol
 _atom_site_label
 _atom_site_symmetry_multiplicity
 _atom_site_fract_x
 _atom_site_fract_y
 _atom_site_fract_z
 _atom_site_occupancy
  Te  Te0  1  0.666638  0.333276  0.418929  1
  Te  Te1  1  0.666646  0.333292  0.520421  1
  Mo  Mo2  1  0.333310  0.666619  0.469687  1
  Mo  Mo3  1  0.666687  0.333374  0.281756  1
  W  W4  1  0.333310  0.666620  0.093931  1
  W  W5  1  0.666694  0.333387  0.657561  1
  Se  Se6  1  0.333366  0.666733  0.326356  1
  Se  Se7  1  0.333350  0.666700  0.237164  1
  S  S8  1  0.333354  0.666709  0.698304  1
  S  S9  1  0.666645  0.333288  0.053163  1
  S  S10  1  0.666646  0.333290  0.134691  1
  S  S11  1  0.333355  0.666712  0.616785  1
