# generated using pymatgen
data_Te2MoW3(SeS2)2
_symmetry_space_group_name_H-M   'P 1'
_cell_length_a   3.30755417
_cell_length_b   3.30748107
_cell_length_c   39.66865537
_cell_angle_alpha   90.01152677
_cell_angle_beta   90.00000000
_cell_angle_gamma   120.00073101
_symmetry_Int_Tables_number   1
_chemical_formula_structural   Te2MoW3(SeS2)2
_chemical_formula_sum   'Te2 Mo1 W3 Se2 S4'
_cell_volume   375.81943337
_cell_formula_units_Z   1
loop_
 _symmetry_equiv_pos_site_id
 _symmetry_equiv_pos_as_xyz
  1  'x, y, z'
loop_
 _atom_site_type_symbol
 _atom_site_label
 _atom_site_symmetry_multiplicity
 _atom_site_fract_x
 _atom_site_fract_y
 _atom_site_fract_z
 _atom_site_occupancy
  Te  Te0  1  0.333699  0.667399  0.331059  1
  Te  Te1  1  0.333370  0.666741  0.233940  1
  Mo  Mo2  1  0.333248  0.666496  0.092473  1
  W  W3  1  0.333235  0.666470  0.470341  1
  W  W4  1  0.666880  0.333759  0.282500  1
  W  W5  1  0.666650  0.333300  0.657612  1
  Se  Se6  1  0.666544  0.333088  0.050144  1
  Se  Se7  1  0.666622  0.333244  0.134851  1
  S  S8  1  0.333325  0.666650  0.696245  1
  S  S9  1  0.666523  0.333044  0.431666  1
  S  S10  1  0.666624  0.333247  0.508940  1
  S  S11  1  0.333280  0.666561  0.618977  1
