# generated using pymatgen
data_KYbSiS4
_symmetry_space_group_name_H-M   'P 1'
_cell_length_a   6.89575962
_cell_length_b   5.67496228
_cell_length_c   9.16456543
_cell_angle_alpha   90.00000000
_cell_angle_beta   105.54738214
_cell_angle_gamma   90.00000000
_symmetry_Int_Tables_number   1
_chemical_formula_structural   KYbSiS4
_chemical_formula_sum   'K2 Yb2 Si2 S8'
_cell_volume   345.51565081
_cell_formula_units_Z   2
loop_
 _symmetry_equiv_pos_site_id
 _symmetry_equiv_pos_as_xyz
  1  'x, y, z'
loop_
 _atom_site_type_symbol
 _atom_site_label
 _atom_site_symmetry_multiplicity
 _atom_site_fract_x
 _atom_site_fract_y
 _atom_site_fract_z
 _atom_site_occupancy
  Yb  Yb0  1  0.747725  0.699221  0.444587  1
  Yb  Yb1  1  0.252275  0.199221  0.555413  1
  K  K2  1  0.266207  0.199790  0.049344  1
  K  K3  1  0.733793  0.699791  0.950655  1
  Si  Si4  1  0.241973  0.699574  0.324659  1
  Si  Si5  1  0.758027  0.199575  0.675341  1
  S  S6  1  0.425099  0.699654  0.176146  1
  S  S7  1  0.999379  0.441388  0.276082  1
  S  S8  1  0.999567  0.957991  0.276329  1
  S  S9  1  0.608383  0.199091  0.443542  1
  S  S10  1  0.391617  0.699092  0.556459  1
  S  S11  1  0.000433  0.457990  0.723672  1
  S  S12  1  0.000621  0.941387  0.723918  1
  S  S13  1  0.574901  0.199653  0.823853  1
