# generated using pymatgen
data_Ba2CuSi2O7
_symmetry_space_group_name_H-M   'P 1'
_cell_length_a   5.35818398
_cell_length_b   8.41731983
_cell_length_c   8.41731983
_cell_angle_alpha   90.00000000
_cell_angle_beta   90.00000000
_cell_angle_gamma   90.00000000
_symmetry_Int_Tables_number   1
_chemical_formula_structural   Ba2CuSi2O7
_chemical_formula_sum   'Ba4 Si4 Cu2 O14'
_cell_volume   379.63415660
_cell_formula_units_Z   2
loop_
 _symmetry_equiv_pos_site_id
 _symmetry_equiv_pos_as_xyz
  1  'x, y, z'
loop_
 _atom_site_type_symbol
 _atom_site_label
 _atom_site_symmetry_multiplicity
 _atom_site_fract_x
 _atom_site_fract_y
 _atom_site_fract_z
 _atom_site_occupancy
  O  O0  1  0.843763  0.697790  0.578850  1
  O  O1  1  0.843763  0.302210  0.421150  1
  O  O2  1  0.156237  0.421150  0.697790  1
  O  O3  1  0.156237  0.578850  0.302210  1
  O  O4  1  0.843763  0.921150  0.802210  1
  O  O5  1  0.156237  0.802210  0.078850  1
  O  O6  1  0.156237  0.197790  0.921150  1
  O  O7  1  0.843763  0.078850  0.197790  1
  O  O8  1  0.277321  0.866036  0.633964  1
  O  O9  1  0.722679  0.633964  0.133964  1
  O  O10  1  0.869655  0.000000  0.500000  1
  O  O11  1  0.130345  0.500000  0.000000  1
  O  O12  1  0.277321  0.133964  0.366036  1
  O  O13  1  0.722679  0.366036  0.866036  1
  Si  Si14  1  0.975522  0.865950  0.634050  1
  Si  Si15  1  0.024478  0.634050  0.134050  1
  Si  Si16  1  0.024478  0.365950  0.865950  1
  Si  Si17  1  0.975522  0.134050  0.365950  1
  Cu  Cu18  1  0.000000  0.500000  0.500000  1
  Cu  Cu19  1  0.000000  0.000000  0.000000  1
  Ba  Ba20  1  0.509164  0.667224  0.832776  1
  Ba  Ba21  1  0.490836  0.832776  0.332776  1
  Ba  Ba22  1  0.490836  0.167224  0.667224  1
  Ba  Ba23  1  0.509164  0.332776  0.167224  1
