# generated using pymatgen
data_V6O13
_symmetry_space_group_name_H-M   'P 1'
_cell_length_a   6.36005182
_cell_length_b   6.36005182
_cell_length_c   10.26919611
_cell_angle_alpha   79.63479113
_cell_angle_beta   100.36520888
_cell_angle_gamma   145.74971632
_symmetry_Int_Tables_number   1
_chemical_formula_structural   V6O13
_chemical_formula_sum   'V6 O13'
_cell_volume   229.60548414
_cell_formula_units_Z   1
loop_
 _symmetry_equiv_pos_site_id
 _symmetry_equiv_pos_as_xyz
  1  'x, y, z'
loop_
 _atom_site_type_symbol
 _atom_site_label
 _atom_site_symmetry_multiplicity
 _atom_site_fract_x
 _atom_site_fract_y
 _atom_site_fract_z
 _atom_site_occupancy
  O  O0  1  0.119190  0.880810  0.615474  1
  O  O1  1  0.253523  0.746475  0.411330  1
  O  O2  1  0.181476  0.818524  1.000398  1
  O  O3  1  0.323628  0.676373  0.801305  1
  O  O4  1  0.439818  0.560185  0.590736  1
  O  O5  1  0.386451  0.613551  0.197574  1
  O  O6  1  0.613550  0.386449  0.802425  1
  O  O7  1  0.560182  0.439815  0.409264  1
  O  O8  1  0.500002  0.500001  0.000000  1
  O  O9  1  0.880810  0.119190  0.384526  1
  O  O10  1  0.818524  0.181476  -0.000398  1
  O  O11  1  0.746476  0.253524  0.588670  1
  O  O12  1  0.676372  0.323627  0.198694  1
  V  V13  1  0.351686  0.648316  0.997303  1
  V  V14  1  0.648314  0.351684  0.002697  1
  V  V15  1  0.413043  0.586958  0.364066  1
  V  V16  1  0.586958  0.413042  0.635934  1
  V  V17  1  0.285879  0.714122  0.633640  1
  V  V18  1  0.714122  0.285878  0.366361  1
