# generated using pymatgen
data_Te2MoWSeS
_symmetry_space_group_name_H-M   'P 1'
_cell_length_a   3.39994622
_cell_length_b   3.40002606
_cell_length_c   38.73843844
_cell_angle_alpha   90.00018517
_cell_angle_beta   90.00000000
_cell_angle_gamma   119.99922321
_symmetry_Int_Tables_number   1
_chemical_formula_structural   Te2MoWSeS
_chemical_formula_sum   'Te4 Mo2 W2 Se2 S2'
_cell_volume   387.82020768
_cell_formula_units_Z   2
loop_
 _symmetry_equiv_pos_site_id
 _symmetry_equiv_pos_as_xyz
  1  'x, y, z'
loop_
 _atom_site_type_symbol
 _atom_site_label
 _atom_site_symmetry_multiplicity
 _atom_site_fract_x
 _atom_site_fract_y
 _atom_site_fract_z
 _atom_site_occupancy
  Te  Te0  1  0.333357  0.666715  0.330411  1
  Te  Te1  1  0.333351  0.666703  0.705816  1
  Te  Te2  1  0.333351  0.666702  0.233121  1
  Te  Te3  1  0.333351  0.666703  0.609239  1
  Mo  Mo4  1  0.333296  0.666591  0.093935  1
  Mo  Mo5  1  0.666686  0.333372  0.657558  1
  W  W6  1  0.333312  0.666624  0.469693  1
  W  W7  1  0.666691  0.333381  0.281806  1
  Se  Se8  1  0.666649  0.333297  0.426993  1
  Se  Se9  1  0.666650  0.333298  0.512310  1
  S  S10  1  0.666653  0.333306  0.055135  1
  S  S11  1  0.666654  0.333307  0.132732  1
