# generated using pymatgen
data_TeMoWS3
_symmetry_space_group_name_H-M   'P 1'
_cell_length_a   3.27131759
_cell_length_b   3.27193932
_cell_length_c   39.05846840
_cell_angle_alpha   89.99980449
_cell_angle_beta   90.00000000
_cell_angle_gamma   119.99371456
_symmetry_Int_Tables_number   1
_chemical_formula_structural   TeMoWS3
_chemical_formula_sum   'Te2 Mo2 W2 S6'
_cell_volume   362.07729613
_cell_formula_units_Z   2
loop_
 _symmetry_equiv_pos_site_id
 _symmetry_equiv_pos_as_xyz
  1  'x, y, z'
loop_
 _atom_site_type_symbol
 _atom_site_label
 _atom_site_symmetry_multiplicity
 _atom_site_fract_x
 _atom_site_fract_y
 _atom_site_fract_z
 _atom_site_occupancy
  Te  Te0  1  0.666691  0.333380  0.419921  1
  Te  Te1  1  0.666693  0.333384  0.518626  1
  Mo  Mo2  1  0.333427  0.666854  0.469306  1
  Mo  Mo3  1  0.666574  0.333148  0.280963  1
  W  W4  1  0.333379  0.666759  0.093789  1
  W  W5  1  0.666634  0.333268  0.658860  1
  S  S6  1  0.333283  0.666566  0.320394  1
  S  S7  1  0.333342  0.666684  0.698399  1
  S  S8  1  0.666678  0.333356  0.054262  1
  S  S9  1  0.666667  0.333334  0.133362  1
  S  S10  1  0.333296  0.666592  0.241568  1
  S  S11  1  0.333337  0.666675  0.619297  1
