# generated using pymatgen
data_CeZr7O16
_symmetry_space_group_name_H-M   'P 1'
_cell_length_a   7.35237931
_cell_length_b   7.35237730
_cell_length_c   5.32798592
_cell_angle_alpha   90.00000000
_cell_angle_beta   90.00000000
_cell_angle_gamma   90.00000000
_symmetry_Int_Tables_number   1
_chemical_formula_structural   CeZr7O16
_chemical_formula_sum   'Ce1 Zr7 O16'
_cell_volume   288.01742166
_cell_formula_units_Z   1
loop_
 _symmetry_equiv_pos_site_id
 _symmetry_equiv_pos_as_xyz
  1  'x, y, z'
loop_
 _atom_site_type_symbol
 _atom_site_label
 _atom_site_symmetry_multiplicity
 _atom_site_fract_x
 _atom_site_fract_y
 _atom_site_fract_z
 _atom_site_occupancy
  Ce  Ce0  1  0.000000  0.000000  0.000000  1
  Zr  Zr1  1  0.251964  0.251964  0.500000  1
  Zr  Zr2  1  0.000000  0.500000  0.000554  1
  Zr  Zr3  1  0.251964  0.748036  0.500000  1
  Zr  Zr4  1  0.500000  0.000000  0.999446  1
  Zr  Zr5  1  0.748036  0.251964  0.500000  1
  Zr  Zr6  1  0.500000  0.500000  0.000000  1
  Zr  Zr7  1  0.748036  0.748036  0.500000  1
  O  O8  1  0.265248  0.000000  0.214971  1
  O  O9  1  0.000000  0.248558  0.300632  1
  O  O10  1  0.000000  0.265248  0.785029  1
  O  O11  1  0.248558  0.000000  0.699368  1
  O  O12  1  0.244916  0.500000  0.191614  1
  O  O13  1  0.000000  0.751442  0.300632  1
  O  O14  1  0.000000  0.734752  0.785029  1
  O  O15  1  0.267472  0.500000  0.692024  1
  O  O16  1  0.734752  0.000000  0.214971  1
  O  O17  1  0.500000  0.267472  0.307976  1
  O  O18  1  0.500000  0.244916  0.808386  1
  O  O19  1  0.751442  0.000000  0.699368  1
  O  O20  1  0.755084  0.500000  0.191614  1
  O  O21  1  0.500000  0.732528  0.307976  1
  O  O22  1  0.500000  0.755084  0.808386  1
  O  O23  1  0.732528  0.500000  0.692024  1
