# generated using pymatgen
data_Ho(CuS)2
_symmetry_space_group_name_H-M   'P 1'
_cell_length_a   3.94949707
_cell_length_b   3.94949720
_cell_length_c   6.29648676
_cell_angle_alpha   89.66798105
_cell_angle_beta   90.33202543
_cell_angle_gamma   119.96435081
_symmetry_Int_Tables_number   1
_chemical_formula_structural   Ho(CuS)2
_chemical_formula_sum   'Ho1 Cu2 S2'
_cell_volume   85.08611665
_cell_formula_units_Z   1
loop_
 _symmetry_equiv_pos_site_id
 _symmetry_equiv_pos_as_xyz
  1  'x, y, z'
loop_
 _atom_site_type_symbol
 _atom_site_label
 _atom_site_symmetry_multiplicity
 _atom_site_fract_x
 _atom_site_fract_y
 _atom_site_fract_z
 _atom_site_occupancy
  Ho  Ho0  1  0.000000  0.000000  0.000000  1
  Cu  Cu1  1  0.664344  0.335656  0.659247  1
  Cu  Cu2  1  0.335656  0.664344  0.340753  1
  S  S3  1  0.668151  0.331849  0.264011  1
  S  S4  1  0.331849  0.668151  0.735989  1
