# generated using pymatgen
data_LuAu2F9
_symmetry_space_group_name_H-M   'P 1'
_cell_length_a   9.12945627
_cell_length_b   11.19143533
_cell_length_c   21.73646210
_cell_angle_alpha   90.00000000
_cell_angle_beta   90.00000000
_cell_angle_gamma   90.00000000
_symmetry_Int_Tables_number   1
_chemical_formula_structural   LuAu2F9
_chemical_formula_sum   'Lu12 Au24 F108'
_cell_volume   2220.85170738
_cell_formula_units_Z   12
loop_
 _symmetry_equiv_pos_site_id
 _symmetry_equiv_pos_as_xyz
  1  'x, y, z'
loop_
 _atom_site_type_symbol
 _atom_site_label
 _atom_site_symmetry_multiplicity
 _atom_site_fract_x
 _atom_site_fract_y
 _atom_site_fract_z
 _atom_site_occupancy
  F  F0  1  0.500000  0.000000  0.000000  1
  F  F1  1  0.500000  0.000000  0.500000  1
  F  F2  1  0.000000  0.500000  0.000000  1
  F  F3  1  0.000000  0.500000  0.500000  1
  F  F4  1  0.363298  0.476162  0.321932  1
  F  F5  1  0.363298  0.523838  0.178068  1
  F  F6  1  0.136702  0.976162  0.678068  1
  F  F7  1  0.136702  0.023838  0.821932  1
  F  F8  1  0.636702  0.523838  0.678068  1
  F  F9  1  0.636702  0.476162  0.821932  1
  F  F10  1  0.863298  0.023838  0.321932  1
  F  F11  1  0.863298  0.976162  0.178068  1
  F  F12  1  0.297583  0.323791  0.238027  1
  F  F13  1  0.297583  0.676209  0.261973  1
  F  F14  1  0.202417  0.823791  0.761973  1
  F  F15  1  0.202417  0.176209  0.738027  1
  F  F16  1  0.702417  0.676209  0.761973  1
  F  F17  1  0.702417  0.323791  0.738027  1
  F  F18  1  0.797583  0.176209  0.238027  1
  F  F19  1  0.797583  0.823791  0.261973  1
  F  F20  1  0.733059  0.548301  0.034932  1
  F  F21  1  0.733059  0.451699  0.465068  1
  F  F22  1  0.766941  0.048301  0.965068  1
  F  F23  1  0.766941  0.951699  0.534932  1
  F  F24  1  0.266941  0.451699  0.965068  1
  F  F25  1  0.266941  0.548301  0.534932  1
  F  F26  1  0.233059  0.951699  0.034932  1
  F  F27  1  0.233059  0.048301  0.465068  1
  F  F28  1  0.909091  0.602896  0.396518  1
  F  F29  1  0.909091  0.397104  0.103482  1
  F  F30  1  0.590909  0.102896  0.603482  1
  F  F31  1  0.590909  0.897104  0.896518  1
  F  F32  1  0.090909  0.397104  0.603482  1
  F  F33  1  0.090909  0.602896  0.896518  1
  F  F34  1  0.409091  0.897104  0.396518  1
  F  F35  1  0.409091  0.102896  0.103482  1
  F  F36  1  0.002670  0.640444  0.270504  1
  F  F37  1  0.002670  0.359556  0.229496  1
  F  F38  1  0.497330  0.140444  0.729496  1
  F  F39  1  0.497330  0.859556  0.770504  1
  F  F40  1  0.997330  0.359556  0.729496  1
  F  F41  1  0.997330  0.640444  0.770504  1
  F  F42  1  0.502670  0.859556  0.270504  1
  F  F43  1  0.502670  0.140444  0.229496  1
  F  F44  1  0.309650  0.137789  0.943541  1
  F  F45  1  0.309650  0.862211  0.556459  1
  F  F46  1  0.190350  0.637789  0.056459  1
  F  F47  1  0.190350  0.362211  0.443541  1
  F  F48  1  0.690350  0.862211  0.056459  1
  F  F49  1  0.690350  0.137789  0.443541  1
  F  F50  1  0.809650  0.362211  0.943541  1
  F  F51  1  0.809650  0.637789  0.556459  1
  F  F52  1  0.082884  0.550252  0.163937  1
  F  F53  1  0.082884  0.449748  0.336063  1
  F  F54  1  0.417116  0.050252  0.836063  1
  F  F55  1  0.417116  0.949748  0.663937  1
  F  F56  1  0.917116  0.449748  0.836063  1
  F  F57  1  0.917116  0.550252  0.663937  1
  F  F58  1  0.582884  0.949748  0.163937  1
  F  F59  1  0.582884  0.050252  0.336063  1
  F  F60  1  0.219109  0.289651  0.117085  1
  F  F61  1  0.219109  0.710349  0.382915  1
  F  F62  1  0.280891  0.789651  0.882915  1
  F  F63  1  0.280891  0.210349  0.617085  1
  F  F64  1  0.780891  0.710349  0.882915  1
  F  F65  1  0.780891  0.289651  0.617085  1
  F  F66  1  0.719109  0.210349  0.117085  1
  F  F67  1  0.719109  0.789651  0.382915  1
  F  F68  1  0.502707  0.413646  0.067370  1
  F  F69  1  0.502707  0.586354  0.432630  1
  F  F70  1  0.997293  0.913646  0.932630  1
  F  F71  1  0.997293  0.086354  0.567370  1
  F  F72  1  0.497293  0.586354  0.932630  1
  F  F73  1  0.497293  0.413646  0.567370  1
  F  F74  1  0.002707  0.086354  0.067370  1
  F  F75  1  0.002707  0.913646  0.432630  1
  F  F76  1  0.630166  0.424453  0.199956  1
  F  F77  1  0.630166  0.575547  0.300044  1
  F  F78  1  0.869834  0.924453  0.800044  1
  F  F79  1  0.869834  0.075547  0.699956  1
  F  F80  1  0.369834  0.575547  0.800044  1
  F  F81  1  0.369834  0.424453  0.699956  1
  F  F82  1  0.130166  0.075547  0.199956  1
  F  F83  1  0.130166  0.924453  0.300044  1
  F  F84  1  0.495938  0.725996  0.126557  1
  F  F85  1  0.495938  0.274004  0.373443  1
  F  F86  1  0.004062  0.225996  0.873443  1
  F  F87  1  0.004062  0.774004  0.626557  1
  F  F88  1  0.504062  0.274004  0.873443  1
  F  F89  1  0.504062  0.725996  0.626557  1
  F  F90  1  0.995938  0.774004  0.126557  1
  F  F91  1  0.995938  0.225996  0.373443  1
  F  F92  1  0.774513  0.622422  0.150927  1
  F  F93  1  0.774513  0.377578  0.349073  1
  F  F94  1  0.725487  0.122422  0.849073  1
  F  F95  1  0.725487  0.877578  0.650927  1
  F  F96  1  0.225487  0.377578  0.849073  1
  F  F97  1  0.225487  0.622422  0.650927  1
  F  F98  1  0.274513  0.877578  0.150927  1
  F  F99  1  0.274513  0.122422  0.349073  1
  F  F100  1  0.580390  0.231117  0.988280  1
  F  F101  1  0.580390  0.768883  0.511720  1
  F  F102  1  0.919610  0.731117  0.011720  1
  F  F103  1  0.919610  0.268883  0.488280  1
  F  F104  1  0.419610  0.768883  0.011720  1
  F  F105  1  0.419610  0.231117  0.488280  1
  F  F106  1  0.080390  0.268883  0.988280  1
  F  F107  1  0.080390  0.731117  0.511720  1
  Lu  Lu108  1  0.674851  0.000000  0.250000  1
  Lu  Lu109  1  0.825149  0.500000  0.750000  1
  Lu  Lu110  1  0.325149  0.000000  0.750000  1
  Lu  Lu111  1  0.174851  0.500000  0.250000  1
  Lu  Lu112  1  0.460444  0.092586  0.416494  1
  Lu  Lu113  1  0.460444  0.907414  0.083506  1
  Lu  Lu114  1  0.039556  0.592586  0.583506  1
  Lu  Lu115  1  0.039556  0.407414  0.916494  1
  Lu  Lu116  1  0.539556  0.907414  0.583506  1
  Lu  Lu117  1  0.539556  0.092586  0.916494  1
  Lu  Lu118  1  0.960444  0.407414  0.416494  1
  Lu  Lu119  1  0.960444  0.592586  0.083506  1
  Au  Au120  1  0.840157  0.890064  0.991367  1
  Au  Au121  1  0.840157  0.109936  0.508633  1
  Au  Au122  1  0.659843  0.390064  0.008633  1
  Au  Au123  1  0.659843  0.609936  0.491367  1
  Au  Au124  1  0.159843  0.109936  0.008633  1
  Au  Au125  1  0.159843  0.890064  0.491367  1
  Au  Au126  1  0.340157  0.609936  0.991367  1
  Au  Au127  1  0.340157  0.390064  0.508633  1
  Au  Au128  1  0.566934  0.575180  0.164483  1
  Au  Au129  1  0.566934  0.424820  0.335517  1
  Au  Au130  1  0.933066  0.075180  0.835517  1
  Au  Au131  1  0.933066  0.924820  0.664483  1
  Au  Au132  1  0.433066  0.424820  0.835517  1
  Au  Au133  1  0.433066  0.575180  0.664483  1
  Au  Au134  1  0.066934  0.924820  0.164483  1
  Au  Au135  1  0.066934  0.075180  0.335517  1
  Au  Au136  1  0.860139  0.715000  0.328870  1
  Au  Au137  1  0.860139  0.285000  0.171130  1
  Au  Au138  1  0.639861  0.215000  0.671130  1
  Au  Au139  1  0.639861  0.785000  0.828870  1
  Au  Au140  1  0.139861  0.285000  0.671130  1
  Au  Au141  1  0.139861  0.715000  0.828870  1
  Au  Au142  1  0.360139  0.785000  0.328870  1
  Au  Au143  1  0.360139  0.215000  0.171130  1
