# generated using pymatgen
data_Te2MoW3(Se2S)2
_symmetry_space_group_name_H-M   'P 1'
_cell_length_a   3.33957960
_cell_length_b   3.33955822
_cell_length_c   39.63318605
_cell_angle_alpha   90.00091438
_cell_angle_beta   89.99989389
_cell_angle_gamma   120.00018214
_symmetry_Int_Tables_number   1
_chemical_formula_structural   Te2MoW3(Se2S)2
_chemical_formula_sum   'Te2 Mo1 W3 Se4 S2'
_cell_volume   382.79798187
_cell_formula_units_Z   1
loop_
 _symmetry_equiv_pos_site_id
 _symmetry_equiv_pos_as_xyz
  1  'x, y, z'
loop_
 _atom_site_type_symbol
 _atom_site_label
 _atom_site_symmetry_multiplicity
 _atom_site_fract_x
 _atom_site_fract_y
 _atom_site_fract_z
 _atom_site_occupancy
  Te  Te0  1  0.666651  0.333302  0.421753  1
  Te  Te1  1  0.666680  0.333369  0.517507  1
  Mo  Mo2  1  0.333341  0.666684  0.469653  1
  W  W3  1  0.333318  0.666638  0.093943  1
  W  W4  1  0.666705  0.333406  0.281253  1
  W  W5  1  0.666638  0.333274  0.658144  1
  Se  Se6  1  0.333368  0.666735  0.323486  1
  Se  Se7  1  0.333304  0.666606  0.700420  1
  Se  Se8  1  0.333377  0.666749  0.238899  1
  Se  Se9  1  0.333317  0.666630  0.615833  1
  S  S10  1  0.666640  0.333282  0.055487  1
  S  S11  1  0.666661  0.333326  0.132370  1
