# generated using pymatgen
data_Mn5B2P
_symmetry_space_group_name_H-M   'P 1'
_cell_length_a   5.51760209
_cell_length_b   5.51760985
_cell_length_c   6.46212910
_cell_angle_alpha   115.25908013
_cell_angle_beta   115.27214485
_cell_angle_gamma   90.00000002
_symmetry_Int_Tables_number   1
_chemical_formula_structural   Mn5B2P
_chemical_formula_sum   'Mn10 B4 P2'
_cell_volume   156.85147730
_cell_formula_units_Z   2
loop_
 _symmetry_equiv_pos_site_id
 _symmetry_equiv_pos_as_xyz
  1  'x, y, z'
loop_
 _atom_site_type_symbol
 _atom_site_label
 _atom_site_symmetry_multiplicity
 _atom_site_fract_x
 _atom_site_fract_y
 _atom_site_fract_z
 _atom_site_occupancy
  B  B0  1  0.381231  0.881225  0.000013  1
  B  B1  1  0.118782  0.381225  0.000013  1
  B  B2  1  0.881218  0.618775  0.999987  1
  B  B3  1  0.618769  0.118775  0.999987  1
  P  P4  1  0.750169  0.750000  0.500000  1
  P  P5  1  0.249831  0.250000  0.500000  1
  Mn  Mn6  1  0.691457  0.191449  0.721109  1
  Mn  Mn7  1  0.970168  0.470117  0.278676  1
  Mn  Mn8  1  0.000000  0.000000  0.000000  1
  Mn  Mn9  1  0.500000  0.500000  0.000000  1
  Mn  Mn10  1  0.029832  0.529883  0.721324  1
  Mn  Mn11  1  0.191492  0.029883  0.721324  1
  Mn  Mn12  1  0.529652  0.691449  0.721109  1
  Mn  Mn13  1  0.808508  0.970117  0.278676  1
  Mn  Mn14  1  0.470348  0.308551  0.278891  1
  Mn  Mn15  1  0.308543  0.808551  0.278891  1
