# generated using pymatgen
data_Dy(CoGe)2
_symmetry_space_group_name_H-M   'P 1'
_cell_length_a   3.96353742
_cell_length_b   3.96353742
_cell_length_c   5.78886930
_cell_angle_alpha   110.01957956
_cell_angle_beta   110.01957961
_cell_angle_gamma   89.99999997
_symmetry_Int_Tables_number   1
_chemical_formula_structural   Dy(CoGe)2
_chemical_formula_sum   'Dy1 Co2 Ge2'
_cell_volume   79.57232267
_cell_formula_units_Z   1
loop_
 _symmetry_equiv_pos_site_id
 _symmetry_equiv_pos_as_xyz
  1  'x, y, z'
loop_
 _atom_site_type_symbol
 _atom_site_label
 _atom_site_symmetry_multiplicity
 _atom_site_fract_x
 _atom_site_fract_y
 _atom_site_fract_z
 _atom_site_occupancy
  Co  Co0  1  0.750000  0.250000  0.500000  1
  Co  Co1  1  0.250000  0.750000  0.500000  1
  Ge  Ge2  1  0.627921  0.627921  0.255841  1
  Ge  Ge3  1  0.372079  0.372079  0.744159  1
  Dy  Dy4  1  0.000000  0.000000  0.000000  1
