# generated using pymatgen
data_Tb6Al3Si
_symmetry_space_group_name_H-M   'P 1'
_cell_length_a   11.24095528
_cell_length_b   11.24095527
_cell_length_c   11.24095528
_cell_angle_alpha   93.98437164
_cell_angle_beta   117.72690867
_cell_angle_gamma   117.72690868
_symmetry_Int_Tables_number   1
_chemical_formula_structural   Tb6Al3Si
_chemical_formula_sum   'Tb24 Al12 Si4'
_cell_volume   1036.16982355
_cell_formula_units_Z   4
loop_
 _symmetry_equiv_pos_site_id
 _symmetry_equiv_pos_as_xyz
  1  'x, y, z'
loop_
 _atom_site_type_symbol
 _atom_site_label
 _atom_site_symmetry_multiplicity
 _atom_site_fract_x
 _atom_site_fract_y
 _atom_site_fract_z
 _atom_site_occupancy
  Al  Al0  1  0.500000  0.619595  0.880405  1
  Al  Al1  1  0.260810  0.880405  0.380405  1
  Al  Al2  1  0.739190  0.119595  0.619595  1
  Al  Al3  1  0.500000  0.380405  0.119595  1
  Al  Al4  1  0.500000  0.617252  0.473613  1
  Al  Al5  1  0.500000  0.973613  0.117252  1
  Al  Al6  1  0.500000  0.026387  0.882748  1
  Al  Al7  1  0.143639  0.117252  0.617252  1
  Al  Al8  1  0.856361  0.473613  0.973613  1
  Al  Al9  1  0.856361  0.882748  0.382748  1
  Al  Al10  1  0.143639  0.526387  0.026387  1
  Al  Al11  1  0.500000  0.382748  0.526387  1
  Si  Si12  1  0.000000  0.500000  0.500000  1
  Si  Si13  1  0.000000  0.000000  0.000000  1
  Si  Si14  1  0.000000  0.250000  0.250000  1
  Si  Si15  1  0.000000  0.750000  0.750000  1
  Tb  Tb16  1  0.131776  0.830067  0.570134  1
  Tb  Tb17  1  0.259933  0.061642  0.929866  1
  Tb  Tb18  1  0.259933  0.698291  0.830067  1
  Tb  Tb19  1  0.740067  0.570134  0.438358  1
  Tb  Tb20  1  0.500000  0.168933  0.331067  1
  Tb  Tb21  1  0.162134  0.331067  0.831067  1
  Tb  Tb22  1  0.837866  0.668933  0.168933  1
  Tb  Tb23  1  0.500000  0.831067  0.668933  1
  Tb  Tb24  1  0.868224  0.438358  0.698291  1
  Tb  Tb25  1  0.868224  0.929866  0.669933  1
  Tb  Tb26  1  0.131776  0.801709  0.061642  1
  Tb  Tb27  1  0.740067  0.669933  0.801709  1
  Tb  Tb28  1  0.259933  0.429866  0.561642  1
  Tb  Tb29  1  0.740067  0.301709  0.169933  1
  Tb  Tb30  1  0.740067  0.938358  0.070134  1
  Tb  Tb31  1  0.868224  0.169933  0.429866  1
  Tb  Tb32  1  0.131776  0.561642  0.301709  1
  Tb  Tb33  1  0.131776  0.070134  0.330067  1
  Tb  Tb34  1  0.868224  0.198291  0.938358  1
  Tb  Tb35  1  0.259933  0.330067  0.198291  1
  Tb  Tb36  1  0.500000  0.648445  0.148445  1
  Tb  Tb37  1  0.500000  0.148445  0.648445  1
  Tb  Tb38  1  0.500000  0.851555  0.351555  1
  Tb  Tb39  1  0.500000  0.351555  0.851555  1
