# generated using pymatgen
data_Te4MoW3(SeS)2
_symmetry_space_group_name_H-M   'P 1'
_cell_length_a   3.39960672
_cell_length_b   3.39944333
_cell_length_c   38.76968200
_cell_angle_alpha   90.00004019
_cell_angle_beta   90.00000000
_cell_angle_gamma   120.00158999
_symmetry_Int_Tables_number   1
_chemical_formula_structural   Te4MoW3(SeS)2
_chemical_formula_sum   'Te4 Mo1 W3 Se2 S2'
_cell_volume   388.01846780
_cell_formula_units_Z   1
loop_
 _symmetry_equiv_pos_site_id
 _symmetry_equiv_pos_as_xyz
  1  'x, y, z'
loop_
 _atom_site_type_symbol
 _atom_site_label
 _atom_site_symmetry_multiplicity
 _atom_site_fract_x
 _atom_site_fract_y
 _atom_site_fract_z
 _atom_site_occupancy
  Te  Te0  1  0.333351  0.666703  0.330357  1
  Te  Te1  1  0.333355  0.666712  0.706131  1
  Te  Te2  1  0.333349  0.666699  0.233189  1
  Te  Te3  1  0.333349  0.666699  0.608943  1
  Mo  Mo4  1  0.333317  0.666635  0.093961  1
  W  W5  1  0.333308  0.666616  0.469636  1
  W  W6  1  0.666689  0.333379  0.281774  1
  W  W7  1  0.666689  0.333378  0.657540  1
  Se  Se8  1  0.666651  0.333300  0.426944  1
  Se  Se9  1  0.666651  0.333300  0.512370  1
  S  S10  1  0.666645  0.333288  0.055206  1
  S  S11  1  0.666646  0.333291  0.132697  1
