# generated using pymatgen
data_CsFe2P5O16
_symmetry_space_group_name_H-M   'P 1'
_cell_length_a   7.63662438
_cell_length_b   9.53464381
_cell_length_c   10.39968145
_cell_angle_alpha   90.00000000
_cell_angle_beta   111.23221364
_cell_angle_gamma   90.00000000
_symmetry_Int_Tables_number   1
_chemical_formula_structural   CsFe2P5O16
_chemical_formula_sum   'Cs2 Fe4 P10 O32'
_cell_volume   705.82643961
_cell_formula_units_Z   2
loop_
 _symmetry_equiv_pos_site_id
 _symmetry_equiv_pos_as_xyz
  1  'x, y, z'
loop_
 _atom_site_type_symbol
 _atom_site_label
 _atom_site_symmetry_multiplicity
 _atom_site_fract_x
 _atom_site_fract_y
 _atom_site_fract_z
 _atom_site_occupancy
  O  O0  1  0.043016  0.528456  0.060108  1
  O  O1  1  0.543015  0.471544  0.560109  1
  O  O2  1  0.777509  0.540285  0.823684  1
  O  O3  1  0.277509  0.459714  0.323684  1
  O  O4  1  0.840061  0.739976  0.996597  1
  O  O5  1  0.340062  0.260024  0.496598  1
  O  O6  1  0.708104  0.504264  0.041457  1
  O  O7  1  0.208105  0.495736  0.541457  1
  O  O8  1  0.436527  0.481343  0.125608  1
  O  O9  1  0.936526  0.518657  0.625609  1
  O  O10  1  0.461744  0.696379  0.982549  1
  O  O11  1  0.961743  0.303621  0.482548  1
  O  O12  1  0.382922  0.452242  0.872324  1
  O  O13  1  0.882923  0.547758  0.372325  1
  O  O14  1  0.151313  0.298843  0.938174  1
  O  O15  1  0.651313  0.701157  0.438174  1
  O  O16  1  0.357962  0.992466  0.592866  1
  O  O17  1  0.857962  0.007534  0.092865  1
  O  O18  1  0.498544  0.748992  0.651686  1
  O  O19  1  0.998544  0.251009  0.151686  1
  O  O20  1  0.540856  0.930132  0.842857  1
  O  O21  1  0.040855  0.069868  0.342856  1
  O  O22  1  0.223134  0.818634  0.716706  1
  O  O23  1  0.723135  0.181366  0.216706  1
  O  O24  1  0.254579  0.233786  0.735618  1
  O  O25  1  0.385912  0.201031  0.195147  1
  O  O26  1  0.992902  0.017134  0.603689  1
  O  O27  1  0.492903  0.982865  0.103689  1
  O  O28  1  0.983276  0.785174  0.481152  1
  O  O29  1  0.483276  0.214826  0.981151  1
  O  O30  1  0.754578  0.766213  0.235617  1
  O  O31  1  0.885912  0.798970  0.695147  1
  P  P32  1  0.848794  0.582114  0.975243  1
  P  P33  1  0.348795  0.417887  0.475243  1
  P  P34  1  0.492667  0.541482  0.012412  1
  P  P35  1  0.992667  0.458518  0.512412  1
  P  P36  1  0.301345  0.295962  0.875345  1
  P  P37  1  0.801345  0.704038  0.375345  1
  P  P38  1  0.513159  0.139987  0.128009  1
  P  P39  1  0.013158  0.860014  0.628010  1
  P  P40  1  0.418482  0.875092  0.700714  1
  P  P41  1  0.918482  0.124909  0.200713  1
  Fe  Fe42  1  0.656254  0.857854  0.035533  1
  Fe  Fe43  1  0.156254  0.142146  0.535533  1
  Fe  Fe44  1  0.707277  0.632246  0.640853  1
  Fe  Fe45  1  0.207276  0.367754  0.140853  1
  Cs  Cs46  1  0.748764  0.198003  0.741369  1
  Cs  Cs47  1  0.248765  0.801998  0.241369  1
