# generated using pymatgen
data_LuCu(BO2)5
_symmetry_space_group_name_H-M   'P 1'
_cell_length_a   6.27911604
_cell_length_b   8.25119261
_cell_length_c   8.25119261
_cell_angle_alpha   62.43085779
_cell_angle_beta   67.63549867
_cell_angle_gamma   67.63549869
_symmetry_Int_Tables_number   1
_chemical_formula_structural   LuCu(BO2)5
_chemical_formula_sum   'Lu2 Cu2 B10 O20'
_cell_volume   339.38286649
_cell_formula_units_Z   2
loop_
 _symmetry_equiv_pos_site_id
 _symmetry_equiv_pos_as_xyz
  1  'x, y, z'
loop_
 _atom_site_type_symbol
 _atom_site_label
 _atom_site_symmetry_multiplicity
 _atom_site_fract_x
 _atom_site_fract_y
 _atom_site_fract_z
 _atom_site_occupancy
  B  B0  1  0.537503  0.538798  0.153206  1
  B  B1  1  0.304148  0.695852  0.695852  1
  B  B2  1  0.804148  0.195852  0.195852  1
  B  B3  1  0.337742  0.738417  0.353001  1
  B  B4  1  0.570840  0.353001  0.738417  1
  B  B5  1  0.770493  0.153206  0.538798  1
  B  B6  1  0.270493  0.038798  0.653206  1
  B  B7  1  0.037503  0.653206  0.038798  1
  B  B8  1  0.837742  0.853001  0.238417  1
  B  B9  1  0.070840  0.238417  0.853001  1
  O  O10  1  0.378310  0.904299  0.215265  1
  O  O11  1  0.878310  0.715265  0.404299  1
  O  O12  1  0.002126  0.404299  0.715265  1
  O  O13  1  0.502126  0.215265  0.904299  1
  O  O14  1  0.606044  0.676634  0.987345  1
  O  O15  1  0.729977  0.987345  0.676634  1
  O  O16  1  0.229977  0.176634  0.487345  1
  O  O17  1  0.106044  0.487345  0.176634  1
  O  O18  1  0.590089  0.353946  0.165017  1
  O  O19  1  0.890948  0.165017  0.353946  1
  O  O20  1  0.390948  0.853946  0.665017  1
  O  O21  1  0.090089  0.665017  0.853946  1
  O  O22  1  0.906631  0.818165  0.073516  1
  O  O23  1  0.201688  0.073516  0.818165  1
  O  O24  1  0.701688  0.318165  0.573516  1
  O  O25  1  0.406631  0.573516  0.318165  1
  O  O26  1  0.717224  0.037887  0.226486  1
  O  O27  1  0.018404  0.226486  0.037887  1
  O  O28  1  0.518404  0.537887  0.726486  1
  O  O29  1  0.217224  0.726486  0.537887  1
  Cu  Cu30  1  0.054087  0.445913  0.445913  1
  Cu  Cu31  1  0.554087  0.945913  0.945913  1
  Lu  Lu32  1  0.804157  0.695843  0.695843  1
  Lu  Lu33  1  0.304157  0.195843  0.195843  1
