# generated using pymatgen
data_Te4Mo3WS4
_symmetry_space_group_name_H-M   'P 1'
_cell_length_a   3.35669009
_cell_length_b   3.35678829
_cell_length_c   38.31488338
_cell_angle_alpha   90.00011600
_cell_angle_beta   90.00000000
_cell_angle_gamma   119.99903237
_symmetry_Int_Tables_number   1
_chemical_formula_structural   Te4Mo3WS4
_chemical_formula_sum   'Te4 Mo3 W1 S4'
_cell_volume   373.88459565
_cell_formula_units_Z   1
loop_
 _symmetry_equiv_pos_site_id
 _symmetry_equiv_pos_as_xyz
  1  'x, y, z'
loop_
 _atom_site_type_symbol
 _atom_site_label
 _atom_site_symmetry_multiplicity
 _atom_site_fract_x
 _atom_site_fract_y
 _atom_site_fract_z
 _atom_site_occupancy
  Te  Te0  1  0.333354  0.666708  0.331222  1
  Te  Te1  1  0.333358  0.666716  0.706939  1
  Te  Te2  1  0.333348  0.666697  0.232336  1
  Te  Te3  1  0.333365  0.666730  0.608148  1
  Mo  Mo4  1  0.333297  0.666595  0.093915  1
  Mo  Mo5  1  0.666685  0.333370  0.281788  1
  Mo  Mo6  1  0.666695  0.333389  0.657560  1
  W  W7  1  0.333307  0.666614  0.469672  1
  S  S8  1  0.666654  0.333306  0.054411  1
  S  S9  1  0.666645  0.333289  0.430034  1
  S  S10  1  0.666655  0.333309  0.133422  1
  S  S11  1  0.666639  0.333277  0.509300  1
