# generated using pymatgen
data_CsY(PO3)4
_symmetry_space_group_name_H-M   'P 1'
_cell_length_a   10.45860410
_cell_length_b   8.98454203
_cell_length_c   11.33608175
_cell_angle_alpha   90.00000000
_cell_angle_beta   106.82969664
_cell_angle_gamma   90.00000000
_symmetry_Int_Tables_number   1
_chemical_formula_structural   CsY(PO3)4
_chemical_formula_sum   'Cs4 Y4 P16 O48'
_cell_volume   1019.58049101
_cell_formula_units_Z   4
loop_
 _symmetry_equiv_pos_site_id
 _symmetry_equiv_pos_as_xyz
  1  'x, y, z'
loop_
 _atom_site_type_symbol
 _atom_site_label
 _atom_site_symmetry_multiplicity
 _atom_site_fract_x
 _atom_site_fract_y
 _atom_site_fract_z
 _atom_site_occupancy
  Cs  Cs0  1  0.319058  0.565774  0.038750  1
  Cs  Cs1  1  0.819058  0.934226  0.538750  1
  Cs  Cs2  1  0.680942  0.434225  0.961250  1
  Cs  Cs3  1  0.180942  0.065774  0.461250  1
  Y  Y4  1  0.496849  0.725634  0.681186  1
  Y  Y5  1  0.996849  0.774366  0.181186  1
  Y  Y6  1  0.503151  0.274366  0.318814  1
  Y  Y7  1  0.003151  0.225634  0.818814  1
  P  P8  1  0.146926  0.410437  0.256571  1
  P  P9  1  0.646926  0.089563  0.756571  1
  P  P10  1  0.853074  0.589563  0.743429  1
  P  P11  1  0.353074  0.910437  0.243429  1
  P  P12  1  0.539739  0.673084  0.368977  1
  P  P13  1  0.039739  0.826916  0.868977  1
  P  P14  1  0.460261  0.326916  0.631023  1
  P  P15  1  0.960261  0.173084  0.131023  1
  P  P16  1  0.245433  0.471470  0.712163  1
  P  P17  1  0.745433  0.028530  0.212163  1
  P  P18  1  0.754567  0.528530  0.287837  1
  P  P19  1  0.254567  0.971470  0.787837  1
  P  P20  1  0.326033  0.109638  0.027367  1
  P  P21  1  0.826033  0.390362  0.527367  1
  P  P22  1  0.673967  0.890362  0.972633  1
  P  P23  1  0.173967  0.609638  0.472633  1
  O  O24  1  0.137309  0.543584  0.592245  1
  O  O25  1  0.637309  0.956416  0.092245  1
  O  O26  1  0.862691  0.456416  0.407755  1
  O  O27  1  0.362691  0.043584  0.907755  1
  O  O28  1  0.352069  0.583009  0.772105  1
  O  O29  1  0.852069  0.916991  0.272105  1
  O  O30  1  0.647931  0.416991  0.227895  1
  O  O31  1  0.147931  0.083009  0.727895  1
  O  O32  1  0.475386  0.792826  0.259783  1
  O  O33  1  0.975386  0.707174  0.759783  1
  O  O34  1  0.524614  0.207174  0.740217  1
  O  O35  1  0.024614  0.292826  0.240217  1
  O  O36  1  0.098577  0.543796  0.176437  1
  O  O37  1  0.598577  0.956204  0.676437  1
  O  O38  1  0.901423  0.456204  0.823563  1
  O  O39  1  0.401423  0.043796  0.323563  1
  O  O40  1  0.559831  0.743128  0.492703  1
  O  O41  1  0.059831  0.756872  0.992703  1
  O  O42  1  0.440169  0.256872  0.507297  1
  O  O43  1  0.940169  0.243128  0.007297  1
  O  O44  1  0.168728  0.403144  0.791059  1
  O  O45  1  0.668728  0.096856  0.291059  1
  O  O46  1  0.831272  0.596856  0.208941  1
  O  O47  1  0.331272  0.903144  0.708941  1
  O  O48  1  0.266623  0.327333  0.244828  1
  O  O49  1  0.766623  0.172667  0.744828  1
  O  O50  1  0.733377  0.672667  0.755172  1
  O  O51  1  0.233377  0.827333  0.255172  1
  O  O52  1  0.433699  0.212720  0.099098  1
  O  O53  1  0.933699  0.287280  0.599098  1
  O  O54  1  0.566301  0.787280  0.900902  1
  O  O55  1  0.066301  0.712720  0.400902  1
  O  O56  1  0.186169  0.168845  0.983891  1
  O  O57  1  0.686169  0.331155  0.483891  1
  O  O58  1  0.813831  0.831155  0.016109  1
  O  O59  1  0.313831  0.668845  0.516109  1
  O  O60  1  0.465027  0.529680  0.335658  1
  O  O61  1  0.965027  0.970320  0.835658  1
  O  O62  1  0.534973  0.470320  0.664342  1
  O  O63  1  0.034973  0.029680  0.164342  1
  O  O64  1  0.187315  0.839555  0.848551  1
  O  O65  1  0.687315  0.660445  0.348551  1
  O  O66  1  0.812685  0.160445  0.151449  1
  O  O67  1  0.312685  0.339555  0.651449  1
  O  O68  1  0.330556  0.953365  0.100774  1
  O  O69  1  0.830556  0.546635  0.600774  1
  O  O70  1  0.669444  0.046635  0.899226  1
  O  O71  1  0.169444  0.453365  0.399226  1
