# generated using pymatgen
data_Na3Mo(OF)3
_symmetry_space_group_name_H-M   'P 1'
_cell_length_a   5.95260993
_cell_length_b   5.95260993
_cell_length_c   5.95260993
_cell_angle_alpha   57.15283063
_cell_angle_beta   57.15283067
_cell_angle_gamma   57.15283067
_symmetry_Int_Tables_number   1
_chemical_formula_structural   Na3Mo(OF)3
_chemical_formula_sum   'Na3 Mo1 O3 F3'
_cell_volume   139.36074690
_cell_formula_units_Z   1
loop_
 _symmetry_equiv_pos_site_id
 _symmetry_equiv_pos_as_xyz
  1  'x, y, z'
loop_
 _atom_site_type_symbol
 _atom_site_label
 _atom_site_symmetry_multiplicity
 _atom_site_fract_x
 _atom_site_fract_y
 _atom_site_fract_z
 _atom_site_occupancy
  O  O0  1  0.309808  0.747652  0.092953  1
  O  O1  1  0.092953  0.309808  0.747651  1
  O  O2  1  0.747651  0.092953  0.309809  1
  F  F3  1  0.641573  0.174866  0.872390  1
  F  F4  1  0.174866  0.872390  0.641572  1
  F  F5  1  0.872389  0.641572  0.174867  1
  Na  Na6  1  0.773422  0.773422  0.773420  1
  Na  Na7  1  0.490780  0.490780  0.490780  1
  Na  Na8  1  0.271951  0.271951  0.271952  1
  Mo  Mo9  1  0.998807  0.998807  0.998807  1
