# generated using pymatgen
data_Hf2Si4Ni3
_symmetry_space_group_name_H-M   'P 1'
_cell_length_a   5.18922431
_cell_length_b   6.87358857
_cell_length_c   7.30987948
_cell_angle_alpha   90.00000000
_cell_angle_beta   110.79013210
_cell_angle_gamma   90.00000000
_symmetry_Int_Tables_number   1
_chemical_formula_structural   Hf2Si4Ni3
_chemical_formula_sum   'Hf4 Si8 Ni6'
_cell_volume   243.75595328
_cell_formula_units_Z   2
loop_
 _symmetry_equiv_pos_site_id
 _symmetry_equiv_pos_as_xyz
  1  'x, y, z'
loop_
 _atom_site_type_symbol
 _atom_site_label
 _atom_site_symmetry_multiplicity
 _atom_site_fract_x
 _atom_site_fract_y
 _atom_site_fract_z
 _atom_site_occupancy
  Si  Si0  1  0.318815  0.522684  0.637629  1
  Si  Si1  1  0.681185  0.477316  0.362371  1
  Si  Si2  1  0.181185  0.022684  0.362371  1
  Si  Si3  1  0.818815  0.977316  0.637629  1
  Si  Si4  1  0.311451  0.750000  0.122902  1
  Si  Si5  1  0.188549  0.250000  0.877098  1
  Si  Si6  1  0.811451  0.750000  0.122902  1
  Si  Si7  1  0.688549  0.250000  0.877098  1
  Ni  Ni8  1  0.979226  0.750000  0.458452  1
  Ni  Ni9  1  0.520774  0.250000  0.541548  1
  Ni  Ni10  1  0.500000  0.500000  0.000000  1
  Ni  Ni11  1  0.000000  0.000000  0.000000  1
  Ni  Ni12  1  0.020774  0.250000  0.541548  1
  Ni  Ni13  1  0.479226  0.750000  0.458452  1
  Hf  Hf14  1  0.396134  0.902564  0.792267  1
  Hf  Hf15  1  0.603866  0.097436  0.207733  1
  Hf  Hf16  1  0.103866  0.402564  0.207733  1
  Hf  Hf17  1  0.896134  0.597436  0.792267  1
