# generated using pymatgen
data_Cs2Li5(BO2)7
_symmetry_space_group_name_H-M   'P 1'
_cell_length_a   4.47446327
_cell_length_b   7.27103060
_cell_length_c   21.57701176
_cell_angle_alpha   90.00000000
_cell_angle_beta   90.00000000
_cell_angle_gamma   107.92014237
_symmetry_Int_Tables_number   1
_chemical_formula_structural   Cs2Li5(BO2)7
_chemical_formula_sum   'Cs4 Li10 B14 O28'
_cell_volume   667.92969952
_cell_formula_units_Z   2
loop_
 _symmetry_equiv_pos_site_id
 _symmetry_equiv_pos_as_xyz
  1  'x, y, z'
loop_
 _atom_site_type_symbol
 _atom_site_label
 _atom_site_symmetry_multiplicity
 _atom_site_fract_x
 _atom_site_fract_y
 _atom_site_fract_z
 _atom_site_occupancy
  Cs  Cs0  1  0.264251  0.433584  0.151961  1
  Cs  Cs1  1  0.830667  0.566416  0.848039  1
  Cs  Cs2  1  0.264251  0.433584  0.348039  1
  Cs  Cs3  1  0.830667  0.566416  0.651961  1
  Li  Li4  1  0.914351  0.727813  0.250000  1
  Li  Li5  1  0.186538  0.272187  0.750000  1
  Li  Li6  1  0.564709  0.978071  0.061272  1
  Li  Li7  1  0.586638  0.021929  0.938728  1
  Li  Li8  1  0.564709  0.978071  0.438728  1
  Li  Li9  1  0.586638  0.021929  0.561272  1
  Li  Li10  1  0.159911  0.169484  0.007132  1
  Li  Li11  1  0.990427  0.830516  0.992868  1
  Li  Li12  1  0.159911  0.169484  0.492868  1
  Li  Li13  1  0.990427  0.830516  0.507132  1
  B  B14  1  0.003287  0.906341  0.128171  1
  B  B15  1  0.096946  0.093659  0.871829  1
  B  B16  1  0.003287  0.906341  0.371829  1
  B  B17  1  0.096946  0.093659  0.628171  1
  B  B18  1  0.515570  0.930786  0.191425  1
  B  B19  1  0.584784  0.069214  0.808575  1
  B  B20  1  0.515570  0.930786  0.308575  1
  B  B21  1  0.584784  0.069214  0.691425  1
  B  B22  1  0.754934  0.399548  0.004470  1
  B  B23  1  0.355386  0.600452  0.995530  1
  B  B24  1  0.754934  0.399548  0.495530  1
  B  B25  1  0.355386  0.600452  0.504470  1
  B  B26  1  0.674971  0.247750  0.250000  1
  B  B27  1  0.427221  0.752250  0.750000  1
  O  O28  1  0.774205  0.443175  0.250000  1
  O  O29  1  0.331030  0.556825  0.750000  1
  O  O30  1  0.623487  0.144944  0.194035  1
  O  O31  1  0.478542  0.855056  0.805965  1
  O  O32  1  0.623487  0.144944  0.305965  1
  O  O33  1  0.478542  0.855056  0.694035  1
  O  O34  1  0.021772  0.563598  0.996914  1
  O  O35  1  0.458175  0.436402  0.003086  1
  O  O36  1  0.021772  0.563598  0.503086  1
  O  O37  1  0.458175  0.436402  0.496914  1
  O  O38  1  0.566315  0.842558  0.250000  1
  O  O39  1  0.723757  0.157442  0.750000  1
  O  O40  1  0.756353  0.219412  0.011934  1
  O  O41  1  0.536941  0.780588  0.988066  1
  O  O42  1  0.756353  0.219412  0.488066  1
  O  O43  1  0.536941  0.780588  0.511934  1
  O  O44  1  0.125428  0.971677  0.071491  1
  O  O45  1  0.153751  0.028323  0.928509  1
  O  O46  1  0.125428  0.971677  0.428509  1
  O  O47  1  0.153751  0.028323  0.571491  1
  O  O48  1  0.168646  0.860340  0.177169  1
  O  O49  1  0.308306  0.139660  0.822831  1
  O  O50  1  0.168646  0.860340  0.322831  1
  O  O51  1  0.308306  0.139660  0.677169  1
  O  O52  1  0.678741  0.871328  0.137850  1
  O  O53  1  0.807414  0.128672  0.862150  1
  O  O54  1  0.678741  0.871328  0.362150  1
  O  O55  1  0.807414  0.128672  0.637850  1
