# generated using pymatgen
data_Tl3Os
_symmetry_space_group_name_H-M   'P 1'
_cell_length_a   6.26347959
_cell_length_b   6.26419723
_cell_length_c   5.44515656
_cell_angle_alpha   90.02145586
_cell_angle_beta   89.98384495
_cell_angle_gamma   119.98430607
_symmetry_Int_Tables_number   1
_chemical_formula_structural   Tl3Os
_chemical_formula_sum   'Tl6 Os2'
_cell_volume   185.05069400
_cell_formula_units_Z   2
loop_
 _symmetry_equiv_pos_site_id
 _symmetry_equiv_pos_as_xyz
  1  'x, y, z'
loop_
 _atom_site_type_symbol
 _atom_site_label
 _atom_site_symmetry_multiplicity
 _atom_site_fract_x
 _atom_site_fract_y
 _atom_site_fract_z
 _atom_site_occupancy
  Tl  Tl0  1  0.828111  0.171910  0.750143  1
  Tl  Tl1  1  0.343750  0.171909  0.750041  1
  Tl  Tl2  1  0.828084  0.656240  0.750014  1
  Tl  Tl3  1  0.171987  0.827987  0.249843  1
  Tl  Tl4  1  0.655974  0.827973  0.249956  1
  Tl  Tl5  1  0.172013  0.344018  0.249983  1
  Os  Os6  1  0.666712  0.333242  0.250537  1
  Os  Os7  1  0.333367  0.666724  0.749480  1
