# generated using pymatgen
data_SmGa2Ni
_symmetry_space_group_name_H-M   'P 1'
_cell_length_a   4.13498724
_cell_length_b   4.15236331
_cell_length_c   8.95607911
_cell_angle_alpha   103.40413723
_cell_angle_beta   90.00000000
_cell_angle_gamma   90.00000000
_symmetry_Int_Tables_number   1
_chemical_formula_structural   SmGa2Ni
_chemical_formula_sum   'Sm2 Ga4 Ni2'
_cell_volume   149.58662400
_cell_formula_units_Z   2
loop_
 _symmetry_equiv_pos_site_id
 _symmetry_equiv_pos_as_xyz
  1  'x, y, z'
loop_
 _atom_site_type_symbol
 _atom_site_label
 _atom_site_symmetry_multiplicity
 _atom_site_fract_x
 _atom_site_fract_y
 _atom_site_fract_z
 _atom_site_occupancy
  Sm  Sm0  1  0.500000  0.356929  0.713859  1
  Sm  Sm1  1  0.500000  0.643071  0.286141  1
  Ga  Ga2  1  0.000000  0.209745  0.419489  1
  Ga  Ga3  1  -0.000000  0.790255  0.580511  1
  Ga  Ga4  1  0.500000  -0.000000  -0.000000  1
  Ga  Ga5  1  0.000000  0.500000  -0.000000  1
  Ni  Ni6  1  -0.000000  0.073460  0.146921  1
  Ni  Ni7  1  0.000000  0.926540  0.853079  1
