# generated using pymatgen
data_Ba4Mn3O10
_symmetry_space_group_name_H-M   'P 1'
_cell_length_a   5.78167427
_cell_length_b   7.24380771
_cell_length_c   13.08278942
_cell_angle_alpha   90.00000000
_cell_angle_beta   90.00000000
_cell_angle_gamma   113.52049067
_symmetry_Int_Tables_number   1
_chemical_formula_structural   Ba4Mn3O10
_chemical_formula_sum   'Ba8 Mn6 O20'
_cell_volume   502.40170465
_cell_formula_units_Z   2
loop_
 _symmetry_equiv_pos_site_id
 _symmetry_equiv_pos_as_xyz
  1  'x, y, z'
loop_
 _atom_site_type_symbol
 _atom_site_label
 _atom_site_symmetry_multiplicity
 _atom_site_fract_x
 _atom_site_fract_y
 _atom_site_fract_z
 _atom_site_occupancy
  O  O0  1  0.363618  0.227235  0.750000  1
  O  O1  1  0.136382  0.772765  0.250000  1
  O  O2  1  0.636382  0.772765  0.250000  1
  O  O3  1  0.863618  0.227235  0.750000  1
  O  O4  1  0.176901  0.792753  0.461380  1
  O  O5  1  0.384147  0.207247  0.538620  1
  O  O6  1  0.323099  0.207247  0.961380  1
  O  O7  1  0.115853  0.792753  0.038620  1
  O  O8  1  0.823099  0.207247  0.538620  1
  O  O9  1  0.615853  0.792753  0.461380  1
  O  O10  1  0.676901  0.792753  0.038620  1
  O  O11  1  0.884147  0.207247  0.961380  1
  O  O12  1  0.764104  0.528209  0.649952  1
  O  O13  1  0.235896  0.471791  0.350048  1
  O  O14  1  0.034087  0.068174  0.143674  1
  O  O15  1  0.965913  0.931826  0.856326  1
  O  O16  1  0.465913  0.931826  0.643674  1
  O  O17  1  0.534087  0.068174  0.356326  1
  O  O18  1  0.264104  0.528209  0.850048  1
  O  O19  1  0.735896  0.471791  0.149952  1
  Mn  Mn20  1  0.625634  0.251268  0.653096  1
  Mn  Mn21  1  0.374366  0.748732  0.346904  1
  Mn  Mn22  1  0.874366  0.748732  0.153096  1
  Mn  Mn23  1  0.125634  0.251268  0.846904  1
  Mn  Mn24  1  0.500000  0.000000  0.500000  1
  Mn  Mn25  1  0.000000  0.000000  0.000000  1
  Ba  Ba26  1  0.756765  0.513529  0.887848  1
  Ba  Ba27  1  0.243235  0.486471  0.112152  1
  Ba  Ba28  1  0.743235  0.486471  0.387848  1
  Ba  Ba29  1  0.256765  0.513529  0.612152  1
  Ba  Ba30  1  0.963410  0.926820  0.642338  1
  Ba  Ba31  1  0.036590  0.073180  0.357662  1
  Ba  Ba32  1  0.536590  0.073180  0.142338  1
  Ba  Ba33  1  0.463410  0.926820  0.857662  1
