# generated using pymatgen
data_Ti(TlS2)2
_symmetry_space_group_name_H-M   'P 1'
_cell_length_a   6.49283922
_cell_length_b   9.58756054
_cell_length_c   23.11507289
_cell_angle_alpha   90.00000000
_cell_angle_beta   90.00000000
_cell_angle_gamma   90.00000000
_symmetry_Int_Tables_number   1
_chemical_formula_structural   Ti(TlS2)2
_chemical_formula_sum   'Ti8 Tl16 S32'
_cell_volume   1438.92459294
_cell_formula_units_Z   8
loop_
 _symmetry_equiv_pos_site_id
 _symmetry_equiv_pos_as_xyz
  1  'x, y, z'
loop_
 _atom_site_type_symbol
 _atom_site_label
 _atom_site_symmetry_multiplicity
 _atom_site_fract_x
 _atom_site_fract_y
 _atom_site_fract_z
 _atom_site_occupancy
  S  S0  1  0.604405  0.038231  0.912149  1
  S  S1  1  0.104405  0.961769  0.587851  1
  S  S2  1  0.895595  0.538231  0.087851  1
  S  S3  1  0.395595  0.461769  0.412149  1
  S  S4  1  0.395595  0.961769  0.087851  1
  S  S5  1  0.895595  0.038231  0.412149  1
  S  S6  1  0.104405  0.461769  0.912149  1
  S  S7  1  0.604405  0.538231  0.587851  1
  S  S8  1  0.161729  0.816041  0.938052  1
  S  S9  1  0.661729  0.183959  0.561948  1
  S  S10  1  0.338271  0.316041  0.061948  1
  S  S11  1  0.838271  0.683959  0.438052  1
  S  S12  1  0.838271  0.183959  0.061948  1
  S  S13  1  0.338271  0.816041  0.438052  1
  S  S14  1  0.661729  0.683959  0.938052  1
  S  S15  1  0.161729  0.316041  0.561948  1
  S  S16  1  0.220694  0.729736  0.802644  1
  S  S17  1  0.720694  0.270264  0.697356  1
  S  S18  1  0.279306  0.229736  0.197356  1
  S  S19  1  0.779306  0.770264  0.302644  1
  S  S20  1  0.779306  0.270264  0.197356  1
  S  S21  1  0.279306  0.729736  0.302644  1
  S  S22  1  0.720694  0.770264  0.802644  1
  S  S23  1  0.220694  0.229736  0.697356  1
  S  S24  1  0.420119  0.566404  0.660769  1
  S  S25  1  0.920119  0.433596  0.839231  1
  S  S26  1  0.079881  0.066404  0.339231  1
  S  S27  1  0.579881  0.933596  0.160769  1
  S  S28  1  0.579881  0.433596  0.339231  1
  S  S29  1  0.079881  0.566404  0.160769  1
  S  S30  1  0.920119  0.933596  0.660769  1
  S  S31  1  0.420119  0.066404  0.839231  1
  Ti  Ti32  1  0.463127  0.822291  0.872996  1
  Ti  Ti33  1  0.963127  0.177709  0.627004  1
  Ti  Ti34  1  0.036873  0.322291  0.127004  1
  Ti  Ti35  1  0.536873  0.677709  0.372996  1
  Ti  Ti36  1  0.536873  0.177709  0.127004  1
  Ti  Ti37  1  0.036873  0.822291  0.372996  1
  Ti  Ti38  1  0.963127  0.677709  0.872996  1
  Ti  Ti39  1  0.463127  0.322291  0.627004  1
  Tl  Tl40  1  0.173948  0.137874  0.960331  1
  Tl  Tl41  1  0.673948  0.862126  0.539669  1
  Tl  Tl42  1  0.326052  0.637874  0.039669  1
  Tl  Tl43  1  0.826052  0.362126  0.460331  1
  Tl  Tl44  1  0.826052  0.862126  0.039669  1
  Tl  Tl45  1  0.326052  0.137874  0.460331  1
  Tl  Tl46  1  0.673948  0.362126  0.960331  1
  Tl  Tl47  1  0.173948  0.637874  0.539669  1
  Tl  Tl48  1  0.896753  0.068965  0.799328  1
  Tl  Tl49  1  0.396753  0.931035  0.700672  1
  Tl  Tl50  1  0.603247  0.568965  0.200672  1
  Tl  Tl51  1  0.103247  0.431035  0.299328  1
  Tl  Tl52  1  0.103247  0.931035  0.200672  1
  Tl  Tl53  1  0.603247  0.068965  0.299328  1
  Tl  Tl54  1  0.396753  0.431035  0.799328  1
  Tl  Tl55  1  0.896753  0.568965  0.700672  1
