# generated using pymatgen
data_TlSnF7
_symmetry_space_group_name_H-M   'P 1'
_cell_length_a   5.57003788
_cell_length_b   8.89643349
_cell_length_c   11.25967245
_cell_angle_alpha   107.26314280
_cell_angle_beta   90.00000000
_cell_angle_gamma   90.00000000
_symmetry_Int_Tables_number   1
_chemical_formula_structural   TlSnF7
_chemical_formula_sum   'Tl4 Sn4 F28'
_cell_volume   532.82100524
_cell_formula_units_Z   4
loop_
 _symmetry_equiv_pos_site_id
 _symmetry_equiv_pos_as_xyz
  1  'x, y, z'
loop_
 _atom_site_type_symbol
 _atom_site_label
 _atom_site_symmetry_multiplicity
 _atom_site_fract_x
 _atom_site_fract_y
 _atom_site_fract_z
 _atom_site_occupancy
  F  F0  1  0.072659  0.810646  0.542689  1
  F  F1  1  0.572659  0.689354  0.957311  1
  F  F2  1  0.927341  0.189354  0.457311  1
  F  F3  1  0.427341  0.310646  0.042689  1
  F  F4  1  0.939057  0.379615  0.084516  1
  F  F5  1  0.439057  0.120385  0.415484  1
  F  F6  1  0.060943  0.620385  0.915484  1
  F  F7  1  0.560943  0.879615  0.584516  1
  F  F8  1  0.292272  0.612576  0.135937  1
  F  F9  1  0.792272  0.887424  0.364063  1
  F  F10  1  0.707728  0.387424  0.864063  1
  F  F11  1  0.207728  0.112576  0.635937  1
  F  F12  1  0.256936  0.931374  0.951252  1
  F  F13  1  0.756936  0.568626  0.548748  1
  F  F14  1  0.743064  0.068626  0.048748  1
  F  F15  1  0.243064  0.431374  0.451252  1
  F  F16  1  0.954007  0.581619  0.318299  1
  F  F17  1  0.454007  0.918381  0.181701  1
  F  F18  1  0.045993  0.418381  0.681701  1
  F  F19  1  0.545993  0.081619  0.818299  1
  F  F20  1  0.970618  0.862532  0.143721  1
  F  F21  1  0.470618  0.637468  0.356279  1
  F  F22  1  0.029382  0.137468  0.856279  1
  F  F23  1  0.529382  0.362532  0.643721  1
  F  F24  1  0.898825  0.807744  0.770456  1
  F  F25  1  0.398825  0.692256  0.729544  1
  F  F26  1  0.101175  0.192256  0.229544  1
  F  F27  1  0.601175  0.307744  0.270456  1
  Sn  Sn28  1  0.761075  0.728704  0.457007  1
  Sn  Sn29  1  0.261075  0.771296  0.042993  1
  Sn  Sn30  1  0.238925  0.271296  0.542993  1
  Sn  Sn31  1  0.738925  0.228704  0.957007  1
  Tl  Tl32  1  0.240266  0.920920  0.735728  1
  Tl  Tl33  1  0.740266  0.579080  0.764272  1
  Tl  Tl34  1  0.759734  0.079080  0.264272  1
  Tl  Tl35  1  0.259734  0.420920  0.235728  1
