# generated using pymatgen
data_Cs6Si2O7
_symmetry_space_group_name_H-M   'P 1'
_cell_length_a   7.28968368
_cell_length_b   9.64442715
_cell_length_c   9.82513515
_cell_angle_alpha   90.00000000
_cell_angle_beta   90.01117576
_cell_angle_gamma   90.00000000
_symmetry_Int_Tables_number   1
_chemical_formula_structural   Cs6Si2O7
_chemical_formula_sum   'Cs12 Si4 O14'
_cell_volume   690.75437644
_cell_formula_units_Z   2
loop_
 _symmetry_equiv_pos_site_id
 _symmetry_equiv_pos_as_xyz
  1  'x, y, z'
loop_
 _atom_site_type_symbol
 _atom_site_label
 _atom_site_symmetry_multiplicity
 _atom_site_fract_x
 _atom_site_fract_y
 _atom_site_fract_z
 _atom_site_occupancy
  O  O0  1  0.066911  0.268626  0.062224  1
  O  O1  1  0.000000  0.000000  0.000000  1
  O  O2  1  0.500000  0.500000  0.500000  1
  O  O3  1  0.957435  0.924469  0.734715  1
  O  O4  1  0.433089  0.768626  0.437776  1
  O  O5  1  0.933089  0.731374  0.937776  1
  O  O6  1  0.566911  0.231374  0.562224  1
  O  O7  1  0.765085  0.653990  0.375545  1
  O  O8  1  0.734915  0.153990  0.124455  1
  O  O9  1  0.234915  0.346010  0.624455  1
  O  O10  1  0.265085  0.846010  0.875545  1
  O  O11  1  0.457435  0.575531  0.234715  1
  O  O12  1  0.042565  0.075531  0.265285  1
  O  O13  1  0.542565  0.424469  0.765285  1
  Si  Si14  1  0.540709  0.628472  0.382190  1
  Si  Si15  1  0.040709  0.871528  0.882190  1
  Si  Si16  1  0.459291  0.371528  0.617810  1
  Si  Si17  1  0.959291  0.128472  0.117810  1
  Cs  Cs18  1  0.882184  0.355855  0.403100  1
  Cs  Cs19  1  0.382184  0.144145  0.903100  1
  Cs  Cs20  1  0.117816  0.644145  0.596900  1
  Cs  Cs21  1  0.749351  0.972776  0.455166  1
  Cs  Cs22  1  0.750649  0.472776  0.044834  1
  Cs  Cs23  1  0.250649  0.027224  0.544834  1
  Cs  Cs24  1  0.249351  0.527224  0.955166  1
  Cs  Cs25  1  0.384003  0.275999  0.272785  1
  Cs  Cs26  1  0.115997  0.775999  0.227215  1
  Cs  Cs27  1  0.615997  0.724001  0.727215  1
  Cs  Cs28  1  0.884003  0.224001  0.772785  1
  Cs  Cs29  1  0.617816  0.855855  0.096900  1
