# generated using pymatgen
data_HoTe3
_symmetry_space_group_name_H-M   'P 1'
_cell_length_a   3.95787898
_cell_length_b   4.65090748
_cell_length_c   14.20144501
_cell_angle_alpha   90.00000000
_cell_angle_beta   98.01010545
_cell_angle_gamma   90.00000000
_symmetry_Int_Tables_number   1
_chemical_formula_structural   HoTe3
_chemical_formula_sum   'Ho2 Te6'
_cell_volume   258.86584367
_cell_formula_units_Z   2
loop_
 _symmetry_equiv_pos_site_id
 _symmetry_equiv_pos_as_xyz
  1  'x, y, z'
loop_
 _atom_site_type_symbol
 _atom_site_label
 _atom_site_symmetry_multiplicity
 _atom_site_fract_x
 _atom_site_fract_y
 _atom_site_fract_z
 _atom_site_occupancy
  Ho  Ho0  1  0.950444  0.250000  0.900887  1
  Ho  Ho1  1  0.049556  0.750000  0.099113  1
  Te  Te2  1  0.837546  0.250000  0.675092  1
  Te  Te3  1  0.162454  0.750000  0.324908  1
  Te  Te4  1  0.685443  0.250000  0.370886  1
  Te  Te5  1  0.314557  0.750000  0.629114  1
  Te  Te6  1  0.551637  0.250000  0.103274  1
  Te  Te7  1  0.448363  0.750000  0.896726  1
