# generated using pymatgen
data_Te2Mo3WSe6
_symmetry_space_group_name_H-M   'P 1'
_cell_length_a   3.37968367
_cell_length_b   3.37967739
_cell_length_c   38.50766945
_cell_angle_alpha   90.00019013
_cell_angle_beta   90.00000000
_cell_angle_gamma   120.00006157
_symmetry_Int_Tables_number   1
_chemical_formula_structural   Te2Mo3WSe6
_chemical_formula_sum   'Te2 Mo3 W1 Se6'
_cell_volume   380.91572091
_cell_formula_units_Z   1
loop_
 _symmetry_equiv_pos_site_id
 _symmetry_equiv_pos_as_xyz
  1  'x, y, z'
loop_
 _atom_site_type_symbol
 _atom_site_label
 _atom_site_symmetry_multiplicity
 _atom_site_fract_x
 _atom_site_fract_y
 _atom_site_fract_z
 _atom_site_occupancy
  Te  Te0  1  0.333365  0.666731  0.330668  1
  Te  Te1  1  0.333380  0.666762  0.232934  1
  Mo  Mo2  1  0.333315  0.666631  0.093909  1
  Mo  Mo3  1  0.666674  0.333349  0.281798  1
  Mo  Mo4  1  0.666677  0.333354  0.657523  1
  W  W5  1  0.333316  0.666633  0.469669  1
  Se  Se6  1  0.333341  0.666683  0.700522  1
  Se  Se7  1  0.666646  0.333290  0.050932  1
  Se  Se8  1  0.666647  0.333292  0.426540  1
  Se  Se9  1  0.666641  0.333280  0.136922  1
  Se  Se10  1  0.666647  0.333293  0.512805  1
  Se  Se11  1  0.333351  0.666703  0.614527  1
