# generated using pymatgen
data_Y2MnNiO6
_symmetry_space_group_name_H-M   'P 1'
_cell_length_a   5.28437501
_cell_length_b   5.60559642
_cell_length_c   7.58626267
_cell_angle_alpha   90.00000000
_cell_angle_beta   89.59701753
_cell_angle_gamma   90.00000000
_symmetry_Int_Tables_number   1
_chemical_formula_structural   Y2MnNiO6
_chemical_formula_sum   'Y4 Mn2 Ni2 O12'
_cell_volume   224.71527329
_cell_formula_units_Z   2
loop_
 _symmetry_equiv_pos_site_id
 _symmetry_equiv_pos_as_xyz
  1  'x, y, z'
loop_
 _atom_site_type_symbol
 _atom_site_label
 _atom_site_symmetry_multiplicity
 _atom_site_fract_x
 _atom_site_fract_y
 _atom_site_fract_z
 _atom_site_occupancy
  O  O0  1  0.201889  0.188156  0.947442  1
  O  O1  1  0.298111  0.688156  0.552558  1
  O  O2  1  0.798111  0.811844  0.052558  1
  O  O3  1  0.701889  0.311844  0.447442  1
  O  O4  1  0.183626  0.207140  0.557510  1
  O  O5  1  0.316374  0.707140  0.942490  1
  O  O6  1  0.816374  0.792860  0.442490  1
  O  O7  1  0.683626  0.292860  0.057510  1
  O  O8  1  0.108094  0.462774  0.257501  1
  O  O9  1  0.391906  0.962774  0.242499  1
  O  O10  1  0.891906  0.537226  0.742499  1
  O  O11  1  0.608094  0.037226  0.757501  1
  Mn  Mn12  1  0.500000  0.000000  0.000000  1
  Mn  Mn13  1  0.000000  0.500000  0.500000  1
  Ni  Ni14  1  0.500000  0.000000  0.500000  1
  Ni  Ni15  1  0.000000  0.500000  0.000000  1
  Y  Y16  1  0.480898  0.429265  0.748720  1
  Y  Y17  1  0.019102  0.929265  0.751280  1
  Y  Y18  1  0.519102  0.570735  0.251280  1
  Y  Y19  1  0.980898  0.070735  0.248720  1
