# generated using pymatgen
data_SrHo2CuO5
_symmetry_space_group_name_H-M   'P 1'
_cell_length_a   5.61938887
_cell_length_b   7.14355797
_cell_length_c   12.04310984
_cell_angle_alpha   90.00000000
_cell_angle_beta   90.00000000
_cell_angle_gamma   90.00000000
_symmetry_Int_Tables_number   1
_chemical_formula_structural   SrHo2CuO5
_chemical_formula_sum   'Sr4 Ho8 Cu4 O20'
_cell_volume   483.43969553
_cell_formula_units_Z   4
loop_
 _symmetry_equiv_pos_site_id
 _symmetry_equiv_pos_as_xyz
  1  'x, y, z'
loop_
 _atom_site_type_symbol
 _atom_site_label
 _atom_site_symmetry_multiplicity
 _atom_site_fract_x
 _atom_site_fract_y
 _atom_site_fract_z
 _atom_site_occupancy
  Sr  Sr0  1  0.250000  0.577206  0.411636  1
  Sr  Sr1  1  0.750000  0.422794  0.588364  1
  Sr  Sr2  1  0.750000  0.077206  0.088364  1
  Sr  Sr3  1  0.250000  0.922794  0.911636  1
  Ho  Ho4  1  0.250000  0.395766  0.073754  1
  Ho  Ho5  1  0.250000  0.385137  0.786870  1
  Ho  Ho6  1  0.750000  0.614863  0.213130  1
  Ho  Ho7  1  0.750000  0.604234  0.926246  1
  Ho  Ho8  1  0.750000  0.885137  0.713130  1
  Ho  Ho9  1  0.250000  0.104234  0.573754  1
  Ho  Ho10  1  0.250000  0.114863  0.286870  1
  Ho  Ho11  1  0.750000  0.895766  0.426246  1
  Cu  Cu12  1  0.750000  0.281745  0.337912  1
  Cu  Cu13  1  0.250000  0.781745  0.162088  1
  Cu  Cu14  1  0.750000  0.218255  0.837912  1
  Cu  Cu15  1  0.250000  0.718255  0.662088  1
  O  O16  1  0.004175  0.852874  0.274932  1
  O  O17  1  0.250000  0.422865  0.595043  1
  O  O18  1  0.993298  0.335122  0.933689  1
  O  O19  1  0.750000  0.922865  0.904957  1
  O  O20  1  0.504175  0.352874  0.225068  1
  O  O21  1  0.995825  0.352874  0.225068  1
  O  O22  1  0.493298  0.664878  0.066311  1
  O  O23  1  0.495825  0.852874  0.274932  1
  O  O24  1  0.993298  0.164878  0.433689  1
  O  O25  1  0.750000  0.577135  0.404957  1
  O  O26  1  0.493298  0.835122  0.566311  1
  O  O27  1  0.006702  0.664878  0.066311  1
  O  O28  1  0.506702  0.335122  0.933689  1
  O  O29  1  0.004175  0.647126  0.774932  1
  O  O30  1  0.495825  0.647126  0.774932  1
  O  O31  1  0.995825  0.147126  0.725068  1
  O  O32  1  0.506702  0.164878  0.433689  1
  O  O33  1  0.504175  0.147126  0.725068  1
  O  O34  1  0.250000  0.077135  0.095043  1
  O  O35  1  0.006702  0.835122  0.566311  1
