# generated using pymatgen
data_CeGe3Ir
_symmetry_space_group_name_H-M   'P 1'
_cell_length_a   4.43489888
_cell_length_b   4.43489888
_cell_length_c   5.94364714
_cell_angle_alpha   111.90562789
_cell_angle_beta   111.90562792
_cell_angle_gamma   89.99999992
_symmetry_Int_Tables_number   1
_chemical_formula_structural   CeGe3Ir
_chemical_formula_sum   'Ce1 Ge3 Ir1'
_cell_volume   99.30612119
_cell_formula_units_Z   1
loop_
 _symmetry_equiv_pos_site_id
 _symmetry_equiv_pos_as_xyz
  1  'x, y, z'
loop_
 _atom_site_type_symbol
 _atom_site_label
 _atom_site_symmetry_multiplicity
 _atom_site_fract_x
 _atom_site_fract_y
 _atom_site_fract_z
 _atom_site_occupancy
  Ge  Ge0  1  0.843929  0.343929  0.687858  1
  Ge  Ge1  1  0.343929  0.843929  0.687858  1
  Ge  Ge2  1  0.001404  0.001404  0.002808  1
  Ce  Ce3  1  0.576806  0.576806  0.153612  1
  Ir  Ir4  1  0.239602  0.239602  0.479204  1
