# generated using pymatgen
data_Tl2Ge2S5
_symmetry_space_group_name_H-M   'P 1'
_cell_length_a   9.04367911
_cell_length_b   10.93924517
_cell_length_c   10.93924517
_cell_angle_alpha   90.12215088
_cell_angle_beta   99.51278346
_cell_angle_gamma   99.51278340
_symmetry_Int_Tables_number   1
_chemical_formula_structural   Tl2Ge2S5
_chemical_formula_sum   'Tl8 Ge8 S20'
_cell_volume   1052.18887112
_cell_formula_units_Z   4
loop_
 _symmetry_equiv_pos_site_id
 _symmetry_equiv_pos_as_xyz
  1  'x, y, z'
loop_
 _atom_site_type_symbol
 _atom_site_label
 _atom_site_symmetry_multiplicity
 _atom_site_fract_x
 _atom_site_fract_y
 _atom_site_fract_z
 _atom_site_occupancy
  S  S0  1  0.250000  0.454670  0.545330  1
  S  S1  1  0.750000  0.545330  0.454670  1
  S  S2  1  0.250000  0.113747  0.886253  1
  S  S3  1  0.750000  0.886253  0.113747  1
  S  S4  1  0.530733  0.990651  0.754435  1
  S  S5  1  0.969267  0.245565  0.009349  1
  S  S6  1  0.469267  0.009349  0.245565  1
  S  S7  1  0.030733  0.754435  0.990651  1
  S  S8  1  0.956465  0.245228  0.350227  1
  S  S9  1  0.543535  0.649773  0.754772  1
  S  S10  1  0.043535  0.754772  0.649773  1
  S  S11  1  0.456465  0.350227  0.245228  1
  S  S12  1  0.047112  0.756397  0.320087  1
  S  S13  1  0.452888  0.679913  0.243603  1
  S  S14  1  0.952888  0.243603  0.679913  1
  S  S15  1  0.547112  0.320087  0.756397  1
  S  S16  1  0.744417  0.541572  0.112548  1
  S  S17  1  0.755583  0.887452  0.458428  1
  S  S18  1  0.255583  0.458428  0.887452  1
  S  S19  1  0.244417  0.112548  0.541572  1
  Ge  Ge20  1  0.609355  0.866556  0.269532  1
  Ge  Ge21  1  0.890645  0.730468  0.133444  1
  Ge  Ge22  1  0.390645  0.133444  0.730468  1
  Ge  Ge23  1  0.109355  0.269532  0.866556  1
  Ge  Ge24  1  0.101778  0.266121  0.530548  1
  Ge  Ge25  1  0.398222  0.469452  0.733879  1
  Ge  Ge26  1  0.898222  0.733879  0.469452  1
  Ge  Ge27  1  0.601778  0.530548  0.266121  1
  Tl  Tl28  1  0.899737  0.937250  0.794336  1
  Tl  Tl29  1  0.600263  0.205664  0.062750  1
  Tl  Tl30  1  0.100263  0.062750  0.205664  1
  Tl  Tl31  1  0.399737  0.794336  0.937250  1
  Tl  Tl32  1  0.622508  0.205535  0.452041  1
  Tl  Tl33  1  0.877492  0.547959  0.794465  1
  Tl  Tl34  1  0.377492  0.794465  0.547959  1
  Tl  Tl35  1  0.122508  0.452041  0.205535  1
