# generated using pymatgen
data_Na5Y(MoO4)4
_symmetry_space_group_name_H-M   'P 1'
_cell_length_a   10.02501364
_cell_length_b   10.02501364
_cell_length_c   10.02501364
_cell_angle_alpha   109.46939320
_cell_angle_beta   109.47213434
_cell_angle_gamma   109.47213437
_symmetry_Int_Tables_number   1
_chemical_formula_structural   Na5Y(MoO4)4
_chemical_formula_sum   'Na10 Y2 Mo8 O32'
_cell_volume   775.59147198
_cell_formula_units_Z   2
loop_
 _symmetry_equiv_pos_site_id
 _symmetry_equiv_pos_as_xyz
  1  'x, y, z'
loop_
 _atom_site_type_symbol
 _atom_site_label
 _atom_site_symmetry_multiplicity
 _atom_site_fract_x
 _atom_site_fract_y
 _atom_site_fract_z
 _atom_site_occupancy
  O  O0  1  0.790273  0.486716  0.343191  1
  O  O1  1  0.856475  0.843192  0.552919  1
  O  O2  1  0.643525  0.196444  0.986717  1
  O  O3  1  0.709727  0.052918  0.696443  1
  O  O4  1  0.209727  0.513283  0.656808  1
  O  O5  1  0.143525  0.156808  0.447082  1
  O  O6  1  0.356475  0.803556  0.013283  1
  O  O7  1  0.290273  0.947081  0.303557  1
  O  O8  1  0.512730  0.518393  0.364445  1
  O  O9  1  0.846053  0.864446  0.851716  1
  O  O10  1  0.653947  0.505663  0.018392  1
  O  O11  1  0.987271  0.351716  0.005664  1
  O  O12  1  0.487271  0.481607  0.635554  1
  O  O13  1  0.153948  0.135555  0.148284  1
  O  O14  1  0.346053  0.494336  0.981607  1
  O  O15  1  0.012729  0.648284  0.994336  1
  O  O16  1  0.421276  0.271553  0.070801  1
  O  O17  1  0.799247  0.570800  0.649524  1
  O  O18  1  0.700753  0.350277  0.771553  1
  O  O19  1  0.078724  0.149524  0.850277  1
  O  O20  1  0.072538  0.697552  0.329053  1
  O  O21  1  0.631500  0.829052  0.256515  1
  O  O22  1  0.868499  0.125014  0.197551  1
  O  O23  1  0.427463  0.756514  0.625014  1
  O  O24  1  0.927462  0.302448  0.670948  1
  O  O25  1  0.368500  0.170948  0.743486  1
  O  O26  1  0.578724  0.728447  0.929200  1
  O  O27  1  0.572537  0.243485  0.374985  1
  O  O28  1  0.921276  0.850476  0.149723  1
  O  O29  1  0.299247  0.649723  0.228447  1
  O  O30  1  0.200753  0.429200  0.350476  1
  O  O31  1  0.131500  0.874985  0.802448  1
  Na  Na32  1  0.250000  0.875000  0.625000  1
  Na  Na33  1  0.750000  0.125000  0.375000  1
  Na  Na34  1  0.832440  0.721671  0.296412  1
  Na  Na35  1  0.574741  0.796412  0.463972  1
  Na  Na36  1  0.925258  0.389231  0.221671  1
  Na  Na37  1  0.667560  0.963973  0.889231  1
  Na  Na38  1  0.167560  0.278329  0.703588  1
  Na  Na39  1  0.425259  0.203587  0.536028  1
  Na  Na40  1  0.074741  0.610769  0.778329  1
  Na  Na41  1  0.332440  0.036028  0.110770  1
  Y  Y42  1  0.750000  0.624999  0.875000  1
  Y  Y43  1  0.250000  0.375000  0.125000  1
  Mo  Mo44  1  0.337083  0.545016  0.569711  1
  Mo  Mo45  1  0.475305  0.707934  0.045016  1
  Mo  Mo46  1  0.024694  0.069710  0.232628  1
  Mo  Mo47  1  0.162918  0.732629  0.207934  1
  Mo  Mo48  1  0.837082  0.267371  0.792066  1
  Mo  Mo49  1  0.524695  0.292066  0.954984  1
  Mo  Mo50  1  0.975305  0.930289  0.767371  1
  Mo  Mo51  1  0.662918  0.454984  0.430289  1
