# generated using pymatgen
data_K3Na2SnP3
_symmetry_space_group_name_H-M   'P 1'
_cell_length_a   6.71315418
_cell_length_b   10.60505979
_cell_length_c   15.15119137
_cell_angle_alpha   90.00000000
_cell_angle_beta   90.00000000
_cell_angle_gamma   108.45182215
_symmetry_Int_Tables_number   1
_chemical_formula_structural   K3Na2SnP3
_chemical_formula_sum   'K12 Na8 Sn4 P12'
_cell_volume   1023.21082958
_cell_formula_units_Z   4
loop_
 _symmetry_equiv_pos_site_id
 _symmetry_equiv_pos_as_xyz
  1  'x, y, z'
loop_
 _atom_site_type_symbol
 _atom_site_label
 _atom_site_symmetry_multiplicity
 _atom_site_fract_x
 _atom_site_fract_y
 _atom_site_fract_z
 _atom_site_occupancy
  Na  Na0  1  0.080825  0.161649  0.000000  1
  Na  Na1  1  0.419175  0.838351  0.500000  1
  Na  Na2  1  0.919175  0.838351  0.000000  1
  Na  Na3  1  0.580825  0.161649  0.500000  1
  Na  Na4  1  0.244807  0.489615  0.000000  1
  Na  Na5  1  0.255193  0.510385  0.500000  1
  Na  Na6  1  0.755193  0.510385  0.000000  1
  Na  Na7  1  0.744807  0.489615  0.500000  1
  P  P8  1  0.561488  0.684522  0.896424  1
  P  P9  1  0.123034  0.684522  0.103576  1
  P  P10  1  0.938512  0.315478  0.396424  1
  P  P11  1  0.623034  0.684522  0.396424  1
  P  P12  1  0.438512  0.315478  0.103576  1
  P  P13  1  0.876966  0.315478  0.896424  1
  P  P14  1  0.061488  0.684522  0.603576  1
  P  P15  1  0.203376  0.000000  0.407561  1
  P  P16  1  0.703376  0.000000  0.092439  1
  P  P17  1  0.296624  0.000000  0.907561  1
  P  P18  1  0.376966  0.315478  0.603576  1
  P  P19  1  0.796624  0.000000  0.592439  1
  K  K20  1  0.436706  0.333958  0.323191  1
  K  K21  1  0.740866  0.000000  0.319968  1
  K  K22  1  0.240866  0.000000  0.180032  1
  K  K23  1  0.759134  0.000000  0.819968  1
  K  K24  1  0.602748  0.666042  0.176809  1
  K  K25  1  0.897252  0.333958  0.676809  1
  K  K26  1  0.063294  0.666042  0.823191  1
  K  K27  1  0.397252  0.333958  0.823191  1
  K  K28  1  0.563294  0.666042  0.676809  1
  K  K29  1  0.102748  0.666042  0.323191  1
  K  K30  1  0.936706  0.333958  0.176809  1
  K  K31  1  0.259134  0.000000  0.680032  1
  Sn  Sn32  1  0.911850  0.823699  0.500000  1
  Sn  Sn33  1  0.588150  0.176301  0.000000  1
  Sn  Sn34  1  0.088150  0.176301  0.500000  1
  Sn  Sn35  1  0.411850  0.823699  0.000000  1
