# generated using pymatgen
data_Cu15Si4
_symmetry_space_group_name_H-M   'P 1'
_cell_length_a   8.40442571
_cell_length_b   8.40442572
_cell_length_c   8.40442572
_cell_angle_alpha   109.47122064
_cell_angle_beta   109.47122065
_cell_angle_gamma   109.47122064
_symmetry_Int_Tables_number   1
_chemical_formula_structural   Cu15Si4
_chemical_formula_sum   'Si8 Cu30'
_cell_volume   456.98530817
_cell_formula_units_Z   2
loop_
 _symmetry_equiv_pos_site_id
 _symmetry_equiv_pos_as_xyz
  1  'x, y, z'
loop_
 _atom_site_type_symbol
 _atom_site_label
 _atom_site_symmetry_multiplicity
 _atom_site_fract_x
 _atom_site_fract_y
 _atom_site_fract_z
 _atom_site_occupancy
  Si  Si0  1  0.411518  0.411518  0.411518  1
  Si  Si1  1  0.588482  0.500000  0.000000  1
  Si  Si2  1  0.000000  0.588482  0.500000  1
  Si  Si3  1  0.500000  0.000000  0.588482  1
  Si  Si4  1  0.000000  0.088482  0.500000  1
  Si  Si5  1  0.500000  0.000000  0.088482  1
  Si  Si6  1  0.088482  0.500000  0.000000  1
  Si  Si7  1  0.911518  0.911518  0.911518  1
  Cu  Cu8  1  0.250000  0.625000  0.375000  1
  Cu  Cu9  1  0.375000  0.250000  0.625000  1
  Cu  Cu10  1  0.125000  0.750000  0.875000  1
  Cu  Cu11  1  0.875000  0.125000  0.750000  1
  Cu  Cu12  1  0.625000  0.375000  0.250000  1
  Cu  Cu13  1  0.750000  0.875000  0.125000  1
  Cu  Cu14  1  0.123539  0.073533  0.274996  1
  Cu  Cu15  1  0.926467  0.701464  0.050006  1
  Cu  Cu16  1  0.151458  0.876461  0.449994  1
  Cu  Cu17  1  0.449994  0.151458  0.876461  1
  Cu  Cu18  1  0.725004  0.348542  0.798536  1
  Cu  Cu19  1  0.798536  0.725004  0.348542  1
  Cu  Cu20  1  0.701464  0.050006  0.926467  1
  Cu  Cu21  1  0.848542  0.225004  0.298536  1
  Cu  Cu22  1  0.550006  0.201464  0.426467  1
  Cu  Cu23  1  0.651458  0.949994  0.376461  1
  Cu  Cu24  1  0.225004  0.298536  0.848542  1
  Cu  Cu25  1  0.426467  0.550006  0.201464  1
  Cu  Cu26  1  0.949994  0.376461  0.651458  1
  Cu  Cu27  1  0.274996  0.123539  0.073533  1
  Cu  Cu28  1  0.073533  0.274996  0.123539  1
  Cu  Cu29  1  0.298536  0.848542  0.225004  1
  Cu  Cu30  1  0.201464  0.426467  0.550006  1
  Cu  Cu31  1  0.376461  0.651458  0.949994  1
  Cu  Cu32  1  0.573533  0.623539  0.774996  1
  Cu  Cu33  1  0.774996  0.573533  0.623539  1
  Cu  Cu34  1  0.623539  0.774996  0.573533  1
  Cu  Cu35  1  0.348542  0.798536  0.725004  1
  Cu  Cu36  1  0.050006  0.926467  0.701464  1
  Cu  Cu37  1  0.876461  0.449994  0.151458  1
