# generated using pymatgen
data_LaSiNO2
_symmetry_space_group_name_H-M   'P 1'
_cell_length_a   7.43141941
_cell_length_b   7.43141942
_cell_length_c   9.74993663
_cell_angle_alpha   90.00000000
_cell_angle_beta   90.00000000
_cell_angle_gamma   120.00000002
_symmetry_Int_Tables_number   1
_chemical_formula_structural   LaSiNO2
_chemical_formula_sum   'La6 Si6 N6 O12'
_cell_volume   466.31133241
_cell_formula_units_Z   6
loop_
 _symmetry_equiv_pos_site_id
 _symmetry_equiv_pos_as_xyz
  1  'x, y, z'
loop_
 _atom_site_type_symbol
 _atom_site_label
 _atom_site_symmetry_multiplicity
 _atom_site_fract_x
 _atom_site_fract_y
 _atom_site_fract_z
 _atom_site_occupancy
  N  N0  1  0.666572  0.222293  0.750000  1
  N  N1  1  0.777707  0.444279  0.750000  1
  N  N2  1  0.555721  0.333428  0.750000  1
  N  N3  1  0.555721  0.222293  0.250000  1
  N  N4  1  0.777707  0.333428  0.250000  1
  N  N5  1  0.666572  0.444279  0.250000  1
  O  O6  1  0.020943  0.333206  0.595720  1
  O  O7  1  0.666794  0.979057  0.404280  1
  O  O8  1  0.666794  0.687737  0.595720  1
  O  O9  1  0.312263  0.979057  0.595720  1
  O  O10  1  0.666794  0.687737  0.904280  1
  O  O11  1  0.312263  0.979057  0.904280  1
  O  O12  1  0.666794  0.979057  0.095720  1
  O  O13  1  0.312263  0.333206  0.404280  1
  O  O14  1  0.020943  0.687737  0.404280  1
  O  O15  1  0.020943  0.687737  0.095720  1
  O  O16  1  0.312263  0.333206  0.095720  1
  O  O17  1  0.020943  0.333206  0.904280  1
  Si  Si18  1  0.665988  0.782598  0.750000  1
  Si  Si19  1  0.217402  0.883390  0.750000  1
  Si  Si20  1  0.116610  0.334012  0.750000  1
  Si  Si21  1  0.116610  0.782598  0.250000  1
  Si  Si22  1  0.217402  0.334012  0.250000  1
  Si  Si23  1  0.665988  0.883390  0.250000  1
  La  La24  1  0.666667  0.333333  0.500000  1
  La  La25  1  0.666667  0.333333  0.000000  1
  La  La26  1  0.333333  0.666667  0.500000  1
  La  La27  1  0.333333  0.666667  0.000000  1
  La  La28  1  0.000000  0.000000  0.500000  1
  La  La29  1  0.000000  0.000000  0.000000  1
