# generated using pymatgen
data_Li2PdF6
_symmetry_space_group_name_H-M   'P 1'
_cell_length_a   4.72437241
_cell_length_b   4.72892905
_cell_length_c   9.22987450
_cell_angle_alpha   90.00000000
_cell_angle_beta   90.01973762
_cell_angle_gamma   90.00000000
_symmetry_Int_Tables_number   1
_chemical_formula_structural   Li2PdF6
_chemical_formula_sum   'Li4 Pd2 F12'
_cell_volume   206.20666258
_cell_formula_units_Z   2
loop_
 _symmetry_equiv_pos_site_id
 _symmetry_equiv_pos_as_xyz
  1  'x, y, z'
loop_
 _atom_site_type_symbol
 _atom_site_label
 _atom_site_symmetry_multiplicity
 _atom_site_fract_x
 _atom_site_fract_y
 _atom_site_fract_z
 _atom_site_occupancy
  Li  Li0  1  0.000089  0.999661  0.335978  1
  Li  Li1  1  0.500089  0.500339  0.835978  1
  Li  Li2  1  0.999911  0.000339  0.664022  1
  Li  Li3  1  0.499911  0.499661  0.164022  1
  F  F4  1  0.307393  0.691872  0.659672  1
  F  F5  1  0.192607  0.191872  0.840328  1
  F  F6  1  0.707986  0.293144  0.000010  1
  F  F7  1  0.792014  0.793144  0.499990  1
  F  F8  1  0.292014  0.706856  0.999990  1
  F  F9  1  0.207986  0.206856  0.500010  1
  F  F10  1  0.192639  0.191513  0.159839  1
  F  F11  1  0.307361  0.691513  0.340161  1
  F  F12  1  0.807361  0.808487  0.840161  1
  F  F13  1  0.692639  0.308487  0.659839  1
  F  F14  1  0.807393  0.808128  0.159672  1
  F  F15  1  0.692607  0.308128  0.340328  1
  Pd  Pd16  1  0.500000  0.500000  0.500000  1
  Pd  Pd17  1  0.000000  0.000000  0.000000  1
