# generated using pymatgen
data_Te2MoW3(Se2S)2
_symmetry_space_group_name_H-M   'P 1'
_cell_length_a   3.34244025
_cell_length_b   3.34246775
_cell_length_c   38.73376526
_cell_angle_alpha   90.00031086
_cell_angle_beta   90.00000000
_cell_angle_gamma   119.99972390
_symmetry_Int_Tables_number   1
_chemical_formula_structural   Te2MoW3(Se2S)2
_chemical_formula_sum   'Te2 Mo1 W3 Se4 S2'
_cell_volume   374.75931301
_cell_formula_units_Z   1
loop_
 _symmetry_equiv_pos_site_id
 _symmetry_equiv_pos_as_xyz
  1  'x, y, z'
loop_
 _atom_site_type_symbol
 _atom_site_label
 _atom_site_symmetry_multiplicity
 _atom_site_fract_x
 _atom_site_fract_y
 _atom_site_fract_z
 _atom_site_occupancy
  Te  Te0  1  0.333349  0.666699  0.706784  1
  Te  Te1  1  0.333350  0.666702  0.608309  1
  Mo  Mo2  1  0.666685  0.333371  0.281762  1
  W  W3  1  0.333315  0.666630  0.093935  1
  W  W4  1  0.333314  0.666628  0.469619  1
  W  W5  1  0.666685  0.333370  0.657559  1
  Se  Se6  1  0.333351  0.666702  0.324840  1
  Se  Se7  1  0.666650  0.333299  0.426397  1
  Se  Se8  1  0.666649  0.333297  0.512892  1
  Se  Se9  1  0.333359  0.666720  0.238760  1
  S  S10  1  0.666648  0.333296  0.054672  1
  S  S11  1  0.666644  0.333288  0.133218  1
