# generated using pymatgen
data_K3GaO3
_symmetry_space_group_name_H-M   'P 1'
_cell_length_a   6.59231476
_cell_length_b   6.68843320
_cell_length_c   6.68843320
_cell_angle_alpha   115.12571105
_cell_angle_beta   96.29216128
_cell_angle_gamma   96.29216122
_symmetry_Int_Tables_number   1
_chemical_formula_structural   K3GaO3
_chemical_formula_sum   'K6 Ga2 O6'
_cell_volume   261.37009664
_cell_formula_units_Z   2
loop_
 _symmetry_equiv_pos_site_id
 _symmetry_equiv_pos_as_xyz
  1  'x, y, z'
loop_
 _atom_site_type_symbol
 _atom_site_label
 _atom_site_symmetry_multiplicity
 _atom_site_fract_x
 _atom_site_fract_y
 _atom_site_fract_z
 _atom_site_occupancy
  O  O0  1  0.734198  0.843900  0.572200  1
  O  O1  1  0.154511  0.899574  0.899574  1
  O  O2  1  0.845489  0.100426  0.100426  1
  O  O3  1  0.265802  0.156100  0.427800  1
  O  O4  1  0.265802  0.427800  0.156100  1
  O  O5  1  0.734198  0.572200  0.843900  1
  K  K6  1  0.350596  0.626709  0.626709  1
  K  K7  1  0.000000  0.742063  0.257937  1
  K  K8  1  0.500000  0.804592  0.195408  1
  K  K9  1  0.000000  0.257937  0.742063  1
  K  K10  1  0.649404  0.373291  0.373291  1
  K  K11  1  0.500000  0.195408  0.804592  1
  Ga  Ga12  1  0.851837  0.829863  0.829863  1
  Ga  Ga13  1  0.148163  0.170137  0.170137  1
