# generated using pymatgen
data_NaCa9Mn(PO4)7
_symmetry_space_group_name_H-M   'P 1'
_cell_length_a   13.88303951
_cell_length_b   13.88303951
_cell_length_c   13.88303951
_cell_angle_alpha   44.37556071
_cell_angle_beta   44.37556071
_cell_angle_gamma   44.37556069
_symmetry_Int_Tables_number   1
_chemical_formula_structural   NaCa9Mn(PO4)7
_chemical_formula_sum   'Na2 Ca18 Mn2 P14 O56'
_cell_volume   1189.62338224
_cell_formula_units_Z   2
loop_
 _symmetry_equiv_pos_site_id
 _symmetry_equiv_pos_as_xyz
  1  'x, y, z'
loop_
 _atom_site_type_symbol
 _atom_site_label
 _atom_site_symmetry_multiplicity
 _atom_site_fract_x
 _atom_site_fract_y
 _atom_site_fract_z
 _atom_site_occupancy
  O  O0  1  0.114547  0.670557  0.690214  1
  O  O1  1  0.670557  0.690214  0.114547  1
  O  O2  1  0.690214  0.114547  0.670557  1
  O  O3  1  0.190213  0.170557  0.614547  1
  O  O4  1  0.170556  0.614547  0.190214  1
  O  O5  1  0.614547  0.190214  0.170556  1
  O  O6  1  0.362543  0.618591  0.640423  1
  O  O7  1  0.618591  0.640423  0.362544  1
  O  O8  1  0.640423  0.362544  0.618591  1
  O  O9  1  0.140423  0.118590  0.862544  1
  O  O10  1  0.118591  0.862543  0.140423  1
  O  O11  1  0.862544  0.140423  0.118590  1
  O  O12  1  0.126321  0.854027  0.673329  1
  O  O13  1  0.854027  0.673328  0.126320  1
  O  O14  1  0.673329  0.126320  0.854027  1
  O  O15  1  0.173329  0.354027  0.626320  1
  O  O16  1  0.354028  0.626320  0.173328  1
  O  O17  1  0.626320  0.173329  0.354028  1
  O  O18  1  0.144795  0.588817  0.899560  1
  O  O19  1  0.588817  0.899560  0.144795  1
  O  O20  1  0.899560  0.144795  0.588816  1
  O  O21  1  0.399560  0.088816  0.644795  1
  O  O22  1  0.383294  0.844375  0.635473  1
  O  O23  1  0.644795  0.399560  0.088816  1
  O  O24  1  0.149842  0.869078  0.875144  1
  O  O25  1  0.869078  0.875144  0.149842  1
  O  O26  1  0.875145  0.149841  0.869077  1
  O  O27  1  0.375144  0.369077  0.649842  1
  O  O28  1  0.369077  0.649842  0.375144  1
  O  O29  1  0.649842  0.375144  0.369078  1
  O  O30  1  0.338276  0.608155  0.892417  1
  O  O31  1  0.608156  0.892416  0.338276  1
  O  O32  1  0.892416  0.338276  0.608156  1
  O  O33  1  0.392417  0.108155  0.838275  1
  O  O34  1  0.108155  0.838275  0.392417  1
  O  O35  1  0.838276  0.392417  0.108155  1
  O  O36  1  0.307849  0.307848  0.307848  1
  O  O37  1  0.807848  0.807848  0.807848  1
  O  O38  1  0.254669  0.111426  0.392049  1
  O  O39  1  0.392048  0.254670  0.111427  1
  O  O40  1  0.111427  0.392048  0.254670  1
  O  O41  1  0.611426  0.754670  0.892049  1
  O  O42  1  0.892048  0.611426  0.754670  1
  O  O43  1  0.754670  0.892048  0.611426  1
  O  O44  1  0.914817  0.351576  0.255367  1
  O  O45  1  0.255367  0.914817  0.351576  1
  O  O46  1  0.351576  0.255367  0.914818  1
  O  O47  1  0.851576  0.414817  0.755367  1
  O  O48  1  0.755367  0.851576  0.414817  1
  O  O49  1  0.414817  0.755367  0.851576  1
  O  O50  1  0.883293  0.135472  0.344376  1
  O  O51  1  0.344375  0.883293  0.135473  1
  O  O52  1  0.135473  0.344375  0.883293  1
  O  O53  1  0.635473  0.383294  0.844375  1
  O  O54  1  0.844375  0.635473  0.383293  1
  O  O55  1  0.088816  0.644795  0.399560  1
  Na  Na56  1  0.686841  0.686841  0.686840  1
  Na  Na57  1  0.186841  0.186841  0.186841  1
  P  P58  1  0.809111  0.325670  0.770505  1
  P  P59  1  0.226963  0.183892  0.686000  1
  P  P60  1  0.183892  0.686000  0.226963  1
  P  P61  1  0.686001  0.226962  0.183893  1
  P  P62  1  0.325670  0.770505  0.809111  1
  P  P63  1  0.770505  0.809110  0.325670  1
  P  P64  1  0.726962  0.186001  0.683892  1
  P  P65  1  0.309110  0.270505  0.825670  1
  P  P66  1  0.270506  0.825669  0.309110  1
  P  P67  1  0.825670  0.309111  0.270505  1
  P  P68  1  0.766515  0.766514  0.766514  1
  P  P69  1  0.266514  0.266514  0.266514  1
  P  P70  1  0.683893  0.726962  0.186000  1
  P  P71  1  0.186001  0.683893  0.726962  1
  Ca  Ca72  1  0.947141  0.559178  0.972107  1
  Ca  Ca73  1  0.160178  0.564307  0.575068  1
  Ca  Ca74  1  0.575068  0.160178  0.564307  1
  Ca  Ca75  1  0.559178  0.972107  0.947142  1
  Ca  Ca76  1  0.972108  0.947141  0.559178  1
  Ca  Ca77  1  0.472108  0.059178  0.447141  1
  Ca  Ca78  1  0.059178  0.447141  0.472108  1
  Ca  Ca79  1  0.447141  0.472107  0.059178  1
  Ca  Ca80  1  0.348848  0.907616  0.939684  1
  Ca  Ca81  1  0.907615  0.939684  0.348847  1
  Ca  Ca82  1  0.564306  0.575069  0.160178  1
  Ca  Ca83  1  0.439684  0.407615  0.848848  1
  Ca  Ca84  1  0.407615  0.848847  0.439685  1
  Ca  Ca85  1  0.848848  0.439685  0.407615  1
  Ca  Ca86  1  0.660179  0.075068  0.064307  1
  Ca  Ca87  1  0.075068  0.064306  0.660179  1
  Ca  Ca88  1  0.064306  0.660178  0.075068  1
  Ca  Ca89  1  0.939685  0.348848  0.907615  1
  Mn  Mn90  1  0.001150  0.001150  0.001149  1
  Mn  Mn91  1  0.501149  0.501150  0.501149  1
