# generated using pymatgen
data_Ba3NaY3(Si3O10)2
_symmetry_space_group_name_H-M   'P 1'
_cell_length_a   5.58718491
_cell_length_b   12.29522187
_cell_length_c   14.85038708
_cell_angle_alpha   90.00000000
_cell_angle_beta   90.00000000
_cell_angle_gamma   103.13284473
_symmetry_Int_Tables_number   1
_chemical_formula_structural   Ba3NaY3(Si3O10)2
_chemical_formula_sum   'Ba6 Na2 Y6 Si12 O40'
_cell_volume   993.47609099
_cell_formula_units_Z   2
loop_
 _symmetry_equiv_pos_site_id
 _symmetry_equiv_pos_as_xyz
  1  'x, y, z'
loop_
 _atom_site_type_symbol
 _atom_site_label
 _atom_site_symmetry_multiplicity
 _atom_site_fract_x
 _atom_site_fract_y
 _atom_site_fract_z
 _atom_site_occupancy
  Ba  Ba0  1  0.850351  0.841302  0.750000  1
  Ba  Ba1  1  0.009049  0.158698  0.250000  1
  Ba  Ba2  1  0.174106  0.485344  0.113499  1
  Ba  Ba3  1  0.688762  0.514656  0.886501  1
  Ba  Ba4  1  0.174106  0.485344  0.386501  1
  Ba  Ba5  1  0.688762  0.514656  0.613499  1
  Na  Na6  1  0.252905  0.777185  0.250000  1
  Na  Na7  1  0.475720  0.222815  0.750000  1
  Y  Y8  1  0.397018  0.781192  0.970782  1
  Y  Y9  1  0.615826  0.218808  0.029218  1
  Y  Y10  1  0.397018  0.781192  0.529218  1
  Y  Y11  1  0.615826  0.218808  0.470782  1
  Y  Y12  1  0.997473  -0.000000  -0.000000  1
  Y  Y13  1  0.997473  -0.000000  0.500000  1
  Si  Si14  1  0.282287  0.645213  0.750000  1
  Si  Si15  1  0.637073  0.354787  0.250000  1
  Si  Si16  1  0.815983  0.700496  0.056881  1
  Si  Si17  1  0.115487  0.299504  0.943119  1
  Si  Si18  1  0.815983  0.700496  0.443119  1
  Si  Si19  1  0.115487  0.299504  0.556881  1
  Si  Si20  1  0.440372  0.999287  0.138081  1
  Si  Si21  1  0.441085  0.000713  0.861919  1
  Si  Si22  1  0.440372  0.999287  0.361919  1
  Si  Si23  1  0.441085  0.000713  0.638081  1
  Si  Si24  1  0.719428  0.618414  0.250000  1
  Si  Si25  1  0.101013  0.381586  0.750000  1
  O  O26  1  0.786370  0.826665  0.036170  1
  O  O27  1  0.959706  0.173335  0.963830  1
  O  O28  1  0.786370  0.826665  0.463830  1
  O  O29  1  0.959706  0.173335  0.536170  1
  O  O30  1  0.543229  0.624499  0.030404  1
  O  O31  1  0.918730  0.375501  0.969596  1
  O  O32  1  0.543229  0.624499  0.469596  1
  O  O33  1  0.918730  0.375501  0.530404  1
  O  O34  1  0.432475  0.980435  0.250000  1
  O  O35  1  0.452040  0.019565  0.750000  1
  O  O36  1  0.882640  0.682634  0.164711  1
  O  O37  1  0.200006  0.317366  0.835289  1
  O  O38  1  0.882640  0.682634  0.335289  1
  O  O39  1  0.200006  0.317366  0.664711  1
  O  O40  1  0.293754  0.507304  0.750000  1
  O  O41  1  0.786450  0.492696  0.250000  1
  O  O42  1  0.722427  0.053405  0.105637  1
  O  O43  1  0.669022  0.946595  0.894362  1
  O  O44  1  0.722427  0.053405  0.394363  1
  O  O45  1  0.669022  0.946595  0.605638  1
  O  O46  1  0.029544  0.659694  0.999688  1
  O  O47  1  0.369850  0.340306  0.000312  1
  O  O48  1  0.029544  0.659694  0.500312  1
  O  O49  1  0.369850  0.340306  0.499688  1
  O  O50  1  0.444552  0.696680  0.838662  1
  O  O51  1  0.747872  0.303320  0.161338  1
  O  O52  1  0.444552  0.696680  0.661338  1
  O  O53  1  0.747872  0.303320  0.338662  1
  O  O54  1  0.189902  0.906478  0.889998  1
  O  O55  1  0.283424  0.093522  0.110002  1
  O  O56  1  0.189902  0.906478  0.610002  1
  O  O57  1  0.283424  0.093522  0.389998  1
  O  O58  1  0.994270  0.649584  0.750000  1
  O  O59  1  0.344687  0.350416  0.250000  1
  O  O60  1  0.305270  0.883189  0.089971  1
  O  O61  1  0.422081  0.116811  0.910029  1
  O  O62  1  0.305270  0.883189  0.410029  1
  O  O63  1  0.422081  0.116811  0.589971  1
  O  O64  1  0.433264  0.618025  0.250000  1
  O  O65  1  0.815240  0.381975  0.750000  1
