# generated using pymatgen
data_SmGeAu
_symmetry_space_group_name_H-M   'P 1'
_cell_length_a   4.50410353
_cell_length_b   4.50414707
_cell_length_c   7.61692125
_cell_angle_alpha   90.00000000
_cell_angle_beta   90.00000000
_cell_angle_gamma   119.99968031
_symmetry_Int_Tables_number   1
_chemical_formula_structural   SmGeAu
_chemical_formula_sum   'Sm2 Ge2 Au2'
_cell_volume   133.82351209
_cell_formula_units_Z   2
loop_
 _symmetry_equiv_pos_site_id
 _symmetry_equiv_pos_as_xyz
  1  'x, y, z'
loop_
 _atom_site_type_symbol
 _atom_site_label
 _atom_site_symmetry_multiplicity
 _atom_site_fract_x
 _atom_site_fract_y
 _atom_site_fract_z
 _atom_site_occupancy
  Sm  Sm0  1  0.000009  0.000017  0.750974  1
  Sm  Sm1  1  0.999991  0.999983  0.250974  1
  Ge  Ge2  1  0.666672  0.333345  0.963514  1
  Ge  Ge3  1  0.333328  0.666655  0.463514  1
  Au  Au4  1  0.666677  0.333354  0.525512  1
  Au  Au5  1  0.333323  0.666646  0.025512  1
