# generated using pymatgen
data_RbB3O5
_symmetry_space_group_name_H-M   'P 1'
_cell_length_a   6.70474730
_cell_length_b   6.70474730
_cell_length_c   9.30837227
_cell_angle_alpha   80.19793526
_cell_angle_beta   80.19793526
_cell_angle_gamma   83.91830279
_symmetry_Int_Tables_number   1
_chemical_formula_structural   RbB3O5
_chemical_formula_sum   'Rb4 B12 O20'
_cell_volume   405.03894076
_cell_formula_units_Z   4
loop_
 _symmetry_equiv_pos_site_id
 _symmetry_equiv_pos_as_xyz
  1  'x, y, z'
loop_
 _atom_site_type_symbol
 _atom_site_label
 _atom_site_symmetry_multiplicity
 _atom_site_fract_x
 _atom_site_fract_y
 _atom_site_fract_z
 _atom_site_occupancy
  Rb  Rb0  1  0.734024  0.422846  0.054391  1
  Rb  Rb1  1  0.577154  0.265976  0.445609  1
  Rb  Rb2  1  0.265976  0.577154  0.945609  1
  Rb  Rb3  1  0.422846  0.734024  0.554391  1
  B  B4  1  0.192694  0.209440  0.265166  1
  B  B5  1  0.790560  0.807306  0.234834  1
  B  B6  1  0.807306  0.790560  0.734834  1
  B  B7  1  0.209440  0.192694  0.765166  1
  B  B8  1  0.067907  0.571427  0.319911  1
  B  B9  1  0.428573  0.932093  0.180089  1
  B  B10  1  0.932093  0.428573  0.680089  1
  B  B11  1  0.571427  0.067907  0.819911  1
  B  B12  1  0.965907  0.887472  0.432170  1
  B  B13  1  0.112528  0.034093  0.067830  1
  B  B14  1  0.034093  0.112528  0.567830  1
  B  B15  1  0.887472  0.965907  0.932170  1
  O  O16  1  0.073293  0.089430  0.404049  1
  O  O17  1  0.910570  0.926707  0.095951  1
  O  O18  1  0.926707  0.910570  0.595951  1
  O  O19  1  0.089430  0.073293  0.904049  1
  O  O20  1  0.095665  0.210624  0.136830  1
  O  O21  1  0.789376  0.904335  0.363170  1
  O  O22  1  0.904335  0.789376  0.863170  1
  O  O23  1  0.210624  0.095665  0.636830  1
  O  O24  1  0.894911  0.599081  0.254819  1
  O  O25  1  0.400919  0.105089  0.245181  1
  O  O26  1  0.105089  0.400919  0.745181  1
  O  O27  1  0.599081  0.894911  0.754819  1
  O  O28  1  0.211222  0.411136  0.300102  1
  O  O29  1  0.588864  0.788778  0.199898  1
  O  O30  1  0.788778  0.588864  0.699898  1
  O  O31  1  0.411136  0.211222  0.800102  1
  O  O32  1  0.105848  0.711910  0.403953  1
  O  O33  1  0.288090  0.894152  0.096047  1
  O  O34  1  0.894152  0.288090  0.596047  1
  O  O35  1  0.711910  0.105848  0.903953  1
