# generated using pymatgen
data_Sb4S3N6(OF)12
_symmetry_space_group_name_H-M   'P 1'
_cell_length_a   17.79629641
_cell_length_b   17.85688468
_cell_length_c   7.49446019
_cell_angle_alpha   89.78474725
_cell_angle_beta   89.39448427
_cell_angle_gamma   120.12091961
_symmetry_Int_Tables_number   1
_chemical_formula_structural   Sb4S3N6(OF)12
_chemical_formula_sum   'Sb12 S9 N18 O36 F36'
_cell_volume   2059.81287075
_cell_formula_units_Z   3
loop_
 _symmetry_equiv_pos_site_id
 _symmetry_equiv_pos_as_xyz
  1  'x, y, z'
loop_
 _atom_site_type_symbol
 _atom_site_label
 _atom_site_symmetry_multiplicity
 _atom_site_fract_x
 _atom_site_fract_y
 _atom_site_fract_z
 _atom_site_occupancy
  Sb  Sb0  1  0.159227  0.975083  0.505193  1
  Sb  Sb1  1  0.815686  0.841592  0.507398  1
  Sb  Sb2  1  0.025358  0.184016  0.504864  1
  Sb  Sb3  1  0.533342  0.400855  0.425448  1
  Sb  Sb4  1  0.866961  0.473339  0.418033  1
  Sb  Sb5  1  0.596214  0.125408  0.377341  1
  Sb  Sb6  1  0.359162  0.851916  0.842962  1
  Sb  Sb7  1  0.491637  0.633089  0.886178  1
  Sb  Sb8  1  0.145849  0.513359  0.839718  1
  Sb  Sb9  1  0.668355  0.336023  0.872746  1
  Sb  Sb10  1  0.331724  0.666795  0.397771  1
  Sb  Sb11  1  0.002225  0.001742  0.115323  1
  S  S12  1  0.976571  0.842016  0.737559  1
  S  S13  1  0.863503  0.021608  0.736384  1
  S  S14  1  0.157027  0.134952  0.735683  1
  S  S15  1  0.720721  0.505219  0.136624  1
  S  S16  1  0.779271  0.276860  0.150079  1
  S  S17  1  0.498389  0.211262  0.138189  1
  S  S18  1  0.200960  0.696725  0.127739  1
  S  S19  1  0.496374  0.795225  0.115620  1
  S  S20  1  0.310884  0.509289  0.127817  1
  N  N21  1  0.949992  0.726531  0.212162  1
  N  N22  1  0.777180  0.050558  0.213083  1
  N  N23  1  0.274091  0.223177  0.212269  1
  N  N24  1  0.945922  0.552580  0.899244  1
  N  N25  1  0.607591  0.056029  0.895326  1
  N  N26  1  0.447298  0.393164  0.903453  1
  N  N27  1  0.760542  0.600773  0.688751  1
  N  N28  1  0.839317  0.238474  0.681056  1
  N  N29  1  0.399731  0.161219  0.689373  1
  N  N30  1  0.203928  0.928790  0.025405  1
  N  N31  1  0.723813  0.795807  0.026199  1
  N  N32  1  0.071740  0.276043  0.022606  1
  N  N33  1  0.095295  0.698310  0.579015  1
  N  N34  1  0.601371  0.904363  0.579713  1
  N  N35  1  0.302479  0.398446  0.580264  1
  N  N36  1  0.348796  0.936916  0.372231  1
  N  N37  1  0.587295  0.650809  0.378912  1
  N  N38  1  0.062661  0.412057  0.369367  1
  O  O39  1  0.986722  0.767841  0.746128  1
  O  O40  1  0.779442  0.013148  0.745695  1
  O  O41  1  0.232202  0.218542  0.745365  1
  O  O42  1  0.946334  0.866663  0.897308  1
  O  O43  1  0.917604  0.050454  0.895220  1
  O  O44  1  0.130311  0.079617  0.896916  1
  O  O45  1  0.063210  0.927353  0.688435  1
  O  O46  1  0.860765  0.934915  0.690494  1
  O  O47  1  0.072780  0.137514  0.689070  1
  O  O48  1  0.919044  0.830480  0.571642  1
  O  O49  1  0.910949  0.078707  0.568024  1
  O  O50  1  0.168157  0.088653  0.570502  1
  O  O51  1  0.658230  0.420009  0.032505  1
  O  O52  1  0.758268  0.336869  0.038801  1
  O  O53  1  0.576240  0.234165  0.012832  1
  O  O54  1  0.801984  0.503375  0.175049  1
  O  O55  1  0.686614  0.196732  0.194197  1
  O  O56  1  0.498126  0.289502  0.194598  1
  O  O57  1  0.737333  0.580186  0.033865  1
  O  O58  1  0.826829  0.245398  0.051860  1
  O  O59  1  0.420764  0.143533  0.065546  1
  O  O60  1  0.670149  0.495388  0.304520  1
  O  O61  1  0.819247  0.325449  0.312408  1
  O  O62  1  0.523906  0.178238  0.312231  1
  O  O63  1  0.133350  0.702069  0.221125  1
  O  O64  1  0.575766  0.857250  0.195229  1
  O  O65  1  0.317034  0.435456  0.176406  1
  O  O66  1  0.280010  0.784331  0.094644  1
  O  O67  1  0.498238  0.708521  0.090484  1
  O  O68  1  0.225056  0.496365  0.087846  1
  O  O69  1  0.231792  0.642910  0.243149  1
  O  O70  1  0.417480  0.768143  0.242352  1
  O  O71  1  0.355400  0.580253  0.269466  1
  O  O72  1  0.173291  0.648301  0.956394  1
  O  O73  1  0.474129  0.819755  0.945380  1
  O  O74  1  0.366317  0.552935  0.948627  1
  F  F75  1  0.129770  0.865256  0.416137  1
  F  F76  1  0.735358  0.871296  0.416771  1
  F  F77  1  0.136319  0.264595  0.412724  1
  F  F78  1  0.244801  0.988607  0.667860  1
  F  F79  1  0.739890  0.756095  0.672292  1
  F  F80  1  0.010648  0.255089  0.669305  1
  F  F81  1  0.238305  0.035894  0.317773  1
  F  F82  1  0.797166  0.763509  0.322135  1
  F  F83  1  0.966331  0.203314  0.319098  1
  F  F84  1  0.421358  0.319075  0.525605  1
  F  F85  1  0.898221  0.583087  0.522462  1
  F  F86  1  0.683921  0.121580  0.509607  1
  F  F87  1  0.485862  0.451054  0.271500  1
  F  F88  1  0.967626  0.517369  0.269543  1
  F  F89  1  0.545954  0.021844  0.249020  1
  F  F90  1  0.566657  0.486339  0.607978  1
  F  F91  1  0.909460  0.429235  0.601139  1
  F  F92  1  0.529010  0.102040  0.587508  1
  F  F93  1  0.256971  0.844259  0.742790  1
  F  F94  1  0.566378  0.733899  0.753827  1
  F  F95  1  0.156585  0.419968  0.739390  1
  F  F96  1  0.395078  0.954510  0.975905  1
  F  F97  1  0.562367  0.599249  0.001478  1
  F  F98  1  0.044246  0.440655  0.977525  1
  F  F99  1  0.443451  0.915669  0.656157  1
  F  F100  1  0.468053  0.564831  0.681449  1
  F  F101  1  0.084693  0.531251  0.651390  1
  F  F102  1  0.578839  0.333026  0.728242  1
  F  F103  1  0.755499  0.426532  0.726664  1
  F  F104  1  0.673629  0.253468  0.721544  1
  F  F105  1  0.312371  0.744596  0.539195  1
  F  F106  1  0.424832  0.686533  0.549443  1
  F  F107  1  0.255046  0.573091  0.552565  1
  F  F108  1  0.067640  0.967577  0.301839  1
  F  F109  1  0.900532  0.935178  0.305994  1
  F  F110  1  0.035583  0.101008  0.300845  1
