# generated using pymatgen
data_RbAuO
_symmetry_space_group_name_H-M   'P 1'
_cell_length_a   5.97936999
_cell_length_b   7.75761646
_cell_length_c   7.75761646
_cell_angle_alpha   98.54135571
_cell_angle_beta   67.33222426
_cell_angle_gamma   112.66777574
_symmetry_Int_Tables_number   1
_chemical_formula_structural   RbAuO
_chemical_formula_sum   'Rb4 Au4 O4'
_cell_volume   306.39723074
_cell_formula_units_Z   4
loop_
 _symmetry_equiv_pos_site_id
 _symmetry_equiv_pos_as_xyz
  1  'x, y, z'
loop_
 _atom_site_type_symbol
 _atom_site_label
 _atom_site_symmetry_multiplicity
 _atom_site_fract_x
 _atom_site_fract_y
 _atom_site_fract_z
 _atom_site_occupancy
  Rb  Rb0  1  0.500000  0.305810  0.305810  1
  Rb  Rb1  1  0.194190  0.694190  0.305810  1
  Rb  Rb2  1  0.500000  0.694190  0.694190  1
  Rb  Rb3  1  0.805811  0.305810  0.694190  1
  Au  Au4  1  0.148840  0.297680  0.000000  1
  Au  Au5  1  0.851159  0.702320  -0.000000  1
  Au  Au6  1  0.851161  -0.000000  0.297680  1
  Au  Au7  1  0.148840  0.000000  0.702320  1
  O  O8  1  -0.000000  0.287984  0.287984  1
  O  O9  1  0.712015  0.712015  0.287984  1
  O  O10  1  0.287984  0.287984  0.712015  1
  O  O11  1  0.000000  0.712015  0.712015  1
