# generated using pymatgen
data_Cd4SiS6
_symmetry_space_group_name_H-M   'P 1'
_cell_length_a   7.18661048
_cell_length_b   7.24483705
_cell_length_c   12.48145332
_cell_angle_alpha   74.23663322
_cell_angle_beta   73.26823036
_cell_angle_gamma   60.26550681
_symmetry_Int_Tables_number   1
_chemical_formula_structural   Cd4SiS6
_chemical_formula_sum   'Cd8 Si2 S12'
_cell_volume   533.87272016
_cell_formula_units_Z   2
loop_
 _symmetry_equiv_pos_site_id
 _symmetry_equiv_pos_as_xyz
  1  'x, y, z'
loop_
 _atom_site_type_symbol
 _atom_site_label
 _atom_site_symmetry_multiplicity
 _atom_site_fract_x
 _atom_site_fract_y
 _atom_site_fract_z
 _atom_site_occupancy
  Si  Si0  1  0.025035  0.058290  0.437282  1
  Si  Si1  1  0.479392  0.558290  0.937282  1
  S  S2  1  0.305648  0.372916  0.985849  1
  S  S3  1  0.335587  0.872916  0.485849  1
  S  S4  1  0.833673  0.365433  0.490970  1
  S  S5  1  0.309924  0.865433  0.990970  1
  S  S6  1  0.902821  0.928040  0.806207  1
  S  S7  1  0.362931  0.428040  0.306207  1
  S  S8  1  0.588549  0.595543  0.757653  1
  S  S9  1  0.058255  0.095543  0.257653  1
  S  S10  1  0.767053  0.391129  0.012281  1
  S  S11  1  0.829537  0.891129  0.512281  1
  S  S12  1  0.755309  0.801599  0.185091  1
  S  S13  1  0.258001  0.301599  0.685091  1
  Cd  Cd14  1  0.632905  0.256164  0.688933  1
  Cd  Cd15  1  0.421997  0.756164  0.188933  1
  Cd  Cd16  1  0.258118  0.940780  0.692422  1
  Cd  Cd17  1  0.108681  0.440780  0.192422  1
  Cd  Cd18  1  0.014590  0.519565  0.847714  1
  Cd  Cd19  1  0.618131  0.019565  0.347714  1
  Cd  Cd20  1  0.113075  0.495639  0.499298  1
  Cd  Cd21  1  0.891988  0.995639  0.999298  1
