# generated using pymatgen
data_LiAl(GeO3)2
_symmetry_space_group_name_H-M   'P 1'
_cell_length_a   10.08182520
_cell_length_b   8.49045112
_cell_length_c   5.45884810
_cell_angle_alpha   90.00000000
_cell_angle_beta   110.94847581
_cell_angle_gamma   90.00000000
_symmetry_Int_Tables_number   1
_chemical_formula_structural   LiAl(GeO3)2
_chemical_formula_sum   'Li4 Al4 Ge8 O24'
_cell_volume   436.38759028
_cell_formula_units_Z   4
loop_
 _symmetry_equiv_pos_site_id
 _symmetry_equiv_pos_as_xyz
  1  'x, y, z'
loop_
 _atom_site_type_symbol
 _atom_site_label
 _atom_site_symmetry_multiplicity
 _atom_site_fract_x
 _atom_site_fract_y
 _atom_site_fract_z
 _atom_site_occupancy
  Li  Li0  1  0.992040  0.782902  0.696878  1
  Li  Li1  1  0.492040  0.717098  0.196878  1
  Li  Li2  1  0.007960  0.217098  0.303122  1
  Li  Li3  1  0.507960  0.282902  0.803122  1
  Al  Al4  1  0.004551  0.586578  0.254209  1
  Al  Al5  1  0.504551  0.913422  0.754209  1
  Al  Al6  1  0.995449  0.413422  0.745791  1
  Al  Al7  1  0.495449  0.086578  0.245791  1
  Ge  Ge8  1  0.209428  0.084441  0.778308  1
  Ge  Ge9  1  0.709428  0.415559  0.278308  1
  Ge  Ge10  1  0.790572  0.915559  0.221692  1
  Ge  Ge11  1  0.290572  0.584441  0.721692  1
  Ge  Ge12  1  0.220664  0.887074  0.274696  1
  Ge  Ge13  1  0.720664  0.612926  0.774696  1
  Ge  Ge14  1  0.779336  0.112926  0.725304  1
  Ge  Ge15  1  0.279336  0.387074  0.225304  1
  O  O16  1  0.397196  0.072691  0.853966  1
  O  O17  1  0.897196  0.427309  0.353966  1
  O  O18  1  0.602804  0.927309  0.146034  1
  O  O19  1  0.102804  0.572691  0.646034  1
  O  O20  1  0.140717  0.010731  0.442217  1
  O  O21  1  0.640717  0.489269  0.942217  1
  O  O22  1  0.859283  0.989269  0.557783  1
  O  O23  1  0.359283  0.510731  0.057783  1
  O  O24  1  0.110757  0.257111  0.699848  1
  O  O25  1  0.610757  0.242889  0.199848  1
  O  O26  1  0.889243  0.742889  0.300152  1
  O  O27  1  0.389243  0.757111  0.800152  1
  O  O28  1  0.143129  0.932407  0.933804  1
  O  O29  1  0.643129  0.567593  0.433804  1
  O  O30  1  0.856871  0.067593  0.066196  1
  O  O31  1  0.356871  0.432407  0.566196  1
  O  O32  1  0.409861  0.901841  0.374290  1
  O  O33  1  0.909861  0.598159  0.874290  1
  O  O34  1  0.590139  0.098159  0.625710  1
  O  O35  1  0.090139  0.401841  0.125710  1
  O  O36  1  0.174372  0.689598  0.292088  1
  O  O37  1  0.674372  0.810402  0.792088  1
  O  O38  1  0.825628  0.310402  0.707912  1
  O  O39  1  0.325628  0.189598  0.207912  1
