# generated using pymatgen
data_Pr(CdP)3
_symmetry_space_group_name_H-M   'P 1'
_cell_length_a   4.32454867
_cell_length_b   4.32454867
_cell_length_c   21.24986992
_cell_angle_alpha   90.00000000
_cell_angle_beta   90.00000000
_cell_angle_gamma   119.99999993
_symmetry_Int_Tables_number   1
_chemical_formula_structural   Pr(CdP)3
_chemical_formula_sum   'Pr2 Cd6 P6'
_cell_volume   344.16641350
_cell_formula_units_Z   2
loop_
 _symmetry_equiv_pos_site_id
 _symmetry_equiv_pos_as_xyz
  1  'x, y, z'
loop_
 _atom_site_type_symbol
 _atom_site_label
 _atom_site_symmetry_multiplicity
 _atom_site_fract_x
 _atom_site_fract_y
 _atom_site_fract_z
 _atom_site_occupancy
  P  P0  1  0.666667  0.333333  0.750000  1
  P  P1  1  0.333333  0.666667  0.250000  1
  P  P2  1  0.666667  0.333333  0.077682  1
  P  P3  1  0.333333  0.666667  0.577682  1
  P  P4  1  0.333333  0.666667  0.922318  1
  P  P5  1  0.666667  0.333333  0.422318  1
  Cd  Cd6  1  0.333333  0.666667  0.750000  1
  Cd  Cd7  1  0.666667  0.333333  0.250000  1
  Cd  Cd8  1  0.666667  0.333333  0.626495  1
  Cd  Cd9  1  0.333333  0.666667  0.126495  1
  Cd  Cd10  1  0.333333  0.666667  0.373505  1
  Cd  Cd11  1  0.666667  0.333333  0.873505  1
  Pr  Pr12  1  0.000000  0.000000  0.500000  1
  Pr  Pr13  1  0.000000  0.000000  0.000000  1
