# generated using pymatgen
data_K2Sn3O7
_symmetry_space_group_name_H-M   'P 1'
_cell_length_a   3.19823480
_cell_length_b   12.94155960
_cell_length_c   17.11324305
_cell_angle_alpha   90.00000000
_cell_angle_beta   90.00000000
_cell_angle_gamma   90.00000000
_symmetry_Int_Tables_number   1
_chemical_formula_structural   K2Sn3O7
_chemical_formula_sum   'K8 Sn12 O28'
_cell_volume   708.31963315
_cell_formula_units_Z   4
loop_
 _symmetry_equiv_pos_site_id
 _symmetry_equiv_pos_as_xyz
  1  'x, y, z'
loop_
 _atom_site_type_symbol
 _atom_site_label
 _atom_site_symmetry_multiplicity
 _atom_site_fract_x
 _atom_site_fract_y
 _atom_site_fract_z
 _atom_site_occupancy
  K  K0  1  0.250000  0.442034  0.305556  1
  K  K1  1  0.750000  0.557966  0.694444  1
  K  K2  1  0.750000  0.942034  0.194444  1
  K  K3  1  0.250000  0.057966  0.805556  1
  K  K4  1  0.250000  0.894269  0.434056  1
  K  K5  1  0.750000  0.105731  0.565944  1
  K  K6  1  0.750000  0.394269  0.065944  1
  K  K7  1  0.250000  0.605731  0.934056  1
  Sn  Sn8  1  0.250000  0.111645  0.018819  1
  Sn  Sn9  1  0.750000  0.888355  0.981181  1
  Sn  Sn10  1  0.750000  0.611645  0.481181  1
  Sn  Sn11  1  0.250000  0.388355  0.518819  1
  Sn  Sn12  1  0.250000  0.709786  0.291911  1
  Sn  Sn13  1  0.750000  0.290214  0.708089  1
  Sn  Sn14  1  0.750000  0.209786  0.208089  1
  Sn  Sn15  1  0.250000  0.790214  0.791911  1
  Sn  Sn16  1  0.250000  0.167332  0.375510  1
  Sn  Sn17  1  0.750000  0.832668  0.624490  1
  Sn  Sn18  1  0.750000  0.667332  0.124490  1
  Sn  Sn19  1  0.250000  0.332668  0.875510  1
  O  O20  1  0.250000  0.572066  0.094986  1
  O  O21  1  0.750000  0.427934  0.905014  1
  O  O22  1  0.750000  0.072066  0.405014  1
  O  O23  1  0.250000  0.927934  0.594986  1
  O  O24  1  0.250000  0.761309  0.174047  1
  O  O25  1  0.750000  0.238691  0.825953  1
  O  O26  1  0.750000  0.261309  0.325953  1
  O  O27  1  0.250000  0.738691  0.674047  1
  O  O28  1  0.250000  0.303936  0.178277  1
  O  O29  1  0.750000  0.696064  0.821723  1
  O  O30  1  0.750000  0.803936  0.321723  1
  O  O31  1  0.250000  0.196064  0.678277  1
  O  O32  1  0.250000  0.112384  0.250924  1
  O  O33  1  0.750000  0.887616  0.749076  1
  O  O34  1  0.750000  0.612384  0.249076  1
  O  O35  1  0.250000  0.387616  0.750924  1
  O  O36  1  0.250000  0.630699  0.400387  1
  O  O37  1  0.750000  0.369301  0.599613  1
  O  O38  1  0.750000  0.130699  0.099613  1
  O  O39  1  0.250000  0.869301  0.900387  1
  O  O40  1  0.250000  0.242112  0.480888  1
  O  O41  1  0.750000  0.757888  0.519112  1
  O  O42  1  0.750000  0.742112  0.019112  1
  O  O43  1  0.250000  0.257888  0.980888  1
  O  O44  1  0.250000  0.553159  0.551384  1
  O  O45  1  0.750000  0.446841  0.448616  1
  O  O46  1  0.750000  0.053159  0.948616  1
  O  O47  1  0.250000  0.946841  0.051384  1
