# generated using pymatgen
data_ThSiPt
_symmetry_space_group_name_H-M   'P 1'
_cell_length_a   4.16945173
_cell_length_b   4.16945173
_cell_length_c   7.96847476
_cell_angle_alpha   105.16630947
_cell_angle_beta   105.16630947
_cell_angle_gamma   90.00000000
_symmetry_Int_Tables_number   1
_chemical_formula_structural   ThSiPt
_chemical_formula_sum   'Th2 Si2 Pt2'
_cell_volume   128.69619834
_cell_formula_units_Z   2
loop_
 _symmetry_equiv_pos_site_id
 _symmetry_equiv_pos_as_xyz
  1  'x, y, z'
loop_
 _atom_site_type_symbol
 _atom_site_label
 _atom_site_symmetry_multiplicity
 _atom_site_fract_x
 _atom_site_fract_y
 _atom_site_fract_z
 _atom_site_occupancy
  Th  Th0  1  0.580745  0.580745  0.161490  1
  Th  Th1  1  0.830745  0.330745  0.661490  1
  Si  Si2  1  0.999881  0.999881  0.999762  1
  Si  Si3  1  0.249881  0.749881  0.499762  1
  Pt  Pt4  1  0.166374  0.166374  0.332748  1
  Pt  Pt5  1  0.416374  0.916374  0.832748  1
