# generated using pymatgen
data_KMnTe2
_symmetry_space_group_name_H-M   'P 1'
_cell_length_a   4.34196699
_cell_length_b   4.34196698
_cell_length_c   7.77665438
_cell_angle_alpha   106.21048128
_cell_angle_beta   106.21048129
_cell_angle_gamma   89.99999995
_symmetry_Int_Tables_number   1
_chemical_formula_structural   KMnTe2
_chemical_formula_sum   'K1 Mn1 Te2'
_cell_volume   134.70104649
_cell_formula_units_Z   1
loop_
 _symmetry_equiv_pos_site_id
 _symmetry_equiv_pos_as_xyz
  1  'x, y, z'
loop_
 _atom_site_type_symbol
 _atom_site_label
 _atom_site_symmetry_multiplicity
 _atom_site_fract_x
 _atom_site_fract_y
 _atom_site_fract_z
 _atom_site_occupancy
  K  K0  1  0.000000  0.000000  0.000000  1
  Mn  Mn1  1  0.750000  0.250000  0.500000  1
  Te  Te2  1  0.355447  0.355447  0.710895  1
  Te  Te3  1  0.644553  0.644553  0.289105  1
