# generated using pymatgen
data_KBaBiTeO6
_symmetry_space_group_name_H-M   'P 1'
_cell_length_a   6.07679270
_cell_length_b   6.04757356
_cell_length_c   8.58621212
_cell_angle_alpha   90.00000000
_cell_angle_beta   89.99057926
_cell_angle_gamma   90.00000000
_symmetry_Int_Tables_number   1
_chemical_formula_structural   KBaBiTeO6
_chemical_formula_sum   'K2 Ba2 Bi2 Te2 O12'
_cell_volume   315.54201061
_cell_formula_units_Z   2
loop_
 _symmetry_equiv_pos_site_id
 _symmetry_equiv_pos_as_xyz
  1  'x, y, z'
loop_
 _atom_site_type_symbol
 _atom_site_label
 _atom_site_symmetry_multiplicity
 _atom_site_fract_x
 _atom_site_fract_y
 _atom_site_fract_z
 _atom_site_occupancy
  K  K0  1  0.506348  0.000000  0.250609  1
  K  K1  1  0.993652  0.500000  0.249391  1
  Ba  Ba2  1  0.504411  0.000000  0.749790  1
  Ba  Ba3  1  0.995589  0.500000  0.750210  1
  Bi  Bi4  1  0.497756  0.500000  0.015094  1
  Bi  Bi5  1  0.002244  0.000000  0.484906  1
  Te  Te6  1  0.002072  0.000000  0.995163  1
  Te  Te7  1  0.497928  0.500000  0.504837  1
  O  O8  1  0.039381  0.000000  0.220296  1
  O  O9  1  0.969357  0.000000  0.763693  1
  O  O10  1  0.530643  0.500000  0.736307  1
  O  O11  1  0.460619  0.500000  0.279704  1
  O  O12  1  0.230736  0.229783  0.969097  1
  O  O13  1  0.773941  0.769302  0.002836  1
  O  O14  1  0.773941  0.230698  0.002836  1
  O  O15  1  0.230736  0.770217  0.969097  1
  O  O16  1  0.726059  0.730698  0.497164  1
  O  O17  1  0.269264  0.270217  0.530903  1
  O  O18  1  0.269264  0.729783  0.530903  1
  O  O19  1  0.726059  0.269302  0.497164  1
