# generated using pymatgen
data_Rb2Si(S2O7)3
_symmetry_space_group_name_H-M   'P 1'
_cell_length_a   9.77507234
_cell_length_b   9.77492058
_cell_length_c   11.51023249
_cell_angle_alpha   89.99993873
_cell_angle_beta   90.00041380
_cell_angle_gamma   119.99936286
_symmetry_Int_Tables_number   1
_chemical_formula_structural   Rb2Si(S2O7)3
_chemical_formula_sum   'Rb4 Si2 S12 O42'
_cell_volume   952.46874475
_cell_formula_units_Z   2
loop_
 _symmetry_equiv_pos_site_id
 _symmetry_equiv_pos_as_xyz
  1  'x, y, z'
loop_
 _atom_site_type_symbol
 _atom_site_label
 _atom_site_symmetry_multiplicity
 _atom_site_fract_x
 _atom_site_fract_y
 _atom_site_fract_z
 _atom_site_occupancy
  Rb  Rb0  1  0.333350  0.666677  0.565049  1
  Rb  Rb1  1  0.666650  0.333323  0.434951  1
  Rb  Rb2  1  0.333340  0.666669  0.121301  1
  Rb  Rb3  1  0.666660  0.333331  0.878699  1
  Si  Si4  1  0.000002  0.000001  0.762205  1
  Si  Si5  1  0.999998  -0.000001  0.237795  1
  S  S6  1  0.670370  0.757582  0.337984  1
  S  S7  1  0.087210  0.329635  0.337984  1
  S  S8  1  0.242417  0.912783  0.337984  1
  S  S9  1  0.329630  0.242418  0.662016  1
  S  S10  1  0.912790  0.670365  0.662016  1
  S  S11  1  0.757583  0.087217  0.662016  1
  S  S12  1  0.660058  0.860031  0.848690  1
  S  S13  1  0.199977  0.339950  0.848690  1
  S  S14  1  0.139972  0.800021  0.848690  1
  S  S15  1  0.339942  0.139969  0.151310  1
  S  S16  1  0.800023  0.660050  0.151310  1
  S  S17  1  0.860028  0.199979  0.151310  1
  O  O18  1  0.675812  0.023851  0.792364  1
  O  O19  1  0.348037  0.324190  0.792365  1
  O  O20  1  0.976154  0.651959  0.792367  1
  O  O21  1  0.324188  0.976149  0.207636  1
  O  O22  1  0.651963  0.675810  0.207635  1
  O  O23  1  0.023846  0.348041  0.207633  1
  O  O24  1  0.832735  0.904078  0.332342  1
  O  O25  1  0.071343  0.167268  0.332340  1
  O  O26  1  0.095921  0.928652  0.332340  1
  O  O27  1  0.167265  0.095922  0.667658  1
  O  O28  1  0.928657  0.832732  0.667660  1
  O  O29  1  0.904079  0.071348  0.667660  1
  O  O30  1  0.832554  0.902038  0.856107  1
  O  O31  1  0.069488  0.167453  0.856107  1
  O  O32  1  0.097966  0.930513  0.856107  1
  O  O33  1  0.167446  0.097962  0.143893  1
  O  O34  1  0.930512  0.832547  0.143893  1
  O  O35  1  0.902034  0.069487  0.143893  1
  O  O36  1  0.547262  0.796647  0.334762  1
  O  O37  1  0.249380  0.452745  0.334763  1
  O  O38  1  0.203359  0.750610  0.334761  1
  O  O39  1  0.452738  0.203353  0.665238  1
  O  O40  1  0.750620  0.547255  0.665237  1
  O  O41  1  0.796641  0.249390  0.665239  1
  O  O42  1  0.600602  0.856866  0.962850  1
  O  O43  1  0.256267  0.399408  0.962850  1
  O  O44  1  0.143143  0.743732  0.962851  1
  O  O45  1  0.399398  0.143134  0.037150  1
  O  O46  1  0.743733  0.600592  0.037150  1
  O  O47  1  0.856857  0.256268  0.037149  1
  O  O48  1  0.570937  0.732958  0.769330  1
  O  O49  1  0.162028  0.429074  0.769329  1
  O  O50  1  0.267041  0.837968  0.769330  1
  O  O51  1  0.429063  0.267042  0.230670  1
  O  O52  1  0.837972  0.570926  0.230671  1
  O  O53  1  0.732959  0.162032  0.230670  1
  O  O54  1  0.665183  0.650343  0.425062  1
  O  O55  1  0.985158  0.334820  0.425060  1
  O  O56  1  0.349652  0.014834  0.425063  1
  O  O57  1  0.334817  0.349657  0.574938  1
  O  O58  1  0.014842  0.665180  0.574940  1
  O  O59  1  0.650348  0.985166  0.574937  1
