# generated using pymatgen
data_Ba3W2O9
_symmetry_space_group_name_H-M   'P 1'
_cell_length_a   7.63387994
_cell_length_b   7.63387995
_cell_length_c   7.63387994
_cell_angle_alpha   85.08742131
_cell_angle_beta   85.08742130
_cell_angle_gamma   85.08742134
_symmetry_Int_Tables_number   1
_chemical_formula_structural   Ba3W2O9
_chemical_formula_sum   'Ba6 W4 O18'
_cell_volume   440.23443705
_cell_formula_units_Z   2
loop_
 _symmetry_equiv_pos_site_id
 _symmetry_equiv_pos_as_xyz
  1  'x, y, z'
loop_
 _atom_site_type_symbol
 _atom_site_label
 _atom_site_symmetry_multiplicity
 _atom_site_fract_x
 _atom_site_fract_y
 _atom_site_fract_z
 _atom_site_occupancy
  O  O0  1  0.929260  0.252918  0.088033  1
  O  O1  1  0.252918  0.088033  0.929260  1
  O  O2  1  0.088034  0.929260  0.252919  1
  O  O3  1  0.411966  0.247082  0.570739  1
  O  O4  1  0.247082  0.570740  0.411967  1
  O  O5  1  0.570739  0.411967  0.247081  1
  O  O6  1  0.070740  0.747082  0.911966  1
  O  O7  1  0.747081  0.911966  0.070740  1
  O  O8  1  0.911966  0.070740  0.747082  1
  O  O9  1  0.588034  0.752918  0.429260  1
  O  O10  1  0.394843  0.105156  0.250000  1
  O  O11  1  0.250001  0.394843  0.105157  1
  O  O12  1  0.105157  0.250001  0.394843  1
  O  O13  1  0.605158  0.894843  0.750000  1
  O  O14  1  0.752918  0.429261  0.588033  1
  O  O15  1  0.894843  0.750000  0.605157  1
  O  O16  1  0.429261  0.588034  0.752918  1
  O  O17  1  0.750000  0.605157  0.894843  1
  Ba  Ba18  1  0.920400  0.579599  0.249999  1
  Ba  Ba19  1  0.250001  0.920401  0.579599  1
  Ba  Ba20  1  0.579599  0.250000  0.920400  1
  Ba  Ba21  1  0.079599  0.420400  0.750000  1
  Ba  Ba22  1  0.420400  0.750000  0.079600  1
  Ba  Ba23  1  0.750000  0.079600  0.420400  1
  W  W24  1  0.146274  0.146274  0.146274  1
  W  W25  1  0.353726  0.353727  0.353725  1
  W  W26  1  0.853727  0.853726  0.853726  1
  W  W27  1  0.646273  0.646274  0.646274  1
