# generated using pymatgen
data_Nd2C3
_symmetry_space_group_name_H-M   'P 1'
_cell_length_a   7.46237177
_cell_length_b   7.46237178
_cell_length_c   7.46237178
_cell_angle_alpha   109.47122065
_cell_angle_beta   109.47122065
_cell_angle_gamma   109.47122062
_symmetry_Int_Tables_number   1
_chemical_formula_structural   Nd2C3
_chemical_formula_sum   'Nd8 C12'
_cell_volume   319.89595958
_cell_formula_units_Z   4
loop_
 _symmetry_equiv_pos_site_id
 _symmetry_equiv_pos_as_xyz
  1  'x, y, z'
loop_
 _atom_site_type_symbol
 _atom_site_label
 _atom_site_symmetry_multiplicity
 _atom_site_fract_x
 _atom_site_fract_y
 _atom_site_fract_z
 _atom_site_occupancy
  C  C0  1  0.750000  0.797817  0.047817  1
  C  C1  1  0.750000  0.952183  0.202183  1
  C  C2  1  0.297817  0.250000  0.547817  1
  C  C3  1  0.547817  0.297817  0.250000  1
  C  C4  1  0.202183  0.750000  0.952183  1
  C  C5  1  0.952183  0.202183  0.750000  1
  C  C6  1  0.250000  0.702183  0.452183  1
  C  C7  1  0.702183  0.452183  0.250000  1
  C  C8  1  0.250000  0.547817  0.297817  1
  C  C9  1  0.452183  0.250000  0.702183  1
  C  C10  1  0.047817  0.750000  0.797817  1
  C  C11  1  0.797817  0.047817  0.750000  1
  Nd  Nd12  1  0.603364  0.603364  0.603364  1
  Nd  Nd13  1  0.396636  0.500000  0.000000  1
  Nd  Nd14  1  0.500000  0.000000  0.396636  1
  Nd  Nd15  1  0.000000  0.396636  0.500000  1
  Nd  Nd16  1  0.500000  0.000000  0.896636  1
  Nd  Nd17  1  0.000000  0.896636  0.500000  1
  Nd  Nd18  1  0.896636  0.500000  0.000000  1
  Nd  Nd19  1  0.103364  0.103364  0.103364  1
