# generated using pymatgen
data_Ti(PS3)2
_symmetry_space_group_name_H-M   'P 1'
_cell_length_a   7.05402469
_cell_length_b   7.05402469
_cell_length_c   11.39648941
_cell_angle_alpha   101.96152359
_cell_angle_beta   101.96152361
_cell_angle_gamma   109.28807433
_symmetry_Int_Tables_number   1
_chemical_formula_structural   Ti(PS3)2
_chemical_formula_sum   'Ti2 P4 S12'
_cell_volume   499.74074329
_cell_formula_units_Z   2
loop_
 _symmetry_equiv_pos_site_id
 _symmetry_equiv_pos_as_xyz
  1  'x, y, z'
loop_
 _atom_site_type_symbol
 _atom_site_label
 _atom_site_symmetry_multiplicity
 _atom_site_fract_x
 _atom_site_fract_y
 _atom_site_fract_z
 _atom_site_occupancy
  P  P0  1  0.730451  0.856759  0.373927  1
  P  P1  1  0.606759  0.980451  0.873927  1
  P  P2  1  0.267168  0.893476  0.873927  1
  P  P3  1  0.643476  0.517168  0.373927  1
  S  S4  1  0.673757  0.718546  0.851400  1
  S  S5  1  0.177643  0.132854  0.851400  1
  S  S6  1  0.958889  0.007789  0.543921  1
  S  S7  1  0.585032  0.536132  0.543921  1
  S  S8  1  0.286132  0.835032  0.043921  1
  S  S9  1  0.757789  0.208889  0.043921  1
  S  S10  1  0.386348  0.310434  0.231778  1
  S  S11  1  0.845430  0.921343  0.231778  1
  S  S12  1  0.671343  0.095430  0.731778  1
  S  S13  1  0.060434  0.636348  0.731778  1
  S  S14  1  0.468546  0.923757  0.351400  1
  S  S15  1  0.882854  0.427643  0.351400  1
  Ti  Ti16  1  0.851474  0.851474  0.702948  1
  Ti  Ti17  1  0.601474  0.101474  0.202948  1
