# generated using pymatgen
data_Ce2B8O15
_symmetry_space_group_name_H-M   'P 1'
_cell_length_a   9.21382280
_cell_length_b   4.24397325
_cell_length_c   12.57220196
_cell_angle_alpha   90.00000000
_cell_angle_beta   116.52946734
_cell_angle_gamma   90.00000000
_symmetry_Int_Tables_number   1
_chemical_formula_structural   Ce2B8O15
_chemical_formula_sum   'Ce4 B16 O30'
_cell_volume   439.84898270
_cell_formula_units_Z   2
loop_
 _symmetry_equiv_pos_site_id
 _symmetry_equiv_pos_as_xyz
  1  'x, y, z'
loop_
 _atom_site_type_symbol
 _atom_site_label
 _atom_site_symmetry_multiplicity
 _atom_site_fract_x
 _atom_site_fract_y
 _atom_site_fract_z
 _atom_site_occupancy
  Ce  Ce0  1  0.142206  0.735671  0.947687  1
  Ce  Ce1  1  0.857794  0.735671  0.552313  1
  Ce  Ce2  1  0.857794  0.264329  0.052313  1
  Ce  Ce3  1  0.142206  0.264329  0.447687  1
  B  B4  1  0.107263  0.784777  0.204383  1
  B  B5  1  0.892737  0.784777  0.295617  1
  B  B6  1  0.892737  0.215223  0.795617  1
  B  B7  1  0.107263  0.215223  0.704383  1
  B  B8  1  0.283721  0.269006  0.234365  1
  B  B9  1  0.716279  0.269006  0.265635  1
  B  B10  1  0.716279  0.730993  0.765635  1
  B  B11  1  0.283721  0.730993  0.734365  1
  B  B12  1  0.594547  0.783067  0.126733  1
  B  B13  1  0.405453  0.783067  0.373267  1
  B  B14  1  0.405453  0.216933  0.873267  1
  B  B15  1  0.594547  0.216933  0.626733  1
  B  B16  1  0.413998  0.291882  0.085970  1
  B  B17  1  0.586002  0.291882  0.414030  1
  B  B18  1  0.586002  0.708118  0.914030  1
  B  B19  1  0.413998  0.708118  0.585970  1
  O  O20  1  0.028512  0.740265  0.078462  1
  O  O21  1  0.971488  0.740265  0.421538  1
  O  O22  1  0.971488  0.259735  0.921538  1
  O  O23  1  0.028512  0.259735  0.578462  1
  O  O24  1  0.140745  0.120539  0.235534  1
  O  O25  1  0.859255  0.120539  0.264466  1
  O  O26  1  0.859255  0.879461  0.764466  1
  O  O27  1  0.140745  0.879461  0.735534  1
  O  O28  1  0.276243  0.381432  0.763801  1
  O  O29  1  0.723757  0.381432  0.736199  1
  O  O30  1  0.723757  0.618568  0.236199  1
  O  O31  1  0.276243  0.618568  0.263801  1
  O  O32  1  0.286966  0.225424  0.122157  1
  O  O33  1  0.713034  0.225424  0.377843  1
  O  O34  1  0.713034  0.774576  0.877843  1
  O  O35  1  0.286966  0.774576  0.622157  1
  O  O36  1  0.338826  0.189447  0.959917  1
  O  O37  1  0.661174  0.189447  0.540083  1
  O  O38  1  0.661174  0.810553  0.040083  1
  O  O39  1  0.338826  0.810553  0.459917  1
  O  O40  1  0.572689  0.122199  0.161322  1
  O  O41  1  0.427311  0.122199  0.338678  1
  O  O42  1  0.427311  0.877801  0.838678  1
  O  O43  1  0.572689  0.877801  0.661322  1
  O  O44  1  0.443565  0.628035  0.090182  1
  O  O45  1  0.556435  0.628035  0.409818  1
  O  O46  1  0.556435  0.371965  0.909818  1
  O  O47  1  0.443565  0.371965  0.590182  1
  O  O48  1  -0.000000  0.649088  0.250000  1
  O  O49  1  -0.000000  0.350912  0.750000  1
