# generated using pymatgen
data_Sr2Mn2O5
_symmetry_space_group_name_H-M   'P 1'
_cell_length_a   3.84968994
_cell_length_b   5.63337551
_cell_length_c   11.05635562
_cell_angle_alpha   90.00000000
_cell_angle_beta   90.00000000
_cell_angle_gamma   90.00000000
_symmetry_Int_Tables_number   1
_chemical_formula_structural   Sr2Mn2O5
_chemical_formula_sum   'Sr4 Mn4 O10'
_cell_volume   239.77640951
_cell_formula_units_Z   2
loop_
 _symmetry_equiv_pos_site_id
 _symmetry_equiv_pos_as_xyz
  1  'x, y, z'
loop_
 _atom_site_type_symbol
 _atom_site_label
 _atom_site_symmetry_multiplicity
 _atom_site_fract_x
 _atom_site_fract_y
 _atom_site_fract_z
 _atom_site_occupancy
  O  O0  1  0.499999  0.500000  0.500000  1
  O  O1  1  0.499999  0.000000  0.000000  1
  O  O2  1  0.499999  0.972985  0.730507  1
  O  O3  1  0.499999  0.027016  0.269493  1
  O  O4  1  0.499999  0.472983  0.769493  1
  O  O5  1  0.499999  0.527016  0.230507  1
  O  O6  1  0.000000  0.201623  0.597928  1
  O  O7  1  0.000000  0.798376  0.402072  1
  O  O8  1  0.000000  0.298376  0.097928  1
  O  O9  1  0.000000  0.701623  0.902072  1
  Mn  Mn10  1  0.499999  0.242773  0.623836  1
  Mn  Mn11  1  0.499999  0.757228  0.376164  1
  Mn  Mn12  1  0.499999  0.742773  0.876163  1
  Mn  Mn13  1  0.499999  0.257227  0.123837  1
  Sr  Sr14  1  0.000000  0.217585  0.866844  1
  Sr  Sr15  1  0.000000  0.782414  0.133156  1
  Sr  Sr16  1  0.000000  0.717586  0.633156  1
  Sr  Sr17  1  0.000000  0.282415  0.366845  1
