# generated using pymatgen
data_KLi3Zr2(Si2O5)6
_symmetry_space_group_name_H-M   'P 1'
_cell_length_a   10.25257293
_cell_length_b   10.25257293
_cell_length_c   14.56667501
_cell_angle_alpha   90.00000000
_cell_angle_beta   90.00000000
_cell_angle_gamma   119.99999998
_symmetry_Int_Tables_number   1
_chemical_formula_structural   KLi3Zr2(Si2O5)6
_chemical_formula_sum   'K2 Li6 Zr4 Si24 O60'
_cell_volume   1326.04052629
_cell_formula_units_Z   2
loop_
 _symmetry_equiv_pos_site_id
 _symmetry_equiv_pos_as_xyz
  1  'x, y, z'
loop_
 _atom_site_type_symbol
 _atom_site_label
 _atom_site_symmetry_multiplicity
 _atom_site_fract_x
 _atom_site_fract_y
 _atom_site_fract_z
 _atom_site_occupancy
  Li  Li0  1  0.000000  0.500000  0.250000  1
  Li  Li1  1  0.500000  0.500000  0.750000  1
  Li  Li2  1  0.500000  0.000000  0.750000  1
  Li  Li3  1  0.000000  0.500000  0.750000  1
  Li  Li4  1  0.500000  0.500000  0.250000  1
  Li  Li5  1  0.500000  0.000000  0.250000  1
  O  O6  1  0.217593  0.276913  0.132353  1
  O  O7  1  0.659703  0.156463  0.827941  1
  O  O8  1  0.496760  0.340297  0.827941  1
  O  O9  1  0.503240  0.659703  0.827941  1
  O  O10  1  0.340297  0.843537  0.827941  1
  O  O11  1  0.843537  0.503240  0.827941  1
  O  O12  1  0.156463  0.659703  0.327941  1
  O  O13  1  0.340297  0.496760  0.327941  1
  O  O14  1  0.503240  0.843537  0.327941  1
  O  O15  1  0.496760  0.156463  0.327941  1
  O  O16  1  0.843537  0.503240  0.172059  1
  O  O17  1  0.843537  0.340297  0.327941  1
  O  O18  1  0.659703  0.503240  0.327941  1
  O  O19  1  0.340297  0.843537  0.172059  1
  O  O20  1  0.503240  0.659703  0.172059  1
  O  O21  1  0.496760  0.340297  0.172059  1
  O  O22  1  0.659703  0.156463  0.172059  1
  O  O23  1  0.059319  0.276913  0.632353  1
  O  O24  1  0.782407  0.059319  0.632353  1
  O  O25  1  0.940681  0.723087  0.632353  1
  O  O26  1  0.276913  0.217593  0.632353  1
  O  O27  1  0.723087  0.782407  0.632353  1
  O  O28  1  0.217593  0.276913  0.867647  1
  O  O29  1  0.217593  0.940681  0.632353  1
  O  O30  1  0.843537  0.340297  0.672059  1
  O  O31  1  0.156463  0.659703  0.672059  1
  O  O32  1  0.156463  0.496760  0.827941  1
  O  O33  1  0.503240  0.843537  0.672059  1
  O  O34  1  0.496760  0.156463  0.672059  1
  O  O35  1  0.659703  0.503240  0.672059  1
  O  O36  1  0.126816  0.395641  0.000000  1
  O  O37  1  0.731175  0.126816  0.000000  1
  O  O38  1  0.395641  0.268825  0.000000  1
  O  O39  1  0.604359  0.731175  0.000000  1
  O  O40  1  0.268825  0.873184  0.000000  1
  O  O41  1  0.731175  0.604359  0.500000  1
  O  O42  1  0.873184  0.268825  0.500000  1
  O  O43  1  0.873184  0.604359  0.000000  1
  O  O44  1  0.395641  0.126816  0.500000  1
  O  O45  1  0.604359  0.873184  0.500000  1
  O  O46  1  0.268825  0.395641  0.500000  1
  O  O47  1  0.126816  0.731175  0.500000  1
  O  O48  1  0.340297  0.496760  0.672059  1
  O  O49  1  0.940681  0.217593  0.132353  1
  O  O50  1  0.276913  0.059319  0.132353  1
  O  O51  1  0.723087  0.940681  0.132353  1
  O  O52  1  0.059319  0.782407  0.132353  1
  O  O53  1  0.940681  0.723087  0.367647  1
  O  O54  1  0.782407  0.059319  0.367647  1
  O  O55  1  0.782407  0.723087  0.132353  1
  O  O56  1  0.276913  0.217593  0.367647  1
  O  O57  1  0.723087  0.782407  0.367647  1
  O  O58  1  0.059319  0.276913  0.367647  1
  O  O59  1  0.217593  0.940681  0.367647  1
  O  O60  1  0.782407  0.723087  0.867647  1
  O  O61  1  0.059319  0.782407  0.867647  1
  O  O62  1  0.723087  0.940681  0.867647  1
  O  O63  1  0.276913  0.059319  0.867647  1
  O  O64  1  0.940681  0.217593  0.867647  1
  O  O65  1  0.156463  0.496760  0.172059  1
  Si  Si66  1  0.887378  0.239069  0.608348  1
  Si  Si67  1  0.760931  0.648309  0.608348  1
  Si  Si68  1  0.351691  0.112622  0.608348  1
  Si  Si69  1  0.648309  0.887378  0.608348  1
  Si  Si70  1  0.112622  0.351691  0.891652  1
  Si  Si71  1  0.112622  0.760931  0.608348  1
  Si  Si72  1  0.239069  0.351691  0.608348  1
  Si  Si73  1  0.760931  0.112622  0.891652  1
  Si  Si74  1  0.351691  0.239069  0.891652  1
  Si  Si75  1  0.648309  0.760931  0.891652  1
  Si  Si76  1  0.239069  0.887378  0.891652  1
  Si  Si77  1  0.887378  0.648309  0.891652  1
  Si  Si78  1  0.112622  0.760931  0.391652  1
  Si  Si79  1  0.239069  0.351691  0.391652  1
  Si  Si80  1  0.648309  0.887378  0.391652  1
  Si  Si81  1  0.112622  0.351691  0.108348  1
  Si  Si82  1  0.887378  0.648309  0.108348  1
  Si  Si83  1  0.887378  0.239069  0.391652  1
  Si  Si84  1  0.760931  0.648309  0.391652  1
  Si  Si85  1  0.239069  0.887378  0.108348  1
  Si  Si86  1  0.648309  0.760931  0.108348  1
  Si  Si87  1  0.351691  0.239069  0.108348  1
  Si  Si88  1  0.760931  0.112622  0.108348  1
  Si  Si89  1  0.351691  0.112622  0.391652  1
  K  K90  1  0.000000  0.000000  0.750000  1
  K  K91  1  0.000000  0.000000  0.250000  1
  Zr  Zr92  1  0.666667  0.333333  0.750000  1
  Zr  Zr93  1  0.333333  0.666667  0.750000  1
  Zr  Zr94  1  0.666667  0.333333  0.250000  1
  Zr  Zr95  1  0.333333  0.666667  0.250000  1
