# generated using pymatgen
data_Na2TiZn2SiO7
_symmetry_space_group_name_H-M   'P 1'
_cell_length_a   5.25690350
_cell_length_b   11.84621027
_cell_length_c   20.34714331
_cell_angle_alpha   90.00000000
_cell_angle_beta   90.00000000
_cell_angle_gamma   90.00000000
_symmetry_Int_Tables_number   1
_chemical_formula_structural   Na2TiZn2SiO7
_chemical_formula_sum   'Na16 Ti8 Zn16 Si8 O56'
_cell_volume   1267.10582047
_cell_formula_units_Z   8
loop_
 _symmetry_equiv_pos_site_id
 _symmetry_equiv_pos_as_xyz
  1  'x, y, z'
loop_
 _atom_site_type_symbol
 _atom_site_label
 _atom_site_symmetry_multiplicity
 _atom_site_fract_x
 _atom_site_fract_y
 _atom_site_fract_z
 _atom_site_occupancy
  O  O0  1  0.700226  0.351191  0.651541  1
  O  O1  1  0.200226  0.648809  0.848459  1
  O  O2  1  0.799774  0.851191  0.348459  1
  O  O3  1  0.299774  0.148809  0.151541  1
  O  O4  1  0.299774  0.648809  0.348459  1
  O  O5  1  0.799774  0.351191  0.151541  1
  O  O6  1  0.200226  0.148809  0.651541  1
  O  O7  1  0.700226  0.851191  0.848459  1
  O  O8  1  0.653660  0.059020  0.902346  1
  O  O9  1  0.153660  0.940980  0.597654  1
  O  O10  1  0.846340  0.559020  0.097655  1
  O  O11  1  0.346340  0.440980  0.402346  1
  O  O12  1  0.346340  0.940980  0.097655  1
  O  O13  1  0.846340  0.059020  0.402346  1
  O  O14  1  0.153660  0.440980  0.902346  1
  O  O15  1  0.653660  0.559020  0.597654  1
  O  O16  1  0.666829  0.368553  0.521301  1
  O  O17  1  0.166829  0.631447  0.978699  1
  O  O18  1  0.833171  0.868553  0.478699  1
  O  O19  1  0.333171  0.131447  0.021301  1
  O  O20  1  0.333171  0.631447  0.478699  1
  O  O21  1  0.833171  0.368553  0.021301  1
  O  O22  1  0.166829  0.131447  0.521301  1
  O  O23  1  0.666829  0.868553  0.978699  1
  O  O24  1  0.951633  0.305262  0.786732  1
  O  O25  1  0.585769  0.296984  0.890783  1
  O  O26  1  0.451633  0.694738  0.713268  1
  O  O27  1  0.048367  0.194738  0.286732  1
  O  O28  1  0.048367  0.694738  0.213268  1
  O  O29  1  0.548367  0.305262  0.286732  1
  O  O30  1  0.451633  0.194738  0.786732  1
  O  O31  1  0.951633  0.805262  0.713268  1
  O  O32  1  0.590588  0.061089  0.583056  1
  O  O33  1  0.090588  0.938911  0.916944  1
  O  O34  1  0.909412  0.561089  0.416944  1
  O  O35  1  0.409412  0.438911  0.083056  1
  O  O36  1  0.409412  0.938911  0.416944  1
  O  O37  1  0.909412  0.061089  0.083056  1
  O  O38  1  0.090588  0.438911  0.583056  1
  O  O39  1  0.590588  0.561089  0.916944  1
  O  O40  1  0.896897  0.070031  0.775043  1
  O  O41  1  0.396897  0.929969  0.724957  1
  O  O42  1  0.603103  0.570031  0.224957  1
  O  O43  1  0.103103  0.429969  0.275043  1
  O  O44  1  0.103103  0.929969  0.224957  1
  O  O45  1  0.603103  0.070031  0.275043  1
  O  O46  1  0.396897  0.429969  0.775043  1
  O  O47  1  0.896897  0.570031  0.724957  1
  O  O48  1  0.585769  0.796984  0.609217  1
  O  O49  1  0.085769  0.203016  0.890783  1
  O  O50  1  0.914231  0.296984  0.390783  1
  O  O51  1  0.414231  0.703016  0.109217  1
  O  O52  1  0.414231  0.203016  0.390783  1
  O  O53  1  0.914231  0.796984  0.109217  1
  O  O54  1  0.085769  0.703016  0.609217  1
  O  O55  1  0.548367  0.805262  0.213268  1
  Na  Na56  1  0.755382  0.663968  0.828907  1
  Na  Na57  1  0.735460  0.176111  0.497550  1
  Na  Na58  1  0.235460  0.823889  0.002450  1
  Na  Na59  1  0.764540  0.676111  0.502450  1
  Na  Na60  1  0.264540  0.323889  0.997550  1
  Na  Na61  1  0.264540  0.823889  0.502450  1
  Na  Na62  1  0.764540  0.176111  0.997550  1
  Na  Na63  1  0.235460  0.323889  0.497550  1
  Na  Na64  1  0.255382  0.336032  0.671093  1
  Na  Na65  1  0.744618  0.163968  0.171093  1
  Na  Na66  1  0.244618  0.836032  0.328907  1
  Na  Na67  1  0.735460  0.676111  0.002450  1
  Na  Na68  1  0.744618  0.663968  0.328907  1
  Na  Na69  1  0.255382  0.836032  0.828907  1
  Na  Na70  1  0.755382  0.163968  0.671093  1
  Na  Na71  1  0.244618  0.336032  0.171093  1
  Si  Si72  1  0.778550  0.929112  0.911978  1
  Si  Si73  1  0.278550  0.070888  0.588022  1
  Si  Si74  1  0.721450  0.429112  0.088022  1
  Si  Si75  1  0.221450  0.570888  0.411978  1
  Si  Si76  1  0.221450  0.070888  0.088022  1
  Si  Si77  1  0.721450  0.929112  0.411978  1
  Si  Si78  1  0.278550  0.570888  0.911978  1
  Si  Si79  1  0.778550  0.429112  0.588022  1
  Ti  Ti80  1  0.789995  0.185033  0.835094  1
  Ti  Ti81  1  0.289995  0.814967  0.664906  1
  Ti  Ti82  1  0.710005  0.685033  0.164906  1
  Ti  Ti83  1  0.210005  0.314967  0.335094  1
  Ti  Ti84  1  0.210005  0.814967  0.164906  1
  Ti  Ti85  1  0.710005  0.185033  0.335094  1
  Ti  Ti86  1  0.289995  0.314967  0.835094  1
  Ti  Ti87  1  0.789995  0.685033  0.664906  1
  Zn  Zn88  1  0.753182  0.919684  0.260764  1
  Zn  Zn89  1  0.753182  0.419684  0.239236  1
  Zn  Zn90  1  0.253182  0.580316  0.260764  1
  Zn  Zn91  1  0.253182  0.080316  0.239236  1
  Zn  Zn92  1  0.246818  0.080316  0.739236  1
  Zn  Zn93  1  0.246818  0.580316  0.760764  1
  Zn  Zn94  1  0.746818  0.419684  0.739236  1
  Zn  Zn95  1  0.785992  0.923696  0.570021  1
  Zn  Zn96  1  0.285992  0.076304  0.929979  1
  Zn  Zn97  1  0.714008  0.423696  0.429979  1
  Zn  Zn98  1  0.214008  0.576304  0.070021  1
  Zn  Zn99  1  0.214008  0.076304  0.429979  1
  Zn  Zn100  1  0.714008  0.923696  0.070021  1
  Zn  Zn101  1  0.285992  0.576304  0.570021  1
  Zn  Zn102  1  0.785992  0.423696  0.929979  1
  Zn  Zn103  1  0.746818  0.919684  0.760764  1
