# generated using pymatgen
data_TeMoWSe2S
_symmetry_space_group_name_H-M   'P 1'
_cell_length_a   3.34548620
_cell_length_b   3.34544245
_cell_length_c   38.14052821
_cell_angle_alpha   89.99996881
_cell_angle_beta   89.99987261
_cell_angle_gamma   120.00005648
_symmetry_Int_Tables_number   1
_chemical_formula_structural   TeMoWSe2S
_chemical_formula_sum   'Te2 Mo2 W2 Se4 S2'
_cell_volume   369.68335252
_cell_formula_units_Z   2
loop_
 _symmetry_equiv_pos_site_id
 _symmetry_equiv_pos_as_xyz
  1  'x, y, z'
loop_
 _atom_site_type_symbol
 _atom_site_label
 _atom_site_symmetry_multiplicity
 _atom_site_fract_x
 _atom_site_fract_y
 _atom_site_fract_z
 _atom_site_occupancy
  Te  Te0  1  0.333352  0.666705  0.331760  1
  Te  Te1  1  0.333355  0.666711  0.231698  1
  Mo  Mo2  1  0.333282  0.666574  0.093892  1
  Mo  Mo3  1  0.666692  0.333380  0.657551  1
  W  W4  1  0.333308  0.666622  0.469738  1
  W  W5  1  0.666696  0.333386  0.281717  1
  Se  Se6  1  0.333350  0.666702  0.701279  1
  Se  Se7  1  0.666650  0.333297  0.425801  1
  Se  Se8  1  0.666654  0.333306  0.513679  1
  Se  Se9  1  0.333372  0.666732  0.613810  1
  S  S10  1  0.666651  0.333301  0.054148  1
  S  S11  1  0.666639  0.333283  0.133676  1
