# generated using pymatgen
data_NdBrO2
_symmetry_space_group_name_H-M   'P 1'
_cell_length_a   4.40764668
_cell_length_b   5.20275368
_cell_length_c   7.19934302
_cell_angle_alpha   116.72043082
_cell_angle_beta   90.00000000
_cell_angle_gamma   90.00000000
_symmetry_Int_Tables_number   1
_chemical_formula_structural   NdBrO2
_chemical_formula_sum   'Nd2 Br2 O4'
_cell_volume   147.46434356
_cell_formula_units_Z   2
loop_
 _symmetry_equiv_pos_site_id
 _symmetry_equiv_pos_as_xyz
  1  'x, y, z'
loop_
 _atom_site_type_symbol
 _atom_site_label
 _atom_site_symmetry_multiplicity
 _atom_site_fract_x
 _atom_site_fract_y
 _atom_site_fract_z
 _atom_site_occupancy
  Nd  Nd0  1  0.750000  0.149075  0.346232  1
  Nd  Nd1  1  0.250000  0.850925  0.653768  1
  Br  Br2  1  0.750000  0.684532  0.903380  1
  Br  Br3  1  0.250000  0.315468  0.096620  1
  O  O4  1  0.750000  0.705442  0.453517  1
  O  O5  1  0.250000  0.294558  0.546483  1
  O  O6  1  0.750000  0.008603  0.625582  1
  O  O7  1  0.250000  0.991397  0.374418  1
