# generated using pymatgen
data_HoClO2
_symmetry_space_group_name_H-M   'P 1'
_cell_length_a   3.56557641
_cell_length_b   6.23939479
_cell_length_c   6.36348899
_cell_angle_alpha   110.22779481
_cell_angle_beta   90.00000000
_cell_angle_gamma   90.00000000
_symmetry_Int_Tables_number   1
_chemical_formula_structural   HoClO2
_chemical_formula_sum   'Ho2 Cl2 O4'
_cell_volume   132.83758942
_cell_formula_units_Z   2
loop_
 _symmetry_equiv_pos_site_id
 _symmetry_equiv_pos_as_xyz
  1  'x, y, z'
loop_
 _atom_site_type_symbol
 _atom_site_label
 _atom_site_symmetry_multiplicity
 _atom_site_fract_x
 _atom_site_fract_y
 _atom_site_fract_z
 _atom_site_occupancy
  Ho  Ho0  1  0.750000  0.189798  0.340761  1
  Ho  Ho1  1  0.250000  0.810202  0.659239  1
  Cl  Cl2  1  0.750000  0.758793  0.972856  1
  Cl  Cl3  1  0.250000  0.241207  0.027144  1
  O  O4  1  0.750000  0.578866  0.440160  1
  O  O5  1  0.250000  0.421134  0.559840  1
  O  O6  1  0.750000  0.052075  0.627680  1
  O  O7  1  0.250000  0.947925  0.372320  1
