# generated using pymatgen
data_SiO2
_symmetry_space_group_name_H-M   'P 1'
_cell_length_a   7.74834033
_cell_length_b   11.65287538
_cell_length_c   11.65287537
_cell_angle_alpha   71.69414112
_cell_angle_beta   80.45049168
_cell_angle_gamma   80.45049166
_symmetry_Int_Tables_number   1
_chemical_formula_structural   SiO2
_chemical_formula_sum   'Si16 O32'
_cell_volume   977.75280418
_cell_formula_units_Z   16
loop_
 _symmetry_equiv_pos_site_id
 _symmetry_equiv_pos_as_xyz
  1  'x, y, z'
loop_
 _atom_site_type_symbol
 _atom_site_label
 _atom_site_symmetry_multiplicity
 _atom_site_fract_x
 _atom_site_fract_y
 _atom_site_fract_z
 _atom_site_occupancy
  O  O0  1  0.750931  0.332771  0.048017  1
  O  O1  1  0.249069  0.951983  0.667229  1
  O  O2  1  0.249069  0.667229  0.951983  1
  O  O3  1  0.750931  0.048017  0.332771  1
  O  O4  1  0.766866  0.111072  0.737933  1
  O  O5  1  0.233134  0.262067  0.888928  1
  O  O6  1  0.233134  0.888928  0.262067  1
  O  O7  1  0.766866  0.737933  0.111072  1
  O  O8  1  0.919769  0.658084  0.922813  1
  O  O9  1  0.080231  0.077187  0.341916  1
  O  O10  1  0.080231  0.341916  0.077187  1
  O  O11  1  0.919769  0.922813  0.658084  1
  O  O12  1  0.180128  0.498426  0.862465  1
  O  O13  1  0.819872  0.137535  0.501574  1
  O  O14  1  0.819872  0.501574  0.137535  1
  O  O15  1  0.180128  0.862465  0.498426  1
  O  O16  1  0.546476  0.157630  0.157630  1
  O  O17  1  0.453524  0.842370  0.842370  1
  O  O18  1  0.000000  0.871261  0.128739  1
  O  O19  1  0.000000  0.128739  0.871261  1
  O  O20  1  0.420163  0.999646  0.358226  1
  O  O21  1  0.579837  0.641774  0.000354  1
  O  O22  1  0.579837  0.000354  0.641774  1
  O  O23  1  0.420163  0.358226  0.999646  1
  O  O24  1  0.662324  0.920773  0.203031  1
  O  O25  1  0.337676  0.796969  0.079227  1
  O  O26  1  0.337676  0.079227  0.796969  1
  O  O27  1  0.662324  0.203031  0.920773  1
  O  O28  1  0.773391  0.964829  0.964829  1
  O  O29  1  0.226609  0.035171  0.035171  1
  O  O30  1  0.151642  0.727886  0.727886  1
  O  O31  1  0.848358  0.272114  0.272114  1
  Si  Si32  1  0.227691  0.364584  0.957506  1
  Si  Si33  1  0.772309  0.042494  0.635416  1
  Si  Si34  1  0.772309  0.635416  0.042494  1
  Si  Si35  1  0.227691  0.957506  0.364584  1
  Si  Si36  1  0.125462  0.638328  0.866333  1
  Si  Si37  1  0.874538  0.133667  0.361672  1
  Si  Si38  1  0.874538  0.361672  0.133667  1
  Si  Si39  1  0.125462  0.866333  0.638328  1
  Si  Si40  1  0.800974  0.101535  0.874102  1
  Si  Si41  1  0.199026  0.125898  0.898465  1
  Si  Si42  1  0.199026  0.898465  0.125898  1
  Si  Si43  1  0.800974  0.874102  0.101535  1
  Si  Si44  1  0.595804  0.262888  0.031787  1
  Si  Si45  1  0.404196  0.968213  0.737112  1
  Si  Si46  1  0.404196  0.737112  0.968213  1
  Si  Si47  1  0.595804  0.031787  0.262888  1
