# generated using pymatgen
data_Ni8P3
_symmetry_space_group_name_H-M   'P 1'
_cell_length_a   13.19773143
_cell_length_b   13.19773144
_cell_length_c   13.19773143
_cell_angle_alpha   28.85543282
_cell_angle_beta   28.85543279
_cell_angle_gamma   28.85543280
_symmetry_Int_Tables_number   1
_chemical_formula_structural   Ni8P3
_chemical_formula_sum   'Ni32 P12'
_cell_volume   473.45414565
_cell_formula_units_Z   4
loop_
 _symmetry_equiv_pos_site_id
 _symmetry_equiv_pos_as_xyz
  1  'x, y, z'
loop_
 _atom_site_type_symbol
 _atom_site_label
 _atom_site_symmetry_multiplicity
 _atom_site_fract_x
 _atom_site_fract_y
 _atom_site_fract_z
 _atom_site_occupancy
  P  P0  1  0.030710  0.348682  0.712896  1
  P  P1  1  0.348682  0.712896  0.030710  1
  P  P2  1  0.712896  0.030710  0.348682  1
  P  P3  1  0.212896  0.848682  0.530710  1
  P  P4  1  0.848682  0.530710  0.212896  1
  P  P5  1  0.530710  0.212896  0.848682  1
  P  P6  1  0.621951  0.621951  0.621951  1
  P  P7  1  0.121951  0.121951  0.121951  1
  P  P8  1  0.939554  0.939554  0.939554  1
  P  P9  1  0.439554  0.439554  0.439554  1
  P  P10  1  0.780765  0.780765  0.780765  1
  P  P11  1  0.280765  0.280765  0.280765  1
  Ni  Ni12  1  0.435432  0.900420  0.667040  1
  Ni  Ni13  1  0.667040  0.435432  0.900420  1
  Ni  Ni14  1  0.894410  0.126119  0.661115  1
  Ni  Ni15  1  0.661115  0.894410  0.126119  1
  Ni  Ni16  1  0.126119  0.661115  0.894410  1
  Ni  Ni17  1  0.626119  0.394410  0.161115  1
  Ni  Ni18  1  0.161115  0.626119  0.394410  1
  Ni  Ni19  1  0.394410  0.161115  0.626119  1
  Ni  Ni20  1  0.423963  0.797945  0.070308  1
  Ni  Ni21  1  0.070308  0.423963  0.797945  1
  Ni  Ni22  1  0.797945  0.070308  0.423963  1
  Ni  Ni23  1  0.297945  0.923963  0.570308  1
  Ni  Ni24  1  0.570308  0.297945  0.923963  1
  Ni  Ni25  1  0.923963  0.570308  0.297945  1
  Ni  Ni26  1  0.991060  0.263566  0.637634  1
  Ni  Ni27  1  0.637634  0.991060  0.263566  1
  Ni  Ni28  1  0.263566  0.637634  0.991060  1
  Ni  Ni29  1  0.763566  0.491060  0.137634  1
  Ni  Ni30  1  0.137634  0.763566  0.491060  1
  Ni  Ni31  1  0.491060  0.137634  0.763566  1
  Ni  Ni32  1  0.900420  0.667040  0.435432  1
  Ni  Ni33  1  0.400420  0.935432  0.167040  1
  Ni  Ni34  1  0.935432  0.167040  0.400420  1
  Ni  Ni35  1  0.167040  0.400420  0.935432  1
  Ni  Ni36  1  0.722520  0.722520  0.722520  1
  Ni  Ni37  1  0.222520  0.222520  0.222520  1
  Ni  Ni38  1  0.561987  0.561987  0.561987  1
  Ni  Ni39  1  0.061988  0.061988  0.061988  1
  Ni  Ni40  1  0.838992  0.838992  0.838992  1
  Ni  Ni41  1  0.338992  0.338992  0.338992  1
  Ni  Ni42  1  0.499530  0.499530  0.499530  1
  Ni  Ni43  1  0.999530  0.999530  0.999530  1
