# generated using pymatgen
data_Sr3Fe2O7
_symmetry_space_group_name_H-M   'P 1'
_cell_length_a   3.90813785
_cell_length_b   3.90813784
_cell_length_c   10.54300435
_cell_angle_alpha   100.68111327
_cell_angle_beta   100.68111329
_cell_angle_gamma   90.00000009
_symmetry_Int_Tables_number   1
_chemical_formula_structural   Sr3Fe2O7
_chemical_formula_sum   'Sr3 Fe2 O7'
_cell_volume   155.39893576
_cell_formula_units_Z   1
loop_
 _symmetry_equiv_pos_site_id
 _symmetry_equiv_pos_as_xyz
  1  'x, y, z'
loop_
 _atom_site_type_symbol
 _atom_site_label
 _atom_site_symmetry_multiplicity
 _atom_site_fract_x
 _atom_site_fract_y
 _atom_site_fract_z
 _atom_site_occupancy
  O  O0  1  0.000000  0.000000  0.000000  1
  O  O1  1  0.806182  0.806183  0.612365  1
  O  O2  1  0.193816  0.193818  0.387635  1
  O  O3  1  0.904423  0.404423  0.808847  1
  O  O4  1  0.404424  0.904424  0.808847  1
  O  O5  1  0.595577  0.095576  0.191153  1
  O  O6  1  0.095578  0.595578  0.191153  1
  Fe  Fe7  1  0.902720  0.902720  0.805439  1
  Fe  Fe8  1  0.097281  0.097281  0.194561  1
  Sr  Sr9  1  0.683001  0.682999  0.366000  1
  Sr  Sr10  1  0.317000  0.316999  0.634001  1
  Sr  Sr11  1  0.500000  0.500001  0.000000  1
