# generated using pymatgen
data_Ho2(Ga3Co)3
_symmetry_space_group_name_H-M   'P 1'
_cell_length_a   7.38367894
_cell_length_b   7.35415981
_cell_length_c   9.42056015
_cell_angle_alpha   90.00000000
_cell_angle_beta   90.00000000
_cell_angle_gamma   120.13286900
_symmetry_Int_Tables_number   1
_chemical_formula_structural   Ho2(Ga3Co)3
_chemical_formula_sum   'Ho4 Ga18 Co6'
_cell_volume   442.41536463
_cell_formula_units_Z   2
loop_
 _symmetry_equiv_pos_site_id
 _symmetry_equiv_pos_as_xyz
  1  'x, y, z'
loop_
 _atom_site_type_symbol
 _atom_site_label
 _atom_site_symmetry_multiplicity
 _atom_site_fract_x
 _atom_site_fract_y
 _atom_site_fract_z
 _atom_site_occupancy
  Co  Co0  1  0.329215  0.658429  0.000000  1
  Co  Co1  1  0.670785  0.341571  0.500000  1
  Co  Co2  1  0.670785  0.341571  0.000000  1
  Co  Co3  1  0.329215  0.658429  0.500000  1
  Co  Co4  1  0.000000  0.000000  0.000000  1
  Co  Co5  1  0.000000  0.000000  0.500000  1
  Ga  Ga6  1  0.665691  0.665568  0.928106  1
  Ga  Ga7  1  0.334309  0.334432  0.428106  1
  Ga  Ga8  1  0.999877  0.665568  0.428106  1
  Ga  Ga9  1  0.334309  0.334432  0.071895  1
  Ga  Ga10  1  0.000123  0.334432  0.928106  1
  Ga  Ga11  1  0.999877  0.665568  0.071895  1
  Ga  Ga12  1  0.333439  0.000000  0.558279  1
  Ga  Ga13  1  0.333439  0.000000  0.941721  1
  Ga  Ga14  1  0.666561  0.000000  0.058279  1
  Ga  Ga15  1  0.666561  0.000000  0.441721  1
  Ga  Ga16  1  0.878966  0.000000  0.750000  1
  Ga  Ga17  1  0.121034  0.000000  0.250000  1
  Ga  Ga18  1  0.336408  0.785907  0.250000  1
  Ga  Ga19  1  0.550501  0.214093  0.250000  1
  Ga  Ga20  1  0.663592  0.214093  0.750000  1
  Ga  Ga21  1  0.449499  0.785907  0.750000  1
  Ga  Ga22  1  0.665691  0.665568  0.571894  1
  Ga  Ga23  1  0.000123  0.334432  0.571894  1
  Ho  Ho24  1  0.331399  0.328505  0.750000  1
  Ho  Ho25  1  0.002894  0.671495  0.750000  1
  Ho  Ho26  1  0.668601  0.671495  0.250000  1
  Ho  Ho27  1  0.997106  0.328505  0.250000  1
