# generated using pymatgen
data_Nd2NiO4
_symmetry_space_group_name_H-M   'P 1'
_cell_length_a   3.86371156
_cell_length_b   3.86371156
_cell_length_c   6.74138309
_cell_angle_alpha   106.65251951
_cell_angle_beta   106.65251952
_cell_angle_gamma   89.99999995
_symmetry_Int_Tables_number   1
_chemical_formula_structural   Nd2NiO4
_chemical_formula_sum   'Nd2 Ni1 O4'
_cell_volume   92.00235661
_cell_formula_units_Z   1
loop_
 _symmetry_equiv_pos_site_id
 _symmetry_equiv_pos_as_xyz
  1  'x, y, z'
loop_
 _atom_site_type_symbol
 _atom_site_label
 _atom_site_symmetry_multiplicity
 _atom_site_fract_x
 _atom_site_fract_y
 _atom_site_fract_z
 _atom_site_occupancy
  O  O0  1  0.821287  0.821288  0.642574  1
  O  O1  1  0.178714  0.178712  0.357427  1
  O  O2  1  0.999999  0.500000  1.000000  1
  O  O3  1  0.500001  0.000000  1.000000  1
  Ni  Ni4  1  0.000000  0.000000  0.000000  1
  Nd  Nd5  1  0.635616  0.635615  0.271232  1
  Nd  Nd6  1  0.364385  0.364385  0.728769  1
