# generated using pymatgen
data_SrC10
_symmetry_space_group_name_H-M   'P 1'
_cell_length_a   9.58137854
_cell_length_b   9.58137854
_cell_length_c   9.58137855
_cell_angle_alpha   109.47122065
_cell_angle_beta   109.47122065
_cell_angle_gamma   109.47122062
_symmetry_Int_Tables_number   1
_chemical_formula_structural   SrC10
_chemical_formula_sum   'Sr6 C60'
_cell_volume   677.11448674
_cell_formula_units_Z   6
loop_
 _symmetry_equiv_pos_site_id
 _symmetry_equiv_pos_as_xyz
  1  'x, y, z'
loop_
 _atom_site_type_symbol
 _atom_site_label
 _atom_site_symmetry_multiplicity
 _atom_site_fract_x
 _atom_site_fract_y
 _atom_site_fract_z
 _atom_site_occupancy
  C  C0  1  0.318552  0.384244  0.065692  1
  C  C1  1  0.252860  0.934308  0.318552  1
  C  C2  1  0.934308  0.681448  0.615756  1
  C  C3  1  0.747140  0.065692  0.681448  1
  C  C4  1  0.934308  0.318552  0.252860  1
  C  C5  1  0.615756  0.934308  0.681448  1
  C  C6  1  0.065692  0.681448  0.747140  1
  C  C7  1  0.065692  0.318552  0.384244  1
  C  C8  1  0.384244  0.065692  0.318552  1
  C  C9  1  0.318552  0.252860  0.934308  1
  C  C10  1  0.681448  0.615756  0.934308  1
  C  C11  1  0.681448  0.747140  0.065692  1
  C  C12  1  0.383700  0.408489  0.236684  1
  C  C13  1  0.147015  0.763316  0.171805  1
  C  C14  1  0.975211  0.828195  0.591511  1
  C  C15  1  0.852985  0.024789  0.616301  1
  C  C16  1  0.763316  0.171805  0.147015  1
  C  C17  1  0.591511  0.975211  0.828195  1
  C  C18  1  0.024789  0.616301  0.852985  1
  C  C19  1  0.236684  0.383700  0.408489  1
  C  C20  1  0.408489  0.236684  0.383700  1
  C  C21  1  0.171805  0.147015  0.763316  1
  C  C22  1  0.828195  0.591511  0.975211  1
  C  C23  1  0.616301  0.852985  0.024789  1
  C  C24  1  0.616301  0.591511  0.763316  1
  C  C25  1  0.852985  0.236684  0.828195  1
  C  C26  1  0.024789  0.171805  0.408489  1
  C  C27  1  0.147015  0.975211  0.383700  1
  C  C28  1  0.236684  0.828195  0.852985  1
  C  C29  1  0.408489  0.024789  0.171805  1
  C  C30  1  0.975211  0.383700  0.147015  1
  C  C31  1  0.763316  0.616301  0.591511  1
  C  C32  1  0.591511  0.763316  0.616301  1
  C  C33  1  0.828195  0.852985  0.236684  1
  C  C34  1  0.171805  0.408489  0.024789  1
  C  C35  1  0.383700  0.147015  0.975211  1
  C  C36  1  0.445550  0.299710  0.275490  1
  C  C37  1  0.170061  0.724510  0.024220  1
  C  C38  1  0.145841  0.975780  0.700290  1
  C  C39  1  0.829939  0.854159  0.554450  1
  C  C40  1  0.724510  0.024220  0.170061  1
  C  C41  1  0.700290  0.145841  0.975780  1
  C  C42  1  0.854159  0.554450  0.829939  1
  C  C43  1  0.275490  0.445550  0.299710  1
  C  C44  1  0.299710  0.275490  0.445550  1
  C  C45  1  0.024220  0.170061  0.724510  1
  C  C46  1  0.975780  0.700290  0.145841  1
  C  C47  1  0.554450  0.829939  0.854159  1
  C  C48  1  0.554450  0.700290  0.724510  1
  C  C49  1  0.829939  0.275490  0.975780  1
  C  C50  1  0.854159  0.024220  0.299710  1
  C  C51  1  0.170061  0.145841  0.445550  1
  C  C52  1  0.275490  0.975780  0.829939  1
  C  C53  1  0.299710  0.854159  0.024220  1
  C  C54  1  0.145841  0.445550  0.170061  1
  C  C55  1  0.724510  0.554450  0.700290  1
  C  C56  1  0.700290  0.724510  0.554450  1
  C  C57  1  0.975780  0.829939  0.275490  1
  C  C58  1  0.024220  0.299710  0.854159  1
  C  C59  1  0.445550  0.170061  0.145841  1
  Sr  Sr60  1  0.272447  0.500000  0.772447  1
  Sr  Sr61  1  0.500000  0.227553  0.727553  1
  Sr  Sr62  1  0.772447  0.272447  0.500000  1
  Sr  Sr63  1  0.227553  0.727553  0.500000  1
  Sr  Sr64  1  0.500000  0.772447  0.272447  1
  Sr  Sr65  1  0.727553  0.500000  0.227553  1
