# generated using pymatgen
data_Rb2Cu2SnS4
_symmetry_space_group_name_H-M   'P 1'
_cell_length_a   5.48068987
_cell_length_b   9.49033227
_cell_length_c   9.49033227
_cell_angle_alpha   76.53347716
_cell_angle_beta   73.21679244
_cell_angle_gamma   73.21679244
_symmetry_Int_Tables_number   1
_chemical_formula_structural   Rb2Cu2SnS4
_chemical_formula_sum   'Rb4 Cu4 Sn2 S8'
_cell_volume   446.41019125
_cell_formula_units_Z   2
loop_
 _symmetry_equiv_pos_site_id
 _symmetry_equiv_pos_as_xyz
  1  'x, y, z'
loop_
 _atom_site_type_symbol
 _atom_site_label
 _atom_site_symmetry_multiplicity
 _atom_site_fract_x
 _atom_site_fract_y
 _atom_site_fract_z
 _atom_site_occupancy
  S  S0  1  0.919197  0.718993  0.983363  1
  S  S1  1  0.121553  0.781007  0.516637  1
  S  S2  1  0.580803  0.516637  0.781007  1
  S  S3  1  0.378447  0.983363  0.718993  1
  S  S4  1  0.080803  0.281007  0.016637  1
  S  S5  1  0.878447  0.218993  0.483363  1
  S  S6  1  0.621553  0.016637  0.281007  1
  S  S7  1  0.419197  0.483363  0.218993  1
  Cu  Cu8  1  0.250000  0.024540  0.475460  1
  Cu  Cu9  1  0.250000  0.475460  0.024540  1
  Cu  Cu10  1  0.750000  0.975460  0.524540  1
  Cu  Cu11  1  0.750000  0.524540  0.975460  1
  Rb  Rb12  1  0.771647  0.624333  0.375667  1
  Rb  Rb13  1  0.271647  0.875667  0.124333  1
  Rb  Rb14  1  0.728353  0.124333  0.875667  1
  Rb  Rb15  1  0.228353  0.375667  0.624333  1
  Sn  Sn16  1  0.250000  0.750000  0.750000  1
  Sn  Sn17  1  0.750000  0.250000  0.250000  1
