# generated using pymatgen
data_BN
_symmetry_space_group_name_H-M   'P 1'
_cell_length_a   2.51198211
_cell_length_b   4.39850358
_cell_length_c   6.67374448
_cell_angle_alpha   90.50965071
_cell_angle_beta   100.84768989
_cell_angle_gamma   90.00000003
_symmetry_Int_Tables_number   1
_chemical_formula_structural   BN
_chemical_formula_sum   'B4 N4'
_cell_volume   72.41735356
_cell_formula_units_Z   4
loop_
 _symmetry_equiv_pos_site_id
 _symmetry_equiv_pos_as_xyz
  1  'x, y, z'
loop_
 _atom_site_type_symbol
 _atom_site_label
 _atom_site_symmetry_multiplicity
 _atom_site_fract_x
 _atom_site_fract_y
 _atom_site_fract_z
 _atom_site_occupancy
  B  B0  1  0.999917  0.001176  0.999833  1
  B  B1  1  0.799989  0.572298  0.599978  1
  B  B2  1  0.134247  0.619425  0.268494  1
  B  B3  1  0.468469  0.501718  0.936937  1
  N  N4  1  0.019232  0.656894  0.038464  1
  N  N5  1  0.493845  0.156836  0.987689  1
  N  N6  1  0.353105  0.556202  0.706210  1
  N  N7  1  0.687698  0.606951  0.375396  1
