# generated using pymatgen
data_Ca2P2O7
_symmetry_space_group_name_H-M   'P 1'
_cell_length_a   5.44217919
_cell_length_b   8.53109679
_cell_length_c   12.92907455
_cell_angle_alpha   90.00000000
_cell_angle_beta   87.96986296
_cell_angle_gamma   90.00000000
_symmetry_Int_Tables_number   1
_chemical_formula_structural   Ca2P2O7
_chemical_formula_sum   'Ca8 P8 O28'
_cell_volume   599.89116825
_cell_formula_units_Z   4
loop_
 _symmetry_equiv_pos_site_id
 _symmetry_equiv_pos_as_xyz
  1  'x, y, z'
loop_
 _atom_site_type_symbol
 _atom_site_label
 _atom_site_symmetry_multiplicity
 _atom_site_fract_x
 _atom_site_fract_y
 _atom_site_fract_z
 _atom_site_occupancy
  O  O0  1  0.633876  0.153902  0.338214  1
  O  O1  1  0.866124  0.653902  0.161786  1
  O  O2  1  0.366124  0.846098  0.661786  1
  O  O3  1  0.133876  0.346098  0.838214  1
  O  O4  1  0.513963  0.895249  0.266642  1
  O  O5  1  0.986037  0.395249  0.233358  1
  O  O6  1  0.486037  0.104751  0.733358  1
  O  O7  1  0.013963  0.604751  0.766642  1
  O  O8  1  0.960813  0.972836  0.252347  1
  O  O9  1  0.539187  0.472836  0.247653  1
  O  O10  1  0.039187  0.027164  0.747653  1
  O  O11  1  0.460813  0.527164  0.752347  1
  O  O12  1  0.862821  0.751562  0.585526  1
  O  O13  1  0.637179  0.251562  0.914474  1
  O  O14  1  0.137179  0.248438  0.414474  1
  O  O15  1  0.362821  0.748438  0.085526  1
  O  O16  1  0.272475  0.586163  0.931012  1
  O  O17  1  0.227525  0.086163  0.568988  1
  O  O18  1  0.727525  0.413837  0.068988  1
  O  O19  1  0.772475  0.913837  0.431012  1
  O  O20  1  0.048118  0.847533  0.956853  1
  O  O21  1  0.451882  0.347533  0.543147  1
  O  O22  1  0.951882  0.152467  0.043147  1
  O  O23  1  0.548118  0.652467  0.456853  1
  O  O24  1  0.500800  0.852896  0.912660  1
  O  O25  1  0.999200  0.352896  0.587340  1
  O  O26  1  0.499200  0.147104  0.087340  1
  O  O27  1  0.000800  0.647104  0.412660  1
  P  P28  1  0.719561  0.986325  0.318314  1
  P  P29  1  0.780439  0.486325  0.181686  1
  P  P30  1  0.280439  0.013675  0.681686  1
  P  P31  1  0.219561  0.513675  0.818314  1
  P  P32  1  0.792358  0.736262  0.472923  1
  P  P33  1  0.707642  0.236262  0.027077  1
  P  P34  1  0.207642  0.263738  0.527077  1
  P  P35  1  0.292358  0.763738  0.972923  1
  Ca  Ca36  1  0.253389  0.112720  0.909973  1
  Ca  Ca37  1  0.246611  0.612720  0.590027  1
  Ca  Ca38  1  0.746611  0.887280  0.090027  1
  Ca  Ca39  1  0.753389  0.387280  0.409973  1
  Ca  Ca40  1  0.755413  0.317430  0.742821  1
  Ca  Ca41  1  0.744587  0.817430  0.757179  1
  Ca  Ca42  1  0.244587  0.682570  0.257179  1
  Ca  Ca43  1  0.255413  0.182570  0.242821  1
