# generated using pymatgen
data_Cs2NaCr(CN)6
_symmetry_space_group_name_H-M   'P 1'
_cell_length_a   7.69762509
_cell_length_b   8.02868099
_cell_length_c   11.11708091
_cell_angle_alpha   90.00000000
_cell_angle_beta   90.12522976
_cell_angle_gamma   90.00000000
_symmetry_Int_Tables_number   1
_chemical_formula_structural   Cs2NaCr(CN)6
_chemical_formula_sum   'Cs4 Na2 Cr2 C12 N12'
_cell_volume   687.05370565
_cell_formula_units_Z   2
loop_
 _symmetry_equiv_pos_site_id
 _symmetry_equiv_pos_as_xyz
  1  'x, y, z'
loop_
 _atom_site_type_symbol
 _atom_site_label
 _atom_site_symmetry_multiplicity
 _atom_site_fract_x
 _atom_site_fract_y
 _atom_site_fract_z
 _atom_site_occupancy
  C  C0  1  0.784260  0.144073  0.025137  1
  C  C1  1  0.284260  0.355927  0.525137  1
  C  C2  1  0.215740  0.855927  0.974863  1
  C  C3  1  0.715740  0.644073  0.474863  1
  C  C4  1  0.643525  0.289875  0.470344  1
  C  C5  1  0.856475  0.789875  0.029656  1
  C  C6  1  0.356475  0.710125  0.529656  1
  C  C7  1  0.143525  0.210125  0.970344  1
  C  C8  1  0.053740  0.012588  0.179554  1
  C  C9  1  0.446260  0.512588  0.320446  1
  C  C10  1  0.946260  0.987412  0.820446  1
  C  C11  1  0.553740  0.487412  0.679554  1
  N  N12  1  0.084071  0.022043  0.283074  1
  N  N13  1  0.415929  0.522043  0.216926  1
  N  N14  1  0.915929  0.977957  0.716926  1
  N  N15  1  0.584071  0.477957  0.783074  1
  N  N16  1  0.726486  0.169363  0.452346  1
  N  N17  1  0.226486  0.330637  0.952346  1
  N  N18  1  0.273514  0.830637  0.547654  1
  N  N19  1  0.773514  0.669363  0.047654  1
  N  N20  1  0.661197  0.228515  0.039856  1
  N  N21  1  0.838803  0.728515  0.460144  1
  N  N22  1  0.338803  0.771485  0.960144  1
  N  N23  1  0.161197  0.271485  0.539856  1
  Na  Na24  1  0.000000  0.000000  0.500000  1
  Na  Na25  1  0.500000  0.500000  0.000000  1
  Cr  Cr26  1  0.000000  0.000000  0.000000  1
  Cr  Cr27  1  0.500000  0.500000  0.500000  1
  Cs  Cs28  1  0.013879  0.555472  0.750343  1
  Cs  Cs29  1  0.486121  0.055472  0.749657  1
  Cs  Cs30  1  0.986121  0.444528  0.249657  1
  Cs  Cs31  1  0.513879  0.944528  0.250343  1
