# generated using pymatgen
data_PrScSi
_symmetry_space_group_name_H-M   'P 1'
_cell_length_a   4.31092631
_cell_length_b   4.31092631
_cell_length_c   8.57216986
_cell_angle_alpha   104.56327042
_cell_angle_beta   104.56327042
_cell_angle_gamma   90.00000000
_symmetry_Int_Tables_number   1
_chemical_formula_structural   PrScSi
_chemical_formula_sum   'Pr2 Sc2 Si2'
_cell_volume   148.89326956
_cell_formula_units_Z   2
loop_
 _symmetry_equiv_pos_site_id
 _symmetry_equiv_pos_as_xyz
  1  'x, y, z'
loop_
 _atom_site_type_symbol
 _atom_site_label
 _atom_site_symmetry_multiplicity
 _atom_site_fract_x
 _atom_site_fract_y
 _atom_site_fract_z
 _atom_site_occupancy
  Pr  Pr0  1  0.323616  0.323616  0.647232  1
  Pr  Pr1  1  0.676384  0.676384  0.352768  1
  Sc  Sc2  1  0.000000  0.500000  0.000000  1
  Sc  Sc3  1  0.500000  0.000000  0.000000  1
  Si  Si4  1  0.120217  0.120217  0.240434  1
  Si  Si5  1  0.879783  0.879783  0.759566  1
