# generated using pymatgen
data_RbSm2CuSe4
_symmetry_space_group_name_H-M   'P 1'
_cell_length_a   4.20605853
_cell_length_b   7.57440251
_cell_length_c   14.60538874
_cell_angle_alpha   90.00000000
_cell_angle_beta   90.00000000
_cell_angle_gamma   106.11997108
_symmetry_Int_Tables_number   1
_chemical_formula_structural   RbSm2CuSe4
_chemical_formula_sum   'Rb2 Sm4 Cu2 Se8'
_cell_volume   447.00940689
_cell_formula_units_Z   2
loop_
 _symmetry_equiv_pos_site_id
 _symmetry_equiv_pos_as_xyz
  1  'x, y, z'
loop_
 _atom_site_type_symbol
 _atom_site_label
 _atom_site_symmetry_multiplicity
 _atom_site_fract_x
 _atom_site_fract_y
 _atom_site_fract_z
 _atom_site_occupancy
  Cu  Cu0  1  0.837791  0.675582  0.750000  1
  Cu  Cu1  1  0.162209  0.324418  0.250000  1
  Se  Se2  1  0.570615  0.141230  0.250000  1
  Se  Se3  1  0.429385  0.858770  0.750000  1
  Se  Se4  1  0.262281  0.524562  0.111966  1
  Se  Se5  1  0.737719  0.475438  0.888034  1
  Se  Se6  1  0.000000  0.000000  0.500000  1
  Se  Se7  1  0.000000  0.000000  0.000000  1
  Se  Se8  1  0.262281  0.524562  0.388034  1
  Se  Se9  1  0.737719  0.475438  0.611966  1
  Rb  Rb10  1  0.109041  0.218083  0.750000  1
  Rb  Rb11  1  0.890959  0.781917  0.250000  1
  Sm  Sm12  1  0.634420  0.268840  0.063209  1
  Sm  Sm13  1  0.365580  0.731160  0.936791  1
  Sm  Sm14  1  0.634420  0.268840  0.436791  1
  Sm  Sm15  1  0.365580  0.731160  0.563209  1
