# generated using pymatgen
data_LuO3
_symmetry_space_group_name_H-M   'P 1'
_cell_length_a   6.45476136
_cell_length_b   6.45476136
_cell_length_c   6.45476136
_cell_angle_alpha   109.47122063
_cell_angle_beta   109.47122063
_cell_angle_gamma   109.47122063
_symmetry_Int_Tables_number   1
_chemical_formula_structural   LuO3
_chemical_formula_sum   'Lu4 O12'
_cell_volume   207.02303983
_cell_formula_units_Z   4
loop_
 _symmetry_equiv_pos_site_id
 _symmetry_equiv_pos_as_xyz
  1  'x, y, z'
loop_
 _atom_site_type_symbol
 _atom_site_label
 _atom_site_symmetry_multiplicity
 _atom_site_fract_x
 _atom_site_fract_y
 _atom_site_fract_z
 _atom_site_occupancy
  Lu  Lu0  1  0.500000  0.500000  0.500000  1
  Lu  Lu1  1  0.500000  -0.000000  -0.000000  1
  Lu  Lu2  1  0.000000  0.500000  0.000000  1
  Lu  Lu3  1  0.000000  -0.000000  0.500000  1
  O  O4  1  0.900782  0.683107  0.583889  1
  O  O5  1  0.099218  0.316893  0.416111  1
  O  O6  1  0.099218  0.683107  0.782325  1
  O  O7  1  0.900782  0.316893  0.217675  1
  O  O8  1  0.683107  0.583889  0.900782  1
  O  O9  1  0.316893  0.416111  0.099218  1
  O  O10  1  0.683107  0.782325  0.099218  1
  O  O11  1  0.316893  0.217675  0.900782  1
  O  O12  1  0.583889  0.900782  0.683107  1
  O  O13  1  0.416111  0.099218  0.316893  1
  O  O14  1  0.782325  0.099218  0.683107  1
  O  O15  1  0.217675  0.900782  0.316893  1
