# generated using pymatgen
data_NaMnAsO4
_symmetry_space_group_name_H-M   'P 1'
_cell_length_a   5.24914444
_cell_length_b   6.48454376
_cell_length_c   11.02910594
_cell_angle_alpha   90.00000000
_cell_angle_beta   90.00000000
_cell_angle_gamma   90.00000000
_symmetry_Int_Tables_number   1
_chemical_formula_structural   NaMnAsO4
_chemical_formula_sum   'Na4 Mn4 As4 O16'
_cell_volume   375.41209198
_cell_formula_units_Z   4
loop_
 _symmetry_equiv_pos_site_id
 _symmetry_equiv_pos_as_xyz
  1  'x, y, z'
loop_
 _atom_site_type_symbol
 _atom_site_label
 _atom_site_symmetry_multiplicity
 _atom_site_fract_x
 _atom_site_fract_y
 _atom_site_fract_z
 _atom_site_occupancy
  O  O0  1  0.296903  0.956236  0.177194  1
  O  O1  1  0.796903  0.043763  0.322806  1
  O  O2  1  0.703098  0.456236  0.822807  1
  O  O3  1  0.203097  0.543764  0.677193  1
  O  O4  1  0.703098  0.043763  0.822807  1
  O  O5  1  0.203097  0.956236  0.677193  1
  O  O6  1  0.296903  0.543764  0.177194  1
  O  O7  1  0.796903  0.456236  0.322806  1
  O  O8  1  0.230464  0.249999  0.889115  1
  O  O9  1  0.730465  0.750000  0.610884  1
  O  O10  1  0.769536  0.750000  0.110884  1
  O  O11  1  0.269536  0.249999  0.389116  1
  O  O12  1  0.830182  0.249999  0.542653  1
  O  O13  1  0.330182  0.750000  0.957347  1
  O  O14  1  0.669817  0.249999  0.042652  1
  O  O15  1  0.169817  0.750000  0.457347  1
  Na  Na16  1  0.500000  0.500000  0.500000  1
  Na  Na17  1  0.000000  0.500000  0.000000  1
  Na  Na18  1  0.500000  0.000000  0.500000  1
  Na  Na19  1  0.000000  0.000000  0.000000  1
  Mn  Mn20  1  0.495572  0.249999  0.218994  1
  Mn  Mn21  1  0.995572  0.750000  0.281006  1
  Mn  Mn22  1  0.004428  0.249999  0.718995  1
  Mn  Mn23  1  0.504429  0.750000  0.781006  1
  As  As24  1  0.943906  0.249999  0.395653  1
  As  As25  1  0.443906  0.750000  0.104348  1
  As  As26  1  0.056094  0.750000  0.604348  1
  As  As27  1  0.556095  0.249999  0.895652  1
