# generated using pymatgen
data_TeMoWSe2S
_symmetry_space_group_name_H-M   'P 1'
_cell_length_a   3.34368024
_cell_length_b   3.34368221
_cell_length_c   38.05601691
_cell_angle_alpha   90.00001605
_cell_angle_beta   90.00000000
_cell_angle_gamma   119.99998047
_symmetry_Int_Tables_number   1
_chemical_formula_structural   TeMoWSe2S
_chemical_formula_sum   'Te2 Mo2 W2 Se4 S2'
_cell_volume   368.47139824
_cell_formula_units_Z   2
loop_
 _symmetry_equiv_pos_site_id
 _symmetry_equiv_pos_as_xyz
  1  'x, y, z'
loop_
 _atom_site_type_symbol
 _atom_site_label
 _atom_site_symmetry_multiplicity
 _atom_site_fract_x
 _atom_site_fract_y
 _atom_site_fract_z
 _atom_site_occupancy
  Te  Te0  1  0.333352  0.666706  0.707649  1
  Te  Te1  1  0.333351  0.666703  0.607470  1
  Mo  Mo2  1  0.333307  0.666615  0.093921  1
  Mo  Mo3  1  0.333311  0.666623  0.469622  1
  W  W4  1  0.666691  0.333382  0.281821  1
  W  W5  1  0.666691  0.333381  0.657568  1
  Se  Se6  1  0.666647  0.333293  0.050159  1
  Se  Se7  1  0.666649  0.333297  0.425874  1
  Se  Se8  1  0.666643  0.333285  0.137673  1
  Se  Se9  1  0.666649  0.333298  0.513397  1
  S  S10  1  0.333354  0.666708  0.321790  1
  S  S11  1  0.333354  0.666710  0.241804  1
