# generated using pymatgen
data_MoWSe3S
_symmetry_space_group_name_H-M   'P 1'
_cell_length_a   3.29131167
_cell_length_b   3.29131482
_cell_length_c   37.42328269
_cell_angle_alpha   90.00037527
_cell_angle_beta   90.00000247
_cell_angle_gamma   119.99994627
_symmetry_Int_Tables_number   1
_chemical_formula_structural   MoWSe3S
_chemical_formula_sum   'Mo2 W2 Se6 S2'
_cell_volume   351.08411609
_cell_formula_units_Z   2
loop_
 _symmetry_equiv_pos_site_id
 _symmetry_equiv_pos_as_xyz
  1  'x, y, z'
loop_
 _atom_site_type_symbol
 _atom_site_label
 _atom_site_symmetry_multiplicity
 _atom_site_fract_x
 _atom_site_fract_y
 _atom_site_fract_z
 _atom_site_occupancy
  Mo  Mo0  1  0.333313  0.666624  0.093911  1
  Mo  Mo1  1  0.666692  0.333386  0.657561  1
  W  W2  1  0.333311  0.666622  0.469653  1
  W  W3  1  0.666685  0.333371  0.281783  1
  Se  Se4  1  0.333361  0.666722  0.327054  1
  Se  Se5  1  0.333357  0.666715  0.702612  1
  Se  Se6  1  0.666623  0.333246  0.424365  1
  Se  Se7  1  0.666639  0.333277  0.514935  1
  Se  Se8  1  0.333358  0.666716  0.236523  1
  Se  Se9  1  0.333381  0.666764  0.612519  1
  S  S10  1  0.666645  0.333290  0.052904  1
  S  S11  1  0.666635  0.333268  0.134927  1
