# generated using pymatgen
data_TmU2S3O2
_symmetry_space_group_name_H-M   'P 1'
_cell_length_a   3.79120925
_cell_length_b   3.79120925
_cell_length_c   10.85137069
_cell_angle_alpha   100.06050417
_cell_angle_beta   100.06050417
_cell_angle_gamma   90.00000000
_symmetry_Int_Tables_number   1
_chemical_formula_structural   TmU2S3O2
_chemical_formula_sum   'Tm1 U2 S3 O2'
_cell_volume   151.13517319
_cell_formula_units_Z   1
loop_
 _symmetry_equiv_pos_site_id
 _symmetry_equiv_pos_as_xyz
  1  'x, y, z'
loop_
 _atom_site_type_symbol
 _atom_site_label
 _atom_site_symmetry_multiplicity
 _atom_site_fract_x
 _atom_site_fract_y
 _atom_site_fract_z
 _atom_site_occupancy
  Tm  Tm0  1  -0.000000  -0.000000  -0.000000  1
  U  U1  1  0.314075  0.314075  0.628150  1
  U  U2  1  0.685925  0.685925  0.371850  1
  S  S3  1  0.127546  0.127546  0.255092  1
  S  S4  1  0.872454  0.872454  0.744908  1
  S  S5  1  0.500000  0.500000  0.000000  1
  O  O6  1  0.250000  0.750000  0.500000  1
  O  O7  1  0.750000  0.250000  0.500000  1
