# generated using pymatgen
data_PuAl3
_symmetry_space_group_name_H-M   'P 1'
_cell_length_a   5.98872821
_cell_length_b   5.98872820
_cell_length_c   14.44057130
_cell_angle_alpha   90.00000000
_cell_angle_beta   90.00000000
_cell_angle_gamma   119.99999999
_symmetry_Int_Tables_number   1
_chemical_formula_structural   PuAl3
_chemical_formula_sum   'Pu6 Al18'
_cell_volume   448.52247889
_cell_formula_units_Z   6
loop_
 _symmetry_equiv_pos_site_id
 _symmetry_equiv_pos_as_xyz
  1  'x, y, z'
loop_
 _atom_site_type_symbol
 _atom_site_label
 _atom_site_symmetry_multiplicity
 _atom_site_fract_x
 _atom_site_fract_y
 _atom_site_fract_z
 _atom_site_occupancy
  Al  Al0  1  0.507549  0.015097  0.250000  1
  Al  Al1  1  0.492451  0.507549  0.750000  1
  Al  Al2  1  0.015097  0.507549  0.750000  1
  Al  Al3  1  0.984903  0.492451  0.250000  1
  Al  Al4  1  0.507549  0.492451  0.250000  1
  Al  Al5  1  0.492451  0.984903  0.750000  1
  Al  Al6  1  0.168614  0.337228  0.582550  1
  Al  Al7  1  0.831386  0.168614  0.082550  1
  Al  Al8  1  0.337228  0.168614  0.082550  1
  Al  Al9  1  0.662772  0.831386  0.582550  1
  Al  Al10  1  0.168614  0.831386  0.582550  1
  Al  Al11  1  0.831386  0.662772  0.417450  1
  Al  Al12  1  0.831386  0.168614  0.417450  1
  Al  Al13  1  0.831386  0.662772  0.082550  1
  Al  Al14  1  0.337228  0.168614  0.417450  1
  Al  Al15  1  0.662772  0.831386  0.917450  1
  Al  Al16  1  0.168614  0.337228  0.917450  1
  Al  Al17  1  0.168614  0.831386  0.917450  1
  Pu  Pu18  1  0.000000  0.000000  0.250000  1
  Pu  Pu19  1  0.000000  0.000000  0.750000  1
  Pu  Pu20  1  0.333333  0.666667  0.085294  1
  Pu  Pu21  1  0.666667  0.333333  0.585294  1
  Pu  Pu22  1  0.666667  0.333333  0.914706  1
  Pu  Pu23  1  0.333333  0.666667  0.414706  1
