# generated using pymatgen
data_Cr2SiO4
_symmetry_space_group_name_H-M   'P 1'
_cell_length_a   5.75554437
_cell_length_b   5.75554806
_cell_length_c   6.38912666
_cell_angle_alpha   102.99767479
_cell_angle_beta   102.99764039
_cell_angle_gamma   120.02545601
_symmetry_Int_Tables_number   1
_chemical_formula_structural   Cr2SiO4
_chemical_formula_sum   'Cr4 Si2 O8'
_cell_volume   163.64403792
_cell_formula_units_Z   2
loop_
 _symmetry_equiv_pos_site_id
 _symmetry_equiv_pos_as_xyz
  1  'x, y, z'
loop_
 _atom_site_type_symbol
 _atom_site_label
 _atom_site_symmetry_multiplicity
 _atom_site_fract_x
 _atom_site_fract_y
 _atom_site_fract_z
 _atom_site_occupancy
  O  O0  1  0.265655  0.220605  0.901879  1
  O  O1  1  0.318704  0.863759  0.598076  1
  O  O2  1  0.779394  0.734344  0.598121  1
  O  O3  1  0.136240  0.681296  0.901924  1
  O  O4  1  0.734344  0.779395  0.098121  1
  O  O5  1  0.681296  0.136241  0.401925  1
  O  O6  1  0.863759  0.318704  0.098076  1
  O  O7  1  0.220605  0.265656  0.401879  1
  Si  Si8  1  0.125016  0.874984  0.749999  1
  Si  Si9  1  0.874983  0.125017  0.250001  1
  Cr  Cr10  1  0.467300  0.532700  0.750000  1
  Cr  Cr11  1  0.782772  0.217230  0.750000  1
  Cr  Cr12  1  0.217229  0.782770  0.250001  1
  Cr  Cr13  1  0.532702  0.467300  0.250001  1
