# generated using pymatgen
data_Na2ZnSe2
_symmetry_space_group_name_H-M   'P 1'
_cell_length_a   7.20489963
_cell_length_b   7.42540408
_cell_length_c   9.37792956
_cell_angle_alpha   90.00000000
_cell_angle_beta   92.85379116
_cell_angle_gamma   90.00000000
_symmetry_Int_Tables_number   1
_chemical_formula_structural   Na2ZnSe2
_chemical_formula_sum   'Na8 Zn4 Se8'
_cell_volume   501.09037715
_cell_formula_units_Z   4
loop_
 _symmetry_equiv_pos_site_id
 _symmetry_equiv_pos_as_xyz
  1  'x, y, z'
loop_
 _atom_site_type_symbol
 _atom_site_label
 _atom_site_symmetry_multiplicity
 _atom_site_fract_x
 _atom_site_fract_y
 _atom_site_fract_z
 _atom_site_occupancy
  Na  Na0  1  0.448951  0.672414  0.322022  1
  Na  Na1  1  0.051049  0.172414  0.677978  1
  Na  Na2  1  0.551049  0.327586  0.677978  1
  Na  Na3  1  0.948951  0.827586  0.322022  1
  Na  Na4  1  0.488990  0.763837  0.949602  1
  Na  Na5  1  0.011010  0.263837  0.050398  1
  Na  Na6  1  0.511010  0.236163  0.050398  1
  Na  Na7  1  0.988990  0.736163  0.949602  1
  Zn  Zn8  1  0.152836  0.590815  0.626934  1
  Zn  Zn9  1  0.347164  0.090815  0.373066  1
  Zn  Zn10  1  0.847164  0.409185  0.373066  1
  Zn  Zn11  1  0.652836  0.909185  0.626934  1
  Se  Se12  1  0.695834  0.111611  0.409912  1
  Se  Se13  1  0.804166  0.611611  0.590088  1
  Se  Se14  1  0.304166  0.888389  0.590088  1
  Se  Se15  1  0.195834  0.388389  0.409912  1
  Se  Se16  1  0.753428  0.041671  0.855032  1
  Se  Se17  1  0.746572  0.541671  0.144968  1
  Se  Se18  1  0.246572  0.958329  0.144968  1
  Se  Se19  1  0.253428  0.458329  0.855032  1
