# generated using pymatgen
data_KSm(PO3)4
_symmetry_space_group_name_H-M   'P 1'
_cell_length_a   7.53055789
_cell_length_b   7.53055790
_cell_length_c   10.70902426
_cell_angle_alpha   100.95949324
_cell_angle_beta   100.95949325
_cell_angle_gamma   115.51496788
_symmetry_Int_Tables_number   1
_chemical_formula_structural   KSm(PO3)4
_chemical_formula_sum   'K2 Sm2 P8 O24'
_cell_volume   512.09298881
_cell_formula_units_Z   2
loop_
 _symmetry_equiv_pos_site_id
 _symmetry_equiv_pos_as_xyz
  1  'x, y, z'
loop_
 _atom_site_type_symbol
 _atom_site_label
 _atom_site_symmetry_multiplicity
 _atom_site_fract_x
 _atom_site_fract_y
 _atom_site_fract_z
 _atom_site_occupancy
  O  O0  1  0.145543  0.008819  0.913925  1
  O  O1  1  0.991181  0.854457  0.586075  1
  O  O2  1  0.854457  0.991181  0.086075  1
  O  O3  1  0.008819  0.145543  0.413925  1
  O  O4  1  0.968119  0.222701  0.937263  1
  O  O5  1  0.777299  0.031881  0.562737  1
  O  O6  1  0.031881  0.777299  0.062737  1
  O  O7  1  0.222701  0.968119  0.437263  1
  O  O8  1  0.256974  0.327280  0.838889  1
  O  O9  1  0.672720  0.743026  0.661111  1
  O  O10  1  0.743026  0.672720  0.161111  1
  O  O11  1  0.327280  0.256974  0.338889  1
  O  O12  1  0.361952  0.330934  0.592258  1
  O  O13  1  0.669066  0.638048  0.907742  1
  O  O14  1  0.638048  0.669066  0.407742  1
  O  O15  1  0.330934  0.361952  0.092258  1
  O  O16  1  0.699778  0.199193  0.395443  1
  O  O17  1  0.800807  0.300222  0.104557  1
  O  O18  1  0.300222  0.800807  0.604557  1
  O  O19  1  0.199193  0.699778  0.895443  1
  O  O20  1  0.012472  0.405811  0.612171  1
  O  O21  1  0.594189  0.987528  0.887829  1
  O  O22  1  0.987528  0.594189  0.387829  1
  O  O23  1  0.405811  0.012472  0.112171  1
  P  P24  1  0.213148  0.878247  0.995530  1
  P  P25  1  0.121753  0.786852  0.504470  1
  P  P26  1  0.786852  0.121753  0.004470  1
  P  P27  1  0.878247  0.213148  0.495530  1
  P  P28  1  0.195240  0.248373  0.949644  1
  P  P29  1  0.751627  0.804760  0.550356  1
  P  P30  1  0.804760  0.751627  0.050356  1
  P  P31  1  0.248373  0.195240  0.449644  1
  K  K32  1  0.310604  0.689396  0.250000  1
  K  K33  1  0.689396  0.310604  0.750000  1
  Sm  Sm34  1  0.620687  0.379313  0.250000  1
  Sm  Sm35  1  0.379313  0.620687  0.750000  1
