# generated using pymatgen
data_BaCu2SnS4
_symmetry_space_group_name_H-M   'P 1'
_cell_length_a   6.43650082
_cell_length_b   6.43650082
_cell_length_c   15.83099522
_cell_angle_alpha   90.00000000
_cell_angle_beta   90.00000000
_cell_angle_gamma   120.00000005
_symmetry_Int_Tables_number   1
_chemical_formula_structural   BaCu2SnS4
_chemical_formula_sum   'Ba3 Cu6 Sn3 S12'
_cell_volume   567.98714571
_cell_formula_units_Z   3
loop_
 _symmetry_equiv_pos_site_id
 _symmetry_equiv_pos_as_xyz
  1  'x, y, z'
loop_
 _atom_site_type_symbol
 _atom_site_label
 _atom_site_symmetry_multiplicity
 _atom_site_fract_x
 _atom_site_fract_y
 _atom_site_fract_z
 _atom_site_occupancy
  S  S0  1  0.098205  0.318415  0.751739  1
  S  S1  1  0.220210  0.901795  0.418406  1
  S  S2  1  0.681585  0.779790  0.085072  1
  S  S3  1  0.446547  0.015084  0.746879  1
  S  S4  1  0.568537  0.553453  0.413546  1
  S  S5  1  0.984916  0.431463  0.080212  1
  S  S6  1  0.272597  0.106952  0.962330  1
  S  S7  1  0.834355  0.727403  0.628996  1
  S  S8  1  0.393898  0.167580  0.202871  1
  S  S9  1  0.773682  0.606102  0.869538  1
  S  S10  1  0.832420  0.226318  0.536204  1
  S  S11  1  0.893048  0.165645  0.295663  1
  Cu  Cu12  1  0.702793  0.100345  0.161118  1
  Cu  Cu13  1  0.269141  0.232780  0.337487  1
  Cu  Cu14  1  0.767220  0.036361  0.670821  1
  Cu  Cu15  1  0.397553  0.297207  0.827785  1
  Cu  Cu16  1  0.899655  0.602447  0.494452  1
  Cu  Cu17  1  0.963639  0.730859  0.004154  1
  Sn  Sn18  1  0.038124  0.666747  0.749253  1
  Sn  Sn19  1  0.333253  0.371377  0.082586  1
  Sn  Sn20  1  0.628623  0.961876  0.415920  1
  Ba  Ba21  1  0.759459  0.092861  0.915956  1
  Ba  Ba22  1  0.333402  0.240541  0.582622  1
  Ba  Ba23  1  0.907139  0.666598  0.249289  1
