# generated using pymatgen
data_Te2W2SeS
_symmetry_space_group_name_H-M   'P 1'
_cell_length_a   3.39660098
_cell_length_b   3.39660563
_cell_length_c   38.85068905
_cell_angle_alpha   90.00028697
_cell_angle_beta   90.00000000
_cell_angle_gamma   119.99995475
_symmetry_Int_Tables_number   1
_chemical_formula_structural   Te2W2SeS
_chemical_formula_sum   'Te4 W4 Se2 S2'
_cell_volume   388.16753591
_cell_formula_units_Z   2
loop_
 _symmetry_equiv_pos_site_id
 _symmetry_equiv_pos_as_xyz
  1  'x, y, z'
loop_
 _atom_site_type_symbol
 _atom_site_label
 _atom_site_symmetry_multiplicity
 _atom_site_fract_x
 _atom_site_fract_y
 _atom_site_fract_z
 _atom_site_occupancy
  Te  Te0  1  0.333361  0.666723  0.706059  1
  Te  Te1  1  0.666643  0.333285  0.421122  1
  Te  Te2  1  0.666651  0.333300  0.518078  1
  Te  Te3  1  0.333352  0.666705  0.609100  1
  W  W4  1  0.333312  0.666624  0.093935  1
  W  W5  1  0.333308  0.666617  0.469616  1
  W  W6  1  0.666688  0.333376  0.281792  1
  W  W7  1  0.666692  0.333384  0.657608  1
  Se  Se8  1  0.333352  0.666705  0.324387  1
  Se  Se9  1  0.333350  0.666700  0.239183  1
  S  S10  1  0.666646  0.333291  0.055125  1
  S  S11  1  0.666645  0.333290  0.132744  1
