# generated using pymatgen
data_Te2MoWS2
_symmetry_space_group_name_H-M   'P 1'
_cell_length_a   3.36457460
_cell_length_b   3.36463871
_cell_length_c   38.31476319
_cell_angle_alpha   89.99962065
_cell_angle_beta   90.00000000
_cell_angle_gamma   119.99936973
_symmetry_Int_Tables_number   1
_chemical_formula_structural   Te2MoWS2
_chemical_formula_sum   'Te4 Mo2 W2 S4'
_cell_volume   375.63680176
_cell_formula_units_Z   2
loop_
 _symmetry_equiv_pos_site_id
 _symmetry_equiv_pos_as_xyz
  1  'x, y, z'
loop_
 _atom_site_type_symbol
 _atom_site_label
 _atom_site_symmetry_multiplicity
 _atom_site_fract_x
 _atom_site_fract_y
 _atom_site_fract_z
 _atom_site_occupancy
  Te  Te0  1  0.333351  0.666704  0.707119  1
  Te  Te1  1  0.666649  0.333296  0.044339  1
  Te  Te2  1  0.666645  0.333290  0.143508  1
  Te  Te3  1  0.333355  0.666710  0.607950  1
  Mo  Mo4  1  0.333309  0.666617  0.469649  1
  Mo  Mo5  1  0.666691  0.333383  0.281809  1
  W  W6  1  0.333310  0.666620  0.093901  1
  W  W7  1  0.666690  0.333380  0.657557  1
  S  S8  1  0.333356  0.666714  0.321306  1
  S  S9  1  0.666644  0.333286  0.430152  1
  S  S10  1  0.666646  0.333291  0.509179  1
  S  S11  1  0.333354  0.666709  0.242279  1
