# generated using pymatgen
data_Cs3Li4(BO2)7
_symmetry_space_group_name_H-M   'P 1'
_cell_length_a   7.02894146
_cell_length_b   7.02896044
_cell_length_c   27.18276579
_cell_angle_alpha   90.00027792
_cell_angle_beta   89.99995553
_cell_angle_gamma   119.99997147
_symmetry_Int_Tables_number   1
_chemical_formula_structural   Cs3Li4(BO2)7
_chemical_formula_sum   'Cs9 Li12 B21 O42'
_cell_volume   1163.06885247
_cell_formula_units_Z   3
loop_
 _symmetry_equiv_pos_site_id
 _symmetry_equiv_pos_as_xyz
  1  'x, y, z'
loop_
 _atom_site_type_symbol
 _atom_site_label
 _atom_site_symmetry_multiplicity
 _atom_site_fract_x
 _atom_site_fract_y
 _atom_site_fract_z
 _atom_site_occupancy
  Cs  Cs0  1  0.527707  0.995378  0.557988  1
  Cs  Cs1  1  0.467686  0.472299  0.224654  1
  Cs  Cs2  1  0.004636  0.532321  0.891321  1
  Cs  Cs3  1  0.472324  0.467680  0.775341  1
  Cs  Cs4  1  0.995380  0.527693  0.442008  1
  Cs  Cs5  1  0.532330  0.004631  0.108674  1
  Cs  Cs6  1  0.000015  0.922187  0.666668  1
  Cs  Cs7  1  0.921270  0.000001  0.333335  1
  Cs  Cs8  1  0.077827  0.077814  0.000001  1
  Li  Li9  1  0.639671  0.391742  0.644626  1
  Li  Li10  1  0.752094  0.360389  0.311290  1
  Li  Li11  1  0.608270  0.247916  0.977959  1
  Li  Li12  1  0.360362  0.752079  0.688705  1
  Li  Li13  1  0.391690  0.639603  0.355373  1
  Li  Li14  1  0.247935  0.608272  0.022038  1
  Li  Li15  1  0.654958  0.537381  0.544407  1
  Li  Li16  1  0.882452  0.345061  0.211072  1
  Li  Li17  1  0.462633  0.117565  0.877740  1
  Li  Li18  1  0.345076  0.882430  0.788918  1
  Li  Li19  1  0.537380  0.654932  0.455586  1
  Li  Li20  1  0.117583  0.462631  0.122251  1
  B  B21  1  0.029726  0.488865  0.584606  1
  B  B22  1  0.459153  0.970285  0.251271  1
  B  B23  1  0.511146  0.540848  0.917939  1
  B  B24  1  0.970288  0.459143  0.748725  1
  B  B25  1  0.488868  0.029724  0.415392  1
  B  B26  1  0.540870  0.511134  0.082058  1
  B  B27  1  0.354817  0.504140  0.625500  1
  B  B28  1  0.149343  0.645209  0.292168  1
  B  B29  1  0.495872  0.850664  0.958833  1
  B  B30  1  0.645192  0.149344  0.707827  1
  B  B31  1  0.504156  0.354806  0.374491  1
  B  B32  1  0.850670  0.495837  0.041160  1
  B  B33  1  0.222111  0.308683  0.542565  1
  B  B34  1  0.086589  0.777900  0.209233  1
  B  B35  1  0.691329  0.913416  0.875899  1
  B  B36  1  0.777890  0.086566  0.790759  1
  B  B37  1  0.308694  0.222122  0.457425  1
  B  B38  1  0.913446  0.691311  0.124093  1
  B  B39  1  0.966537  0.966521  0.499992  1
  B  B40  1  0.000007  0.033475  0.166658  1
  B  B41  1  0.033494  0.000005  0.833325  1
  O  O42  1  0.069630  0.070460  0.544389  1
  O  O43  1  0.000849  0.930379  0.211054  1
  O  O44  1  0.929552  0.999159  0.877721  1
  O  O45  1  0.930375  0.000828  0.788930  1
  O  O46  1  0.070475  0.069637  0.455597  1
  O  O47  1  0.999183  0.929534  0.122263  1
  O  O48  1  0.842636  0.493268  0.589248  1
  O  O49  1  0.650657  0.157370  0.255917  1
  O  O50  1  0.506744  0.349358  0.922581  1
  O  O51  1  0.157385  0.650624  0.744083  1
  O  O52  1  0.493270  0.842632  0.410747  1
  O  O53  1  0.349389  0.506751  0.077416  1
  O  O54  1  0.775385  0.775352  0.499990  1
  O  O55  1  0.999984  0.224623  0.166656  1
  O  O56  1  0.224663  0.000026  0.833323  1
  O  O57  1  0.369680  0.380598  0.587108  1
  O  O58  1  0.010945  0.630328  0.253774  1
  O  O59  1  0.619414  0.989068  0.920442  1
  O  O60  1  0.630323  0.010931  0.746217  1
  O  O61  1  0.380637  0.369694  0.412884  1
  O  O62  1  0.989084  0.619381  0.079550  1
  O  O63  1  0.090266  0.422368  0.542023  1
  O  O64  1  0.332126  0.909748  0.208689  1
  O  O65  1  0.577643  0.667887  0.875356  1
  O  O66  1  0.909732  0.332097  0.791306  1
  O  O67  1  0.422388  0.090278  0.457973  1
  O  O68  1  0.667914  0.577622  0.124640  1
  O  O69  1  0.502769  0.076970  0.670187  1
  O  O70  1  0.574220  0.497242  0.336855  1
  O  O71  1  0.923043  0.425788  0.003520  1
  O  O72  1  0.497245  0.574191  0.663139  1
  O  O73  1  0.076968  0.502769  0.329804  1
  O  O74  1  0.425819  0.923041  0.996472  1
  O  O75  1  0.185525  0.558431  0.624261  1
  O  O76  1  0.372939  0.814482  0.290927  1
  O  O77  1  0.441582  0.627084  0.957594  1
  O  O78  1  0.814486  0.372923  0.709070  1
  O  O79  1  0.558473  0.185528  0.375735  1
  O  O80  1  0.627089  0.441551  0.042402  1
  O  O81  1  0.371126  0.371133  0.499995  1
  O  O82  1  0.000032  0.628886  0.166662  1
  O  O83  1  0.628879  0.999980  0.833329  1
