# generated using pymatgen
data_K2FeO4
_symmetry_space_group_name_H-M   'P 1'
_cell_length_a   5.93661659
_cell_length_b   7.78971671
_cell_length_c   10.50248822
_cell_angle_alpha   90.00000000
_cell_angle_beta   90.00000000
_cell_angle_gamma   90.00000000
_symmetry_Int_Tables_number   1
_chemical_formula_structural   K2FeO4
_chemical_formula_sum   'K8 Fe4 O16'
_cell_volume   485.68296189
_cell_formula_units_Z   4
loop_
 _symmetry_equiv_pos_site_id
 _symmetry_equiv_pos_as_xyz
  1  'x, y, z'
loop_
 _atom_site_type_symbol
 _atom_site_label
 _atom_site_symmetry_multiplicity
 _atom_site_fract_x
 _atom_site_fract_y
 _atom_site_fract_z
 _atom_site_occupancy
  O  O0  1  0.978660  0.192115  0.850643  1
  O  O1  1  0.478660  0.807885  0.149357  1
  O  O2  1  0.521340  0.692115  0.649357  1
  O  O3  1  0.021340  0.307885  0.350643  1
  O  O4  1  0.021340  0.807885  0.149357  1
  O  O5  1  0.521340  0.192115  0.850643  1
  O  O6  1  0.478660  0.307885  0.350643  1
  O  O7  1  0.978660  0.692115  0.649357  1
  O  O8  1  0.250000  0.798173  0.927386  1
  O  O9  1  0.750000  0.201827  0.072614  1
  O  O10  1  0.250000  0.298173  0.572614  1
  O  O11  1  0.750000  0.701827  0.427386  1
  O  O12  1  0.750000  0.981543  0.584597  1
  O  O13  1  0.250000  0.018457  0.415403  1
  O  O14  1  0.750000  0.481543  0.915403  1
  O  O15  1  0.250000  0.518457  0.084597  1
  K  K16  1  0.750000  0.336038  0.586662  1
  K  K17  1  0.250000  0.663962  0.413338  1
  K  K18  1  0.750000  0.836038  0.913338  1
  K  K19  1  0.250000  0.163962  0.086662  1
  K  K20  1  0.250000  0.485656  0.804250  1
  K  K21  1  0.750000  0.514344  0.195750  1
  K  K22  1  0.250000  0.985656  0.695750  1
  K  K23  1  0.750000  0.014344  0.304250  1
  Fe  Fe24  1  0.750000  0.769457  0.578115  1
  Fe  Fe25  1  0.250000  0.230543  0.421885  1
  Fe  Fe26  1  0.750000  0.269457  0.921885  1
  Fe  Fe27  1  0.250000  0.730543  0.078115  1
