# generated using pymatgen
data_LiTb(PO3)4
_symmetry_space_group_name_H-M   'P 1'
_cell_length_a   7.13538291
_cell_length_b   8.99157285
_cell_length_c   8.98003738
_cell_angle_alpha   65.57152317
_cell_angle_beta   66.59104151
_cell_angle_gamma   66.62286017
_symmetry_Int_Tables_number   1
_chemical_formula_structural   LiTb(PO3)4
_chemical_formula_sum   'Li2 Tb2 P8 O24'
_cell_volume   462.38173257
_cell_formula_units_Z   2
loop_
 _symmetry_equiv_pos_site_id
 _symmetry_equiv_pos_as_xyz
  1  'x, y, z'
loop_
 _atom_site_type_symbol
 _atom_site_label
 _atom_site_symmetry_multiplicity
 _atom_site_fract_x
 _atom_site_fract_y
 _atom_site_fract_z
 _atom_site_occupancy
  Li  Li0  1  0.706285  0.750000  0.250000  1
  Li  Li1  1  0.293715  0.250000  0.750000  1
  O  O2  1  0.823820  0.316604  0.460155  1
  O  O3  1  0.562366  0.071068  0.795406  1
  O  O4  1  0.428841  0.428932  0.704594  1
  O  O5  1  0.437634  0.928932  0.204594  1
  O  O6  1  0.571159  0.571068  0.295406  1
  O  O7  1  0.174872  0.652014  0.838375  1
  O  O8  1  0.665261  0.847986  0.661625  1
  O  O9  1  0.825128  0.347986  0.161625  1
  O  O10  1  0.334739  0.152014  0.338375  1
  O  O11  1  0.782253  0.767784  0.920459  1
  O  O12  1  0.843728  0.727723  0.416977  1
  O  O13  1  0.600579  0.183396  0.039845  1
  O  O14  1  0.176180  0.683396  0.539845  1
  O  O15  1  0.399421  0.816604  0.960155  1
  O  O16  1  0.156272  0.272277  0.583023  1
  O  O17  1  0.011572  0.227723  0.916977  1
  O  O18  1  0.988428  0.772277  0.083023  1
  O  O19  1  0.217747  0.232216  0.079541  1
  O  O20  1  0.241293  0.475413  0.274188  1
  O  O21  1  0.990895  0.024587  0.225812  1
  O  O22  1  0.758707  0.524587  0.725812  1
  O  O23  1  0.009105  0.975413  0.774188  1
  O  O24  1  0.529504  0.267784  0.420459  1
  O  O25  1  0.470496  0.732216  0.579541  1
  P  P26  1  0.585577  0.884148  0.841479  1
  P  P27  1  0.995014  0.805822  0.902839  1
  P  P28  1  0.703675  0.694178  0.597161  1
  P  P29  1  0.004986  0.194178  0.097161  1
  P  P30  1  0.296325  0.305822  0.402839  1
  P  P31  1  0.414423  0.115852  0.158521  1
  P  P32  1  0.311204  0.615852  0.658521  1
  P  P33  1  0.688796  0.384148  0.341479  1
  Tb  Tb34  1  0.203686  0.750000  0.250000  1
  Tb  Tb35  1  0.796314  0.250000  0.750000  1
