# generated using pymatgen
data_Na2SrMg(PO4)2
_symmetry_space_group_name_H-M   'P 1'
_cell_length_a   9.24596042
_cell_length_b   5.33525581
_cell_length_c   13.70533250
_cell_angle_alpha   90.00000000
_cell_angle_beta   90.27146914
_cell_angle_gamma   90.00000000
_symmetry_Int_Tables_number   1
_chemical_formula_structural   Na2SrMg(PO4)2
_chemical_formula_sum   'Na8 Sr4 Mg4 P8 O32'
_cell_volume   676.07048870
_cell_formula_units_Z   4
loop_
 _symmetry_equiv_pos_site_id
 _symmetry_equiv_pos_as_xyz
  1  'x, y, z'
loop_
 _atom_site_type_symbol
 _atom_site_label
 _atom_site_symmetry_multiplicity
 _atom_site_fract_x
 _atom_site_fract_y
 _atom_site_fract_z
 _atom_site_occupancy
  Na  Na0  1  0.083518  0.227928  0.907133  1
  Na  Na1  1  0.916482  0.727928  0.592867  1
  Na  Na2  1  0.916482  0.772072  0.092867  1
  Na  Na3  1  0.083518  0.272072  0.407133  1
  Na  Na4  1  0.415572  0.230513  0.589783  1
  Na  Na5  1  0.584428  0.730513  0.910217  1
  Na  Na6  1  0.584428  0.769487  0.410217  1
  Na  Na7  1  0.415572  0.269487  0.089783  1
  Sr  Sr8  1  0.746398  0.194081  0.749956  1
  Sr  Sr9  1  0.253602  0.694081  0.750044  1
  Sr  Sr10  1  0.253602  0.805919  0.250044  1
  Sr  Sr11  1  0.746398  0.305919  0.249956  1
  Mg  Mg12  1  0.750589  0.253424  0.500844  1
  Mg  Mg13  1  0.249411  0.753424  0.999156  1
  Mg  Mg14  1  0.249411  0.746576  0.499156  1
  Mg  Mg15  1  0.750589  0.246576  0.000844  1
  P  P16  1  0.082817  0.228828  0.631587  1
  P  P17  1  0.917183  0.728828  0.868413  1
  P  P18  1  0.917183  0.771172  0.368413  1
  P  P19  1  0.082817  0.271172  0.131587  1
  P  P20  1  0.419128  0.234527  0.867460  1
  P  P21  1  0.580872  0.734527  0.632540  1
  P  P22  1  0.580872  0.765473  0.132540  1
  P  P23  1  0.419128  0.265473  0.367460  1
  O  O24  1  0.076732  0.702378  0.904249  1
  O  O25  1  0.923268  0.202378  0.595751  1
  O  O26  1  0.923268  0.297622  0.095751  1
  O  O27  1  0.076732  0.797622  0.404249  1
  O  O28  1  0.087577  0.288158  0.741019  1
  O  O29  1  0.912423  0.788158  0.758981  1
  O  O30  1  0.912423  0.711842  0.258981  1
  O  O31  1  0.087577  0.211842  0.241019  1
  O  O32  1  0.165305  0.980767  0.608167  1
  O  O33  1  0.834695  0.480767  0.891833  1
  O  O34  1  0.834695  0.019233  0.391833  1
  O  O35  1  0.165305  0.519233  0.108167  1
  O  O36  1  0.155095  0.447209  0.573798  1
  O  O37  1  0.844905  0.947209  0.926202  1
  O  O38  1  0.844905  0.552791  0.426202  1
  O  O39  1  0.155095  0.052791  0.073798  1
  O  O40  1  0.349386  0.461479  0.921842  1
  O  O41  1  0.650614  0.961479  0.578158  1
  O  O42  1  0.650614  0.538521  0.078158  1
  O  O43  1  0.349386  0.038521  0.421842  1
  O  O44  1  0.421290  0.288265  0.757497  1
  O  O45  1  0.578710  0.788265  0.742503  1
  O  O46  1  0.578710  0.711735  0.242503  1
  O  O47  1  0.421290  0.211735  0.257497  1
  O  O48  1  0.576314  0.200178  0.906957  1
  O  O49  1  0.423686  0.700178  0.593043  1
  O  O50  1  0.423686  0.799822  0.093043  1
  O  O51  1  0.576314  0.299822  0.406957  1
  O  O52  1  0.669532  0.493910  0.608911  1
  O  O53  1  0.330468  -0.006090  0.891089  1
  O  O54  1  0.330468  0.506090  0.391089  1
  O  O55  1  0.669532  0.006090  0.108911  1
