# generated using pymatgen
data_EuSi2Ni
_symmetry_space_group_name_H-M   'P 1'
_cell_length_a   4.02248682
_cell_length_b   4.16068094
_cell_length_c   8.52949993
_cell_angle_alpha   104.11680486
_cell_angle_beta   90.00000000
_cell_angle_gamma   90.00000000
_symmetry_Int_Tables_number   1
_chemical_formula_structural   EuSi2Ni
_chemical_formula_sum   'Eu2 Si4 Ni2'
_cell_volume   138.44109524
_cell_formula_units_Z   2
loop_
 _symmetry_equiv_pos_site_id
 _symmetry_equiv_pos_as_xyz
  1  'x, y, z'
loop_
 _atom_site_type_symbol
 _atom_site_label
 _atom_site_symmetry_multiplicity
 _atom_site_fract_x
 _atom_site_fract_y
 _atom_site_fract_z
 _atom_site_occupancy
  Eu  Eu0  1  0.250000  0.392995  0.785990  1
  Eu  Eu1  1  0.750000  0.607005  0.214010  1
  Si  Si2  1  0.250000  0.041537  0.083075  1
  Si  Si3  1  0.750000  0.958463  0.916925  1
  Si  Si4  1  0.250000  0.749517  0.499034  1
  Si  Si5  1  0.750000  0.250483  0.500966  1
  Ni  Ni6  1  0.250000  0.180623  0.361247  1
  Ni  Ni7  1  0.750000  0.819377  0.638753  1
