# generated using pymatgen
data_GePt3
_symmetry_space_group_name_H-M   'P 1'
_cell_length_a   5.59755951
_cell_length_b   5.59755951
_cell_length_c   5.64118010
_cell_angle_alpha   60.24127532
_cell_angle_beta   60.24127531
_cell_angle_gamma   89.97959144
_symmetry_Int_Tables_number   1
_chemical_formula_structural   GePt3
_chemical_formula_sum   'Ge2 Pt6'
_cell_volume   125.91126680
_cell_formula_units_Z   2
loop_
 _symmetry_equiv_pos_site_id
 _symmetry_equiv_pos_as_xyz
  1  'x, y, z'
loop_
 _atom_site_type_symbol
 _atom_site_label
 _atom_site_symmetry_multiplicity
 _atom_site_fract_x
 _atom_site_fract_y
 _atom_site_fract_z
 _atom_site_occupancy
  Ge  Ge0  1  0.749643  0.749643  0.500080  1
  Ge  Ge1  1  0.250357  0.250357  0.499920  1
  Pt  Pt2  1  0.749812  0.250188  0.500000  1
  Pt  Pt3  1  0.250188  0.749812  0.500000  1
  Pt  Pt4  1  0.304319  0.304319  0.000645  1
  Pt  Pt5  1  0.695681  0.695681  0.999355  1
  Pt  Pt6  1  0.195325  0.804675  0.000000  1
  Pt  Pt7  1  0.804675  0.195325  0.000000  1
