# generated using pymatgen
data_Te4MoW3S4
_symmetry_space_group_name_H-M   'P 1'
_cell_length_a   3.36083735
_cell_length_b   3.36098240
_cell_length_c   38.34242869
_cell_angle_alpha   89.99987484
_cell_angle_beta   90.00000000
_cell_angle_gamma   119.99857247
_symmetry_Int_Tables_number   1
_chemical_formula_structural   Te4MoW3S4
_chemical_formula_sum   'Te4 Mo1 W3 S4'
_cell_volume   375.08546125
_cell_formula_units_Z   1
loop_
 _symmetry_equiv_pos_site_id
 _symmetry_equiv_pos_as_xyz
  1  'x, y, z'
loop_
 _atom_site_type_symbol
 _atom_site_label
 _atom_site_symmetry_multiplicity
 _atom_site_fract_x
 _atom_site_fract_y
 _atom_site_fract_z
 _atom_site_occupancy
  Te  Te0  1  0.333355  0.666711  0.707124  1
  Te  Te1  1  0.666635  0.333270  0.044367  1
  Te  Te2  1  0.666646  0.333291  0.143501  1
  Te  Te3  1  0.333356  0.666712  0.607972  1
  Mo  Mo4  1  0.666707  0.333414  0.281791  1
  W  W5  1  0.333311  0.666623  0.093908  1
  W  W6  1  0.333314  0.666629  0.469644  1
  W  W7  1  0.666689  0.333378  0.657572  1
  S  S8  1  0.333343  0.666688  0.321232  1
  S  S9  1  0.666651  0.333300  0.430059  1
  S  S10  1  0.666647  0.333293  0.509227  1
  S  S11  1  0.333345  0.666691  0.242352  1
