# generated using pymatgen
data_Sr2Ga2O5
_symmetry_space_group_name_H-M   'P 1'
_cell_length_a   10.11510706
_cell_length_b   9.72946024
_cell_length_c   10.81225272
_cell_angle_alpha   90.00000000
_cell_angle_beta   90.00000000
_cell_angle_gamma   90.00000000
_symmetry_Int_Tables_number   1
_chemical_formula_structural   Sr2Ga2O5
_chemical_formula_sum   'Sr16 Ga16 O40'
_cell_volume   1064.08279091
_cell_formula_units_Z   8
loop_
 _symmetry_equiv_pos_site_id
 _symmetry_equiv_pos_as_xyz
  1  'x, y, z'
loop_
 _atom_site_type_symbol
 _atom_site_label
 _atom_site_symmetry_multiplicity
 _atom_site_fract_x
 _atom_site_fract_y
 _atom_site_fract_z
 _atom_site_occupancy
  Sr  Sr0  1  0.503211  0.004360  0.255492  1
  Sr  Sr1  1  0.003211  0.495640  0.744508  1
  Sr  Sr2  1  0.496789  0.504360  0.244508  1
  Sr  Sr3  1  0.996789  0.995640  0.755492  1
  Sr  Sr4  1  0.496789  0.995640  0.744508  1
  Sr  Sr5  1  0.996789  0.504360  0.255492  1
  Sr  Sr6  1  0.503211  0.495640  0.755492  1
  Sr  Sr7  1  0.003211  0.004360  0.244508  1
  Sr  Sr8  1  0.745999  0.248709  0.273962  1
  Sr  Sr9  1  0.245999  0.251291  0.726038  1
  Sr  Sr10  1  0.254001  0.748709  0.226038  1
  Sr  Sr11  1  0.754001  0.751291  0.773962  1
  Sr  Sr12  1  0.254001  0.751291  0.726038  1
  Sr  Sr13  1  0.754001  0.748709  0.273962  1
  Sr  Sr14  1  0.745999  0.251291  0.773962  1
  Sr  Sr15  1  0.245999  0.248709  0.226038  1
  Ga  Ga16  1  0.466514  0.267340  0.493756  1
  Ga  Ga17  1  0.966514  0.232660  0.506244  1
  Ga  Ga18  1  0.533486  0.767340  0.006244  1
  Ga  Ga19  1  0.033486  0.732660  0.993756  1
  Ga  Ga20  1  0.533486  0.732660  0.506244  1
  Ga  Ga21  1  0.033486  0.767340  0.493756  1
  Ga  Ga22  1  0.466514  0.232660  0.993756  1
  Ga  Ga23  1  0.966514  0.267340  0.006244  1
  Ga  Ga24  1  0.233510  0.038697  0.469076  1
  Ga  Ga25  1  0.733510  0.461303  0.530924  1
  Ga  Ga26  1  0.766490  0.538697  0.030924  1
  Ga  Ga27  1  0.266490  0.961303  0.969076  1
  Ga  Ga28  1  0.766490  0.961303  0.530924  1
  Ga  Ga29  1  0.266490  0.538697  0.469076  1
  Ga  Ga30  1  0.233510  0.461303  0.969076  1
  Ga  Ga31  1  0.733510  0.038697  0.030924  1
  O  O32  1  0.262674  0.990937  0.306047  1
  O  O33  1  0.762674  0.509063  0.693953  1
  O  O34  1  0.737326  0.490937  0.193953  1
  O  O35  1  0.237326  0.009063  0.806047  1
  O  O36  1  0.737326  0.009063  0.693953  1
  O  O37  1  0.237326  0.490937  0.306047  1
  O  O38  1  0.262674  0.509063  0.806047  1
  O  O39  1  0.762674  0.990937  0.193953  1
  O  O40  1  0.380772  0.107819  0.558796  1
  O  O41  1  0.880772  0.392181  0.441204  1
  O  O42  1  0.619228  0.607819  0.941204  1
  O  O43  1  0.119228  0.892181  0.058796  1
  O  O44  1  0.619228  0.892181  0.441204  1
  O  O45  1  0.119228  0.607819  0.558796  1
  O  O46  1  0.380772  0.392181  0.058796  1
  O  O47  1  0.880772  0.107819  0.941204  1
  O  O48  1  0.486793  0.256418  0.323663  1
  O  O49  1  0.986793  0.243582  0.676337  1
  O  O50  1  0.513207  0.756418  0.176337  1
  O  O51  1  0.013207  0.743582  0.823663  1
  O  O52  1  0.513207  0.743582  0.676337  1
  O  O53  1  0.013207  0.756418  0.323663  1
  O  O54  1  0.486793  0.243582  0.823663  1
  O  O55  1  0.986793  0.256418  0.176337  1
  O  O56  1  0.361908  0.411269  0.562608  1
  O  O57  1  0.861908  0.088731  0.437392  1
  O  O58  1  0.638092  0.911269  0.937392  1
  O  O59  1  0.138092  0.588731  0.062608  1
  O  O60  1  0.638092  0.588731  0.437392  1
  O  O61  1  0.138092  0.911269  0.562608  1
  O  O62  1  0.361908  0.088731  0.062608  1
  O  O63  1  0.861908  0.411269  0.937392  1
  O  O64  1  0.630592  0.301202  0.564918  1
  O  O65  1  0.130592  0.198798  0.435082  1
  O  O66  1  0.369408  0.801202  0.935082  1
  O  O67  1  0.869408  0.698798  0.064918  1
  O  O68  1  0.369408  0.698798  0.435082  1
  O  O69  1  0.869408  0.801202  0.564918  1
  O  O70  1  0.630592  0.198798  0.064918  1
  O  O71  1  0.130592  0.301202  0.935082  1
