# generated using pymatgen
data_BaGd2ZnO5
_symmetry_space_group_name_H-M   'P 1'
_cell_length_a   5.81990542
_cell_length_b   7.23504262
_cell_length_c   12.58583251
_cell_angle_alpha   90.00000000
_cell_angle_beta   90.00000000
_cell_angle_gamma   90.00000000
_symmetry_Int_Tables_number   1
_chemical_formula_structural   BaGd2ZnO5
_chemical_formula_sum   'Ba4 Gd8 Zn4 O20'
_cell_volume   529.95496911
_cell_formula_units_Z   4
loop_
 _symmetry_equiv_pos_site_id
 _symmetry_equiv_pos_as_xyz
  1  'x, y, z'
loop_
 _atom_site_type_symbol
 _atom_site_label
 _atom_site_symmetry_multiplicity
 _atom_site_fract_x
 _atom_site_fract_y
 _atom_site_fract_z
 _atom_site_occupancy
  O  O0  1  0.250000  0.429010  0.599163  1
  O  O1  1  0.750000  0.570990  0.400837  1
  O  O2  1  0.750000  0.929010  0.900837  1
  O  O3  1  0.250000  0.070990  0.099163  1
  O  O4  1  0.002335  0.855084  0.275306  1
  O  O5  1  0.502335  0.144916  0.724694  1
  O  O6  1  0.997665  0.355084  0.224694  1
  O  O7  1  0.497665  0.644916  0.775306  1
  O  O8  1  0.997665  0.144916  0.724694  1
  O  O9  1  0.497665  0.855084  0.275306  1
  O  O10  1  0.002335  0.644916  0.775306  1
  O  O11  1  0.502335  0.355084  0.224694  1
  O  O12  1  0.496401  0.665252  0.065829  1
  O  O13  1  0.996401  0.334748  0.934171  1
  O  O14  1  0.503599  0.165252  0.434171  1
  O  O15  1  0.003599  0.834748  0.565829  1
  O  O16  1  0.996401  0.165252  0.434171  1
  O  O17  1  0.496401  0.834748  0.565829  1
  O  O18  1  0.003599  0.665252  0.065829  1
  O  O19  1  0.503599  0.334748  0.934171  1
  Zn  Zn20  1  0.250000  0.808110  0.149647  1
  Zn  Zn21  1  0.750000  0.191890  0.850353  1
  Zn  Zn22  1  0.750000  0.308110  0.350353  1
  Zn  Zn23  1  0.250000  0.691890  0.649647  1
  Ba  Ba24  1  0.750000  0.076815  0.100980  1
  Ba  Ba25  1  0.750000  0.423185  0.600980  1
  Ba  Ba26  1  0.250000  0.576815  0.399020  1
  Ba  Ba27  1  0.250000  0.923185  0.899020  1
  Gd  Gd28  1  0.250000  0.398297  0.074466  1
  Gd  Gd29  1  0.750000  0.617561  0.207845  1
  Gd  Gd30  1  0.750000  0.882439  0.707845  1
  Gd  Gd31  1  0.250000  0.117561  0.292155  1
  Gd  Gd32  1  0.750000  0.601703  0.925534  1
  Gd  Gd33  1  0.750000  0.898297  0.425534  1
  Gd  Gd34  1  0.250000  0.101703  0.574466  1
  Gd  Gd35  1  0.250000  0.382439  0.792155  1
