# generated using pymatgen
data_Nb7P4
_symmetry_space_group_name_H-M   'P 1'
_cell_length_a   3.45873555
_cell_length_b   7.73694659
_cell_length_c   13.95710029
_cell_angle_alpha   104.42861911
_cell_angle_beta   90.00000000
_cell_angle_gamma   102.91590572
_symmetry_Int_Tables_number   1
_chemical_formula_structural   Nb7P4
_chemical_formula_sum   'Nb14 P8'
_cell_volume   351.94650021
_cell_formula_units_Z   2
loop_
 _symmetry_equiv_pos_site_id
 _symmetry_equiv_pos_as_xyz
  1  'x, y, z'
loop_
 _atom_site_type_symbol
 _atom_site_label
 _atom_site_symmetry_multiplicity
 _atom_site_fract_x
 _atom_site_fract_y
 _atom_site_fract_z
 _atom_site_occupancy
  P  P0  1  0.935726  0.871452  0.150413  1
  P  P1  1  0.064274  0.128548  0.849587  1
  P  P2  1  0.630556  0.261113  0.664440  1
  P  P3  1  0.369444  0.738887  0.335560  1
  P  P4  1  0.626005  0.252009  0.398185  1
  P  P5  1  0.373995  0.747991  0.601815  1
  P  P6  1  0.826256  0.652511  0.887495  1
  P  P7  1  0.173744  0.347489  0.112505  1
  Nb  Nb8  1  0.337878  0.675757  0.027459  1
  Nb  Nb9  1  0.662122  0.324243  0.972541  1
  Nb  Nb10  1  0.003677  0.007354  0.665609  1
  Nb  Nb11  1  0.996323  0.992646  0.334391  1
  Nb  Nb12  1  0.174853  0.349707  0.540579  1
  Nb  Nb13  1  0.825147  0.650293  0.459421  1
  Nb  Nb14  1  0.790141  0.580282  0.199695  1
  Nb  Nb15  1  0.209859  0.419718  0.800305  1
  Nb  Nb16  1  0.805005  0.610010  0.687464  1
  Nb  Nb17  1  0.194995  0.389990  0.312536  1
  Nb  Nb18  1  0.568192  0.136384  0.172559  1
  Nb  Nb19  1  0.431808  0.863616  0.827441  1
  Nb  Nb20  1  0.500000  0.000000  0.500000  1
  Nb  Nb21  1  0.000000  0.000000  0.000000  1
