# generated using pymatgen
data_Na4Hf2(GeO4)3
_symmetry_space_group_name_H-M   'P 1'
_cell_length_a   9.33738098
_cell_length_b   9.33738097
_cell_length_c   9.33738098
_cell_angle_alpha   61.35818455
_cell_angle_beta   61.35818457
_cell_angle_gamma   61.35818453
_symmetry_Int_Tables_number   1
_chemical_formula_structural   Na4Hf2(GeO4)3
_chemical_formula_sum   'Na8 Hf4 Ge6 O24'
_cell_volume   593.22000678
_cell_formula_units_Z   2
loop_
 _symmetry_equiv_pos_site_id
 _symmetry_equiv_pos_as_xyz
  1  'x, y, z'
loop_
 _atom_site_type_symbol
 _atom_site_label
 _atom_site_symmetry_multiplicity
 _atom_site_fract_x
 _atom_site_fract_y
 _atom_site_fract_z
 _atom_site_occupancy
  O  O0  1  0.863139  0.706599  0.490258  1
  O  O1  1  0.706599  0.490258  0.863139  1
  O  O2  1  0.490258  0.863139  0.706599  1
  O  O3  1  0.009742  0.793401  0.636861  1
  O  O4  1  0.793401  0.636861  0.009742  1
  O  O5  1  0.636861  0.009742  0.793401  1
  O  O6  1  0.136861  0.293401  0.509742  1
  O  O7  1  0.293401  0.509742  0.136861  1
  O  O8  1  0.509742  0.136861  0.293401  1
  O  O9  1  0.990258  0.206599  0.363139  1
  O  O10  1  0.206599  0.363139  0.990258  1
  O  O11  1  0.363139  0.990258  0.206599  1
  O  O12  1  0.761846  0.424071  0.561212  1
  O  O13  1  0.424071  0.561212  0.761846  1
  O  O14  1  0.561212  0.761846  0.424071  1
  O  O15  1  0.938788  0.075929  0.738154  1
  O  O16  1  0.075929  0.738154  0.938788  1
  O  O17  1  0.738154  0.938788  0.075929  1
  O  O18  1  0.261846  0.061212  0.924071  1
  O  O19  1  0.924071  0.261846  0.061212  1
  O  O20  1  0.061212  0.924071  0.261846  1
  O  O21  1  0.438788  0.238154  0.575929  1
  O  O22  1  0.575929  0.438788  0.238154  1
  O  O23  1  0.238154  0.575929  0.438788  1
  Na  Na24  1  0.000000  0.000000  0.000000  1
  Na  Na25  1  0.129154  0.370846  0.750000  1
  Na  Na26  1  0.750000  0.129154  0.370846  1
  Na  Na27  1  0.370846  0.750000  0.129154  1
  Na  Na28  1  0.629154  0.250000  0.870846  1
  Na  Na29  1  0.250000  0.870846  0.629154  1
  Na  Na30  1  0.500000  0.500000  0.500000  1
  Na  Na31  1  0.870846  0.629154  0.250000  1
  Ge  Ge32  1  0.542689  0.957311  0.250000  1
  Ge  Ge33  1  0.042689  0.750000  0.457311  1
  Ge  Ge34  1  0.957311  0.250000  0.542689  1
  Ge  Ge35  1  0.457311  0.042689  0.750000  1
  Ge  Ge36  1  0.750000  0.457311  0.042689  1
  Ge  Ge37  1  0.250000  0.542689  0.957311  1
  Hf  Hf38  1  0.356145  0.356145  0.356145  1
  Hf  Hf39  1  0.856145  0.856145  0.856145  1
  Hf  Hf40  1  0.643855  0.643855  0.643855  1
  Hf  Hf41  1  0.143855  0.143855  0.143855  1
