# generated using pymatgen
data_Cs2Ti(GeO3)3
_symmetry_space_group_name_H-M   'P 1'
_cell_length_a   7.31773846
_cell_length_b   7.31773846
_cell_length_c   10.54541665
_cell_angle_alpha   90.00000000
_cell_angle_beta   90.00000000
_cell_angle_gamma   120.00000001
_symmetry_Int_Tables_number   1
_chemical_formula_structural   Cs2Ti(GeO3)3
_chemical_formula_sum   'Cs4 Ti2 Ge6 O18'
_cell_volume   489.04423289
_cell_formula_units_Z   2
loop_
 _symmetry_equiv_pos_site_id
 _symmetry_equiv_pos_as_xyz
  1  'x, y, z'
loop_
 _atom_site_type_symbol
 _atom_site_label
 _atom_site_symmetry_multiplicity
 _atom_site_fract_x
 _atom_site_fract_y
 _atom_site_fract_z
 _atom_site_occupancy
  O  O0  1  0.238787  0.200762  0.392650  1
  O  O1  1  0.038025  0.238787  0.892650  1
  O  O2  1  0.200762  0.961975  0.892650  1
  O  O3  1  0.799238  0.038025  0.392650  1
  O  O4  1  0.961975  0.761213  0.392650  1
  O  O5  1  0.761213  0.799238  0.892650  1
  O  O6  1  0.761213  0.799238  0.607350  1
  O  O7  1  0.961975  0.761213  0.107350  1
  O  O8  1  0.799238  0.038025  0.107350  1
  O  O9  1  0.200762  0.961975  0.607350  1
  O  O10  1  0.038025  0.238787  0.607350  1
  O  O11  1  0.238787  0.200762  0.107350  1
  O  O12  1  0.495893  0.070643  0.250000  1
  O  O13  1  0.425249  0.495893  0.750000  1
  O  O14  1  0.070643  0.574751  0.750000  1
  O  O15  1  0.929357  0.425249  0.250000  1
  O  O16  1  0.574751  0.504107  0.250000  1
  O  O17  1  0.504107  0.929357  0.750000  1
  Ti  Ti18  1  0.000000  0.000000  0.500000  1
  Ti  Ti19  1  0.000000  0.000000  0.000000  1
  Ge  Ge20  1  0.227201  0.857604  0.750000  1
  Ge  Ge21  1  0.630404  0.772799  0.750000  1
  Ge  Ge22  1  0.142396  0.369596  0.750000  1
  Ge  Ge23  1  0.369596  0.227201  0.250000  1
  Ge  Ge24  1  0.857604  0.630404  0.250000  1
  Ge  Ge25  1  0.772799  0.142396  0.250000  1
  Cs  Cs26  1  0.333333  0.666667  0.441295  1
  Cs  Cs27  1  0.666667  0.333333  0.941295  1
  Cs  Cs28  1  0.666667  0.333333  0.558705  1
  Cs  Cs29  1  0.333333  0.666667  0.058705  1
