# generated using pymatgen
data_Cr3N4
_symmetry_space_group_name_H-M   'P 1'
_cell_length_a   3.12022702
_cell_length_b   8.07034835
_cell_length_c   8.06537557
_cell_angle_alpha   119.93462586
_cell_angle_beta   90.00000000
_cell_angle_gamma   90.00000000
_symmetry_Int_Tables_number   1
_chemical_formula_structural   Cr3N4
_chemical_formula_sum   'Cr6 N8'
_cell_volume   176.00273543
_cell_formula_units_Z   2
loop_
 _symmetry_equiv_pos_site_id
 _symmetry_equiv_pos_as_xyz
  1  'x, y, z'
loop_
 _atom_site_type_symbol
 _atom_site_label
 _atom_site_symmetry_multiplicity
 _atom_site_fract_x
 _atom_site_fract_y
 _atom_site_fract_z
 _atom_site_occupancy
  Cr  Cr0  1  0.750000  0.404590  0.223614  1
  Cr  Cr1  1  0.750000  0.777156  0.180409  1
  Cr  Cr2  1  0.750000  0.819334  0.596257  1
  Cr  Cr3  1  0.250000  0.595410  0.776386  1
  Cr  Cr4  1  0.250000  0.222844  0.819591  1
  Cr  Cr5  1  0.250000  0.180666  0.403743  1
  N  N6  1  0.750000  0.667183  0.333255  1
  N  N7  1  0.250000  0.332817  0.666745  1
  N  N8  1  0.750000  0.294231  0.963691  1
  N  N9  1  0.750000  0.036751  0.330512  1
  N  N10  1  0.750000  0.668156  0.704933  1
  N  N11  1  0.250000  0.705769  0.036309  1
  N  N12  1  0.250000  0.963249  0.669488  1
  N  N13  1  0.250000  0.331844  0.295067  1
