# generated using pymatgen
data_Tl2CdTe4
_symmetry_space_group_name_H-M   'P 1'
_cell_length_a   6.42341697
_cell_length_b   6.42341697
_cell_length_c   7.93157053
_cell_angle_alpha   113.88656391
_cell_angle_beta   113.88656391
_cell_angle_gamma   90.00000000
_symmetry_Int_Tables_number   1
_chemical_formula_structural   Tl2CdTe4
_chemical_formula_sum   'Tl2 Cd1 Te4'
_cell_volume   268.28600310
_cell_formula_units_Z   1
loop_
 _symmetry_equiv_pos_site_id
 _symmetry_equiv_pos_as_xyz
  1  'x, y, z'
loop_
 _atom_site_type_symbol
 _atom_site_label
 _atom_site_symmetry_multiplicity
 _atom_site_fract_x
 _atom_site_fract_y
 _atom_site_fract_z
 _atom_site_occupancy
  Tl  Tl0  1  0.250000  0.750000  0.500000  1
  Tl  Tl1  1  0.000000  -0.000000  -0.000000  1
  Cd  Cd2  1  0.500000  0.500000  0.000000  1
  Te  Te3  1  0.422019  0.359173  0.275445  1
  Te  Te4  1  0.853426  0.916272  0.275445  1
  Te  Te5  1  0.083728  0.577981  0.724555  1
  Te  Te6  1  0.640827  0.146574  0.724555  1
