# generated using pymatgen
data_CsPrZnTe3
_symmetry_space_group_name_H-M   'P 1'
_cell_length_a   4.54921033
_cell_length_b   8.96358098
_cell_length_c   12.11741712
_cell_angle_alpha   90.00000000
_cell_angle_beta   90.00000000
_cell_angle_gamma   104.70016709
_symmetry_Int_Tables_number   1
_chemical_formula_structural   CsPrZnTe3
_chemical_formula_sum   'Cs2 Pr2 Zn2 Te6'
_cell_volume   477.94068107
_cell_formula_units_Z   2
loop_
 _symmetry_equiv_pos_site_id
 _symmetry_equiv_pos_as_xyz
  1  'x, y, z'
loop_
 _atom_site_type_symbol
 _atom_site_label
 _atom_site_symmetry_multiplicity
 _atom_site_fract_x
 _atom_site_fract_y
 _atom_site_fract_z
 _atom_site_occupancy
  Zn  Zn0  1  0.464988  0.929975  0.750000  1
  Zn  Zn1  1  0.535012  0.070025  0.250000  1
  Te  Te2  1  0.378782  0.757564  0.567044  1
  Te  Te3  1  0.621218  0.242436  0.432956  1
  Te  Te4  1  0.939265  0.878529  0.250000  1
  Te  Te5  1  0.060735  0.121471  0.750000  1
  Te  Te6  1  0.378782  0.757564  0.932956  1
  Te  Te7  1  0.621218  0.242436  0.067044  1
  Cs  Cs8  1  0.746474  0.492949  0.750000  1
  Cs  Cs9  1  0.253526  0.507051  0.250000  1
  Pr  Pr10  1  0.000000  0.000000  0.000000  1
  Pr  Pr11  1  0.000000  0.000000  0.500000  1
