# generated using pymatgen
data_Na2CoP2O7
_symmetry_space_group_name_H-M   'P 1'
_cell_length_a   5.30054319
_cell_length_b   6.51797730
_cell_length_c   9.47058915
_cell_angle_alpha   109.62138671
_cell_angle_beta   95.80965563
_cell_angle_gamma   105.22481505
_symmetry_Int_Tables_number   1
_chemical_formula_structural   Na2CoP2O7
_chemical_formula_sum   'Na4 Co2 P4 O14'
_cell_volume   290.85181629
_cell_formula_units_Z   2
loop_
 _symmetry_equiv_pos_site_id
 _symmetry_equiv_pos_as_xyz
  1  'x, y, z'
loop_
 _atom_site_type_symbol
 _atom_site_label
 _atom_site_symmetry_multiplicity
 _atom_site_fract_x
 _atom_site_fract_y
 _atom_site_fract_z
 _atom_site_occupancy
  Na  Na0  1  0.350522  0.135498  0.725224  1
  Na  Na1  1  0.649478  0.864502  0.274776  1
  Na  Na2  1  0.870196  0.226137  0.964273  1
  Na  Na3  1  0.129804  0.773863  0.035727  1
  Co  Co4  1  0.907140  0.400173  0.633443  1
  Co  Co5  1  0.092860  0.599827  0.366557  1
  P  P6  1  0.743374  0.836665  0.607795  1
  P  P7  1  0.256626  0.163335  0.392205  1
  P  P8  1  0.568853  0.665381  0.860871  1
  P  P9  1  0.431147  0.334619  0.139129  1
  O  O10  1  0.934942  0.690707  0.576466  1
  O  O11  1  0.065058  0.309293  0.423534  1
  O  O12  1  0.499906  0.755539  0.481168  1
  O  O13  1  0.500094  0.244461  0.518832  1
  O  O14  1  0.900988  0.092003  0.658593  1
  O  O15  1  0.099012  0.907997  0.341407  1
  O  O16  1  0.644190  0.833002  0.763931  1
  O  O17  1  0.355810  0.166998  0.236069  1
  O  O18  1  0.740000  0.502276  0.828368  1
  O  O19  1  0.260000  0.497724  0.171632  1
  O  O20  1  0.657341  0.837001  0.025714  1
  O  O21  1  0.342659  0.162999  0.974286  1
  O  O22  1  0.268595  0.540976  0.808011  1
  O  O23  1  0.731405  0.459024  0.191989  1
