# generated using pymatgen
data_Te2Mo2SeS
_symmetry_space_group_name_H-M   'P 1'
_cell_length_a   3.39840964
_cell_length_b   3.39850267
_cell_length_c   38.64974218
_cell_angle_alpha   90.00022969
_cell_angle_beta   90.00000000
_cell_angle_gamma   119.99909450
_symmetry_Int_Tables_number   1
_chemical_formula_structural   Te2Mo2SeS
_chemical_formula_sum   'Te4 Mo4 Se2 S2'
_cell_volume   386.58458957
_cell_formula_units_Z   2
loop_
 _symmetry_equiv_pos_site_id
 _symmetry_equiv_pos_as_xyz
  1  'x, y, z'
loop_
 _atom_site_type_symbol
 _atom_site_label
 _atom_site_symmetry_multiplicity
 _atom_site_fract_x
 _atom_site_fract_y
 _atom_site_fract_z
 _atom_site_occupancy
  Te  Te0  1  0.333353  0.666706  0.330203  1
  Te  Te1  1  0.333351  0.666702  0.705961  1
  Te  Te2  1  0.333352  0.666705  0.233351  1
  Te  Te3  1  0.333355  0.666712  0.609096  1
  Mo  Mo4  1  0.333293  0.666586  0.093949  1
  Mo  Mo5  1  0.333306  0.666612  0.469651  1
  Mo  Mo6  1  0.666692  0.333385  0.281798  1
  Mo  Mo7  1  0.666692  0.333383  0.657520  1
  Se  Se8  1  0.666649  0.333296  0.427075  1
  Se  Se9  1  0.666640  0.333280  0.512254  1
  S  S10  1  0.666659  0.333316  0.055064  1
  S  S11  1  0.666658  0.333316  0.132826  1
