# generated using pymatgen
data_LiNbZnO4
_symmetry_space_group_name_H-M   'P 1'
_cell_length_a   6.17254992
_cell_length_b   6.17254992
_cell_length_c   8.54385888
_cell_angle_alpha   90.00000000
_cell_angle_beta   90.00000000
_cell_angle_gamma   90.00000000
_symmetry_Int_Tables_number   1
_chemical_formula_structural   LiNbZnO4
_chemical_formula_sum   'Li4 Nb4 Zn4 O16'
_cell_volume   325.52420604
_cell_formula_units_Z   4
loop_
 _symmetry_equiv_pos_site_id
 _symmetry_equiv_pos_as_xyz
  1  'x, y, z'
loop_
 _atom_site_type_symbol
 _atom_site_label
 _atom_site_symmetry_multiplicity
 _atom_site_fract_x
 _atom_site_fract_y
 _atom_site_fract_z
 _atom_site_occupancy
  Li  Li0  1  0.218093  0.000000  0.250000  1
  Li  Li1  1  0.000000  0.218093  0.000000  1
  Li  Li2  1  0.000000  0.781909  0.500000  1
  Li  Li3  1  0.781909  0.000000  0.749999  1
  O  O4  1  0.015785  0.737108  0.247162  1
  O  O5  1  0.518267  0.734561  0.734302  1
  O  O6  1  0.481732  0.265438  0.234302  1
  O  O7  1  0.734561  0.518267  0.515698  1
  O  O8  1  0.734561  0.481732  0.984302  1
  O  O9  1  0.265438  0.518267  0.484302  1
  O  O10  1  0.481732  0.734561  0.265698  1
  O  O11  1  0.518267  0.265438  0.765698  1
  O  O12  1  0.262892  0.015785  0.997163  1
  O  O13  1  0.984215  0.262892  0.747162  1
  O  O14  1  0.265438  0.481732  0.015699  1
  O  O15  1  0.262892  0.984215  0.502838  1
  O  O16  1  0.984215  0.737108  0.752838  1
  O  O17  1  0.737108  0.984215  0.497162  1
  O  O18  1  0.015785  0.262892  0.252837  1
  O  O19  1  0.737108  0.015785  0.002837  1
  Zn  Zn20  1  0.258182  0.258182  0.625000  1
  Zn  Zn21  1  0.258182  0.741817  0.875000  1
  Zn  Zn22  1  0.741817  0.741817  0.125000  1
  Zn  Zn23  1  0.741817  0.258182  0.375000  1
  Nb  Nb24  1  0.784994  0.500001  0.749999  1
  Nb  Nb25  1  0.215006  0.500001  0.250000  1
  Nb  Nb26  1  0.500001  0.784994  0.500000  1
  Nb  Nb27  1  0.500001  0.215006  0.000000  1
