# generated using pymatgen
data_Te2Mo3W(SeS2)2
_symmetry_space_group_name_H-M   'P 1'
_cell_length_a   3.30621000
_cell_length_b   3.30612617
_cell_length_c   38.94484719
_cell_angle_alpha   90.00640254
_cell_angle_beta   90.00000000
_cell_angle_gamma   120.00083882
_symmetry_Int_Tables_number   1
_chemical_formula_structural   Te2Mo3W(SeS2)2
_chemical_formula_sum   'Te2 Mo3 W1 Se2 S4'
_cell_volume   368.66067940
_cell_formula_units_Z   1
loop_
 _symmetry_equiv_pos_site_id
 _symmetry_equiv_pos_as_xyz
  1  'x, y, z'
loop_
 _atom_site_type_symbol
 _atom_site_label
 _atom_site_symmetry_multiplicity
 _atom_site_fract_x
 _atom_site_fract_y
 _atom_site_fract_z
 _atom_site_occupancy
  Te  Te0  1  0.666645  0.333289  0.043151  1
  Te  Te1  1  0.666704  0.333406  0.141294  1
  Mo  Mo2  1  0.333362  0.666724  0.092227  1
  Mo  Mo3  1  0.333238  0.666476  0.469727  1
  Mo  Mo4  1  0.666747  0.333494  0.283161  1
  W  W5  1  0.666663  0.333326  0.657743  1
  Se  Se6  1  0.333484  0.666970  0.326378  1
  Se  Se7  1  0.333409  0.666819  0.240023  1
  S  S8  1  0.333393  0.666787  0.697121  1
  S  S9  1  0.666471  0.332941  0.430553  1
  S  S10  1  0.666557  0.333114  0.508981  1
  S  S11  1  0.333326  0.666653  0.618388  1
