# generated using pymatgen
data_TeMoWSe2S
_symmetry_space_group_name_H-M   'P 1'
_cell_length_a   3.34190595
_cell_length_b   3.34190497
_cell_length_c   38.04295865
_cell_angle_alpha   90.00019387
_cell_angle_beta   89.99998729
_cell_angle_gamma   119.99999892
_symmetry_Int_Tables_number   1
_chemical_formula_structural   TeMoWSe2S
_chemical_formula_sum   'Te2 Mo2 W2 Se4 S2'
_cell_volume   367.95375707
_cell_formula_units_Z   2
loop_
 _symmetry_equiv_pos_site_id
 _symmetry_equiv_pos_as_xyz
  1  'x, y, z'
loop_
 _atom_site_type_symbol
 _atom_site_label
 _atom_site_symmetry_multiplicity
 _atom_site_fract_x
 _atom_site_fract_y
 _atom_site_fract_z
 _atom_site_occupancy
  Te  Te0  1  0.666644  0.333287  0.044040  1
  Te  Te1  1  0.666648  0.333295  0.143751  1
  Mo  Mo2  1  0.333309  0.666618  0.093871  1
  Mo  Mo3  1  0.666688  0.333377  0.281828  1
  W  W4  1  0.333303  0.666606  0.469657  1
  W  W5  1  0.666692  0.333386  0.657544  1
  Se  Se6  1  0.333353  0.666706  0.325650  1
  Se  Se7  1  0.333369  0.666738  0.701558  1
  Se  Se8  1  0.333359  0.666718  0.238018  1
  Se  Se9  1  0.333350  0.666701  0.613507  1
  S  S10  1  0.666638  0.333275  0.429646  1
  S  S11  1  0.666647  0.333294  0.509677  1
