# generated using pymatgen
data_Zr6Ni20P13
_symmetry_space_group_name_H-M   'P 1'
_cell_length_a   12.48719808
_cell_length_b   12.48719808
_cell_length_c   3.63664053
_cell_angle_alpha   90.00000000
_cell_angle_beta   90.00000000
_cell_angle_gamma   119.99999998
_symmetry_Int_Tables_number   1
_chemical_formula_structural   Zr6Ni20P13
_chemical_formula_sum   'Zr6 Ni20 P13'
_cell_volume   491.08990664
_cell_formula_units_Z   1
loop_
 _symmetry_equiv_pos_site_id
 _symmetry_equiv_pos_as_xyz
  1  'x, y, z'
loop_
 _atom_site_type_symbol
 _atom_site_label
 _atom_site_symmetry_multiplicity
 _atom_site_fract_x
 _atom_site_fract_y
 _atom_site_fract_z
 _atom_site_occupancy
  P  P0  1  0.000000  0.000000  0.000000  1
  P  P1  1  0.232429  0.285191  0.500000  1
  P  P2  1  0.714809  0.947237  0.500000  1
  P  P3  1  0.052763  0.767571  0.500000  1
  P  P4  1  0.766326  0.713223  0.000000  1
  P  P5  1  0.286777  0.053103  0.000000  1
  P  P6  1  0.472870  0.613350  0.500000  1
  P  P7  1  0.386650  0.859520  0.500000  1
  P  P8  1  0.860022  0.473644  0.000000  1
  P  P9  1  0.526356  0.386378  0.000000  1
  P  P10  1  0.613622  0.139978  0.000000  1
  P  P11  1  0.946897  0.233674  0.000000  1
  P  P12  1  0.140480  0.527130  0.500000  1
  Ni  Ni13  1  0.418086  0.979418  0.000000  1
  Ni  Ni14  1  0.020582  0.438668  0.000000  1
  Ni  Ni15  1  0.584950  0.020908  0.500000  1
  Ni  Ni16  1  0.561332  0.581914  0.000000  1
  Ni  Ni17  1  0.979092  0.564042  0.500000  1
  Ni  Ni18  1  0.921334  0.081790  0.500000  1
  Ni  Ni19  1  0.160456  0.078666  0.500000  1
  Ni  Ni20  1  0.918210  0.839544  0.500000  1
  Ni  Ni21  1  0.094061  0.895385  0.000000  1
  Ni  Ni22  1  0.801324  0.905939  0.000000  1
  Ni  Ni23  1  0.104615  0.198676  0.000000  1
  Ni  Ni24  1  0.333333  0.666667  0.500000  1
  Ni  Ni25  1  0.666667  0.333333  0.000000  1
  Ni  Ni26  1  0.676617  0.748242  0.500000  1
  Ni  Ni27  1  0.251758  0.928375  0.500000  1
  Ni  Ni28  1  0.920886  0.675787  0.000000  1
  Ni  Ni29  1  0.324213  0.245099  0.000000  1
  Ni  Ni30  1  0.754901  0.079114  0.000000  1
  Ni  Ni31  1  0.435958  0.415050  0.500000  1
  Ni  Ni32  1  0.071625  0.323383  0.500000  1
  Zr  Zr33  1  0.808729  0.282624  0.500000  1
  Zr  Zr34  1  0.717376  0.526105  0.500000  1
  Zr  Zr35  1  0.473895  0.191271  0.500000  1
  Zr  Zr36  1  0.191389  0.718196  0.000000  1
  Zr  Zr37  1  0.281804  0.473193  0.000000  1
  Zr  Zr38  1  0.526807  0.808611  0.000000  1
