# generated using pymatgen
data_MoW3(Se3S)2
_symmetry_space_group_name_H-M   'P 1'
_cell_length_a   3.28977203
_cell_length_b   3.28975432
_cell_length_c   37.89392703
_cell_angle_alpha   90.00127659
_cell_angle_beta   89.99989858
_cell_angle_gamma   120.00016601
_symmetry_Int_Tables_number   1
_chemical_formula_structural   MoW3(Se3S)2
_chemical_formula_sum   'Mo1 W3 Se6 S2'
_cell_volume   355.16387833
_cell_formula_units_Z   1
loop_
 _symmetry_equiv_pos_site_id
 _symmetry_equiv_pos_as_xyz
  1  'x, y, z'
loop_
 _atom_site_type_symbol
 _atom_site_label
 _atom_site_symmetry_multiplicity
 _atom_site_fract_x
 _atom_site_fract_y
 _atom_site_fract_z
 _atom_site_occupancy
  Mo  Mo0  1  0.666694  0.333389  0.281799  1
  W  W1  1  0.333312  0.666622  0.093893  1
  W  W2  1  0.333316  0.666630  0.469667  1
  W  W3  1  0.666694  0.333388  0.657535  1
  Se  Se4  1  0.333355  0.666710  0.326299  1
  Se  Se5  1  0.333358  0.666717  0.702275  1
  Se  Se6  1  0.666647  0.333294  0.049191  1
  Se  Se7  1  0.666628  0.333256  0.138657  1
  Se  Se8  1  0.333353  0.666706  0.237315  1
  Se  Se9  1  0.333353  0.666707  0.612792  1
  S  S10  1  0.666645  0.333288  0.429022  1
  S  S11  1  0.666646  0.333292  0.510305  1
