# generated using pymatgen
data_La3Ni2Sn7
_symmetry_space_group_name_H-M   'P 1'
_cell_length_a   4.65598140
_cell_length_b   4.65422597
_cell_length_c   14.09251717
_cell_angle_alpha   90.00000000
_cell_angle_beta   99.50846915
_cell_angle_gamma   90.00000000
_symmetry_Int_Tables_number   1
_chemical_formula_structural   La3Ni2Sn7
_chemical_formula_sum   'La3 Ni2 Sn7'
_cell_volume   301.18907856
_cell_formula_units_Z   1
loop_
 _symmetry_equiv_pos_site_id
 _symmetry_equiv_pos_as_xyz
  1  'x, y, z'
loop_
 _atom_site_type_symbol
 _atom_site_label
 _atom_site_symmetry_multiplicity
 _atom_site_fract_x
 _atom_site_fract_y
 _atom_site_fract_z
 _atom_site_occupancy
  Ni  Ni0  1  0.372009  0.500000  0.744018  1
  Ni  Ni1  1  0.627991  0.500000  0.255982  1
  Sn  Sn2  1  0.089350  0.500000  0.178699  1
  Sn  Sn3  1  0.910650  0.500000  0.821301  1
  Sn  Sn4  1  0.281510  0.500000  0.563021  1
  Sn  Sn5  1  0.718490  0.500000  0.436979  1
  Sn  Sn6  1  0.000000  0.000000  0.000000  1
  Sn  Sn7  1  0.589208  0.000000  0.178417  1
  Sn  Sn8  1  0.410792  0.000000  0.821583  1
  La  La9  1  0.184349  0.000000  0.368698  1
  La  La10  1  0.815651  0.000000  0.631302  1
  La  La11  1  0.500000  0.500000  0.000000  1
