# generated using pymatgen
data_In2Cu
_symmetry_space_group_name_H-M   'P 1'
_cell_length_a   4.68656957
_cell_length_b   4.69616012
_cell_length_c   6.90190241
_cell_angle_alpha   90.00000000
_cell_angle_beta   90.00000000
_cell_angle_gamma   119.93246712
_symmetry_Int_Tables_number   1
_chemical_formula_structural   In2Cu
_chemical_formula_sum   'In4 Cu2'
_cell_volume   131.64141691
_cell_formula_units_Z   2
loop_
 _symmetry_equiv_pos_site_id
 _symmetry_equiv_pos_as_xyz
  1  'x, y, z'
loop_
 _atom_site_type_symbol
 _atom_site_label
 _atom_site_symmetry_multiplicity
 _atom_site_fract_x
 _atom_site_fract_y
 _atom_site_fract_z
 _atom_site_occupancy
  In  In0  1  0.333498  0.666995  0.750000  1
  In  In1  1  0.666502  0.333005  0.250000  1
  In  In2  1  -0.000000  0.000000  0.500000  1
  In  In3  1  0.000000  0.000000  0.000000  1
  Cu  Cu4  1  0.333199  0.666398  0.250000  1
  Cu  Cu5  1  0.666801  0.333602  0.750000  1
