# generated using pymatgen
data_CsPrCdSe3
_symmetry_space_group_name_H-M   'P 1'
_cell_length_a   4.43429804
_cell_length_b   8.48594945
_cell_length_c   11.55323887
_cell_angle_alpha   90.00000000
_cell_angle_beta   90.00000000
_cell_angle_gamma   105.14560773
_symmetry_Int_Tables_number   1
_chemical_formula_structural   CsPrCdSe3
_chemical_formula_sum   'Cs2 Pr2 Cd2 Se6'
_cell_volume   419.63877906
_cell_formula_units_Z   2
loop_
 _symmetry_equiv_pos_site_id
 _symmetry_equiv_pos_as_xyz
  1  'x, y, z'
loop_
 _atom_site_type_symbol
 _atom_site_label
 _atom_site_symmetry_multiplicity
 _atom_site_fract_x
 _atom_site_fract_y
 _atom_site_fract_z
 _atom_site_occupancy
  Se  Se0  1  0.380535  0.761071  0.554196  1
  Se  Se1  1  0.619465  0.238929  0.445804  1
  Se  Se2  1  0.619465  0.238929  0.054196  1
  Se  Se3  1  0.061883  0.123765  0.750000  1
  Se  Se4  1  0.938117  0.876235  0.250000  1
  Se  Se5  1  0.380535  0.761071  0.945804  1
  Cd  Cd6  1  0.463347  0.926694  0.750000  1
  Cd  Cd7  1  0.536653  0.073306  0.250000  1
  Cs  Cs8  1  0.255065  0.510129  0.250000  1
  Cs  Cs9  1  0.744935  0.489871  0.750000  1
  Pr  Pr10  1  0.000000  0.000000  0.500000  1
  Pr  Pr11  1  0.000000  0.000000  0.000000  1
