# generated using pymatgen
data_Sr2LiIn(B2O5)2
_symmetry_space_group_name_H-M   'P 1'
_cell_length_a   5.30810536
_cell_length_b   12.89499957
_cell_length_c   13.99100265
_cell_angle_alpha   117.47248900
_cell_angle_beta   90.00000000
_cell_angle_gamma   90.00000000
_symmetry_Int_Tables_number   1
_chemical_formula_structural   Sr2LiIn(B2O5)2
_chemical_formula_sum   'Sr8 Li4 In4 B16 O40'
_cell_volume   849.66380755
_cell_formula_units_Z   4
loop_
 _symmetry_equiv_pos_site_id
 _symmetry_equiv_pos_as_xyz
  1  'x, y, z'
loop_
 _atom_site_type_symbol
 _atom_site_label
 _atom_site_symmetry_multiplicity
 _atom_site_fract_x
 _atom_site_fract_y
 _atom_site_fract_z
 _atom_site_occupancy
  Li  Li0  1  0.897993  0.880351  0.397539  1
  Li  Li1  1  0.602007  0.380351  0.897539  1
  Li  Li2  1  0.102007  0.119649  0.602461  1
  Li  Li3  1  0.397993  0.619649  0.102461  1
  B  B4  1  0.637646  0.103227  0.710167  1
  B  B5  1  0.902661  0.594124  0.446493  1
  B  B6  1  0.597339  0.094124  0.946493  1
  B  B7  1  0.097339  0.405876  0.553507  1
  B  B8  1  0.362354  0.896773  0.289833  1
  B  B9  1  0.862354  0.603227  0.210167  1
  B  B10  1  0.402661  0.905876  0.053507  1
  B  B11  1  0.137646  0.396773  0.789833  1
  B  B12  1  0.079895  0.426491  0.050411  1
  B  B13  1  0.579895  0.073509  0.449589  1
  B  B14  1  0.420105  0.926491  0.550411  1
  B  B15  1  0.920105  0.573509  0.949589  1
  B  B16  1  0.564864  0.088271  0.231460  1
  B  B17  1  0.064864  0.411729  0.268540  1
  B  B18  1  0.435136  0.911729  0.768540  1
  B  B19  1  0.935136  0.588271  0.731460  1
  O  O20  1  0.416288  0.787376  0.214074  1
  O  O21  1  0.429573  0.035598  0.644525  1
  O  O22  1  0.070427  0.535598  0.144525  1
  O  O23  1  0.570427  0.964402  0.355475  1
  O  O24  1  0.793591  0.138427  0.272691  1
  O  O25  1  0.293591  0.361573  0.227309  1
  O  O26  1  0.206409  0.861573  0.727309  1
  O  O27  1  0.706409  0.638427  0.772691  1
  O  O28  1  0.083712  0.287376  0.714074  1
  O  O29  1  0.929573  0.464402  0.855475  1
  O  O30  1  0.583712  0.212624  0.785926  1
  O  O31  1  0.916288  0.712624  0.285926  1
  O  O32  1  0.846073  0.350542  0.226461  1
  O  O33  1  0.346073  0.149458  0.273539  1
  O  O34  1  0.153927  0.649458  0.773539  1
  O  O35  1  0.653927  0.850542  0.726461  1
  O  O36  1  0.813226  0.108651  0.496490  1
  O  O37  1  0.313226  0.391349  0.003510  1
  O  O38  1  0.186774  0.891349  0.503510  1
  O  O39  1  0.686774  0.608651  0.996490  1
  O  O40  1  0.967182  0.315192  0.472491  1
  O  O41  1  0.467182  0.184808  0.027509  1
  O  O42  1  0.032818  0.684808  0.527509  1
  O  O43  1  0.532818  0.815192  0.972491  1
  O  O44  1  0.375810  0.445029  0.807007  1
  O  O45  1  0.875810  0.054971  0.692993  1
  O  O46  1  0.624190  0.554971  0.192993  1
  O  O47  1  0.124190  0.945029  0.307007  1
  O  O48  1  0.346431  0.428166  0.554916  1
  O  O49  1  0.846431  0.071834  0.945084  1
  O  O50  1  0.653569  0.571834  0.445084  1
  O  O51  1  0.153569  0.928166  0.054916  1
  O  O52  1  0.374341  0.144110  0.493632  1
  O  O53  1  0.874341  0.355890  0.006368  1
  O  O54  1  0.572622  0.979757  0.137844  1
  O  O55  1  0.125659  0.644110  0.993632  1
  O  O56  1  0.927378  0.479757  0.637844  1
  O  O57  1  0.427378  0.020243  0.862156  1
  O  O58  1  0.072622  0.520243  0.362156  1
  O  O59  1  0.625659  0.855890  0.506368  1
  Sr  Sr60  1  0.626921  0.314941  0.644411  1
  Sr  Sr61  1  0.126921  0.185059  0.855589  1
  Sr  Sr62  1  0.373079  0.685059  0.355589  1
  Sr  Sr63  1  0.873079  0.814941  0.144411  1
  Sr  Sr64  1  0.924345  0.851048  0.875969  1
  Sr  Sr65  1  0.424345  0.648952  0.624031  1
  Sr  Sr66  1  0.575655  0.351048  0.375969  1
  Sr  Sr67  1  0.075655  0.148952  0.124031  1
  In  In68  1  0.572417  0.368037  0.115410  1
  In  In69  1  0.072417  0.131963  0.384590  1
  In  In70  1  0.427583  0.631963  0.884590  1
  In  In71  1  0.927583  0.868037  0.615410  1
