# generated using pymatgen
data_K2S2O3
_symmetry_space_group_name_H-M   'P 1'
_cell_length_a   10.22660569
_cell_length_b   9.25626463
_cell_length_c   13.50658196
_cell_angle_alpha   90.00000000
_cell_angle_beta   111.77825672
_cell_angle_gamma   90.00000000
_symmetry_Int_Tables_number   1
_chemical_formula_structural   K2S2O3
_chemical_formula_sum   'K16 S16 O24'
_cell_volume   1187.28202889
_cell_formula_units_Z   8
loop_
 _symmetry_equiv_pos_site_id
 _symmetry_equiv_pos_as_xyz
  1  'x, y, z'
loop_
 _atom_site_type_symbol
 _atom_site_label
 _atom_site_symmetry_multiplicity
 _atom_site_fract_x
 _atom_site_fract_y
 _atom_site_fract_z
 _atom_site_occupancy
  K  K0  1  0.418316  0.189942  0.552726  1
  K  K1  1  0.581684  0.689942  0.947274  1
  K  K2  1  0.581684  0.810058  0.447274  1
  K  K3  1  0.418316  0.310058  0.052726  1
  K  K4  1  0.214780  0.489000  0.693956  1
  K  K5  1  0.785220  0.989000  0.806044  1
  K  K6  1  0.785220  0.511000  0.306044  1
  K  K7  1  0.214780  0.011000  0.193956  1
  K  K8  1  0.877676  0.176354  0.539782  1
  K  K9  1  0.122324  0.676354  0.960218  1
  K  K10  1  0.122324  0.823646  0.460218  1
  K  K11  1  0.877676  0.323646  0.039782  1
  K  K12  1  0.264673  0.009320  0.794776  1
  K  K13  1  0.735327  0.509320  0.705224  1
  K  K14  1  0.735327  0.990680  0.205224  1
  K  K15  1  0.264673  0.490680  0.294776  1
  S  S16  1  0.059090  0.333730  0.854487  1
  S  S17  1  0.940910  0.833730  0.645513  1
  S  S18  1  0.940910  0.666270  0.145513  1
  S  S19  1  0.059090  0.166270  0.354487  1
  S  S20  1  0.095316  0.150090  0.942983  1
  S  S21  1  0.904684  0.650090  0.557017  1
  S  S22  1  0.904684  0.849910  0.057017  1
  S  S23  1  0.095316  0.349910  0.442983  1
  S  S24  1  0.543190  0.270551  0.821361  1
  S  S25  1  0.456810  0.770551  0.678639  1
  S  S26  1  0.456810  0.729449  0.178639  1
  S  S27  1  0.543190  0.229449  0.321361  1
  S  S28  1  0.591768  0.113862  0.935470  1
  S  S29  1  0.408232  0.613862  0.564530  1
  S  S30  1  0.408232  0.886138  0.064530  1
  S  S31  1  0.591768  0.386138  0.435470  1
  O  O32  1  0.194090  0.416027  0.884755  1
  O  O33  1  0.805910  0.916027  0.615245  1
  O  O34  1  0.805910  0.583973  0.115245  1
  O  O35  1  0.194090  0.083973  0.384755  1
  O  O36  1  0.046468  0.923262  0.621331  1
  O  O37  1  0.953532  0.423262  0.878669  1
  O  O38  1  0.953532  0.076738  0.378669  1
  O  O39  1  0.046468  0.576738  0.121331  1
  O  O40  1  0.007034  0.294401  0.739653  1
  O  O41  1  0.992966  0.794401  0.760347  1
  O  O42  1  0.992966  0.705599  0.260347  1
  O  O43  1  0.007034  0.205599  0.239653  1
  O  O44  1  0.391943  0.254549  0.751300  1
  O  O45  1  0.608057  0.754549  0.748700  1
  O  O46  1  0.608057  0.745451  0.248700  1
  O  O47  1  0.391943  0.245451  0.251300  1
  O  O48  1  0.632895  0.249884  0.756838  1
  O  O49  1  0.367105  0.749884  0.743162  1
  O  O50  1  0.367105  0.750116  0.243162  1
  O  O51  1  0.632895  0.250116  0.256838  1
  O  O52  1  0.570960  0.413073  0.875771  1
  O  O53  1  0.429040  0.913073  0.624229  1
  O  O54  1  0.429040  0.586927  0.124229  1
  O  O55  1  0.570960  0.086927  0.375771  1
