# generated using pymatgen
data_SmCo9Si2
_symmetry_space_group_name_H-M   'P 1'
_cell_length_a   6.29966535
_cell_length_b   7.54603329
_cell_length_c   7.54603329
_cell_angle_alpha   79.96580723
_cell_angle_beta   65.32846373
_cell_angle_gamma   65.32846375
_symmetry_Int_Tables_number   1
_chemical_formula_structural   SmCo9Si2
_chemical_formula_sum   'Sm2 Co18 Si4'
_cell_volume   296.21765112
_cell_formula_units_Z   2
loop_
 _symmetry_equiv_pos_site_id
 _symmetry_equiv_pos_as_xyz
  1  'x, y, z'
loop_
 _atom_site_type_symbol
 _atom_site_label
 _atom_site_symmetry_multiplicity
 _atom_site_fract_x
 _atom_site_fract_y
 _atom_site_fract_z
 _atom_site_occupancy
  Si  Si0  1  0.500000  0.500000  0.500000  1
  Si  Si1  1  0.500000  0.000000  0.500000  1
  Si  Si2  1  0.000000  0.500000  0.000000  1
  Si  Si3  1  0.500000  0.000000  0.000000  1
  Co  Co4  1  0.625000  0.750000  0.250000  1
  Co  Co5  1  0.229054  0.079881  0.332019  1
  Co  Co6  1  0.640954  0.420119  0.167981  1
  Co  Co7  1  0.061073  0.167981  0.079881  1
  Co  Co8  1  0.359046  0.332019  0.079881  1
  Co  Co9  1  0.770946  0.167981  0.420119  1
  Co  Co10  1  0.308935  0.332019  0.420119  1
  Co  Co11  1  0.938927  0.420119  0.332019  1
  Co  Co12  1  0.691065  0.667981  0.579881  1
  Co  Co13  1  0.770946  0.920119  0.667981  1
  Co  Co14  1  0.359046  0.579881  0.832019  1
  Co  Co15  1  0.938927  0.832019  0.920119  1
  Co  Co16  1  0.640954  0.667981  0.920119  1
  Co  Co17  1  0.229054  0.832019  0.579881  1
  Co  Co18  1  0.308935  0.920119  0.832019  1
  Co  Co19  1  0.061073  0.579881  0.667981  1
  Co  Co20  1  0.691065  0.079881  0.167981  1
  Co  Co21  1  0.375000  0.250000  0.750000  1
  Sm  Sm22  1  0.125000  0.750000  0.250000  1
  Sm  Sm23  1  0.875000  0.250000  0.750000  1
