# generated using pymatgen
data_MnSiO3
_symmetry_space_group_name_H-M   'P 1'
_cell_length_a   6.81712917
_cell_length_b   7.70652697
_cell_length_c   16.25833320
_cell_angle_alpha   92.16865214
_cell_angle_beta   96.39362905
_cell_angle_gamma   94.86531161
_symmetry_Int_Tables_number   1
_chemical_formula_structural   MnSiO3
_chemical_formula_sum   'Mn14 Si14 O42'
_cell_volume   844.81810805
_cell_formula_units_Z   14
loop_
 _symmetry_equiv_pos_site_id
 _symmetry_equiv_pos_as_xyz
  1  'x, y, z'
loop_
 _atom_site_type_symbol
 _atom_site_label
 _atom_site_symmetry_multiplicity
 _atom_site_fract_x
 _atom_site_fract_y
 _atom_site_fract_z
 _atom_site_occupancy
  O  O0  1  0.554892  0.736272  0.502623  1
  O  O1  1  0.445108  0.263728  0.497377  1
  O  O2  1  0.494861  0.651638  0.340768  1
  O  O3  1  0.505139  0.348362  0.659232  1
  O  O4  1  0.588007  0.439234  0.220674  1
  O  O5  1  0.411993  0.560766  0.779326  1
  O  O6  1  0.618182  0.263300  0.078471  1
  O  O7  1  0.381818  0.736700  0.921529  1
  O  O8  1  0.332066  0.901444  0.063445  1
  O  O9  1  0.667934  0.098556  0.936555  1
  O  O10  1  0.235618  0.110297  0.183030  1
  O  O11  1  0.764382  0.889703  0.816970  1
  O  O12  1  0.279019  0.217029  0.341393  1
  O  O13  1  0.720981  0.782971  0.658607  1
  O  O14  1  0.720003  0.378627  0.365268  1
  O  O15  1  0.279997  0.621373  0.634732  1
  O  O16  1  0.354174  0.478692  0.079298  1
  O  O17  1  0.645826  0.521308  0.920702  1
  O  O18  1  0.827309  0.981448  0.072392  1
  O  O19  1  0.172691  0.018552  0.927608  1
  O  O20  1  0.536940  0.924440  0.212522  1
  O  O21  1  0.463060  0.075560  0.787478  1
  O  O22  1  0.071654  0.395464  0.225100  1
  O  O23  1  0.928346  0.604536  0.774900  1
  O  O24  1  0.178170  0.484610  0.430004  1
  O  O25  1  0.821830  0.515390  0.569996  1
  O  O26  1  0.256260  0.841506  0.406101  1
  O  O27  1  0.743740  0.158494  0.593899  1
  O  O28  1  0.944451  0.830524  0.527730  1
  O  O29  1  0.055549  0.169476  0.472270  1
  O  O30  1  0.927002  0.076047  0.275143  1
  O  O31  1  0.072998  0.923953  0.724857  1
  O  O32  1  0.847749  0.235174  0.810016  1
  O  O33  1  0.152251  0.764826  0.189984  1
  O  O34  1  0.969925  0.305018  0.021365  1
  O  O35  1  0.030075  0.694982  0.978635  1
  O  O36  1  0.749996  0.612479  0.105250  1
  O  O37  1  0.250004  0.387521  0.894750  1
  O  O38  1  0.862417  0.692384  0.307304  1
  O  O39  1  0.137583  0.307616  0.692696  1
  O  O40  1  0.647299  0.982950  0.396684  1
  O  O41  1  0.352701  0.017050  0.603316  1
  Si  Si42  1  0.493285  0.818565  0.410312  1
  Si  Si43  1  0.506715  0.181435  0.589688  1
  Si  Si44  1  0.677403  0.543748  0.309694  1
  Si  Si45  1  0.322597  0.456252  0.690306  1
  Si  Si46  1  0.578077  0.457934  0.119019  1
  Si  Si47  1  0.421923  0.542066  0.880981  1
  Si  Si48  1  0.781928  0.162696  0.029423  1
  Si  Si49  1  0.218072  0.837304  0.970577  1
  Si  Si50  1  0.315610  0.915541  0.163797  1
  Si  Si51  1  0.684390  0.084459  0.836203  1
  Si  Si52  1  0.118718  0.203819  0.253960  1
  Si  Si53  1  0.881282  0.796181  0.746040  1
  Si  Si54  1  0.237841  0.286806  0.436123  1
  Si  Si55  1  0.762159  0.713194  0.563877  1
  Mn  Mn56  1  0.620746  0.145813  0.291962  1
  Mn  Mn57  1  0.379254  0.854187  0.708038  1
  Mn  Mn58  1  0.796135  0.309820  0.482292  1
  Mn  Mn59  1  0.203865  0.690180  0.517708  1
  Mn  Mn60  1  0.265511  0.239629  0.007820  1
  Mn  Mn61  1  0.734489  0.760371  0.992180  1
  Mn  Mn62  1  0.159360  0.611726  0.307480  1
  Mn  Mn63  1  0.840640  0.388274  0.692520  1
  Mn  Mn64  1  0.067046  0.530765  0.107604  1
  Mn  Mn65  1  0.932954  0.469235  0.892396  1
  Mn  Mn66  1  0.173406  0.146674  0.812436  1
  Mn  Mn67  1  0.826594  0.853326  0.187564  1
  Mn  Mn68  1  0.043894  0.067596  0.604735  1
  Mn  Mn69  1  0.956106  0.932404  0.395265  1
