# generated using pymatgen
data_YbNdSe3
_symmetry_space_group_name_H-M   'P 1'
_cell_length_a   4.11747764
_cell_length_b   7.53347751
_cell_length_c   9.28699268
_cell_angle_alpha   90.00000000
_cell_angle_beta   90.00000000
_cell_angle_gamma   105.85946120
_symmetry_Int_Tables_number   1
_chemical_formula_structural   YbNdSe3
_chemical_formula_sum   'Yb2 Nd2 Se6'
_cell_volume   277.10702288
_cell_formula_units_Z   2
loop_
 _symmetry_equiv_pos_site_id
 _symmetry_equiv_pos_as_xyz
  1  'x, y, z'
loop_
 _atom_site_type_symbol
 _atom_site_label
 _atom_site_symmetry_multiplicity
 _atom_site_fract_x
 _atom_site_fract_y
 _atom_site_fract_z
 _atom_site_occupancy
  Se  Se0  1  0.890358  0.780715  0.250000  1
  Se  Se1  1  0.109642  0.219285  0.750000  1
  Se  Se2  1  0.358519  0.717039  0.575460  1
  Se  Se3  1  0.641481  0.282961  0.424540  1
  Se  Se4  1  0.358519  0.717039  0.924540  1
  Se  Se5  1  0.641481  0.282961  0.075460  1
  Nd  Nd6  1  0.751219  0.502439  0.750000  1
  Nd  Nd7  1  0.248781  0.497561  0.250000  1
  Yb  Yb8  1  0.000000  0.000000  0.000000  1
  Yb  Yb9  1  0.000000  0.000000  0.500000  1
