# generated using pymatgen
data_Nd2Sb
_symmetry_space_group_name_H-M   'P 1'
_cell_length_a   4.58331787
_cell_length_b   4.58331787
_cell_length_c   9.45991355
_cell_angle_alpha   104.01934333
_cell_angle_beta   104.01934334
_cell_angle_gamma   89.99999994
_symmetry_Int_Tables_number   1
_chemical_formula_structural   Nd2Sb
_chemical_formula_sum   'Nd4 Sb2'
_cell_volume   186.69666696
_cell_formula_units_Z   2
loop_
 _symmetry_equiv_pos_site_id
 _symmetry_equiv_pos_as_xyz
  1  'x, y, z'
loop_
 _atom_site_type_symbol
 _atom_site_label
 _atom_site_symmetry_multiplicity
 _atom_site_fract_x
 _atom_site_fract_y
 _atom_site_fract_z
 _atom_site_occupancy
  Sb  Sb0  1  0.638377  0.638377  0.276754  1
  Sb  Sb1  1  0.361623  0.361623  0.723246  1
  Nd  Nd2  1  0.179019  0.179019  0.358038  1
  Nd  Nd3  1  0.820981  0.820981  0.641962  1
  Nd  Nd4  1  0.000000  0.500000  0.000000  1
  Nd  Nd5  1  0.500000  0.000000  0.000000  1
