# generated using pymatgen
data_Te2MoW3(SeS2)2
_symmetry_space_group_name_H-M   'P 1'
_cell_length_a   3.30088458
_cell_length_b   3.30094900
_cell_length_c   41.56450067
_cell_angle_alpha   90.01800361
_cell_angle_beta   90.00000000
_cell_angle_gamma   119.99935439
_symmetry_Int_Tables_number   1
_chemical_formula_structural   Te2MoW3(SeS2)2
_chemical_formula_sum   'Te2 Mo1 W3 Se2 S4'
_cell_volume   392.21585879
_cell_formula_units_Z   1
loop_
 _symmetry_equiv_pos_site_id
 _symmetry_equiv_pos_as_xyz
  1  'x, y, z'
loop_
 _atom_site_type_symbol
 _atom_site_label
 _atom_site_symmetry_multiplicity
 _atom_site_fract_x
 _atom_site_fract_y
 _atom_site_fract_z
 _atom_site_occupancy
  Te  Te0  1  0.666586  0.333170  0.424444  1
  Te  Te1  1  0.666786  0.333570  0.517134  1
  Mo  Mo2  1  0.666814  0.333627  0.279461  1
  W  W3  1  0.333272  0.666544  0.093700  1
  W  W4  1  0.333340  0.666679  0.470794  1
  W  W5  1  0.666591  0.333183  0.658952  1
  Se  Se6  1  0.333623  0.667248  0.319973  1
  Se  Se7  1  0.333295  0.666591  0.239013  1
  S  S8  1  0.333312  0.666625  0.695886  1
  S  S9  1  0.666513  0.333025  0.056727  1
  S  S10  1  0.666683  0.333365  0.130703  1
  S  S11  1  0.333186  0.666373  0.621962  1
