# generated using pymatgen
data_EuNbO4
_symmetry_space_group_name_H-M   'P 1'
_cell_length_a   5.20396217
_cell_length_b   5.52842235
_cell_length_c   6.69908948
_cell_angle_alpha   112.13687490
_cell_angle_beta   110.50631306
_cell_angle_gamma   95.30740242
_symmetry_Int_Tables_number   1
_chemical_formula_structural   EuNbO4
_chemical_formula_sum   'Eu2 Nb2 O8'
_cell_volume   161.51624444
_cell_formula_units_Z   2
loop_
 _symmetry_equiv_pos_site_id
 _symmetry_equiv_pos_as_xyz
  1  'x, y, z'
loop_
 _atom_site_type_symbol
 _atom_site_label
 _atom_site_symmetry_multiplicity
 _atom_site_fract_x
 _atom_site_fract_y
 _atom_site_fract_z
 _atom_site_occupancy
  O  O0  1  0.298486  0.136108  0.081210  1
  O  O1  1  0.782729  0.445116  0.081179  1
  O  O2  1  0.701536  0.863872  0.918787  1
  O  O3  1  0.217234  0.554908  0.918817  1
  O  O4  1  0.504901  0.708810  0.439938  1
  O  O5  1  0.935070  0.231167  0.439934  1
  O  O6  1  0.064927  0.768827  0.560052  1
  O  O7  1  0.495094  0.291177  0.560044  1
  Nb  Nb8  1  0.351803  0.601821  0.703728  1
  Nb  Nb9  1  0.648195  0.398173  0.296259  1
  Eu  Eu10  1  0.879820  0.129833  0.759725  1
  Eu  Eu11  1  0.120208  0.870194  0.240329  1
