# generated using pymatgen
data_Mo3W(SeS)4
_symmetry_space_group_name_H-M   'P 1'
_cell_length_a   3.25714434
_cell_length_b   3.25716242
_cell_length_c   36.88678736
_cell_angle_alpha   90.00036121
_cell_angle_beta   90.00000000
_cell_angle_gamma   119.99981637
_symmetry_Int_Tables_number   1
_chemical_formula_structural   Mo3W(SeS)4
_chemical_formula_sum   'Mo3 W1 Se4 S4'
_cell_volume   338.90555519
_cell_formula_units_Z   1
loop_
 _symmetry_equiv_pos_site_id
 _symmetry_equiv_pos_as_xyz
  1  'x, y, z'
loop_
 _atom_site_type_symbol
 _atom_site_label
 _atom_site_symmetry_multiplicity
 _atom_site_fract_x
 _atom_site_fract_y
 _atom_site_fract_z
 _atom_site_occupancy
  Mo  Mo0  1  0.333310  0.666621  0.093913  1
  Mo  Mo1  1  0.666695  0.333389  0.281760  1
  Mo  Mo2  1  0.666698  0.333397  0.657527  1
  W  W3  1  0.333305  0.666611  0.469673  1
  Se  Se4  1  0.333350  0.666702  0.327784  1
  Se  Se5  1  0.666651  0.333301  0.423390  1
  Se  Se6  1  0.666652  0.333303  0.516002  1
  Se  Se7  1  0.333349  0.666698  0.235776  1
  S  S8  1  0.333357  0.666714  0.699406  1
  S  S9  1  0.666630  0.333259  0.052056  1
  S  S10  1  0.666649  0.333297  0.135780  1
  S  S11  1  0.333353  0.666707  0.615681  1
