# generated using pymatgen
data_ZnP2NO9
_symmetry_space_group_name_H-M   'P 1'
_cell_length_a   7.34611483
_cell_length_b   8.06502182
_cell_length_c   7.07982324
_cell_angle_alpha   114.50115372
_cell_angle_beta   96.49332806
_cell_angle_gamma   88.67940490
_symmetry_Int_Tables_number   1
_chemical_formula_structural   ZnP2NO9
_chemical_formula_sum   'Zn2 P4 N2 O18'
_cell_volume   379.10407449
_cell_formula_units_Z   2
loop_
 _symmetry_equiv_pos_site_id
 _symmetry_equiv_pos_as_xyz
  1  'x, y, z'
loop_
 _atom_site_type_symbol
 _atom_site_label
 _atom_site_symmetry_multiplicity
 _atom_site_fract_x
 _atom_site_fract_y
 _atom_site_fract_z
 _atom_site_occupancy
  Zn  Zn0  1  0.760268  0.518454  0.774436  1
  Zn  Zn1  1  0.239732  0.481546  0.225564  1
  P  P2  1  0.877120  0.240914  0.950390  1
  P  P3  1  0.122880  0.759086  0.049610  1
  P  P4  1  0.586099  0.258383  0.346287  1
  P  P5  1  0.413901  0.741617  0.653713  1
  N  N6  1  0.745841  0.844959  0.445985  1
  N  N7  1  0.254159  0.155041  0.554015  1
  O  O8  1  0.774641  0.067678  0.997931  1
  O  O9  1  0.225359  0.932322  0.002069  1
  O  O10  1  0.936149  0.106509  0.747854  1
  O  O11  1  0.063851  0.893491  0.252146  1
  O  O12  1  0.733038  0.378303  0.941704  1
  O  O13  1  0.266962  0.621697  0.058296  1
  O  O14  1  0.026112  0.319833  0.134784  1
  O  O15  1  0.973888  0.680167  0.865216  1
  O  O16  1  0.492038  0.154317  0.447927  1
  O  O17  1  0.507962  0.845683  0.552073  1
  O  O18  1  0.466149  0.351808  0.234823  1
  O  O19  1  0.533851  0.648192  0.765177  1
  O  O20  1  0.669824  0.068210  0.150190  1
  O  O21  1  0.330176  0.931790  0.849810  1
  O  O22  1  0.760667  0.360645  0.472743  1
  O  O23  1  0.239333  0.639355  0.527257  1
  O  O24  1  0.820992  0.714703  0.406859  1
  O  O25  1  0.179008  0.285297  0.593141  1
