# generated using pymatgen
data_Te4Mo3WSe4
_symmetry_space_group_name_H-M   'P 1'
_cell_length_a   3.43637352
_cell_length_b   3.43637106
_cell_length_c   39.11837928
_cell_angle_alpha   89.99980512
_cell_angle_beta   90.00000000
_cell_angle_gamma   120.00002364
_symmetry_Int_Tables_number   1
_chemical_formula_structural   Te4Mo3WSe4
_chemical_formula_sum   'Te4 Mo3 W1 Se4'
_cell_volume   400.04771919
_cell_formula_units_Z   1
loop_
 _symmetry_equiv_pos_site_id
 _symmetry_equiv_pos_as_xyz
  1  'x, y, z'
loop_
 _atom_site_type_symbol
 _atom_site_label
 _atom_site_symmetry_multiplicity
 _atom_site_fract_x
 _atom_site_fract_y
 _atom_site_fract_z
 _atom_site_occupancy
  Te  Te0  1  0.333352  0.666705  0.329202  1
  Te  Te1  1  0.666637  0.333272  0.422259  1
  Te  Te2  1  0.666642  0.333283  0.517107  1
  Te  Te3  1  0.333355  0.666710  0.234319  1
  Mo  Mo4  1  0.333309  0.666618  0.093921  1
  Mo  Mo5  1  0.333310  0.666620  0.469709  1
  Mo  Mo6  1  0.666691  0.333382  0.281760  1
  W  W7  1  0.666693  0.333386  0.657547  1
  Se  Se8  1  0.333359  0.666718  0.699495  1
  Se  Se9  1  0.666647  0.333292  0.052097  1
  Se  Se10  1  0.666647  0.333293  0.135750  1
  Se  Se11  1  0.333359  0.666719  0.615582  1
