# generated using pymatgen
data_SmZrF7
_symmetry_space_group_name_H-M   'P 1'
_cell_length_a   5.84530445
_cell_length_b   9.27109840
_cell_length_c   11.53600091
_cell_angle_alpha   107.42183026
_cell_angle_beta   90.00000000
_cell_angle_gamma   90.00000000
_symmetry_Int_Tables_number   1
_chemical_formula_structural   SmZrF7
_chemical_formula_sum   'Sm4 Zr4 F28'
_cell_volume   596.48494304
_cell_formula_units_Z   4
loop_
 _symmetry_equiv_pos_site_id
 _symmetry_equiv_pos_as_xyz
  1  'x, y, z'
loop_
 _atom_site_type_symbol
 _atom_site_label
 _atom_site_symmetry_multiplicity
 _atom_site_fract_x
 _atom_site_fract_y
 _atom_site_fract_z
 _atom_site_occupancy
  F  F0  1  0.535955  0.365446  0.077243  1
  F  F1  1  0.035955  0.134554  0.422757  1
  F  F2  1  0.464045  0.634554  0.922757  1
  F  F3  1  0.964045  0.865446  0.577243  1
  F  F4  1  0.541472  0.169850  0.451965  1
  F  F5  1  0.041472  0.330150  0.048035  1
  F  F6  1  0.458528  0.830150  0.548035  1
  F  F7  1  0.958528  0.669850  0.951965  1
  F  F8  1  0.233502  0.618437  0.140550  1
  F  F9  1  0.733502  0.881563  0.359450  1
  F  F10  1  0.766498  0.381563  0.859450  1
  F  F11  1  0.266498  0.118437  0.640550  1
  F  F12  1  0.239853  0.916004  0.942651  1
  F  F13  1  0.739853  0.583996  0.557349  1
  F  F14  1  0.760147  0.083996  0.057349  1
  F  F15  1  0.260147  0.416004  0.442651  1
  F  F16  1  0.012161  0.618899  0.352498  1
  F  F17  1  0.512161  0.881101  0.147502  1
  F  F18  1  0.987839  0.381101  0.647502  1
  F  F19  1  0.487839  0.118899  0.852498  1
  F  F20  1  0.964055  0.084228  0.829706  1
  F  F21  1  0.464055  0.415772  0.670294  1
  F  F22  1  0.035945  0.915772  0.170294  1
  F  F23  1  0.535945  0.584228  0.329706  1
  F  F24  1  0.573465  0.793531  0.765474  1
  F  F25  1  0.073465  0.706469  0.734526  1
  F  F26  1  0.426535  0.206469  0.234526  1
  F  F27  1  0.926535  0.293531  0.265474  1
  Zr  Zr28  1  0.255221  0.270761  0.544752  1
  Zr  Zr29  1  0.755221  0.229239  0.955248  1
  Zr  Zr30  1  0.744779  0.729239  0.455248  1
  Zr  Zr31  1  0.244779  0.770761  0.044752  1
  Sm  Sm32  1  0.256702  0.919585  0.733439  1
  Sm  Sm33  1  0.756702  0.580415  0.766561  1
  Sm  Sm34  1  0.743298  0.080415  0.266561  1
  Sm  Sm35  1  0.243298  0.419585  0.233439  1
