# generated using pymatgen
data_TiAs2O7
_symmetry_space_group_name_H-M   'P 1'
_cell_length_a   5.23651163
_cell_length_b   8.44762836
_cell_length_c   13.19610188
_cell_angle_alpha   90.00000000
_cell_angle_beta   90.00000000
_cell_angle_gamma   91.22494320
_symmetry_Int_Tables_number   1
_chemical_formula_structural   TiAs2O7
_chemical_formula_sum   'Ti4 As8 O28'
_cell_volume   583.61073475
_cell_formula_units_Z   4
loop_
 _symmetry_equiv_pos_site_id
 _symmetry_equiv_pos_as_xyz
  1  'x, y, z'
loop_
 _atom_site_type_symbol
 _atom_site_label
 _atom_site_symmetry_multiplicity
 _atom_site_fract_x
 _atom_site_fract_y
 _atom_site_fract_z
 _atom_site_occupancy
  O  O0  1  0.312890  0.129399  0.563882  1
  O  O1  1  0.187110  0.370601  0.063882  1
  O  O2  1  0.687110  0.870601  0.436118  1
  O  O3  1  0.812890  0.629399  0.936118  1
  O  O4  1  0.596942  0.239193  0.965743  1
  O  O5  1  0.903058  0.260807  0.465743  1
  O  O6  1  0.403058  0.760807  0.034257  1
  O  O7  1  0.096942  0.739193  0.534257  1
  O  O8  1  0.978287  0.076016  0.727619  1
  O  O9  1  0.521713  0.423984  0.227619  1
  O  O10  1  0.021713  0.923984  0.272381  1
  O  O11  1  0.478287  0.576016  0.772381  1
  O  O12  1  0.995256  0.674257  0.739976  1
  O  O13  1  0.504744  0.825743  0.239976  1
  O  O14  1  0.004744  0.325743  0.260024  1
  O  O15  1  0.495256  0.174257  0.760024  1
  O  O16  1  0.393036  0.872409  0.680352  1
  O  O17  1  0.106964  0.627591  0.180352  1
  O  O18  1  0.606964  0.127591  0.319648  1
  O  O19  1  0.893036  0.372409  0.819648  1
  O  O20  1  0.164893  0.438425  0.615413  1
  O  O21  1  0.335107  0.061575  0.115413  1
  O  O22  1  0.835107  0.561575  0.384587  1
  O  O23  1  0.664893  0.938425  0.884587  1
  O  O24  1  0.594303  0.625397  0.571505  1
  O  O25  1  0.905697  0.874603  0.071505  1
  O  O26  1  0.405697  0.374603  0.428495  1
  O  O27  1  0.094303  0.125397  0.928495  1
  Ti  Ti28  1  0.289846  0.655324  0.651905  1
  Ti  Ti29  1  0.210154  0.844676  0.151905  1
  Ti  Ti30  1  0.710154  0.344676  0.348095  1
  Ti  Ti31  1  0.789846  0.155324  0.848095  1
  As  As32  1  0.287527  0.060105  0.691301  1
  As  As33  1  0.212473  0.439895  0.191301  1
  As  As34  1  0.712473  0.939895  0.308699  1
  As  As35  1  0.787527  0.560105  0.808699  1
  As  As36  1  0.191780  0.309979  0.516794  1
  As  As37  1  0.308220  0.190021  0.016794  1
  As  As38  1  0.808220  0.690021  0.483206  1
  As  As39  1  0.691780  0.809979  0.983206  1
