# generated using pymatgen
data_CaAl2SiO6
_symmetry_space_group_name_H-M   'P 1'
_cell_length_a   5.33711908
_cell_length_b   6.52999975
_cell_length_c   6.52999975
_cell_angle_alpha   83.79499711
_cell_angle_beta   78.09895010
_cell_angle_gamma   78.09895010
_symmetry_Int_Tables_number   1
_chemical_formula_structural   CaAl2SiO6
_chemical_formula_sum   'Ca2 Al4 Si2 O12'
_cell_volume   217.38975778
_cell_formula_units_Z   2
loop_
 _symmetry_equiv_pos_site_id
 _symmetry_equiv_pos_as_xyz
  1  'x, y, z'
loop_
 _atom_site_type_symbol
 _atom_site_label
 _atom_site_symmetry_multiplicity
 _atom_site_fract_x
 _atom_site_fract_y
 _atom_site_fract_z
 _atom_site_occupancy
  Ca  Ca0  1  0.250000  0.311277  0.688723  1
  Ca  Ca1  1  0.750000  0.689120  0.310880  1
  Al  Al2  1  0.211428  0.813944  0.616107  1
  Al  Al3  1  0.288572  0.383893  0.186056  1
  Al  Al4  1  0.250000  0.909280  0.090720  1
  Al  Al5  1  0.750000  0.091094  0.908906  1
  Si  Si6  1  0.783893  0.194884  0.386144  1
  Si  Si7  1  0.716107  0.613856  0.805116  1
  O  O8  1  0.112444  0.986874  0.822003  1
  O  O9  1  0.321364  0.898353  0.357860  1
  O  O10  1  0.973570  0.657560  0.629549  1
  O  O11  1  0.387556  0.177997  0.013126  1
  O  O12  1  0.178636  0.642140  0.101647  1
  O  O13  1  0.526430  0.370451  0.342440  1
  O  O14  1  0.868457  0.030929  0.195368  1
  O  O15  1  0.696195  0.097948  0.625356  1
  O  O16  1  0.013628  0.328943  0.377820  1
  O  O17  1  0.631543  0.804632  0.969071  1
  O  O18  1  0.803805  0.374644  0.902052  1
  O  O19  1  0.486372  0.622180  0.671057  1
