# generated using pymatgen
data_Te3MoWSe
_symmetry_space_group_name_H-M   'P 1'
_cell_length_a   3.50065492
_cell_length_b   3.50066484
_cell_length_c   39.61217536
_cell_angle_alpha   89.99999097
_cell_angle_beta   90.00000000
_cell_angle_gamma   119.99990622
_symmetry_Int_Tables_number   1
_chemical_formula_structural   Te3MoWSe
_chemical_formula_sum   'Te6 Mo2 W2 Se2'
_cell_volume   420.39696315
_cell_formula_units_Z   2
loop_
 _symmetry_equiv_pos_site_id
 _symmetry_equiv_pos_as_xyz
  1  'x, y, z'
loop_
 _atom_site_type_symbol
 _atom_site_label
 _atom_site_symmetry_multiplicity
 _atom_site_fract_x
 _atom_site_fract_y
 _atom_site_fract_z
 _atom_site_occupancy
  Te  Te0  1  0.333354  0.666709  0.328306  1
  Te  Te1  1  0.333353  0.666707  0.704034  1
  Te  Te2  1  0.666632  0.333264  0.047699  1
  Te  Te3  1  0.666647  0.333294  0.140144  1
  Te  Te4  1  0.333353  0.666708  0.235299  1
  Te  Te5  1  0.333368  0.666736  0.611014  1
  Mo  Mo6  1  0.333307  0.666613  0.093903  1
  Mo  Mo7  1  0.333312  0.666624  0.469666  1
  W  W8  1  0.666689  0.333377  0.281821  1
  W  W9  1  0.666693  0.333386  0.657531  1
  Se  Se10  1  0.666647  0.333293  0.428777  1
  Se  Se11  1  0.666645  0.333289  0.510553  1
