# generated using pymatgen
data_Te4Mo(WSe)2
_symmetry_space_group_name_H-M   'P 1'
_cell_length_a   3.48092924
_cell_length_b   3.48091286
_cell_length_c   32.03509469
_cell_angle_alpha   90.00000000
_cell_angle_beta   90.00000000
_cell_angle_gamma   120.00015563
_symmetry_Int_Tables_number   1
_chemical_formula_structural   Te4Mo(WSe)2
_chemical_formula_sum   'Te4 Mo1 W2 Se2'
_cell_volume   336.15866436
_cell_formula_units_Z   1
loop_
 _symmetry_equiv_pos_site_id
 _symmetry_equiv_pos_as_xyz
  1  'x, y, z'
loop_
 _atom_site_type_symbol
 _atom_site_label
 _atom_site_symmetry_multiplicity
 _atom_site_fract_x
 _atom_site_fract_y
 _atom_site_fract_z
 _atom_site_occupancy
  Te  Te0  1  0.666642  0.333283  0.057994  1
  Te  Te1  1  0.666646  0.333291  0.520638  1
  Te  Te2  1  0.666646  0.333291  0.173327  1
  Te  Te3  1  0.666642  0.333283  0.635970  1
  Mo  Mo4  1  0.666690  0.333379  0.346982  1
  W  W5  1  0.333313  0.666625  0.115651  1
  W  W6  1  0.333313  0.666625  0.578314  1
  Se  Se7  1  0.333355  0.666711  0.397691  1
  Se  Se8  1  0.333355  0.666711  0.296274  1
