# generated using pymatgen
data_CsH3
_symmetry_space_group_name_H-M   'P 1'
_cell_length_a   6.31870284
_cell_length_b   6.31870321
_cell_length_c   5.34828640
_cell_angle_alpha   53.79172512
_cell_angle_beta   53.79172971
_cell_angle_gamma   60.00000153
_symmetry_Int_Tables_number   1
_chemical_formula_structural   CsH3
_chemical_formula_sum   'Cs2 H6'
_cell_volume   135.22853837
_cell_formula_units_Z   2
loop_
 _symmetry_equiv_pos_site_id
 _symmetry_equiv_pos_as_xyz
  1  'x, y, z'
loop_
 _atom_site_type_symbol
 _atom_site_label
 _atom_site_symmetry_multiplicity
 _atom_site_fract_x
 _atom_site_fract_y
 _atom_site_fract_z
 _atom_site_occupancy
  Cs  Cs0  1  0.500000  0.500000  0.500000  1
  Cs  Cs1  1  0.000000  -0.000000  -0.000000  1
  H  H2  1  0.862776  0.750000  0.750000  1
  H  H3  1  0.637224  0.862776  0.750000  1
  H  H4  1  0.250000  0.362776  0.250000  1
  H  H5  1  0.362776  0.137224  0.250000  1
  H  H6  1  0.137224  0.250000  0.250000  1
  H  H7  1  0.750000  0.637224  0.750000  1
