# generated using pymatgen
data_Nb3S4
_symmetry_space_group_name_H-M   'P 1'
_cell_length_a   9.66783137
_cell_length_b   9.66783137
_cell_length_c   3.40854550
_cell_angle_alpha   90.00000000
_cell_angle_beta   90.00000000
_cell_angle_gamma   119.99999998
_symmetry_Int_Tables_number   1
_chemical_formula_structural   Nb3S4
_chemical_formula_sum   'Nb6 S8'
_cell_volume   275.90391350
_cell_formula_units_Z   2
loop_
 _symmetry_equiv_pos_site_id
 _symmetry_equiv_pos_as_xyz
  1  'x, y, z'
loop_
 _atom_site_type_symbol
 _atom_site_label
 _atom_site_symmetry_multiplicity
 _atom_site_fract_x
 _atom_site_fract_y
 _atom_site_fract_z
 _atom_site_occupancy
  S  S0  1  0.653733  0.710740  0.750000  1
  S  S1  1  0.942993  0.653733  0.250000  1
  S  S2  1  0.710740  0.057007  0.250000  1
  S  S3  1  0.289260  0.942993  0.750000  1
  S  S4  1  0.057007  0.346267  0.750000  1
  S  S5  1  0.346267  0.289260  0.250000  1
  S  S6  1  0.333333  0.666667  0.250000  1
  S  S7  1  0.666667  0.333333  0.750000  1
  Nb  Nb8  1  0.513885  0.885059  0.750000  1
  Nb  Nb9  1  0.628826  0.513885  0.250000  1
  Nb  Nb10  1  0.885059  0.371174  0.250000  1
  Nb  Nb11  1  0.114941  0.628826  0.750000  1
  Nb  Nb12  1  0.371174  0.486115  0.750000  1
  Nb  Nb13  1  0.486115  0.114941  0.250000  1
