# generated using pymatgen
data_Na5GeAs3
_symmetry_space_group_name_H-M   'P 1'
_cell_length_a   7.62077642
_cell_length_b   8.40329800
_cell_length_c   13.56794226
_cell_angle_alpha   90.02374228
_cell_angle_beta   90.00000000
_cell_angle_gamma   90.00000000
_symmetry_Int_Tables_number   1
_chemical_formula_structural   Na5GeAs3
_chemical_formula_sum   'Na20 Ge4 As12'
_cell_volume   868.88626973
_cell_formula_units_Z   4
loop_
 _symmetry_equiv_pos_site_id
 _symmetry_equiv_pos_as_xyz
  1  'x, y, z'
loop_
 _atom_site_type_symbol
 _atom_site_label
 _atom_site_symmetry_multiplicity
 _atom_site_fract_x
 _atom_site_fract_y
 _atom_site_fract_z
 _atom_site_occupancy
  Na  Na0  1  0.505767  0.675266  0.757369  1
  Na  Na1  1  0.005767  0.824734  0.742631  1
  Na  Na2  1  0.494233  0.324734  0.242631  1
  Na  Na3  1  0.994233  0.175266  0.257369  1
  Na  Na4  1  0.963108  0.170369  0.585889  1
  Na  Na5  1  0.463108  0.329631  0.914111  1
  Na  Na6  1  0.036892  0.829631  0.414111  1
  Na  Na7  1  0.536892  0.670369  0.085889  1
  Na  Na8  1  0.480051  0.326757  0.586103  1
  Na  Na9  1  0.980051  0.173243  0.913897  1
  Na  Na10  1  0.519949  0.673243  0.413897  1
  Na  Na11  1  0.019949  0.826757  0.086103  1
  Na  Na12  1  0.337561  0.923436  0.918740  1
  Na  Na13  1  0.837561  0.576564  0.581260  1
  Na  Na14  1  0.662439  0.076564  0.081260  1
  Na  Na15  1  0.162439  0.423436  0.418740  1
  Na  Na16  1  0.145636  0.427645  0.742424  1
  Na  Na17  1  0.645636  0.072355  0.757576  1
  Na  Na18  1  0.854364  0.572355  0.257576  1
  Na  Na19  1  0.354364  0.927645  0.242424  1
  Ge  Ge20  1  0.143220  0.430200  0.087770  1
  Ge  Ge21  1  0.643220  0.069800  0.412230  1
  Ge  Ge22  1  0.856780  0.569800  0.912230  1
  Ge  Ge23  1  0.356780  0.930200  0.587770  1
  As  As24  1  0.234772  0.654899  0.582295  1
  As  As25  1  0.734772  0.845101  0.917705  1
  As  As26  1  0.765228  0.345101  0.417705  1
  As  As27  1  0.265228  0.154899  0.082295  1
  As  As28  1  0.259742  0.091376  0.730369  1
  As  As29  1  0.759742  0.408624  0.769631  1
  As  As30  1  0.740258  0.908624  0.269631  1
  As  As31  1  0.240258  0.591376  0.230369  1
  As  As32  1  0.190658  0.592193  0.933039  1
  As  As33  1  0.690658  0.907807  0.566961  1
  As  As34  1  0.809342  0.407807  0.066961  1
  As  As35  1  0.309342  0.092193  0.433039  1
