# generated using pymatgen
data_Sc2Cu2Ge4O13
_symmetry_space_group_name_H-M   'P 1'
_cell_length_a   4.98012322
_cell_length_b   8.89061104
_cell_length_c   12.45106601
_cell_angle_alpha   90.00000000
_cell_angle_beta   95.96918574
_cell_angle_gamma   90.00000000
_symmetry_Int_Tables_number   1
_chemical_formula_structural   Sc2Cu2Ge4O13
_chemical_formula_sum   'Sc4 Cu4 Ge8 O26'
_cell_volume   548.29851434
_cell_formula_units_Z   2
loop_
 _symmetry_equiv_pos_site_id
 _symmetry_equiv_pos_as_xyz
  1  'x, y, z'
loop_
 _atom_site_type_symbol
 _atom_site_label
 _atom_site_symmetry_multiplicity
 _atom_site_fract_x
 _atom_site_fract_y
 _atom_site_fract_z
 _atom_site_occupancy
  Sc  Sc0  1  0.047175  0.062003  0.373189  1
  Sc  Sc1  1  0.952825  0.937997  0.626811  1
  Sc  Sc2  1  0.047175  0.437997  0.373189  1
  Sc  Sc3  1  0.952825  0.562003  0.626811  1
  Cu  Cu4  1  0.951690  0.003072  0.872659  1
  Cu  Cu5  1  0.951690  0.496928  0.872659  1
  Cu  Cu6  1  0.048310  0.503072  0.127341  1
  Cu  Cu7  1  0.048310  0.996928  0.127341  1
  Ge  Ge8  1  0.506525  0.750000  0.767074  1
  Ge  Ge9  1  0.397529  0.750000  0.484888  1
  Ge  Ge10  1  0.617852  0.750000  0.006880  1
  Ge  Ge11  1  0.326244  0.250000  0.751206  1
  Ge  Ge12  1  0.602471  0.250000  0.515112  1
  Ge  Ge13  1  0.673756  0.750000  0.248794  1
  Ge  Ge14  1  0.382148  0.250000  0.993120  1
  Ge  Ge15  1  0.493475  0.250000  0.232926  1
  O  O16  1  0.369583  0.750000  0.894273  1
  O  O17  1  0.289515  0.412474  0.242792  1
  O  O18  1  0.630417  0.250000  0.105727  1
  O  O19  1  0.180086  0.415592  0.996062  1
  O  O20  1  0.819914  0.584408  0.003938  1
  O  O21  1  0.207142  0.583119  0.494912  1
  O  O22  1  0.290266  0.250000  0.433697  1
  O  O23  1  0.449598  0.750000  0.346526  1
  O  O24  1  0.875074  0.914975  0.253406  1
  O  O25  1  0.709734  0.750000  0.566303  1
  O  O26  1  0.875074  0.585025  0.253406  1
  O  O27  1  0.550402  0.250000  0.653474  1
  O  O28  1  0.124926  0.085025  0.746594  1
  O  O29  1  0.710485  0.912474  0.757208  1
  O  O30  1  0.792858  0.416881  0.505088  1
  O  O31  1  0.792858  0.083119  0.505088  1
  O  O32  1  0.180086  0.084408  0.996062  1
  O  O33  1  0.208754  0.750000  0.676757  1
  O  O34  1  0.289515  0.087526  0.242792  1
  O  O35  1  0.819914  0.915592  0.003938  1
  O  O36  1  0.548695  0.250000  0.873455  1
  O  O37  1  0.791246  0.250000  0.323243  1
  O  O38  1  0.124926  0.414975  0.746594  1
  O  O39  1  0.451305  0.750000  0.126545  1
  O  O40  1  0.710485  0.587526  0.757208  1
  O  O41  1  0.207142  0.916881  0.494912  1
