# generated using pymatgen
data_ErCd2
_symmetry_space_group_name_H-M   'P 1'
_cell_length_a   6.05967535
_cell_length_b   4.96655227
_cell_length_c   3.44874434
_cell_angle_alpha   90.00000113
_cell_angle_beta   54.80424554
_cell_angle_gamma   114.19249317
_symmetry_Int_Tables_number   1
_chemical_formula_structural   ErCd2
_chemical_formula_sum   'Er1 Cd2'
_cell_volume   73.38175839
_cell_formula_units_Z   1
loop_
 _symmetry_equiv_pos_site_id
 _symmetry_equiv_pos_as_xyz
  1  'x, y, z'
loop_
 _atom_site_type_symbol
 _atom_site_label
 _atom_site_symmetry_multiplicity
 _atom_site_fract_x
 _atom_site_fract_y
 _atom_site_fract_z
 _atom_site_occupancy
  Er  Er0  1  0.000000  0.000000  0.000000  1
  Cd  Cd1  1  0.666671  0.333336  0.825386  1
  Cd  Cd2  1  0.333329  0.666664  0.174614  1
