# generated using pymatgen
data_Sn4SF6
_symmetry_space_group_name_H-M   'P 1'
_cell_length_a   8.68171741
_cell_length_b   7.65698305
_cell_length_c   8.89549948
_cell_angle_alpha   90.00000343
_cell_angle_beta   90.00000852
_cell_angle_gamma   124.83776250
_symmetry_Int_Tables_number   1
_chemical_formula_structural   Sn4SF6
_chemical_formula_sum   'Sn8 S2 F12'
_cell_volume   485.35182878
_cell_formula_units_Z   2
loop_
 _symmetry_equiv_pos_site_id
 _symmetry_equiv_pos_as_xyz
  1  'x, y, z'
loop_
 _atom_site_type_symbol
 _atom_site_label
 _atom_site_symmetry_multiplicity
 _atom_site_fract_x
 _atom_site_fract_y
 _atom_site_fract_z
 _atom_site_occupancy
  Sn  Sn0  1  0.318863  0.640647  0.852960  1
  Sn  Sn1  1  0.681137  0.359353  0.352959  1
  Sn  Sn2  1  0.642941  0.830326  0.332090  1
  Sn  Sn3  1  0.192675  0.831034  0.329718  1
  Sn  Sn4  1  0.149956  0.301644  0.440999  1
  Sn  Sn5  1  0.357058  0.169674  0.832089  1
  Sn  Sn6  1  0.807325  0.168966  0.829717  1
  Sn  Sn7  1  0.850044  0.698355  0.940999  1
  S  S8  1  0.337223  0.673823  0.562009  1
  S  S9  1  0.662777  0.326177  0.062008  1
  F  F10  1  0.733227  0.814900  0.103210  1
  F  F11  1  0.088276  0.812271  0.099620  1
  F  F12  1  0.145664  0.298559  0.887434  1
  F  F13  1  0.266773  0.185100  0.603210  1
  F  F14  1  0.911724  0.187730  0.599619  1
  F  F15  1  0.854336  0.701440  0.387436  1
  F  F16  1  0.492289  0.486270  0.325304  1
  F  F17  1  0.387323  0.768198  0.216128  1
  F  F18  1  0.998103  0.486919  0.321429  1
  F  F19  1  0.507711  0.513730  0.825305  1
  F  F20  1  0.612677  0.231803  0.716127  1
  F  F21  1  0.001898  0.513081  0.821429  1
