# generated using pymatgen
data_IrF4
_symmetry_space_group_name_H-M   'P 1'
_cell_length_a   5.59781562
_cell_length_b   5.59781562
_cell_length_c   5.70427767
_cell_angle_alpha   106.13777303
_cell_angle_beta   106.13777300
_cell_angle_gamma   115.69189996
_symmetry_Int_Tables_number   1
_chemical_formula_structural   IrF4
_chemical_formula_sum   'Ir2 F8'
_cell_volume   137.36244858
_cell_formula_units_Z   2
loop_
 _symmetry_equiv_pos_site_id
 _symmetry_equiv_pos_as_xyz
  1  'x, y, z'
loop_
 _atom_site_type_symbol
 _atom_site_label
 _atom_site_symmetry_multiplicity
 _atom_site_fract_x
 _atom_site_fract_y
 _atom_site_fract_z
 _atom_site_occupancy
  F  F0  1  0.984355  0.752916  0.178129  1
  F  F1  1  0.574787  0.806226  0.821871  1
  F  F2  1  0.019062  0.287404  0.318726  1
  F  F3  1  0.968678  0.700336  0.681274  1
  F  F4  1  0.037404  0.269062  0.818726  1
  F  F5  1  0.450336  0.218678  0.181274  1
  F  F6  1  0.556226  0.824787  0.321871  1
  F  F7  1  0.502916  0.234355  0.678129  1
  Ir  Ir8  1  0.743118  0.243118  0.500000  1
  Ir  Ir9  1  0.993118  0.993118  0.000000  1
