# generated using pymatgen
data_Te2MoW3(Se2S)2
_symmetry_space_group_name_H-M   'P 1'
_cell_length_a   3.34483074
_cell_length_b   3.34484498
_cell_length_c   38.12653789
_cell_angle_alpha   89.99969947
_cell_angle_beta   90.00000000
_cell_angle_gamma   119.99985913
_symmetry_Int_Tables_number   1
_chemical_formula_structural   Te2MoW3(Se2S)2
_chemical_formula_sum   'Te2 Mo1 W3 Se4 S2'
_cell_volume   369.41009551
_cell_formula_units_Z   1
loop_
 _symmetry_equiv_pos_site_id
 _symmetry_equiv_pos_as_xyz
  1  'x, y, z'
loop_
 _atom_site_type_symbol
 _atom_site_label
 _atom_site_symmetry_multiplicity
 _atom_site_fract_x
 _atom_site_fract_y
 _atom_site_fract_z
 _atom_site_occupancy
  Te  Te0  1  0.333350  0.666701  0.331754  1
  Te  Te1  1  0.333353  0.666706  0.231721  1
  Mo  Mo2  1  0.333291  0.666583  0.093924  1
  W  W3  1  0.333313  0.666626  0.469725  1
  W  W4  1  0.666687  0.333375  0.281779  1
  W  W5  1  0.666692  0.333385  0.657541  1
  Se  Se6  1  0.333357  0.666715  0.701486  1
  Se  Se7  1  0.666650  0.333300  0.425748  1
  Se  Se8  1  0.666644  0.333287  0.513646  1
  Se  Se9  1  0.333363  0.666727  0.613587  1
  S  S10  1  0.666651  0.333301  0.054147  1
  S  S11  1  0.666647  0.333294  0.133689  1
