# generated using pymatgen
data_UMnSe3
_symmetry_space_group_name_H-M   'P 1'
_cell_length_a   3.90688413
_cell_length_b   5.81540080
_cell_length_c   9.16261610
_cell_angle_alpha   90.00000000
_cell_angle_beta   90.00000000
_cell_angle_gamma   109.62778772
_symmetry_Int_Tables_number   1
_chemical_formula_structural   UMnSe3
_chemical_formula_sum   'U2 Mn2 Se6'
_cell_volume   196.07941587
_cell_formula_units_Z   2
loop_
 _symmetry_equiv_pos_site_id
 _symmetry_equiv_pos_as_xyz
  1  'x, y, z'
loop_
 _atom_site_type_symbol
 _atom_site_label
 _atom_site_symmetry_multiplicity
 _atom_site_fract_x
 _atom_site_fract_y
 _atom_site_fract_z
 _atom_site_occupancy
  Mn  Mn0  1  0.000000  0.000000  0.500000  1
  Mn  Mn1  1  0.000000  0.000000  0.000000  1
  Se  Se2  1  0.077570  0.155140  0.750000  1
  Se  Se3  1  0.922430  0.844860  0.250000  1
  Se  Se4  1  0.364008  0.728017  0.962172  1
  Se  Se5  1  0.635992  0.271983  0.037828  1
  Se  Se6  1  0.635992  0.271983  0.462172  1
  Se  Se7  1  0.364008  0.728017  0.537828  1
  U  U8  1  0.219498  0.438996  0.250000  1
  U  U9  1  0.780502  0.561004  0.750000  1
