# generated using pymatgen
data_Ag2SeO4
_symmetry_space_group_name_H-M   'P 1'
_cell_length_a   6.45798648
_cell_length_b   6.45798649
_cell_length_c   7.07717796
_cell_angle_alpha   101.36577472
_cell_angle_beta   101.36577464
_cell_angle_gamma   124.61547521
_symmetry_Int_Tables_number   1
_chemical_formula_structural   Ag2SeO4
_chemical_formula_sum   'Ag4 Se2 O8'
_cell_volume   219.98711819
_cell_formula_units_Z   2
loop_
 _symmetry_equiv_pos_site_id
 _symmetry_equiv_pos_as_xyz
  1  'x, y, z'
loop_
 _atom_site_type_symbol
 _atom_site_label
 _atom_site_symmetry_multiplicity
 _atom_site_fract_x
 _atom_site_fract_y
 _atom_site_fract_z
 _atom_site_occupancy
  O  O0  1  0.869256  0.296456  0.099580  1
  O  O1  1  0.196876  0.269677  0.400420  1
  O  O2  1  0.703544  0.130744  0.400420  1
  O  O3  1  0.730323  0.803124  0.099580  1
  O  O4  1  0.130744  0.703544  0.900420  1
  O  O5  1  0.803124  0.730323  0.599580  1
  O  O6  1  0.269677  0.196876  0.900420  1
  O  O7  1  0.296456  0.869256  0.599580  1
  Se  Se8  1  0.875000  0.125000  0.250000  1
  Se  Se9  1  0.125000  0.875000  0.750000  1
  Ag  Ag10  1  0.176608  0.823392  0.250000  1
  Ag  Ag11  1  0.573392  0.426608  0.250000  1
  Ag  Ag12  1  0.823392  0.176608  0.750000  1
  Ag  Ag13  1  0.426608  0.573392  0.750000  1
