# generated using pymatgen
data_NdBO3
_symmetry_space_group_name_H-M   'P 1'
_cell_length_a   6.39361048
_cell_length_b   6.60351908
_cell_length_c   6.59700326
_cell_angle_alpha   93.56040890
_cell_angle_beta   106.82439447
_cell_angle_gamma   105.65309556
_symmetry_Int_Tables_number   1
_chemical_formula_structural   NdBO3
_chemical_formula_sum   'Nd4 B4 O12'
_cell_volume   253.73092549
_cell_formula_units_Z   4
loop_
 _symmetry_equiv_pos_site_id
 _symmetry_equiv_pos_as_xyz
  1  'x, y, z'
loop_
 _atom_site_type_symbol
 _atom_site_label
 _atom_site_symmetry_multiplicity
 _atom_site_fract_x
 _atom_site_fract_y
 _atom_site_fract_z
 _atom_site_occupancy
  B  B0  1  0.519285  0.733590  0.728424  1
  B  B1  1  0.480715  0.266410  0.271576  1
  B  B2  1  0.016196  0.778999  0.241166  1
  B  B3  1  0.983804  0.221001  0.758834  1
  O  O4  1  0.425535  0.249476  0.455729  1
  O  O5  1  0.574465  0.750524  0.544271  1
  O  O6  1  0.850405  0.286870  0.865749  1
  O  O7  1  0.149595  0.713130  0.134250  1
  O  O8  1  0.616942  0.164161  0.202280  1
  O  O9  1  0.383058  0.835839  0.797720  1
  O  O10  1  0.954731  0.961636  0.223514  1
  O  O11  1  0.045269  0.038364  0.776486  1
  O  O12  1  0.375276  0.386612  0.128931  1
  O  O13  1  0.624724  0.613388  0.871069  1
  O  O14  1  0.089342  0.366425  0.644717  1
  O  O15  1  0.910658  0.633575  0.355283  1
  Nd  Nd16  1  0.557939  0.778844  0.190140  1
  Nd  Nd17  1  0.442061  0.221156  0.809860  1
  Nd  Nd18  1  0.953041  0.668506  0.735894  1
  Nd  Nd19  1  0.046959  0.331494  0.264106  1
