# generated using pymatgen
data_BaPr2FeS5
_symmetry_space_group_name_H-M   'P 1'
_cell_length_a   7.94573316
_cell_length_b   7.94573316
_cell_length_c   8.79457199
_cell_angle_alpha   116.85542388
_cell_angle_beta   116.85542390
_cell_angle_gamma   90.00000000
_symmetry_Int_Tables_number   1
_chemical_formula_structural   BaPr2FeS5
_chemical_formula_sum   'Ba2 Pr4 Fe2 S10'
_cell_volume   427.16176166
_cell_formula_units_Z   2
loop_
 _symmetry_equiv_pos_site_id
 _symmetry_equiv_pos_as_xyz
  1  'x, y, z'
loop_
 _atom_site_type_symbol
 _atom_site_label
 _atom_site_symmetry_multiplicity
 _atom_site_fract_x
 _atom_site_fract_y
 _atom_site_fract_z
 _atom_site_occupancy
  S  S0  1  0.488536  0.988536  0.272492  1
  S  S1  1  0.216044  0.716044  0.727508  1
  S  S2  1  0.511464  0.011464  0.727508  1
  S  S3  1  0.716044  0.511464  0.727508  1
  S  S4  1  0.011464  0.216044  0.727508  1
  S  S5  1  0.283956  0.488536  0.272492  1
  S  S6  1  0.988536  0.783956  0.272492  1
  S  S7  1  0.783956  0.283956  0.272492  1
  S  S8  1  0.000000  0.000000  0.000000  1
  S  S9  1  0.500000  0.500000  0.000000  1
  Fe  Fe10  1  0.750000  0.250000  0.500000  1
  Fe  Fe11  1  0.250000  0.750000  0.500000  1
  Ba  Ba12  1  0.750000  0.750000  0.500000  1
  Ba  Ba13  1  0.250000  0.250000  0.500000  1
  Pr  Pr14  1  0.661923  0.838077  0.000000  1
  Pr  Pr15  1  0.161923  0.661923  0.000000  1
  Pr  Pr16  1  0.838077  0.338077  0.000000  1
  Pr  Pr17  1  0.338077  0.161923  0.000000  1
