# generated using pymatgen
data_MoW(SeS)2
_symmetry_space_group_name_H-M   'P 1'
_cell_length_a   3.25341310
_cell_length_b   3.25341912
_cell_length_c   22.99897468
_cell_angle_alpha   89.99918054
_cell_angle_beta   90.00000000
_cell_angle_gamma   119.99993883
_symmetry_Int_Tables_number   1
_chemical_formula_structural   MoW(SeS)2
_chemical_formula_sum   'Mo1 W1 Se2 S2'
_cell_volume   210.82329638
_cell_formula_units_Z   1
loop_
 _symmetry_equiv_pos_site_id
 _symmetry_equiv_pos_as_xyz
  1  'x, y, z'
loop_
 _atom_site_type_symbol
 _atom_site_label
 _atom_site_symmetry_multiplicity
 _atom_site_fract_x
 _atom_site_fract_y
 _atom_site_fract_z
 _atom_site_occupancy
  Mo  Mo0  1  0.333308  0.666617  0.150421  1
  W  W1  1  0.666688  0.333376  0.451443  1
  Se  Se2  1  0.666647  0.333293  0.076550  1
  Se  Se3  1  0.666646  0.333291  0.224318  1
  S  S4  1  0.333360  0.666721  0.518831  1
  S  S5  1  0.333350  0.666702  0.384041  1
