# generated using pymatgen
data_Ba(HoTe2)2
_symmetry_space_group_name_H-M   'P 1'
_cell_length_a   4.47581063
_cell_length_b   13.79725927
_cell_length_c   16.26826192
_cell_angle_alpha   90.00000000
_cell_angle_beta   90.00000000
_cell_angle_gamma   90.00000000
_symmetry_Int_Tables_number   1
_chemical_formula_structural   Ba(HoTe2)2
_chemical_formula_sum   'Ba4 Ho8 Te16'
_cell_volume   1004.62894036
_cell_formula_units_Z   4
loop_
 _symmetry_equiv_pos_site_id
 _symmetry_equiv_pos_as_xyz
  1  'x, y, z'
loop_
 _atom_site_type_symbol
 _atom_site_label
 _atom_site_symmetry_multiplicity
 _atom_site_fract_x
 _atom_site_fract_y
 _atom_site_fract_z
 _atom_site_occupancy
  Te  Te0  1  0.250000  0.972509  0.715807  1
  Te  Te1  1  0.750000  0.027491  0.284193  1
  Te  Te2  1  0.250000  0.472509  0.784193  1
  Te  Te3  1  0.750000  0.527491  0.215807  1
  Te  Te4  1  0.250000  0.873220  0.471639  1
  Te  Te5  1  0.750000  0.126780  0.528361  1
  Te  Te6  1  0.250000  0.373220  0.028361  1
  Te  Te7  1  0.750000  0.626780  0.971639  1
  Te  Te8  1  0.250000  0.795319  0.159682  1
  Te  Te9  1  0.750000  0.204681  0.840318  1
  Te  Te10  1  0.250000  0.295319  0.340318  1
  Te  Te11  1  0.750000  0.704681  0.659682  1
  Te  Te12  1  0.750000  0.910184  0.924056  1
  Te  Te13  1  0.250000  0.089816  0.075944  1
  Te  Te14  1  0.750000  0.410184  0.575944  1
  Te  Te15  1  0.250000  0.589816  0.424056  1
  Ba  Ba16  1  0.750000  0.761301  0.330379  1
  Ba  Ba17  1  0.250000  0.238699  0.669621  1
  Ba  Ba18  1  0.750000  0.261301  0.169621  1
  Ba  Ba19  1  0.250000  0.738699  0.830379  1
  Ho  Ho20  1  0.250000  0.580695  0.096467  1
  Ho  Ho21  1  0.750000  0.419305  0.903533  1
  Ho  Ho22  1  0.250000  0.080695  0.403533  1
  Ho  Ho23  1  0.750000  0.919305  0.596467  1
  Ho  Ho24  1  0.750000  0.441046  0.390234  1
  Ho  Ho25  1  0.250000  0.558954  0.609766  1
  Ho  Ho26  1  0.750000  0.941046  0.109766  1
  Ho  Ho27  1  0.250000  0.058954  0.890234  1
