# generated using pymatgen
data_Te4Mo3WSe4
_symmetry_space_group_name_H-M   'P 1'
_cell_length_a   3.44021006
_cell_length_b   3.44015954
_cell_length_c   39.06346777
_cell_angle_alpha   90.00023473
_cell_angle_beta   90.00005495
_cell_angle_gamma   120.00066659
_symmetry_Int_Tables_number   1
_chemical_formula_structural   Te4Mo3WSe4
_chemical_formula_sum   'Te4 Mo3 W1 Se4'
_cell_volume   400.37048511
_cell_formula_units_Z   1
loop_
 _symmetry_equiv_pos_site_id
 _symmetry_equiv_pos_as_xyz
  1  'x, y, z'
loop_
 _atom_site_type_symbol
 _atom_site_label
 _atom_site_symmetry_multiplicity
 _atom_site_fract_x
 _atom_site_fract_y
 _atom_site_fract_z
 _atom_site_occupancy
  Te  Te0  1  0.333358  0.666717  0.329253  1
  Te  Te1  1  0.333365  0.666731  0.705281  1
  Te  Te2  1  0.333357  0.666714  0.234327  1
  Te  Te3  1  0.333352  0.666703  0.609782  1
  Mo  Mo4  1  0.333309  0.666620  0.093934  1
  Mo  Mo5  1  0.333311  0.666622  0.469662  1
  Mo  Mo6  1  0.666694  0.333388  0.281829  1
  W  W7  1  0.666691  0.333383  0.657535  1
  Se  Se8  1  0.666624  0.333248  0.052092  1
  Se  Se9  1  0.666642  0.333283  0.427777  1
  Se  Se10  1  0.666650  0.333299  0.135769  1
  Se  Se11  1  0.666646  0.333292  0.511506  1
