# generated using pymatgen
data_K2SrV4O12
_symmetry_space_group_name_H-M   'P 1'
_cell_length_a   5.44315328
_cell_length_b   11.09957238
_cell_length_c   11.09957238
_cell_angle_alpha   90.00000000
_cell_angle_beta   90.00000000
_cell_angle_gamma   90.00000000
_symmetry_Int_Tables_number   1
_chemical_formula_structural   K2SrV4O12
_chemical_formula_sum   'K4 Sr2 V8 O24'
_cell_volume   670.59924388
_cell_formula_units_Z   2
loop_
 _symmetry_equiv_pos_site_id
 _symmetry_equiv_pos_as_xyz
  1  'x, y, z'
loop_
 _atom_site_type_symbol
 _atom_site_label
 _atom_site_symmetry_multiplicity
 _atom_site_fract_x
 _atom_site_fract_y
 _atom_site_fract_z
 _atom_site_occupancy
  O  O0  1  0.237854  0.555205  0.705335  1
  O  O1  1  0.237854  0.944795  0.794665  1
  O  O2  1  0.237854  0.705335  0.944795  1
  O  O3  1  0.237854  0.794665  0.555205  1
  O  O4  1  0.762146  0.705335  0.555205  1
  O  O5  1  0.762146  0.944795  0.705335  1
  O  O6  1  0.762146  0.555205  0.794665  1
  O  O7  1  0.762146  0.794665  0.944795  1
  O  O8  1  0.762146  0.444795  0.294665  1
  O  O9  1  0.762146  0.055205  0.205335  1
  O  O10  1  0.762146  0.294665  0.055205  1
  O  O11  1  0.762146  0.205335  0.444795  1
  O  O12  1  0.237854  0.294665  0.444795  1
  O  O13  1  0.237854  0.055205  0.294665  1
  O  O14  1  0.102363  0.625552  0.374448  1
  O  O15  1  0.102363  0.125552  0.625552  1
  O  O16  1  0.102363  0.374448  0.874448  1
  O  O17  1  0.102363  0.874448  0.125552  1
  O  O18  1  0.897637  0.625552  0.125552  1
  O  O19  1  0.897637  0.874448  0.374448  1
  O  O20  1  0.897637  0.374448  0.625552  1
  O  O21  1  0.897637  0.125552  0.874448  1
  O  O22  1  0.237854  0.205335  0.055205  1
  O  O23  1  0.237854  0.444795  0.205335  1
  K  K24  1  0.500000  0.000000  0.000000  1
  K  K25  1  0.500000  0.500000  0.000000  1
  K  K26  1  0.500000  0.000000  0.500000  1
  K  K27  1  0.500000  0.500000  0.500000  1
  V  V28  1  0.000000  0.250000  0.969931  1
  V  V29  1  0.000000  0.530069  0.250000  1
  V  V30  1  0.000000  0.250000  0.530069  1
  V  V31  1  0.000000  0.030069  0.750000  1
  V  V32  1  0.000000  0.750000  0.030069  1
  V  V33  1  0.000000  0.750000  0.469931  1
  V  V34  1  0.000000  0.469931  0.750000  1
  V  V35  1  0.000000  0.969931  0.250000  1
  Sr  Sr36  1  0.500000  0.750000  0.750000  1
  Sr  Sr37  1  0.500000  0.250000  0.250000  1
