# generated using pymatgen
data_Te3MoWS
_symmetry_space_group_name_H-M   'P 1'
_cell_length_a   3.45103021
_cell_length_b   3.45102499
_cell_length_c   39.39389626
_cell_angle_alpha   90.00006744
_cell_angle_beta   90.00000000
_cell_angle_gamma   120.00004991
_symmetry_Int_Tables_number   1
_chemical_formula_structural   Te3MoWS
_chemical_formula_sum   'Te6 Mo2 W2 S2'
_cell_volume   406.30878809
_cell_formula_units_Z   2
loop_
 _symmetry_equiv_pos_site_id
 _symmetry_equiv_pos_as_xyz
  1  'x, y, z'
loop_
 _atom_site_type_symbol
 _atom_site_label
 _atom_site_symmetry_multiplicity
 _atom_site_fract_x
 _atom_site_fract_y
 _atom_site_fract_z
 _atom_site_occupancy
  Te  Te0  1  0.333353  0.666707  0.328768  1
  Te  Te1  1  0.333361  0.666723  0.704840  1
  Te  Te2  1  0.666648  0.333295  0.422635  1
  Te  Te3  1  0.666645  0.333289  0.516649  1
  Te  Te4  1  0.333359  0.666720  0.234732  1
  Te  Te5  1  0.333348  0.666697  0.610289  1
  Mo  Mo6  1  0.333309  0.666618  0.469668  1
  Mo  Mo7  1  0.666692  0.333383  0.281745  1
  W  W8  1  0.333308  0.666616  0.093937  1
  W  W9  1  0.666687  0.333374  0.657590  1
  S  S10  1  0.666645  0.333289  0.056011  1
  S  S11  1  0.666645  0.333289  0.131884  1
