# generated using pymatgen
data_La3(GeRh)4
_symmetry_space_group_name_H-M   'P 1'
_cell_length_a   4.19233948
_cell_length_b   4.27594468
_cell_length_c   13.14083276
_cell_angle_alpha   99.36346685
_cell_angle_beta   99.17878942
_cell_angle_gamma   90.00000004
_symmetry_Int_Tables_number   1
_chemical_formula_structural   La3(GeRh)4
_chemical_formula_sum   'La3 Ge4 Rh4'
_cell_volume   229.36910579
_cell_formula_units_Z   1
loop_
 _symmetry_equiv_pos_site_id
 _symmetry_equiv_pos_as_xyz
  1  'x, y, z'
loop_
 _atom_site_type_symbol
 _atom_site_label
 _atom_site_symmetry_multiplicity
 _atom_site_fract_x
 _atom_site_fract_y
 _atom_site_fract_z
 _atom_site_occupancy
  Ge  Ge0  1  0.450823  0.450823  0.901646  1
  Ge  Ge1  1  0.549177  0.549177  0.098354  1
  Ge  Ge2  1  0.301784  0.801784  0.603568  1
  Ge  Ge3  1  0.698216  0.198216  0.396432  1
  Rh  Rh4  1  0.399873  0.899873  0.799747  1
  Rh  Rh5  1  0.250085  0.250085  0.500170  1
  Rh  Rh6  1  0.749915  0.749915  0.499830  1
  Rh  Rh7  1  0.600127  0.100127  0.200253  1
  La  La8  1  0.855406  0.355405  0.710811  1
  La  La9  1  0.144594  0.644594  0.289189  1
  La  La10  1  0.000000  0.000000  0.000000  1
