# generated using pymatgen
data_Na2UP2O9
_symmetry_space_group_name_H-M   'P 1'
_cell_length_a   7.04976619
_cell_length_b   8.28027128
_cell_length_c   13.42895391
_cell_angle_alpha   90.00000000
_cell_angle_beta   90.00000000
_cell_angle_gamma   90.00000000
_symmetry_Int_Tables_number   1
_chemical_formula_structural   Na2UP2O9
_chemical_formula_sum   'Na8 U4 P8 O36'
_cell_volume   783.90144015
_cell_formula_units_Z   4
loop_
 _symmetry_equiv_pos_site_id
 _symmetry_equiv_pos_as_xyz
  1  'x, y, z'
loop_
 _atom_site_type_symbol
 _atom_site_label
 _atom_site_symmetry_multiplicity
 _atom_site_fract_x
 _atom_site_fract_y
 _atom_site_fract_z
 _atom_site_occupancy
  O  O0  1  0.923868  0.281383  0.162443  1
  O  O1  1  0.423868  0.718617  0.837557  1
  O  O2  1  0.923868  0.218617  0.662443  1
  O  O3  1  0.423868  0.781383  0.337557  1
  O  O4  1  0.070121  0.299392  0.857402  1
  O  O5  1  0.570121  0.700608  0.142598  1
  O  O6  1  0.070121  0.200608  0.357402  1
  O  O7  1  0.570121  0.799392  0.642598  1
  O  O8  1  0.744995  0.328749  0.511622  1
  O  O9  1  0.244995  0.671251  0.488378  1
  O  O10  1  0.744995  0.171251  0.011622  1
  O  O11  1  0.244995  0.828749  0.988378  1
  O  O12  1  0.414495  0.315774  0.853589  1
  O  O13  1  0.914495  0.684226  0.146411  1
  O  O14  1  0.414495  0.184226  0.353589  1
  O  O15  1  0.914495  0.815774  0.646411  1
  O  O16  1  0.734027  0.466519  0.045916  1
  O  O17  1  0.234027  0.533481  0.954084  1
  O  O18  1  0.734027  0.033481  0.545916  1
  O  O19  1  0.234027  0.966519  0.454084  1
  O  O20  1  0.748596  0.962754  0.275382  1
  O  O21  1  0.248596  0.037246  0.724618  1
  O  O22  1  0.748596  0.537246  0.775382  1
  O  O23  1  0.248596  0.462754  0.224618  1
  O  O24  1  0.745004  0.968650  0.828741  1
  O  O25  1  0.245004  0.031350  0.171259  1
  O  O26  1  0.745004  0.531350  0.328741  1
  O  O27  1  0.245004  0.468650  0.671259  1
  O  O28  1  0.748206  0.745964  0.979841  1
  O  O29  1  0.248206  0.254036  0.020159  1
  O  O30  1  0.748206  0.754036  0.479841  1
  O  O31  1  0.248206  0.245964  0.520159  1
  O  O32  1  0.066749  0.770565  0.335742  1
  O  O33  1  0.566749  0.229435  0.664258  1
  O  O34  1  0.066749  0.729435  0.835742  1
  O  O35  1  0.566749  0.270565  0.164258  1
  Na  Na36  1  0.507699  0.978775  0.027651  1
  Na  Na37  1  0.237126  0.767792  0.663707  1
  Na  Na38  1  0.737126  0.232208  0.336293  1
  Na  Na39  1  0.237126  0.732208  0.163707  1
  Na  Na40  1  0.737126  0.267792  0.836293  1
  Na  Na41  1  0.007699  0.021225  0.972349  1
  Na  Na42  1  0.007699  0.478775  0.472349  1
  Na  Na43  1  0.507699  0.521225  0.527651  1
  P  P44  1  0.243176  0.346319  0.921294  1
  P  P45  1  0.743835  0.211750  0.598423  1
  P  P46  1  0.243176  0.153681  0.421294  1
  P  P47  1  0.243835  0.711750  0.901577  1
  P  P48  1  0.743835  0.288250  0.098423  1
  P  P49  1  0.743176  0.846319  0.578706  1
  P  P50  1  0.743176  0.653681  0.078706  1
  P  P51  1  0.243835  0.788250  0.401577  1
  U  U52  1  0.244103  0.251890  0.698485  1
  U  U53  1  0.744103  0.748110  0.301515  1
  U  U54  1  0.244103  0.248110  0.198485  1
  U  U55  1  0.744103  0.751890  0.801515  1
