# generated using pymatgen
data_Pr2Fe2Si2C
_symmetry_space_group_name_H-M   'P 1'
_cell_length_a   4.00757186
_cell_length_b   5.78150473
_cell_length_c   5.95294778
_cell_angle_alpha   73.36249921
_cell_angle_beta   70.32989517
_cell_angle_gamma   69.72138698
_symmetry_Int_Tables_number   1
_chemical_formula_structural   Pr2Fe2Si2C
_chemical_formula_sum   'Pr2 Fe2 Si2 C1'
_cell_volume   119.56140705
_cell_formula_units_Z   1
loop_
 _symmetry_equiv_pos_site_id
 _symmetry_equiv_pos_as_xyz
  1  'x, y, z'
loop_
 _atom_site_type_symbol
 _atom_site_label
 _atom_site_symmetry_multiplicity
 _atom_site_fract_x
 _atom_site_fract_y
 _atom_site_fract_z
 _atom_site_occupancy
  Pr  Pr0  1  0.441082  0.816262  0.301573  1
  Pr  Pr1  1  0.558918  0.183738  0.698427  1
  Fe  Fe2  1  0.805363  0.302509  0.086765  1
  Fe  Fe3  1  0.194637  0.697491  0.913235  1
  Si  Si4  1  0.820342  0.614600  0.744716  1
  Si  Si5  1  0.179658  0.385400  0.255284  1
  C  C6  1  0.000000  -0.000000  -0.000000  1
