# generated using pymatgen
data_Ba3CuSb2O9
_symmetry_space_group_name_H-M   'P 1'
_cell_length_a   5.88675811
_cell_length_b   5.88675811
_cell_length_c   14.57603844
_cell_angle_alpha   90.00000000
_cell_angle_beta   90.00000000
_cell_angle_gamma   119.99999995
_symmetry_Int_Tables_number   1
_chemical_formula_structural   Ba3CuSb2O9
_chemical_formula_sum   'Ba6 Cu2 Sb4 O18'
_cell_volume   437.44405458
_cell_formula_units_Z   2
loop_
 _symmetry_equiv_pos_site_id
 _symmetry_equiv_pos_as_xyz
  1  'x, y, z'
loop_
 _atom_site_type_symbol
 _atom_site_label
 _atom_site_symmetry_multiplicity
 _atom_site_fract_x
 _atom_site_fract_y
 _atom_site_fract_z
 _atom_site_occupancy
  O  O0  1  0.834353  0.165647  0.412856  1
  O  O1  1  0.668706  0.834353  0.912856  1
  O  O2  1  0.165647  0.331294  0.912856  1
  O  O3  1  0.834353  0.668706  0.412856  1
  O  O4  1  0.331294  0.165647  0.412856  1
  O  O5  1  0.165647  0.834353  0.912856  1
  O  O6  1  0.510396  0.489604  0.251656  1
  O  O7  1  0.020792  0.510396  0.751656  1
  O  O8  1  0.489604  0.979208  0.751656  1
  O  O9  1  0.510396  0.020792  0.251656  1
  O  O10  1  0.979208  0.489604  0.251656  1
  O  O11  1  0.489604  0.510396  0.751656  1
  O  O12  1  0.161556  0.838444  0.574181  1
  O  O13  1  0.323112  0.161556  0.074181  1
  O  O14  1  0.838444  0.676888  0.074181  1
  O  O15  1  0.161556  0.323112  0.574181  1
  O  O16  1  0.676888  0.838444  0.574181  1
  O  O17  1  0.838444  0.161556  0.074181  1
  Cu  Cu18  1  0.333333  0.666667  0.645494  1
  Cu  Cu19  1  0.666667  0.333333  0.145494  1
  Sb  Sb20  1  0.000000  0.000000  0.998272  1
  Sb  Sb21  1  0.000000  0.000000  0.498272  1
  Sb  Sb22  1  0.333333  0.666667  0.833448  1
  Sb  Sb23  1  0.666667  0.333333  0.333448  1
  Ba  Ba24  1  0.666667  0.333333  0.908805  1
  Ba  Ba25  1  0.333333  0.666667  0.408805  1
  Ba  Ba26  1  0.666667  0.333333  0.603953  1
  Ba  Ba27  1  0.333333  0.666667  0.103953  1
  Ba  Ba28  1  0.000000  0.000000  0.741252  1
  Ba  Ba29  1  0.000000  0.000000  0.241252  1
