# generated using pymatgen
data_TbCu(BO2)5
_symmetry_space_group_name_H-M   'P 1'
_cell_length_a   6.39515729
_cell_length_b   8.32588360
_cell_length_c   8.32588360
_cell_angle_alpha   61.74944414
_cell_angle_beta   67.41505247
_cell_angle_gamma   67.41505243
_symmetry_Int_Tables_number   1
_chemical_formula_structural   TbCu(BO2)5
_chemical_formula_sum   'Tb2 Cu2 B10 O20'
_cell_volume   349.23386057
_cell_formula_units_Z   2
loop_
 _symmetry_equiv_pos_site_id
 _symmetry_equiv_pos_as_xyz
  1  'x, y, z'
loop_
 _atom_site_type_symbol
 _atom_site_label
 _atom_site_symmetry_multiplicity
 _atom_site_fract_x
 _atom_site_fract_y
 _atom_site_fract_z
 _atom_site_occupancy
  B  B0  1  0.303033  0.696967  0.696967  1
  B  B1  1  0.803033  0.196967  0.196967  1
  B  B2  1  0.340485  0.734516  0.355720  1
  B  B3  1  0.569279  0.355720  0.734516  1
  B  B4  1  0.036781  0.659489  0.038103  1
  B  B5  1  0.265627  0.038103  0.659489  1
  B  B6  1  0.765627  0.159489  0.538103  1
  B  B7  1  0.536781  0.538103  0.159489  1
  B  B8  1  0.069279  0.234516  0.855720  1
  B  B9  1  0.840485  0.855720  0.234516  1
  O  O10  1  0.885585  0.167767  0.355060  1
  O  O11  1  0.091587  0.667767  0.855060  1
  O  O12  1  0.904484  0.824294  0.069656  1
  O  O13  1  0.201565  0.069656  0.824294  1
  O  O14  1  0.385585  0.855060  0.667767  1
  O  O15  1  0.404484  0.569656  0.324294  1
  O  O16  1  0.720608  0.038731  0.226363  1
  O  O17  1  0.014298  0.226363  0.038731  1
  O  O18  1  0.514298  0.538731  0.726363  1
  O  O19  1  0.220608  0.726363  0.538731  1
  O  O20  1  0.884214  0.716270  0.398464  1
  O  O21  1  0.001052  0.398464  0.716270  1
  O  O22  1  0.501052  0.216270  0.898464  1
  O  O23  1  0.384214  0.898464  0.216270  1
  O  O24  1  0.105270  0.495514  0.177437  1
  O  O25  1  0.221780  0.177437  0.495514  1
  O  O26  1  0.721780  0.995514  0.677437  1
  O  O27  1  0.605270  0.677437  0.995514  1
  O  O28  1  0.701565  0.324294  0.569656  1
  O  O29  1  0.591587  0.355060  0.167767  1
  Cu  Cu30  1  0.053102  0.446898  0.446898  1
  Cu  Cu31  1  0.553102  0.946898  0.946898  1
  Tb  Tb32  1  0.803049  0.696951  0.696951  1
  Tb  Tb33  1  0.303049  0.196951  0.196951  1
