# generated using pymatgen
data_C11F7
_symmetry_space_group_name_H-M   'P 1'
_cell_length_a   6.13417849
_cell_length_b   6.13417848
_cell_length_c   13.79451593
_cell_angle_alpha   85.79723518
_cell_angle_beta   85.79723518
_cell_angle_gamma   82.00048823
_symmetry_Int_Tables_number   1
_chemical_formula_structural   C11F7
_chemical_formula_sum   'C22 F14'
_cell_volume   511.58201610
_cell_formula_units_Z   2
loop_
 _symmetry_equiv_pos_site_id
 _symmetry_equiv_pos_as_xyz
  1  'x, y, z'
loop_
 _atom_site_type_symbol
 _atom_site_label
 _atom_site_symmetry_multiplicity
 _atom_site_fract_x
 _atom_site_fract_y
 _atom_site_fract_z
 _atom_site_occupancy
  C  C0  1  0.799502  0.098092  0.966546  1
  C  C1  1  0.901908  0.200498  0.033454  1
  C  C2  1  0.200498  0.901908  0.033454  1
  C  C3  1  0.098092  0.799502  0.966546  1
  C  C4  1  0.894161  0.894161  0.930877  1
  C  C5  1  0.105839  0.105839  0.069123  1
  C  C6  1  0.790092  0.790092  0.863161  1
  C  C7  1  0.209908  0.209908  0.136839  1
  C  C8  1  0.699553  0.699553  0.804591  1
  C  C9  1  0.300447  0.300447  0.195409  1
  C  C10  1  0.593962  0.593962  0.737736  1
  C  C11  1  0.406038  0.406038  0.262264  1
  C  C12  1  0.389131  0.687713  0.702906  1
  C  C13  1  0.312287  0.610869  0.297094  1
  C  C14  1  0.610869  0.312287  0.297094  1
  C  C15  1  0.687713  0.389131  0.702906  1
  C  C16  1  0.282235  0.583220  0.637830  1
  C  C17  1  0.416780  0.717765  0.362170  1
  C  C18  1  0.717765  0.416780  0.362170  1
  C  C19  1  0.583220  0.282235  0.637830  1
  C  C20  1  0.379104  0.379104  0.605587  1
  C  C21  1  0.620896  0.620896  0.394413  1
  F  F22  1  0.604487  0.195736  0.934716  1
  F  F23  1  0.804264  0.395513  0.065284  1
  F  F24  1  0.395513  0.804264  0.065284  1
  F  F25  1  0.195736  0.604487  0.934716  1
  F  F26  1  0.292797  0.884402  0.733182  1
  F  F27  1  0.115598  0.707203  0.266818  1
  F  F28  1  0.707203  0.115598  0.266818  1
  F  F29  1  0.884402  0.292797  0.733182  1
  F  F30  1  0.087040  0.676882  0.605394  1
  F  F31  1  0.323118  0.912960  0.394606  1
  F  F32  1  0.912960  0.323118  0.394606  1
  F  F33  1  0.676882  0.087040  0.605394  1
  F  F34  1  0.276691  0.276691  0.542905  1
  F  F35  1  0.723309  0.723309  0.457095  1
