# generated using pymatgen
data_CrN2
_symmetry_space_group_name_H-M   'P 1'
_cell_length_a   4.16900861
_cell_length_b   4.16900861
_cell_length_c   4.68267728
_cell_angle_alpha   90.00000000
_cell_angle_beta   90.00000000
_cell_angle_gamma   120.00001195
_symmetry_Int_Tables_number   1
_chemical_formula_structural   CrN2
_chemical_formula_sum   'Cr3 N6'
_cell_volume   70.48397562
_cell_formula_units_Z   3
loop_
 _symmetry_equiv_pos_site_id
 _symmetry_equiv_pos_as_xyz
  1  'x, y, z'
loop_
 _atom_site_type_symbol
 _atom_site_label
 _atom_site_symmetry_multiplicity
 _atom_site_fract_x
 _atom_site_fract_y
 _atom_site_fract_z
 _atom_site_occupancy
  Cr  Cr0  1  0.375547  0.001356  -0.000011  1
  Cr  Cr1  1  0.625808  0.624453  0.333323  1
  Cr  Cr2  1  0.998644  0.374192  0.666656  1
  N  N3  1  0.342441  0.154119  0.580046  1
  N  N4  1  0.811680  0.657559  0.913380  1
  N  N5  1  0.845881  0.188320  0.246713  1
  N  N6  1  0.188276  0.846304  0.419998  1
  N  N7  1  0.153696  0.341972  0.086664  1
  N  N8  1  0.658028  0.811724  0.753331  1
