# generated using pymatgen
data_Tb2SiSeO4
_symmetry_space_group_name_H-M   'P 1'
_cell_length_a   6.08868829
_cell_length_b   7.01891164
_cell_length_c   10.88897152
_cell_angle_alpha   90.00000000
_cell_angle_beta   90.00000000
_cell_angle_gamma   90.00000000
_symmetry_Int_Tables_number   1
_chemical_formula_structural   Tb2SiSeO4
_chemical_formula_sum   'Tb8 Si4 Se4 O16'
_cell_volume   465.35070697
_cell_formula_units_Z   4
loop_
 _symmetry_equiv_pos_site_id
 _symmetry_equiv_pos_as_xyz
  1  'x, y, z'
loop_
 _atom_site_type_symbol
 _atom_site_label
 _atom_site_symmetry_multiplicity
 _atom_site_fract_x
 _atom_site_fract_y
 _atom_site_fract_z
 _atom_site_occupancy
  O  O0  1  0.276939  0.069414  0.468294  1
  O  O1  1  0.276939  0.430586  0.531706  1
  O  O2  1  0.723061  0.569414  0.031706  1
  O  O3  1  0.723061  0.930586  0.968294  1
  O  O4  1  0.723061  0.930586  0.531706  1
  O  O5  1  0.723061  0.569414  0.468294  1
  O  O6  1  0.276939  0.430586  0.968294  1
  O  O7  1  0.276939  0.069414  0.031706  1
  O  O8  1  0.051200  0.760973  0.379754  1
  O  O9  1  0.051200  0.760973  0.120246  1
  O  O10  1  0.948800  0.260973  0.120246  1
  O  O11  1  0.948800  0.239027  0.879754  1
  O  O12  1  0.948800  0.239027  0.620246  1
  O  O13  1  0.948800  0.260973  0.379754  1
  O  O14  1  0.051200  0.739027  0.879754  1
  O  O15  1  0.051200  0.739027  0.620246  1
  Si  Si16  1  0.114620  0.250000  0.000000  1
  Si  Si17  1  0.885380  0.750000  0.000000  1
  Si  Si18  1  0.885380  0.750000  0.500000  1
  Si  Si19  1  0.114620  0.250000  0.500000  1
  Se  Se20  1  0.571254  0.628742  0.750000  1
  Se  Se21  1  0.571254  0.871258  0.250000  1
  Se  Se22  1  0.428746  0.128742  0.750000  1
  Se  Se23  1  0.428746  0.371258  0.250000  1
  Tb  Tb24  1  0.390456  0.750000  0.500000  1
  Tb  Tb25  1  0.390456  0.750000  0.000000  1
  Tb  Tb26  1  0.609544  0.250000  0.500000  1
  Tb  Tb27  1  0.609544  0.250000  0.000000  1
  Tb  Tb28  1  0.866655  0.970368  0.750000  1
  Tb  Tb29  1  0.866655  0.529632  0.250000  1
  Tb  Tb30  1  0.133345  0.470368  0.750000  1
  Tb  Tb31  1  0.133345  0.029632  0.250000  1
