# generated using pymatgen
data_Sr2Ta2O7
_symmetry_space_group_name_H-M   'P 1'
_cell_length_a   3.99051455
_cell_length_b   5.75446030
_cell_length_c   13.96637815
_cell_angle_alpha   90.00000000
_cell_angle_beta   98.21346099
_cell_angle_gamma   90.00000000
_symmetry_Int_Tables_number   1
_chemical_formula_structural   Sr2Ta2O7
_chemical_formula_sum   'Sr4 Ta4 O14'
_cell_volume   317.42388214
_cell_formula_units_Z   2
loop_
 _symmetry_equiv_pos_site_id
 _symmetry_equiv_pos_as_xyz
  1  'x, y, z'
loop_
 _atom_site_type_symbol
 _atom_site_label
 _atom_site_symmetry_multiplicity
 _atom_site_fract_x
 _atom_site_fract_y
 _atom_site_fract_z
 _atom_site_occupancy
  O  O0  1  0.792805  0.488926  0.585610  1
  O  O1  1  0.207195  0.988926  0.414390  1
  O  O2  1  0.899118  0.512806  0.798236  1
  O  O3  1  0.100882  0.012806  0.201764  1
  O  O4  1  0.350942  0.260798  0.701884  1
  O  O5  1  0.649058  0.760798  0.298116  1
  O  O6  1  0.452975  0.763422  0.905950  1
  O  O7  1  0.547025  0.263422  0.094050  1
  O  O8  1  0.998098  0.504427  0.996197  1
  O  O9  1  0.001902  0.004427  0.003803  1
  O  O10  1  0.097126  0.527840  0.194253  1
  O  O11  1  0.902874  0.027840  0.805747  1
  O  O12  1  0.204412  0.512652  0.408823  1
  O  O13  1  0.795588  0.012652  0.591177  1
  Sr  Sr14  1  0.553379  0.762513  0.106758  1
  Sr  Sr15  1  0.446621  0.262513  0.893242  1
  Sr  Sr16  1  0.714502  0.249763  0.429004  1
  Sr  Sr17  1  0.285498  0.749763  0.570996  1
  Ta  Ta18  1  0.054728  0.260397  0.109457  1
  Ta  Ta19  1  0.945272  0.760397  0.890543  1
  Ta  Ta20  1  0.159086  0.756255  0.318172  1
  Ta  Ta21  1  0.840914  0.256255  0.681828  1
