# generated using pymatgen
data_TeMo2Se2S
_symmetry_space_group_name_H-M   'P 1'
_cell_length_a   3.34470982
_cell_length_b   3.34471254
_cell_length_c   38.04456794
_cell_angle_alpha   90.00078197
_cell_angle_beta   89.99999584
_cell_angle_gamma   119.99995807
_symmetry_Int_Tables_number   1
_chemical_formula_structural   TeMo2Se2S
_chemical_formula_sum   'Te2 Mo4 Se4 S2'
_cell_volume   368.58759515
_cell_formula_units_Z   2
loop_
 _symmetry_equiv_pos_site_id
 _symmetry_equiv_pos_as_xyz
  1  'x, y, z'
loop_
 _atom_site_type_symbol
 _atom_site_label
 _atom_site_symmetry_multiplicity
 _atom_site_fract_x
 _atom_site_fract_y
 _atom_site_fract_z
 _atom_site_occupancy
  Te  Te0  1  0.333357  0.666714  0.331581  1
  Te  Te1  1  0.333351  0.666702  0.231918  1
  Mo  Mo2  1  0.333314  0.666627  0.093928  1
  Mo  Mo3  1  0.333307  0.666613  0.469711  1
  Mo  Mo4  1  0.666691  0.333382  0.281791  1
  Mo  Mo5  1  0.666688  0.333378  0.657528  1
  Se  Se6  1  0.333360  0.666721  0.701331  1
  Se  Se7  1  0.666645  0.333290  0.425897  1
  Se  Se8  1  0.666647  0.333293  0.513463  1
  Se  Se9  1  0.333349  0.666699  0.613742  1
  S  S10  1  0.666645  0.333290  0.054002  1
  S  S11  1  0.666647  0.333292  0.133856  1
