# generated using pymatgen
data_TeMoWSeS2
_symmetry_space_group_name_H-M   'P 1'
_cell_length_a   3.30918193
_cell_length_b   3.30887670
_cell_length_c   37.16145864
_cell_angle_alpha   89.99045489
_cell_angle_beta   90.00000000
_cell_angle_gamma   120.00305159
_symmetry_Int_Tables_number   1
_chemical_formula_structural   TeMoWSeS2
_chemical_formula_sum   'Te2 Mo2 W2 Se2 S4'
_cell_volume   352.37999842
_cell_formula_units_Z   2
loop_
 _symmetry_equiv_pos_site_id
 _symmetry_equiv_pos_as_xyz
  1  'x, y, z'
loop_
 _atom_site_type_symbol
 _atom_site_label
 _atom_site_symmetry_multiplicity
 _atom_site_fract_x
 _atom_site_fract_y
 _atom_site_fract_z
 _atom_site_occupancy
  Te  Te0  1  0.333313  0.666627  0.709350  1
  Te  Te1  1  0.333359  0.666719  0.606040  1
  Mo  Mo2  1  0.333302  0.666605  0.093899  1
  Mo  Mo3  1  0.666716  0.333431  0.281781  1
  W  W4  1  0.333304  0.666608  0.469494  1
  W  W5  1  0.666710  0.333420  0.657671  1
  Se  Se6  1  0.333322  0.666644  0.326963  1
  Se  Se7  1  0.333395  0.666791  0.236626  1
  S  S8  1  0.666668  0.333335  0.052794  1
  S  S9  1  0.666687  0.333373  0.428327  1
  S  S10  1  0.666601  0.333201  0.135021  1
  S  S11  1  0.666623  0.333245  0.510781  1
