# generated using pymatgen
data_Te2Mo(WS2)3
_symmetry_space_group_name_H-M   'P 1'
_cell_length_a   3.26824959
_cell_length_b   3.26825629
_cell_length_c   37.23654676
_cell_angle_alpha   90.00004794
_cell_angle_beta   90.00000000
_cell_angle_gamma   119.99993224
_symmetry_Int_Tables_number   1
_chemical_formula_structural   Te2Mo(WS2)3
_chemical_formula_sum   'Te2 Mo1 W3 S6'
_cell_volume   344.45433006
_cell_formula_units_Z   1
loop_
 _symmetry_equiv_pos_site_id
 _symmetry_equiv_pos_as_xyz
  1  'x, y, z'
loop_
 _atom_site_type_symbol
 _atom_site_label
 _atom_site_symmetry_multiplicity
 _atom_site_fract_x
 _atom_site_fract_y
 _atom_site_fract_z
 _atom_site_occupancy
  Te  Te0  1  0.333354  0.666709  0.333561  1
  Te  Te1  1  0.333352  0.666705  0.230050  1
  Mo  Mo2  1  0.666690  0.333380  0.281816  1
  W  W3  1  0.333307  0.666614  0.093879  1
  W  W4  1  0.333312  0.666625  0.469696  1
  W  W5  1  0.666693  0.333386  0.657540  1
  S  S6  1  0.333356  0.666712  0.699051  1
  S  S7  1  0.666648  0.333295  0.052380  1
  S  S8  1  0.666643  0.333284  0.428224  1
  S  S9  1  0.666650  0.333300  0.135377  1
  S  S10  1  0.666640  0.333279  0.511174  1
  S  S11  1  0.333355  0.666711  0.616002  1
