# generated using pymatgen
data_Ba3(SiAs2)2
_symmetry_space_group_name_H-M   'P 1'
_cell_length_a   7.83270994
_cell_length_b   8.55465418
_cell_length_c   10.08926093
_cell_angle_alpha   107.79797806
_cell_angle_beta   105.00962499
_cell_angle_gamma   107.74185228
_symmetry_Int_Tables_number   1
_chemical_formula_structural   Ba3(SiAs2)2
_chemical_formula_sum   'Ba6 Si4 As8'
_cell_volume   564.96867586
_cell_formula_units_Z   2
loop_
 _symmetry_equiv_pos_site_id
 _symmetry_equiv_pos_as_xyz
  1  'x, y, z'
loop_
 _atom_site_type_symbol
 _atom_site_label
 _atom_site_symmetry_multiplicity
 _atom_site_fract_x
 _atom_site_fract_y
 _atom_site_fract_z
 _atom_site_occupancy
  Si  Si0  1  0.622587  0.466016  0.636448  1
  Si  Si1  1  0.513861  0.170432  0.636448  1
  Si  Si2  1  0.377413  0.533984  0.363552  1
  Si  Si3  1  0.486139  0.829568  0.363552  1
  As  As4  1  0.649011  0.445521  0.396441  1
  As  As5  1  0.247429  0.950920  0.396441  1
  As  As6  1  0.442678  0.188455  0.854671  1
  As  As7  1  0.911993  0.666215  0.854671  1
  As  As8  1  0.557322  0.811545  0.145329  1
  As  As9  1  0.088007  0.333785  0.145329  1
  As  As10  1  0.752571  0.049080  0.603559  1
  As  As11  1  0.350989  0.554479  0.603559  1
  Ba  Ba12  1  0.692201  0.942201  0.884401  1
  Ba  Ba13  1  0.307799  0.057799  0.115599  1
  Ba  Ba14  1  0.814584  0.564584  0.129168  1
  Ba  Ba15  1  0.185416  0.435416  0.870832  1
  Ba  Ba16  1  0.060310  0.810310  0.620620  1
  Ba  Ba17  1  0.939690  0.189690  0.379380  1
