# generated using pymatgen
data_K2Na3TlO4
_symmetry_space_group_name_H-M   'P 1'
_cell_length_a   7.78766664
_cell_length_b   9.38622413
_cell_length_c   9.74497678
_cell_angle_alpha   90.00000000
_cell_angle_beta   90.00000000
_cell_angle_gamma   90.00000000
_symmetry_Int_Tables_number   1
_chemical_formula_structural   K2Na3TlO4
_chemical_formula_sum   'K8 Na12 Tl4 O16'
_cell_volume   712.32646796
_cell_formula_units_Z   4
loop_
 _symmetry_equiv_pos_site_id
 _symmetry_equiv_pos_as_xyz
  1  'x, y, z'
loop_
 _atom_site_type_symbol
 _atom_site_label
 _atom_site_symmetry_multiplicity
 _atom_site_fract_x
 _atom_site_fract_y
 _atom_site_fract_z
 _atom_site_occupancy
  O  O0  1  0.500000  0.048294  0.277668  1
  O  O1  1  0.500000  0.951706  0.722332  1
  O  O2  1  0.000000  0.548294  0.222332  1
  O  O3  1  0.000000  0.451706  0.777668  1
  O  O4  1  0.254887  0.801608  0.984166  1
  O  O5  1  0.254887  0.198392  0.015834  1
  O  O6  1  0.245113  0.301608  0.515834  1
  O  O7  1  0.245113  0.698392  0.484166  1
  O  O8  1  0.745113  0.198392  0.015834  1
  O  O9  1  0.745113  0.801608  0.984166  1
  O  O10  1  0.754887  0.698392  0.484166  1
  O  O11  1  0.754887  0.301608  0.515834  1
  O  O12  1  0.500000  0.438875  0.223614  1
  O  O13  1  0.000000  0.061125  0.723614  1
  O  O14  1  0.500000  0.561125  0.776386  1
  O  O15  1  0.000000  0.938875  0.276386  1
  Na  Na16  1  0.249615  0.516688  0.650816  1
  Na  Na17  1  0.249615  0.483312  0.349184  1
  Na  Na18  1  0.250385  0.016688  0.849184  1
  Na  Na19  1  0.250385  0.983312  0.150816  1
  Na  Na20  1  0.000000  0.240249  0.915065  1
  Na  Na21  1  0.000000  0.759751  0.084935  1
  Na  Na22  1  0.500000  0.740249  0.584935  1
  Na  Na23  1  0.500000  0.259751  0.415065  1
  Na  Na24  1  0.749615  0.983312  0.150816  1
  Na  Na25  1  0.750385  0.483312  0.349184  1
  Na  Na26  1  0.750385  0.516688  0.650816  1
  Na  Na27  1  0.749615  0.016688  0.849184  1
  K  K28  1  0.246769  0.500000  0.000000  1
  K  K29  1  0.253231  0.000000  0.500000  1
  K  K30  1  0.753231  0.500000  0.000000  1
  K  K31  1  0.746769  0.000000  0.500000  1
  K  K32  1  0.500000  0.263979  0.749827  1
  K  K33  1  0.500000  0.736021  0.250173  1
  K  K34  1  0.000000  0.763979  0.750173  1
  K  K35  1  0.000000  0.236021  0.249827  1
  Tl  Tl36  1  0.000000  0.727310  0.378920  1
  Tl  Tl37  1  0.000000  0.272690  0.621080  1
  Tl  Tl38  1  0.500000  0.227310  0.121080  1
  Tl  Tl39  1  0.500000  0.772690  0.878920  1
