# generated using pymatgen
data_MoW3(SeS)4
_symmetry_space_group_name_H-M   'P 1'
_cell_length_a   3.25174928
_cell_length_b   3.25172421
_cell_length_c   37.14788686
_cell_angle_alpha   90.00016764
_cell_angle_beta   90.00000417
_cell_angle_gamma   120.00029714
_symmetry_Int_Tables_number   1
_chemical_formula_structural   MoW3(SeS)4
_chemical_formula_sum   'Mo1 W3 Se4 S4'
_cell_volume   340.16858439
_cell_formula_units_Z   1
loop_
 _symmetry_equiv_pos_site_id
 _symmetry_equiv_pos_as_xyz
  1  'x, y, z'
loop_
 _atom_site_type_symbol
 _atom_site_label
 _atom_site_symmetry_multiplicity
 _atom_site_fract_x
 _atom_site_fract_y
 _atom_site_fract_z
 _atom_site_occupancy
  Mo  Mo0  1  0.333309  0.666618  0.093912  1
  W  W1  1  0.333314  0.666627  0.469641  1
  W  W2  1  0.666694  0.333388  0.281794  1
  W  W3  1  0.666691  0.333382  0.657548  1
  Se  Se4  1  0.333354  0.666708  0.703527  1
  Se  Se5  1  0.666649  0.333297  0.048227  1
  Se  Se6  1  0.666631  0.333261  0.139610  1
  Se  Se7  1  0.333354  0.666708  0.611577  1
  S  S8  1  0.333356  0.666713  0.323599  1
  S  S9  1  0.666649  0.333296  0.427863  1
  S  S10  1  0.666643  0.333288  0.511448  1
  S  S11  1  0.333357  0.666715  0.240002  1
