# generated using pymatgen
data_AuN2
_symmetry_space_group_name_H-M   'P 1'
_cell_length_a   6.16682589
_cell_length_b   5.05298034
_cell_length_c   2.94794301
_cell_angle_alpha   90.00000000
_cell_angle_beta   90.00000000
_cell_angle_gamma   90.00000000
_symmetry_Int_Tables_number   1
_chemical_formula_structural   AuN2
_chemical_formula_sum   'Au2 N4'
_cell_volume   91.86040989
_cell_formula_units_Z   2
loop_
 _symmetry_equiv_pos_site_id
 _symmetry_equiv_pos_as_xyz
  1  'x, y, z'
loop_
 _atom_site_type_symbol
 _atom_site_label
 _atom_site_symmetry_multiplicity
 _atom_site_fract_x
 _atom_site_fract_y
 _atom_site_fract_z
 _atom_site_occupancy
  Au  Au0  1  0.500000  0.500000  0.500000  1
  Au  Au1  1  -0.000000  -0.000000  0.000000  1
  N  N2  1  0.566221  0.082516  0.500000  1
  N  N3  1  0.433779  0.917484  0.500000  1
  N  N4  1  0.066221  0.417484  -0.000000  1
  N  N5  1  0.933779  0.582516  0.000000  1
