# generated using pymatgen
data_Ba2HgS3
_symmetry_space_group_name_H-M   'P 1'
_cell_length_a   4.40863738
_cell_length_b   9.06836905
_cell_length_c   17.53796720
_cell_angle_alpha   90.00000000
_cell_angle_beta   90.00000000
_cell_angle_gamma   90.00000000
_symmetry_Int_Tables_number   1
_chemical_formula_structural   Ba2HgS3
_chemical_formula_sum   'Ba8 Hg4 S12'
_cell_volume   701.15303488
_cell_formula_units_Z   4
loop_
 _symmetry_equiv_pos_site_id
 _symmetry_equiv_pos_as_xyz
  1  'x, y, z'
loop_
 _atom_site_type_symbol
 _atom_site_label
 _atom_site_symmetry_multiplicity
 _atom_site_fract_x
 _atom_site_fract_y
 _atom_site_fract_z
 _atom_site_occupancy
  S  S0  1  0.250000  0.814529  0.277712  1
  S  S1  1  0.750000  0.185471  0.722288  1
  S  S2  1  0.250000  0.314529  0.222288  1
  S  S3  1  0.750000  0.685471  0.777712  1
  S  S4  1  0.250000  0.983485  0.903758  1
  S  S5  1  0.750000  0.016515  0.096242  1
  S  S6  1  0.250000  0.483485  0.596242  1
  S  S7  1  0.750000  0.516515  0.403758  1
  S  S8  1  0.250000  0.617563  0.071750  1
  S  S9  1  0.750000  0.882437  0.571750  1
  S  S10  1  0.250000  0.117563  0.428250  1
  S  S11  1  0.750000  0.382437  0.928250  1
  Ba  Ba12  1  0.250000  0.259943  0.039340  1
  Ba  Ba13  1  0.250000  0.422155  0.783849  1
  Ba  Ba14  1  0.750000  0.077845  0.283849  1
  Ba  Ba15  1  0.250000  0.922155  0.716151  1
  Ba  Ba16  1  0.250000  0.759943  0.460660  1
  Ba  Ba17  1  0.750000  0.240057  0.539340  1
  Ba  Ba18  1  0.750000  0.740057  0.960660  1
  Ba  Ba19  1  0.750000  0.577845  0.216151  1
  Hg  Hg20  1  0.750000  0.623800  0.633027  1
  Hg  Hg21  1  0.250000  0.376200  0.366973  1
  Hg  Hg22  1  0.750000  0.123800  0.866973  1
  Hg  Hg23  1  0.250000  0.876200  0.133027  1
