# generated using pymatgen
data_SnMo5O8
_symmetry_space_group_name_H-M   'P 1'
_cell_length_a   8.39900368
_cell_length_b   9.96893214
_cell_length_c   10.69405142
_cell_angle_alpha   90.00000000
_cell_angle_beta   110.41294885
_cell_angle_gamma   90.00000000
_symmetry_Int_Tables_number   1
_chemical_formula_structural   SnMo5O8
_chemical_formula_sum   'Sn4 Mo20 O32'
_cell_volume   839.17480608
_cell_formula_units_Z   4
loop_
 _symmetry_equiv_pos_site_id
 _symmetry_equiv_pos_as_xyz
  1  'x, y, z'
loop_
 _atom_site_type_symbol
 _atom_site_label
 _atom_site_symmetry_multiplicity
 _atom_site_fract_x
 _atom_site_fract_y
 _atom_site_fract_z
 _atom_site_occupancy
  O  O0  1  0.408830  0.498289  0.861927  1
  O  O1  1  0.591169  0.998289  0.638073  1
  O  O2  1  0.591170  0.501711  0.138073  1
  O  O3  1  0.408831  0.001711  0.361927  1
  O  O4  1  0.610787  0.756437  0.311179  1
  O  O5  1  0.389213  0.256436  0.188820  1
  O  O6  1  0.389213  0.243563  0.688821  1
  O  O7  1  0.610787  0.743563  0.811180  1
  O  O8  1  0.213885  0.750269  0.708054  1
  O  O9  1  0.786114  0.250269  0.791946  1
  O  O10  1  0.786115  0.249732  0.291946  1
  O  O11  1  0.213886  0.749731  0.208054  1
  O  O12  1  0.807508  0.750384  0.608568  1
  O  O13  1  0.192493  0.250385  0.891432  1
  O  O14  1  0.192492  0.249616  0.391431  1
  O  O15  1  0.807507  0.749615  0.108568  1
  O  O16  1  0.394784  0.766170  0.512102  1
  O  O17  1  0.605217  0.266169  0.987898  1
  O  O18  1  0.605217  0.233830  0.487897  1
  O  O19  1  0.394783  0.733830  0.012102  1
  O  O20  1  0.969048  0.504888  0.752882  1
  O  O21  1  0.030953  0.004887  0.747119  1
  O  O22  1  0.030952  0.495112  0.247118  1
  O  O23  1  0.969047  0.995113  0.252881  1
  O  O24  1  0.403462  0.005904  0.856526  1
  O  O25  1  0.596538  0.505904  0.643474  1
  O  O26  1  0.596538  0.994096  0.143474  1
  O  O27  1  0.403462  0.494096  0.356525  1
  O  O28  1  0.995831  0.771458  0.405543  1
  O  O29  1  0.004169  0.228542  0.594457  1
  O  O30  1  0.004170  0.271457  0.094458  1
  O  O31  1  0.995830  0.728542  0.905542  1
  Mo  Mo32  1  0.008535  0.635996  0.090415  1
  Mo  Mo33  1  0.991465  0.135996  0.409585  1
  Mo  Mo34  1  0.991465  0.364004  0.909585  1
  Mo  Mo35  1  0.008535  0.864004  0.590415  1
  Mo  Mo36  1  0.792967  0.641504  0.769928  1
  Mo  Mo37  1  0.207033  0.141504  0.730072  1
  Mo  Mo38  1  0.207033  0.358496  0.230071  1
  Mo  Mo39  1  0.792967  0.858496  0.269928  1
  Mo  Mo40  1  0.190252  0.623987  0.857579  1
  Mo  Mo41  1  0.809749  0.123988  0.642421  1
  Mo  Mo42  1  0.809748  0.376013  0.142421  1
  Mo  Mo43  1  0.190251  0.876013  0.357579  1
  Mo  Mo44  1  0.605105  0.864097  0.480979  1
  Mo  Mo45  1  0.583661  0.128584  0.300889  1
  Mo  Mo46  1  0.583661  0.371416  0.800890  1
  Mo  Mo47  1  0.416339  0.871416  0.699111  1
  Mo  Mo48  1  0.605106  0.635903  0.980979  1
  Mo  Mo49  1  0.394895  0.135904  0.519021  1
  Mo  Mo50  1  0.394894  0.364096  0.019021  1
  Mo  Mo51  1  0.416339  0.628584  0.199110  1
  Sn  Sn52  1  0.311069  0.943687  0.021830  1
  Sn  Sn53  1  0.688931  0.443687  0.478169  1
  Sn  Sn54  1  0.688931  0.056313  0.978170  1
  Sn  Sn55  1  0.311069  0.556314  0.521831  1
