# generated using pymatgen
data_Rb2Li3B(P2O7)2
_symmetry_space_group_name_H-M   'P 1'
_cell_length_a   7.17903385
_cell_length_b   14.10266727
_cell_length_c   14.10266727
_cell_angle_alpha   118.72769026
_cell_angle_beta   90.00000000
_cell_angle_gamma   90.00000000
_symmetry_Int_Tables_number   1
_chemical_formula_structural   Rb2Li3B(P2O7)2
_chemical_formula_sum   'Rb8 Li12 B4 P16 O56'
_cell_volume   1252.06106832
_cell_formula_units_Z   4
loop_
 _symmetry_equiv_pos_site_id
 _symmetry_equiv_pos_as_xyz
  1  'x, y, z'
loop_
 _atom_site_type_symbol
 _atom_site_label
 _atom_site_symmetry_multiplicity
 _atom_site_fract_x
 _atom_site_fract_y
 _atom_site_fract_z
 _atom_site_occupancy
  Rb  Rb0  1  0.799184  0.385901  0.385901  1
  Rb  Rb1  1  0.200816  0.614099  0.614099  1
  Rb  Rb2  1  0.299184  0.114099  0.114099  1
  Rb  Rb3  1  0.700816  0.885901  0.885901  1
  Rb  Rb4  1  0.750000  0.904009  0.404009  1
  Rb  Rb5  1  0.250000  0.595991  0.095991  1
  Rb  Rb6  1  0.250000  0.095991  0.595991  1
  Rb  Rb7  1  0.750000  0.404009  0.904009  1
  Li  Li8  1  0.500000  0.118577  0.881423  1
  Li  Li9  1  -0.000000  0.618577  0.381423  1
  Li  Li10  1  0.500000  0.881423  0.118577  1
  Li  Li11  1  -0.000000  0.381423  0.618577  1
  Li  Li12  1  0.976374  0.868194  0.602421  1
  Li  Li13  1  0.023626  0.397579  0.131806  1
  Li  Li14  1  0.476374  0.897579  0.631806  1
  Li  Li15  1  0.523626  0.368194  0.102421  1
  Li  Li16  1  0.023626  0.131806  0.397579  1
  Li  Li17  1  0.976374  0.602421  0.868194  1
  Li  Li18  1  0.523626  0.102421  0.368194  1
  Li  Li19  1  0.476374  0.631806  0.897579  1
  B  B20  1  -0.000000  0.119986  0.880014  1
  B  B21  1  0.500000  0.619986  0.380014  1
  B  B22  1  -0.000000  0.880014  0.119986  1
  B  B23  1  0.500000  0.380014  0.619986  1
  P  P24  1  0.760035  0.091859  0.714011  1
  P  P25  1  0.239965  0.285989  0.908141  1
  P  P26  1  0.260035  0.785989  0.408141  1
  P  P27  1  0.739965  0.591859  0.214011  1
  P  P28  1  0.239965  0.908141  0.285989  1
  P  P29  1  0.760035  0.714011  0.091859  1
  P  P30  1  0.739965  0.214011  0.591859  1
  P  P31  1  0.260035  0.408141  0.785989  1
  P  P32  1  0.802237  0.197130  0.071957  1
  P  P33  1  0.197763  0.928043  0.802870  1
  P  P34  1  0.302237  0.428043  0.302870  1
  P  P35  1  0.697763  0.697130  0.571957  1
  P  P36  1  0.197763  0.802870  0.928043  1
  P  P37  1  0.802237  0.071957  0.197130  1
  P  P38  1  0.697763  0.571957  0.697130  1
  P  P39  1  0.302237  0.302870  0.428043  1
  O  O40  1  0.895405  0.014148  0.631602  1
  O  O41  1  0.104595  0.368398  0.985852  1
  O  O42  1  0.395405  0.868398  0.485852  1
  O  O43  1  0.604595  0.514148  0.131602  1
  O  O44  1  0.104595  0.985852  0.368398  1
  O  O45  1  0.895405  0.631602  0.014148  1
  O  O46  1  0.604595  0.131602  0.514148  1
  O  O47  1  0.395405  0.485852  0.868398  1
  O  O48  1  0.831675  0.144445  0.835271  1
  O  O49  1  0.168325  0.164729  0.855555  1
  O  O50  1  0.331675  0.664729  0.355555  1
  O  O51  1  0.668325  0.644445  0.335271  1
  O  O52  1  0.168325  0.855555  0.164729  1
  O  O53  1  0.831675  0.835271  0.144445  1
  O  O54  1  0.668325  0.335271  0.644445  1
  O  O55  1  0.331675  0.355555  0.664729  1
  O  O56  1  0.562459  0.053504  0.713759  1
  O  O57  1  0.437541  0.286241  0.946496  1
  O  O58  1  0.062459  0.786241  0.446496  1
  O  O59  1  0.937541  0.553504  0.213759  1
  O  O60  1  0.437541  0.946496  0.286241  1
  O  O61  1  0.562459  0.713759  0.053504  1
  O  O62  1  0.937541  0.213759  0.553504  1
  O  O63  1  0.062459  0.446496  0.786241  1
  O  O64  1  0.750000  0.201104  0.701104  1
  O  O65  1  0.250000  0.298896  0.798896  1
  O  O66  1  0.250000  0.798896  0.298896  1
  O  O67  1  0.750000  0.701104  0.201104  1
  O  O68  1  0.867551  0.163225  0.163225  1
  O  O69  1  0.132449  0.836775  0.836775  1
  O  O70  1  0.367551  0.336775  0.336775  1
  O  O71  1  0.632449  0.663225  0.663225  1
  O  O72  1  0.781493  0.319357  0.133808  1
  O  O73  1  0.218507  0.866192  0.680643  1
  O  O74  1  0.281493  0.366192  0.180643  1
  O  O75  1  0.718507  0.819357  0.633808  1
  O  O76  1  0.218507  0.680643  0.866192  1
  O  O77  1  0.781493  0.133808  0.319357  1
  O  O78  1  0.718507  0.633808  0.819357  1
  O  O79  1  0.281493  0.180643  0.366192  1
  O  O80  1  0.634778  0.132939  0.011449  1
  O  O81  1  0.365222  0.988551  0.867061  1
  O  O82  1  0.134778  0.488551  0.367061  1
  O  O83  1  0.865222  0.632939  0.511449  1
  O  O84  1  0.365222  0.867061  0.988551  1
  O  O85  1  0.634778  0.011449  0.132939  1
  O  O86  1  0.865222  0.511449  0.632939  1
  O  O87  1  0.134778  0.367061  0.488551  1
  O  O88  1  0.983146  0.167419  0.999117  1
  O  O89  1  0.016854  0.000883  0.832581  1
  O  O90  1  0.483146  0.500883  0.332581  1
  O  O91  1  0.516854  0.667419  0.499117  1
  O  O92  1  0.016854  0.832581  0.000883  1
  O  O93  1  0.983146  0.999117  0.167419  1
  O  O94  1  0.516854  0.499117  0.667419  1
  O  O95  1  0.483146  0.332581  0.500883  1
