# generated using pymatgen
data_Th(AlC)4
_symmetry_space_group_name_H-M   'P 1'
_cell_length_a   3.34250086
_cell_length_b   6.06658688
_cell_length_c   6.06658688
_cell_angle_alpha   85.64754162
_cell_angle_beta   74.00911293
_cell_angle_gamma   74.00911292
_symmetry_Int_Tables_number   1
_chemical_formula_structural   Th(AlC)4
_chemical_formula_sum   'Th1 Al4 C4'
_cell_volume   113.67978582
_cell_formula_units_Z   1
loop_
 _symmetry_equiv_pos_site_id
 _symmetry_equiv_pos_as_xyz
  1  'x, y, z'
loop_
 _atom_site_type_symbol
 _atom_site_label
 _atom_site_symmetry_multiplicity
 _atom_site_fract_x
 _atom_site_fract_y
 _atom_site_fract_z
 _atom_site_occupancy
  C  C0  1  0.588973  0.162685  0.659369  1
  C  C1  1  0.411027  0.837315  0.340631  1
  C  C2  1  0.248342  0.340631  0.162685  1
  C  C3  1  0.751658  0.659369  0.837315  1
  Al  Al4  1  0.179028  0.179485  0.462458  1
  Al  Al5  1  0.820972  0.820515  0.537542  1
  Al  Al6  1  0.641486  0.537542  0.179485  1
  Al  Al7  1  0.358514  0.462458  0.820515  1
  Th  Th8  1  0.000000  0.000000  0.000000  1
