# generated using pymatgen
data_MoWSe3S
_symmetry_space_group_name_H-M   'P 1'
_cell_length_a   3.28655419
_cell_length_b   3.28651089
_cell_length_c   37.35715488
_cell_angle_alpha   89.99988256
_cell_angle_beta   90.00000730
_cell_angle_gamma   120.00041911
_symmetry_Int_Tables_number   1
_chemical_formula_structural   MoWSe3S
_chemical_formula_sum   'Mo2 W2 Se6 S2'
_cell_volume   349.44470457
_cell_formula_units_Z   2
loop_
 _symmetry_equiv_pos_site_id
 _symmetry_equiv_pos_as_xyz
  1  'x, y, z'
loop_
 _atom_site_type_symbol
 _atom_site_label
 _atom_site_symmetry_multiplicity
 _atom_site_fract_x
 _atom_site_fract_y
 _atom_site_fract_z
 _atom_site_occupancy
  Mo  Mo0  1  0.333313  0.666625  0.469666  1
  Mo  Mo1  1  0.666687  0.333375  0.281810  1
  W  W2  1  0.333313  0.666626  0.093922  1
  W  W3  1  0.666686  0.333373  0.657544  1
  Se  Se4  1  0.333355  0.666711  0.326938  1
  Se  Se5  1  0.333352  0.666706  0.702969  1
  Se  Se6  1  0.666648  0.333295  0.424515  1
  Se  Se7  1  0.666647  0.333293  0.514783  1
  Se  Se8  1  0.333353  0.666706  0.236649  1
  Se  Se9  1  0.333353  0.666706  0.612109  1
  S  S10  1  0.666646  0.333292  0.052659  1
  S  S11  1  0.666646  0.333291  0.135184  1
