# generated using pymatgen
data_Te2MoW3(Se2S)2
_symmetry_space_group_name_H-M   'P 1'
_cell_length_a   3.34269089
_cell_length_b   3.34266759
_cell_length_c   38.07248277
_cell_angle_alpha   89.99999970
_cell_angle_beta   90.00000000
_cell_angle_gamma   120.00023045
_symmetry_Int_Tables_number   1
_chemical_formula_structural   Te2MoW3(Se2S)2
_chemical_formula_sum   'Te2 Mo1 W3 Se4 S2'
_cell_volume   368.40899960
_cell_formula_units_Z   1
loop_
 _symmetry_equiv_pos_site_id
 _symmetry_equiv_pos_as_xyz
  1  'x, y, z'
loop_
 _atom_site_type_symbol
 _atom_site_label
 _atom_site_symmetry_multiplicity
 _atom_site_fract_x
 _atom_site_fract_y
 _atom_site_fract_z
 _atom_site_occupancy
  Te  Te0  1  0.333354  0.666709  0.707617  1
  Te  Te1  1  0.333350  0.666701  0.607491  1
  Mo  Mo2  1  0.333315  0.666629  0.469631  1
  W  W3  1  0.333312  0.666624  0.093921  1
  W  W4  1  0.666690  0.333379  0.281790  1
  W  W5  1  0.666690  0.333381  0.657576  1
  Se  Se6  1  0.333351  0.666704  0.325730  1
  Se  Se7  1  0.666651  0.333301  0.425913  1
  Se  Se8  1  0.666647  0.333294  0.513378  1
  Se  Se9  1  0.333350  0.666702  0.237846  1
  S  S10  1  0.666641  0.333281  0.053940  1
  S  S11  1  0.666648  0.333295  0.133913  1
