# generated using pymatgen
data_TeMo2Se2S
_symmetry_space_group_name_H-M   'P 1'
_cell_length_a   3.34363098
_cell_length_b   3.34359004
_cell_length_c   41.75879025
_cell_angle_alpha   90.00492371
_cell_angle_beta   90.00000000
_cell_angle_gamma   120.00040506
_symmetry_Int_Tables_number   1
_chemical_formula_structural   TeMo2Se2S
_chemical_formula_sum   'Te2 Mo4 Se4 S2'
_cell_volume   404.30408435
_cell_formula_units_Z   2
loop_
 _symmetry_equiv_pos_site_id
 _symmetry_equiv_pos_as_xyz
  1  'x, y, z'
loop_
 _atom_site_type_symbol
 _atom_site_label
 _atom_site_symmetry_multiplicity
 _atom_site_fract_x
 _atom_site_fract_y
 _atom_site_fract_z
 _atom_site_occupancy
  Te  Te0  1  0.666744  0.333488  0.424370  1
  Te  Te1  1  0.666916  0.333831  0.515314  1
  Mo  Mo2  1  0.333345  0.666691  0.093751  1
  Mo  Mo3  1  0.333509  0.667019  0.469824  1
  Mo  Mo4  1  0.666553  0.333106  0.279406  1
  Mo  Mo5  1  0.666577  0.333155  0.659937  1
  Se  Se6  1  0.333199  0.666398  0.319304  1
  Se  Se7  1  0.333226  0.666453  0.699850  1
  Se  Se8  1  0.333222  0.666445  0.239477  1
  Se  Se9  1  0.333249  0.666499  0.620033  1
  S  S10  1  0.666658  0.333314  0.057403  1
  S  S11  1  0.666801  0.333600  0.130078  1
