# generated using pymatgen
data_Te2MoWSe2
_symmetry_space_group_name_H-M   'P 1'
_cell_length_a   3.43577493
_cell_length_b   3.43571749
_cell_length_c   39.14773423
_cell_angle_alpha   89.99919020
_cell_angle_beta   90.00000000
_cell_angle_gamma   120.00055293
_symmetry_Int_Tables_number   1
_chemical_formula_structural   Te2MoWSe2
_chemical_formula_sum   'Te4 Mo2 W2 Se4'
_cell_volume   400.19991823
_cell_formula_units_Z   2
loop_
 _symmetry_equiv_pos_site_id
 _symmetry_equiv_pos_as_xyz
  1  'x, y, z'
loop_
 _atom_site_type_symbol
 _atom_site_label
 _atom_site_symmetry_multiplicity
 _atom_site_fract_x
 _atom_site_fract_y
 _atom_site_fract_z
 _atom_site_occupancy
  Te  Te0  1  0.333353  0.666707  0.329237  1
  Te  Te1  1  0.666647  0.333293  0.422221  1
  Te  Te2  1  0.666643  0.333285  0.517133  1
  Te  Te3  1  0.333357  0.666715  0.234325  1
  Mo  Mo4  1  0.333306  0.666612  0.469690  1
  Mo  Mo5  1  0.666694  0.333388  0.281768  1
  W  W6  1  0.333309  0.666618  0.093910  1
  W  W7  1  0.666691  0.333382  0.657548  1
  Se  Se8  1  0.333354  0.666709  0.699552  1
  Se  Se9  1  0.666646  0.333291  0.051906  1
  Se  Se10  1  0.666632  0.333262  0.135947  1
  Se  Se11  1  0.333368  0.666738  0.615511  1
