# generated using pymatgen
data_Na2V(PO4)2
_symmetry_space_group_name_H-M   'P 1'
_cell_length_a   5.00936879
_cell_length_b   8.34980568
_cell_length_c   8.34980568
_cell_angle_alpha   90.00000000
_cell_angle_beta   90.00000000
_cell_angle_gamma   90.00000000
_symmetry_Int_Tables_number   1
_chemical_formula_structural   Na2V(PO4)2
_chemical_formula_sum   'Na4 V2 P4 O16'
_cell_volume   349.24945953
_cell_formula_units_Z   2
loop_
 _symmetry_equiv_pos_site_id
 _symmetry_equiv_pos_as_xyz
  1  'x, y, z'
loop_
 _atom_site_type_symbol
 _atom_site_label
 _atom_site_symmetry_multiplicity
 _atom_site_fract_x
 _atom_site_fract_y
 _atom_site_fract_z
 _atom_site_occupancy
  O  O0  1  0.855162  0.000000  0.500001  1
  O  O1  1  0.855162  0.500001  0.000000  1
  O  O2  1  0.837592  0.077055  0.213768  1
  O  O3  1  0.837592  0.922945  0.786232  1
  O  O4  1  0.837592  0.213768  0.922945  1
  O  O5  1  0.837592  0.786232  0.077055  1
  O  O6  1  0.837592  0.286231  0.422946  1
  O  O7  1  0.837592  0.577054  0.286231  1
  O  O8  1  0.837592  0.422946  0.713769  1
  O  O9  1  0.837592  0.713769  0.577054  1
  O  O10  1  0.284472  0.500001  0.500001  1
  O  O11  1  0.284472  0.000000  0.000000  1
  O  O12  1  0.274085  0.629204  0.129205  1
  O  O13  1  0.274085  0.370796  0.870795  1
  O  O14  1  0.274085  0.129205  0.370796  1
  O  O15  1  0.274085  0.870795  0.629204  1
  Na  Na16  1  0.510765  0.324523  0.175478  1
  Na  Na17  1  0.510765  0.824522  0.324523  1
  Na  Na18  1  0.510765  0.675477  0.824522  1
  Na  Na19  1  0.510765  0.175478  0.675477  1
  P  P20  1  0.974380  0.370746  0.870747  1
  P  P21  1  0.974380  0.629254  0.129253  1
  P  P22  1  0.974380  0.870747  0.629254  1
  P  P23  1  0.974380  0.129253  0.370746  1
  V  V24  1  0.958533  0.500001  0.500001  1
  V  V25  1  0.958533  0.000000  0.000000  1
