# generated using pymatgen
data_Ba2LaTaO6
_symmetry_space_group_name_H-M   'P 1'
_cell_length_a   6.16284043
_cell_length_b   6.16284099
_cell_length_c   6.16284072
_cell_angle_alpha   60.53115323
_cell_angle_beta   60.53115022
_cell_angle_gamma   60.53115062
_symmetry_Int_Tables_number   1
_chemical_formula_structural   Ba2LaTaO6
_chemical_formula_sum   'Ba2 La1 Ta1 O6'
_cell_volume   167.49775689
_cell_formula_units_Z   1
loop_
 _symmetry_equiv_pos_site_id
 _symmetry_equiv_pos_as_xyz
  1  'x, y, z'
loop_
 _atom_site_type_symbol
 _atom_site_label
 _atom_site_symmetry_multiplicity
 _atom_site_fract_x
 _atom_site_fract_y
 _atom_site_fract_z
 _atom_site_occupancy
  Ba  Ba0  1  0.251859  0.251859  0.251859  1
  Ba  Ba1  1  0.748141  0.748141  0.748141  1
  La  La2  1  0.000000  0.000000  0.000000  1
  Ta  Ta3  1  0.500000  0.500000  0.500000  1
  O  O4  1  0.677096  0.275473  0.779494  1
  O  O5  1  0.220506  0.322904  0.724527  1
  O  O6  1  0.724527  0.220506  0.322904  1
  O  O7  1  0.275473  0.779494  0.677096  1
  O  O8  1  0.779494  0.677096  0.275473  1
  O  O9  1  0.322904  0.724527  0.220506  1
