# generated using pymatgen
data_Hf7P4
_symmetry_space_group_name_H-M   'P 1'
_cell_length_a   3.53421400
_cell_length_b   8.06899148
_cell_length_c   14.69895213
_cell_angle_alpha   104.18231800
_cell_angle_beta   90.00000000
_cell_angle_gamma   102.65028946
_symmetry_Int_Tables_number   1
_chemical_formula_structural   Hf7P4
_chemical_formula_sum   'Hf14 P8'
_cell_volume   395.89804873
_cell_formula_units_Z   2
loop_
 _symmetry_equiv_pos_site_id
 _symmetry_equiv_pos_as_xyz
  1  'x, y, z'
loop_
 _atom_site_type_symbol
 _atom_site_label
 _atom_site_symmetry_multiplicity
 _atom_site_fract_x
 _atom_site_fract_y
 _atom_site_fract_z
 _atom_site_occupancy
  P  P0  1  0.936912  0.873823  0.147405  1
  P  P1  1  0.063088  0.126177  0.852595  1
  P  P2  1  0.629858  0.259715  0.660729  1
  P  P3  1  0.370142  0.740285  0.339271  1
  P  P4  1  0.624317  0.248634  0.399516  1
  P  P5  1  0.375683  0.751366  0.600484  1
  P  P6  1  0.823464  0.646928  0.888324  1
  P  P7  1  0.176536  0.353072  0.111676  1
  Hf  Hf8  1  0.339256  0.678511  0.028722  1
  Hf  Hf9  1  0.660744  0.321489  0.971278  1
  Hf  Hf10  1  0.003783  0.007567  0.669211  1
  Hf  Hf11  1  0.996217  0.992433  0.330789  1
  Hf  Hf12  1  0.176227  0.352454  0.540935  1
  Hf  Hf13  1  0.823773  0.647546  0.459065  1
  Hf  Hf14  1  0.794684  0.589368  0.202630  1
  Hf  Hf15  1  0.205316  0.410632  0.797370  1
  Hf  Hf16  1  0.803414  0.606829  0.688493  1
  Hf  Hf17  1  0.196586  0.393171  0.311507  1
  Hf  Hf18  1  0.569055  0.138109  0.168636  1
  Hf  Hf19  1  0.430945  0.861891  0.831364  1
  Hf  Hf20  1  0.500000  0.000000  0.500000  1
  Hf  Hf21  1  0.000000  0.000000  0.000000  1
