# generated using pymatgen
data_Ag2Te2O7
_symmetry_space_group_name_H-M   'P 1'
_cell_length_a   7.41682210
_cell_length_b   7.45075959
_cell_length_c   7.45075959
_cell_angle_alpha   62.13007467
_cell_angle_beta   60.15056093
_cell_angle_gamma   60.15056096
_symmetry_Int_Tables_number   1
_chemical_formula_structural   Ag2Te2O7
_chemical_formula_sum   'Ag4 Te4 O14'
_cell_volume   296.22938990
_cell_formula_units_Z   2
loop_
 _symmetry_equiv_pos_site_id
 _symmetry_equiv_pos_as_xyz
  1  'x, y, z'
loop_
 _atom_site_type_symbol
 _atom_site_label
 _atom_site_symmetry_multiplicity
 _atom_site_fract_x
 _atom_site_fract_y
 _atom_site_fract_z
 _atom_site_occupancy
  O  O0  1  0.676250  0.190803  0.048560  1
  O  O1  1  0.915613  0.809197  0.951440  1
  O  O2  1  0.823750  0.451440  0.309197  1
  O  O3  1  0.584387  0.548560  0.690803  1
  O  O4  1  0.323750  0.809197  0.951440  1
  O  O5  1  0.084387  0.190803  0.048560  1
  O  O6  1  0.176250  0.548560  0.690803  1
  O  O7  1  0.415613  0.451440  0.309197  1
  O  O8  1  0.250000  0.409107  0.090893  1
  O  O9  1  0.750000  0.590893  0.909107  1
  O  O10  1  0.085783  0.133605  0.694830  1
  O  O11  1  0.914217  0.866395  0.305170  1
  O  O12  1  0.414217  0.805170  0.366395  1
  O  O13  1  0.585783  0.194830  0.633605  1
  Ag  Ag14  1  0.000000  0.500000  0.500000  1
  Ag  Ag15  1  0.500000  0.000000  0.000000  1
  Ag  Ag16  1  0.500000  0.000000  0.500000  1
  Ag  Ag17  1  0.000000  0.000000  0.500000  1
  Te  Te18  1  0.000000  0.000000  0.000000  1
  Te  Te19  1  0.500000  0.500000  0.500000  1
  Te  Te20  1  0.500000  0.500000  0.000000  1
  Te  Te21  1  0.000000  0.500000  0.000000  1
