# generated using pymatgen
data_Al8(Pb3O7)3
_symmetry_space_group_name_H-M   'P 1'
_cell_length_a   13.47031751
_cell_length_b   13.47031751
_cell_length_c   13.47031751
_cell_angle_alpha   90.00000000
_cell_angle_beta   90.00000000
_cell_angle_gamma   90.00000000
_symmetry_Int_Tables_number   1
_chemical_formula_structural   Al8(Pb3O7)3
_chemical_formula_sum   'Al32 Pb36 O84'
_cell_volume   2444.18175497
_cell_formula_units_Z   4
loop_
 _symmetry_equiv_pos_site_id
 _symmetry_equiv_pos_as_xyz
  1  'x, y, z'
loop_
 _atom_site_type_symbol
 _atom_site_label
 _atom_site_symmetry_multiplicity
 _atom_site_fract_x
 _atom_site_fract_y
 _atom_site_fract_z
 _atom_site_occupancy
  O  O0  1  0.047171  0.054074  0.203064  1
  O  O1  1  0.203064  0.047171  0.054074  1
  O  O2  1  0.054074  0.203064  0.047171  1
  O  O3  1  0.445926  0.796936  0.547171  1
  O  O4  1  0.703064  0.452829  0.945926  1
  O  O5  1  0.945926  0.703064  0.452829  1
  O  O6  1  0.296936  0.952829  0.554074  1
  O  O7  1  0.796936  0.547171  0.445926  1
  O  O8  1  0.554074  0.296936  0.952829  1
  O  O9  1  0.547171  0.445926  0.796936  1
  O  O10  1  0.952829  0.554074  0.296936  1
  O  O11  1  0.452829  0.945926  0.703064  1
  O  O12  1  0.952829  0.945926  0.796936  1
  O  O13  1  0.796936  0.952829  0.945926  1
  O  O14  1  0.945926  0.796936  0.952829  1
  O  O15  1  0.554074  0.203064  0.452829  1
  O  O16  1  0.296936  0.547171  0.054074  1
  O  O17  1  0.054074  0.296936  0.547171  1
  O  O18  1  0.703064  0.047171  0.445926  1
  O  O19  1  0.203064  0.452829  0.554074  1
  O  O20  1  0.445926  0.703064  0.047171  1
  O  O21  1  0.452829  0.554074  0.203064  1
  O  O22  1  0.047171  0.445926  0.703064  1
  O  O23  1  0.547171  0.054074  0.296936  1
  O  O24  1  0.711809  0.621029  0.809562  1
  O  O25  1  0.809562  0.711809  0.621029  1
  O  O26  1  0.621029  0.809562  0.711809  1
  O  O27  1  0.878971  0.190438  0.211809  1
  O  O28  1  0.309562  0.788191  0.378971  1
  O  O29  1  0.378971  0.309562  0.788191  1
  O  O30  1  0.690438  0.288191  0.121029  1
  O  O31  1  0.190438  0.211809  0.878971  1
  O  O32  1  0.121029  0.690438  0.288191  1
  O  O33  1  0.211809  0.878971  0.190438  1
  O  O34  1  0.288191  0.121029  0.690438  1
  O  O35  1  0.788191  0.378971  0.309562  1
  O  O36  1  0.288191  0.378971  0.190438  1
  O  O37  1  0.190438  0.288191  0.378971  1
  O  O38  1  0.378971  0.190438  0.288191  1
  O  O39  1  0.121029  0.809562  0.788191  1
  O  O40  1  0.690438  0.211809  0.621029  1
  O  O41  1  0.621029  0.690438  0.211809  1
  O  O42  1  0.309562  0.711809  0.878971  1
  O  O43  1  0.809562  0.788191  0.121029  1
  O  O44  1  0.878971  0.309562  0.711809  1
  O  O45  1  0.788191  0.121029  0.809562  1
  O  O46  1  0.711809  0.878971  0.309562  1
  O  O47  1  0.211809  0.621029  0.690438  1
  O  O48  1  0.000000  0.000000  0.000000  1
  O  O49  1  0.500000  0.000000  0.500000  1
  O  O50  1  0.500000  0.500000  0.000000  1
  O  O51  1  0.000000  0.500000  0.500000  1
  O  O52  1  0.384841  0.493346  0.669615  1
  O  O53  1  0.669615  0.384841  0.493346  1
  O  O54  1  0.493346  0.669615  0.384841  1
  O  O55  1  0.006654  0.330385  0.884841  1
  O  O56  1  0.169615  0.115159  0.506654  1
  O  O57  1  0.506654  0.169615  0.115159  1
  O  O58  1  0.830385  0.615159  0.993346  1
  O  O59  1  0.330385  0.884841  0.006654  1
  O  O60  1  0.993346  0.830385  0.615159  1
  O  O61  1  0.884841  0.006654  0.330385  1
  O  O62  1  0.615159  0.993346  0.830385  1
  O  O63  1  0.115159  0.506654  0.169615  1
  O  O64  1  0.615159  0.506654  0.330385  1
  O  O65  1  0.330385  0.615159  0.506654  1
  O  O66  1  0.506654  0.330385  0.615159  1
  O  O67  1  0.993346  0.669615  0.115159  1
  O  O68  1  0.830385  0.884841  0.493346  1
  O  O69  1  0.493346  0.830385  0.884841  1
  O  O70  1  0.169615  0.384841  0.006654  1
  O  O71  1  0.669615  0.115159  0.993346  1
  O  O72  1  0.006654  0.169615  0.384841  1
  O  O73  1  0.115159  0.993346  0.669615  1
  O  O74  1  0.384841  0.006654  0.169615  1
  O  O75  1  0.884841  0.493346  0.830385  1
  O  O76  1  0.392198  0.392198  0.392198  1
  O  O77  1  0.107802  0.607802  0.892198  1
  O  O78  1  0.892198  0.107802  0.607802  1
  O  O79  1  0.607802  0.892198  0.107802  1
  O  O80  1  0.607802  0.607802  0.607802  1
  O  O81  1  0.892198  0.392198  0.107802  1
  O  O82  1  0.107802  0.892198  0.392198  1
  O  O83  1  0.392198  0.107802  0.892198  1
  Al  Al84  1  0.218380  0.454585  0.106960  1
  Al  Al85  1  0.106960  0.218380  0.454585  1
  Al  Al86  1  0.454585  0.106960  0.218380  1
  Al  Al87  1  0.045415  0.893040  0.718380  1
  Al  Al88  1  0.606960  0.281620  0.545415  1
  Al  Al89  1  0.545415  0.606960  0.281620  1
  Al  Al90  1  0.393040  0.781620  0.954585  1
  Al  Al91  1  0.893040  0.718380  0.045415  1
  Al  Al92  1  0.954585  0.393040  0.781620  1
  Al  Al93  1  0.718380  0.045415  0.893040  1
  Al  Al94  1  0.781620  0.954585  0.393040  1
  Al  Al95  1  0.281620  0.545415  0.606960  1
  Al  Al96  1  0.781620  0.545415  0.893040  1
  Al  Al97  1  0.893040  0.781620  0.545415  1
  Al  Al98  1  0.545415  0.893040  0.781620  1
  Al  Al99  1  0.954585  0.106960  0.281620  1
  Al  Al100  1  0.393040  0.718380  0.454585  1
  Al  Al101  1  0.454585  0.393040  0.718380  1
  Al  Al102  1  0.606960  0.218380  0.045415  1
  Al  Al103  1  0.106960  0.281620  0.954585  1
  Al  Al104  1  0.045415  0.606960  0.218380  1
  Al  Al105  1  0.281620  0.954585  0.106960  1
  Al  Al106  1  0.218380  0.045415  0.606960  1
  Al  Al107  1  0.718380  0.454585  0.393040  1
  Al  Al108  1  0.074541  0.074541  0.074541  1
  Al  Al109  1  0.425459  0.925459  0.574541  1
  Al  Al110  1  0.574541  0.425459  0.925459  1
  Al  Al111  1  0.925459  0.574541  0.425459  1
  Al  Al112  1  0.925459  0.925459  0.925459  1
  Al  Al113  1  0.574541  0.074541  0.425459  1
  Al  Al114  1  0.425459  0.574541  0.074541  1
  Al  Al115  1  0.074541  0.425459  0.574541  1
  Pb  Pb116  1  0.265371  0.956824  0.376549  1
  Pb  Pb117  1  0.376549  0.265371  0.956824  1
  Pb  Pb118  1  0.956824  0.376549  0.265371  1
  Pb  Pb119  1  0.543176  0.623451  0.765371  1
  Pb  Pb120  1  0.876549  0.234629  0.043176  1
  Pb  Pb121  1  0.043176  0.876549  0.234629  1
  Pb  Pb122  1  0.123451  0.734629  0.456824  1
  Pb  Pb123  1  0.623451  0.765371  0.543176  1
  Pb  Pb124  1  0.456824  0.123451  0.734629  1
  Pb  Pb125  1  0.765371  0.543176  0.623451  1
  Pb  Pb126  1  0.734629  0.456824  0.123451  1
  Pb  Pb127  1  0.234629  0.043176  0.876549  1
  Pb  Pb128  1  0.734629  0.043176  0.623451  1
  Pb  Pb129  1  0.623451  0.734629  0.043176  1
  Pb  Pb130  1  0.043176  0.623451  0.734629  1
  Pb  Pb131  1  0.456824  0.376549  0.234629  1
  Pb  Pb132  1  0.123451  0.765371  0.956824  1
  Pb  Pb133  1  0.956824  0.123451  0.765371  1
  Pb  Pb134  1  0.876549  0.265371  0.543176  1
  Pb  Pb135  1  0.376549  0.234629  0.456824  1
  Pb  Pb136  1  0.543176  0.876549  0.265371  1
  Pb  Pb137  1  0.234629  0.456824  0.376549  1
  Pb  Pb138  1  0.265371  0.543176  0.876549  1
  Pb  Pb139  1  0.765371  0.956824  0.123451  1
  Pb  Pb140  1  0.500000  0.500000  0.500000  1
  Pb  Pb141  1  0.000000  0.500000  0.000000  1
  Pb  Pb142  1  0.000000  0.000000  0.500000  1
  Pb  Pb143  1  0.500000  0.000000  0.000000  1
  Pb  Pb144  1  0.224482  0.224482  0.224482  1
  Pb  Pb145  1  0.275518  0.775518  0.724482  1
  Pb  Pb146  1  0.724482  0.275518  0.775518  1
  Pb  Pb147  1  0.775518  0.724482  0.275518  1
  Pb  Pb148  1  0.775518  0.775518  0.775518  1
  Pb  Pb149  1  0.724482  0.224482  0.275518  1
  Pb  Pb150  1  0.275518  0.724482  0.224482  1
  Pb  Pb151  1  0.224482  0.275518  0.724482  1
