# generated using pymatgen
data_CrN2
_symmetry_space_group_name_H-M   'P 1'
_cell_length_a   5.70784989
_cell_length_b   5.70784894
_cell_length_c   5.85014325
_cell_angle_alpha   96.42425142
_cell_angle_beta   96.42425040
_cell_angle_gamma   101.97761444
_symmetry_Int_Tables_number   1
_chemical_formula_structural   CrN2
_chemical_formula_sum   'Cr4 N8'
_cell_volume   183.47645047
_cell_formula_units_Z   4
loop_
 _symmetry_equiv_pos_site_id
 _symmetry_equiv_pos_as_xyz
  1  'x, y, z'
loop_
 _atom_site_type_symbol
 _atom_site_label
 _atom_site_symmetry_multiplicity
 _atom_site_fract_x
 _atom_site_fract_y
 _atom_site_fract_z
 _atom_site_occupancy
  Cr  Cr0  1  0.044367  0.963851  0.002599  1
  Cr  Cr1  1  0.963851  0.044367  0.502598  1
  Cr  Cr2  1  0.372820  0.543609  0.084488  1
  Cr  Cr3  1  0.543609  0.372820  0.584488  1
  N  N4  1  0.278465  0.153565  0.533919  1
  N  N5  1  0.153565  0.278465  0.033919  1
  N  N6  1  0.898174  0.863076  0.718832  1
  N  N7  1  0.863076  0.898174  0.218832  1
  N  N8  1  0.480501  0.550357  0.374227  1
  N  N9  1  0.550357  0.480501  0.874227  1
  N  N10  1  0.262126  0.798810  0.036405  1
  N  N11  1  0.798810  0.262126  0.536405  1
