# generated using pymatgen
data_TmFeGe2O7
_symmetry_space_group_name_H-M   'P 1'
_cell_length_a   6.63022257
_cell_length_b   8.72532128
_cell_length_c   9.85008724
_cell_angle_alpha   90.00000000
_cell_angle_beta   100.81739443
_cell_angle_gamma   90.00000000
_symmetry_Int_Tables_number   1
_chemical_formula_structural   TmFeGe2O7
_chemical_formula_sum   'Tm4 Fe4 Ge8 O28'
_cell_volume   559.70984669
_cell_formula_units_Z   4
loop_
 _symmetry_equiv_pos_site_id
 _symmetry_equiv_pos_as_xyz
  1  'x, y, z'
loop_
 _atom_site_type_symbol
 _atom_site_label
 _atom_site_symmetry_multiplicity
 _atom_site_fract_x
 _atom_site_fract_y
 _atom_site_fract_z
 _atom_site_occupancy
  O  O0  1  0.962161  0.086246  0.359898  1
  O  O1  1  0.037839  0.586246  0.640102  1
  O  O2  1  0.037839  0.913753  0.640102  1
  O  O3  1  0.962161  0.413754  0.359898  1
  O  O4  1  0.162682  0.250000  0.613767  1
  O  O5  1  0.837319  0.750000  0.386233  1
  O  O6  1  0.349591  0.250000  0.381603  1
  O  O7  1  0.650408  0.750000  0.618397  1
  O  O8  1  0.462157  0.586246  0.859900  1
  O  O9  1  0.537843  0.086246  0.140100  1
  O  O10  1  0.537843  0.413754  0.140100  1
  O  O11  1  0.462157  0.913754  0.859900  1
  O  O12  1  0.150408  0.250000  0.118393  1
  O  O13  1  0.849590  0.750000  0.881607  1
  O  O14  1  0.976570  0.573109  0.144030  1
  O  O15  1  0.023431  0.073109  0.855970  1
  O  O16  1  0.523432  0.573110  0.355972  1
  O  O17  1  0.476568  0.073110  0.644029  1
  O  O18  1  0.476568  0.426890  0.644029  1
  O  O19  1  0.523432  0.926890  0.355972  1
  O  O20  1  0.662684  0.750000  0.113769  1
  O  O21  1  0.337314  0.250000  0.886231  1
  O  O22  1  0.023431  0.426891  0.855970  1
  O  O23  1  0.746945  0.250000  0.938074  1
  O  O24  1  0.246949  0.750000  0.438082  1
  O  O25  1  0.753051  0.250000  0.561918  1
  O  O26  1  0.976570  0.926891  0.144030  1
  O  O27  1  0.253053  0.750000  0.061926  1
  Fe  Fe28  1  0.750002  0.946779  0.250002  1
  Fe  Fe29  1  0.249997  0.446779  0.749998  1
  Fe  Fe30  1  0.249997  0.053220  0.749998  1
  Fe  Fe31  1  0.750002  0.553220  0.250002  1
  Ge  Ge32  1  0.454161  0.750000  0.966718  1
  Ge  Ge33  1  0.545838  0.250000  0.033282  1
  Ge  Ge34  1  0.024244  0.250000  0.944994  1
  Ge  Ge35  1  0.975757  0.750000  0.055006  1
  Ge  Ge36  1  0.954162  0.250000  0.466715  1
  Ge  Ge37  1  0.524244  0.750000  0.444998  1
  Ge  Ge38  1  0.045838  0.750000  0.533286  1
  Ge  Ge39  1  0.475756  0.250000  0.555002  1
  Tm  Tm40  1  0.250003  0.049263  0.249997  1
  Tm  Tm41  1  0.749997  0.549263  0.750003  1
  Tm  Tm42  1  0.749997  0.950736  0.750003  1
  Tm  Tm43  1  0.250003  0.450737  0.249997  1
