# generated using pymatgen
data_Mo2W(SeS2)2
_symmetry_space_group_name_H-M   'P 1'
_cell_length_a   3.23098015
_cell_length_b   3.23094303
_cell_length_c   29.65828679
_cell_angle_alpha   89.99978914
_cell_angle_beta   90.00000000
_cell_angle_gamma   120.00038018
_symmetry_Int_Tables_number   1
_chemical_formula_structural   Mo2W(SeS2)2
_chemical_formula_sum   'Mo2 W1 Se2 S4'
_cell_volume   268.12580789
_cell_formula_units_Z   1
loop_
 _symmetry_equiv_pos_site_id
 _symmetry_equiv_pos_as_xyz
  1  'x, y, z'
loop_
 _atom_site_type_symbol
 _atom_site_label
 _atom_site_symmetry_multiplicity
 _atom_site_fract_x
 _atom_site_fract_y
 _atom_site_fract_z
 _atom_site_occupancy
  Mo  Mo0  1  0.333312  0.666625  0.115643  1
  Mo  Mo1  1  0.333312  0.666625  0.578326  1
  W  W2  1  0.666689  0.333379  0.346964  1
  Se  Se3  1  0.666639  0.333278  0.520774  1
  Se  Se4  1  0.666647  0.333293  0.635891  1
  S  S5  1  0.333355  0.666710  0.399521  1
  S  S6  1  0.666643  0.333286  0.063262  1
  S  S7  1  0.666646  0.333292  0.168030  1
  S  S8  1  0.333356  0.666713  0.294431  1
