# generated using pymatgen
data_Sr2Co(SeO3)3
_symmetry_space_group_name_H-M   'P 1'
_cell_length_a   7.46007443
_cell_length_b   7.76397962
_cell_length_c   8.87212180
_cell_angle_alpha   103.24765696
_cell_angle_beta   105.47959750
_cell_angle_gamma   95.57394402
_symmetry_Int_Tables_number   1
_chemical_formula_structural   Sr2Co(SeO3)3
_chemical_formula_sum   'Sr4 Co2 Se6 O18'
_cell_volume   475.14047933
_cell_formula_units_Z   2
loop_
 _symmetry_equiv_pos_site_id
 _symmetry_equiv_pos_as_xyz
  1  'x, y, z'
loop_
 _atom_site_type_symbol
 _atom_site_label
 _atom_site_symmetry_multiplicity
 _atom_site_fract_x
 _atom_site_fract_y
 _atom_site_fract_z
 _atom_site_occupancy
  O  O0  1  0.174414  0.630591  0.382021  1
  O  O1  1  0.825586  0.369409  0.617980  1
  O  O2  1  0.225882  0.407275  0.588344  1
  O  O3  1  0.774118  0.592725  0.411656  1
  O  O4  1  0.474797  0.699549  0.646111  1
  O  O5  1  0.525203  0.300451  0.353889  1
  O  O6  1  0.061513  0.818236  0.147768  1
  O  O7  1  0.938487  0.181764  0.852232  1
  O  O8  1  0.165652  0.580528  0.931533  1
  O  O9  1  0.834349  0.419472  0.068467  1
  O  O10  1  0.872141  0.752163  0.830105  1
  O  O11  1  0.127860  0.247837  0.169895  1
  O  O12  1  0.487998  0.875697  0.318114  1
  O  O13  1  0.512001  0.124303  0.681885  1
  O  O14  1  0.853848  0.949020  0.353058  1
  O  O15  1  0.363877  0.302633  0.900517  1
  O  O16  1  0.636124  0.697367  0.099483  1
  O  O17  1  0.146151  0.050980  0.646943  1
  Co  Co18  1  0.096362  0.338631  0.754535  1
  Co  Co19  1  0.903637  0.661369  0.245465  1
  Se  Se20  1  0.234343  0.633926  0.584905  1
  Se  Se21  1  0.904028  0.210003  0.040625  1
  Se  Se22  1  0.362526  0.083639  0.793423  1
  Se  Se23  1  0.637473  0.916361  0.206577  1
  Se  Se24  1  0.095971  0.789997  0.959374  1
  Se  Se25  1  0.765658  0.366074  0.415095  1
  Sr  Sr26  1  0.627833  0.484320  0.807034  1
  Sr  Sr27  1  0.372167  0.515680  0.192966  1
  Sr  Sr28  1  0.753260  0.909490  0.610770  1
  Sr  Sr29  1  0.246741  0.090510  0.389230  1
