# generated using pymatgen
data_Mo3W(SeS)4
_symmetry_space_group_name_H-M   'P 1'
_cell_length_a   3.25335985
_cell_length_b   3.25334118
_cell_length_c   37.09793856
_cell_angle_alpha   90.00007027
_cell_angle_beta   89.99995445
_cell_angle_gamma   120.00030602
_symmetry_Int_Tables_number   1
_chemical_formula_structural   Mo3W(SeS)4
_chemical_formula_sum   'Mo3 W1 Se4 S4'
_cell_volume   340.04843706
_cell_formula_units_Z   1
loop_
 _symmetry_equiv_pos_site_id
 _symmetry_equiv_pos_as_xyz
  1  'x, y, z'
loop_
 _atom_site_type_symbol
 _atom_site_label
 _atom_site_symmetry_multiplicity
 _atom_site_fract_x
 _atom_site_fract_y
 _atom_site_fract_z
 _atom_site_occupancy
  Mo  Mo0  1  0.333310  0.666620  0.093915  1
  Mo  Mo1  1  0.333310  0.666620  0.469659  1
  Mo  Mo2  1  0.666689  0.333378  0.281803  1
  W  W3  1  0.666689  0.333379  0.657545  1
  Se  Se4  1  0.666646  0.333284  0.048154  1
  Se  Se5  1  0.666648  0.333297  0.423891  1
  Se  Se6  1  0.666647  0.333294  0.139700  1
  Se  Se7  1  0.666647  0.333294  0.515421  1
  S  S8  1  0.333354  0.666709  0.323455  1
  S  S9  1  0.333354  0.666708  0.699339  1
  S  S10  1  0.333353  0.666707  0.240126  1
  S  S11  1  0.333353  0.666708  0.615739  1
