# generated using pymatgen
data_HfGa2
_symmetry_space_group_name_H-M   'P 1'
_cell_length_a   4.06742981
_cell_length_b   4.06742980
_cell_length_c   13.12859146
_cell_angle_alpha   98.91142108
_cell_angle_beta   98.91142104
_cell_angle_gamma   90.00000000
_symmetry_Int_Tables_number   1
_chemical_formula_structural   HfGa2
_chemical_formula_sum   'Hf4 Ga8'
_cell_volume   211.92316901
_cell_formula_units_Z   4
loop_
 _symmetry_equiv_pos_site_id
 _symmetry_equiv_pos_as_xyz
  1  'x, y, z'
loop_
 _atom_site_type_symbol
 _atom_site_label
 _atom_site_symmetry_multiplicity
 _atom_site_fract_x
 _atom_site_fract_y
 _atom_site_fract_z
 _atom_site_occupancy
  Ga  Ga0  1  0.375652  0.625652  0.251303  1
  Ga  Ga1  1  0.125652  0.875652  0.751303  1
  Ga  Ga2  1  0.624348  0.374348  0.748697  1
  Ga  Ga3  1  0.874348  0.124348  0.248697  1
  Ga  Ga4  1  0.536631  0.786631  0.573262  1
  Ga  Ga5  1  0.286631  0.036631  0.073262  1
  Ga  Ga6  1  0.463369  0.213369  0.426738  1
  Ga  Ga7  1  0.713369  0.963369  0.926738  1
  Hf  Hf8  1  0.200585  0.450585  0.901171  1
  Hf  Hf9  1  0.950585  0.700585  0.401171  1
  Hf  Hf10  1  0.799415  0.549415  0.098829  1
  Hf  Hf11  1  0.049415  0.299415  0.598829  1
