# generated using pymatgen
data_LiYb(WO4)2
_symmetry_space_group_name_H-M   'P 1'
_cell_length_a   5.36226002
_cell_length_b   5.88071000
_cell_length_c   10.02960623
_cell_angle_alpha   90.00000000
_cell_angle_beta   97.78236346
_cell_angle_gamma   90.00000000
_symmetry_Int_Tables_number   1
_chemical_formula_structural   LiYb(WO4)2
_chemical_formula_sum   'Li2 Yb2 W4 O16'
_cell_volume   313.35955450
_cell_formula_units_Z   2
loop_
 _symmetry_equiv_pos_site_id
 _symmetry_equiv_pos_as_xyz
  1  'x, y, z'
loop_
 _atom_site_type_symbol
 _atom_site_label
 _atom_site_symmetry_multiplicity
 _atom_site_fract_x
 _atom_site_fract_y
 _atom_site_fract_z
 _atom_site_occupancy
  Li  Li0  1  0.250000  0.599162  0.750000  1
  Li  Li1  1  0.750000  0.400838  0.250000  1
  O  O2  1  0.955073  0.115446  0.595170  1
  O  O3  1  0.544927  0.115446  0.904830  1
  O  O4  1  0.509834  0.069951  0.400701  1
  O  O5  1  0.990166  0.069951  0.099299  1
  O  O6  1  0.044927  0.884554  0.404830  1
  O  O7  1  0.455073  0.884554  0.095170  1
  O  O8  1  0.121931  0.383083  0.884147  1
  O  O9  1  0.378069  0.383083  0.615853  1
  O  O10  1  0.878069  0.616917  0.115853  1
  O  O11  1  0.621931  0.616917  0.384147  1
  O  O12  1  0.594070  0.633609  0.860304  1
  O  O13  1  0.905930  0.633609  0.639696  1
  O  O14  1  0.405930  0.366391  0.139696  1
  O  O15  1  0.094070  0.366391  0.360304  1
  O  O16  1  0.009834  0.930049  0.900701  1
  O  O17  1  0.490166  0.930049  0.599299  1
  Yb  Yb18  1  0.250000  0.694402  0.250000  1
  Yb  Yb19  1  0.750000  0.305598  0.750000  1
  W  W20  1  0.227995  0.180354  0.494011  1
  W  W21  1  0.272005  0.180354  0.005989  1
  W  W22  1  0.772005  0.819646  0.505989  1
  W  W23  1  0.727995  0.819646  0.994011  1
