# generated using pymatgen
data_LuGa
_symmetry_space_group_name_H-M   'P 1'
_cell_length_a   4.01251484
_cell_length_b   4.25565053
_cell_length_c   5.68311472
_cell_angle_alpha   111.98796380
_cell_angle_beta   90.00000000
_cell_angle_gamma   90.00000000
_symmetry_Int_Tables_number   1
_chemical_formula_structural   LuGa
_chemical_formula_sum   'Lu2 Ga2'
_cell_volume   89.98533564
_cell_formula_units_Z   2
loop_
 _symmetry_equiv_pos_site_id
 _symmetry_equiv_pos_as_xyz
  1  'x, y, z'
loop_
 _atom_site_type_symbol
 _atom_site_label
 _atom_site_symmetry_multiplicity
 _atom_site_fract_x
 _atom_site_fract_y
 _atom_site_fract_z
 _atom_site_occupancy
  Lu  Lu0  1  0.750000  0.137939  0.275878  1
  Lu  Lu1  1  0.250000  0.862061  0.724122  1
  Ga  Ga2  1  0.750000  0.421654  0.843309  1
  Ga  Ga3  1  0.250000  0.578346  0.156691  1
