# generated using pymatgen
data_Na2LiBe2F7
_symmetry_space_group_name_H-M   'P 1'
_cell_length_a   4.89643223
_cell_length_b   7.69856595
_cell_length_c   7.69856595
_cell_angle_alpha   90.00000000
_cell_angle_beta   90.00000000
_cell_angle_gamma   90.00000000
_symmetry_Int_Tables_number   1
_chemical_formula_structural   Na2LiBe2F7
_chemical_formula_sum   'Na4 Li2 Be4 F14'
_cell_volume   290.20134237
_cell_formula_units_Z   2
loop_
 _symmetry_equiv_pos_site_id
 _symmetry_equiv_pos_as_xyz
  1  'x, y, z'
loop_
 _atom_site_type_symbol
 _atom_site_label
 _atom_site_symmetry_multiplicity
 _atom_site_fract_x
 _atom_site_fract_y
 _atom_site_fract_z
 _atom_site_occupancy
  Li  Li0  1  0.000000  0.500000  0.500000  1
  Li  Li1  1  0.000000  0.000000  0.000000  1
  Be  Be2  1  0.929329  0.859502  0.640498  1
  Be  Be3  1  0.070671  0.359502  0.859502  1
  Be  Be4  1  0.929329  0.140498  0.359502  1
  Be  Be5  1  0.070671  0.640498  0.140498  1
  F  F6  1  0.207073  0.583161  0.313709  1
  F  F7  1  0.207073  0.416839  0.686291  1
  F  F8  1  0.792927  0.313709  0.416839  1
  F  F9  1  0.792927  0.686291  0.583161  1
  F  F10  1  0.818576  0.000000  0.500000  1
  F  F11  1  0.181424  0.500000  0.000000  1
  F  F12  1  0.759095  0.357780  0.857780  1
  F  F13  1  0.240905  0.857780  0.642220  1
  F  F14  1  0.240905  0.142220  0.357780  1
  F  F15  1  0.759095  0.642220  0.142220  1
  F  F16  1  0.792927  0.083161  0.186291  1
  F  F17  1  0.207073  0.186291  0.916839  1
  F  F18  1  0.207073  0.813709  0.083161  1
  F  F19  1  0.792927  0.916839  0.813709  1
  Na  Na20  1  0.495000  0.832237  0.332237  1
  Na  Na21  1  0.505000  0.332237  0.167763  1
  Na  Na22  1  0.505000  0.667763  0.832237  1
  Na  Na23  1  0.495000  0.167763  0.667763  1
