# generated using pymatgen
data_Lu(BRh)4
_symmetry_space_group_name_H-M   'P 1'
_cell_length_a   9.15016212
_cell_length_b   9.15006964
_cell_length_c   9.15015756
_cell_angle_alpha   131.49702581
_cell_angle_beta   131.49644360
_cell_angle_gamma   71.02558234
_symmetry_Int_Tables_number   1
_chemical_formula_structural   Lu(BRh)4
_chemical_formula_sum   'Lu4 B16 Rh16'
_cell_volume   420.82625697
_cell_formula_units_Z   4
loop_
 _symmetry_equiv_pos_site_id
 _symmetry_equiv_pos_as_xyz
  1  'x, y, z'
loop_
 _atom_site_type_symbol
 _atom_site_label
 _atom_site_symmetry_multiplicity
 _atom_site_fract_x
 _atom_site_fract_y
 _atom_site_fract_z
 _atom_site_occupancy
  Lu  Lu0  1  0.374998  0.125000  0.250000  1
  Lu  Lu1  1  0.125000  0.375000  0.750002  1
  Lu  Lu2  1  0.625002  0.875001  0.750003  1
  Lu  Lu3  1  0.874998  0.624997  0.250000  1
  B  B4  1  0.372642  0.429828  0.217051  1
  B  B5  1  0.712779  0.155590  0.282948  1
  B  B6  1  0.127358  0.344409  0.057184  1
  B  B7  1  0.787225  0.070173  0.442815  1
  B  B8  1  0.070172  0.127357  0.282945  1
  B  B9  1  0.344411  0.787223  0.217050  1
  B  B10  1  0.155588  0.372639  0.442809  1
  B  B11  1  0.429829  0.712776  0.057187  1
  B  B12  1  0.627361  0.570171  0.782949  1
  B  B13  1  0.287224  0.844412  0.717053  1
  B  B14  1  0.872638  0.655588  0.942811  1
  B  B15  1  0.212775  0.929827  0.557186  1
  B  B16  1  0.929825  0.872639  0.717050  1
  B  B17  1  0.655593  0.212777  0.782950  1
  B  B18  1  0.844411  0.627365  0.557189  1
  B  B19  1  0.570171  0.287224  0.942816  1
  Rh  Rh20  1  0.321783  0.534075  0.479270  1
  Rh  Rh21  1  0.554808  0.842514  0.020729  1
  Rh  Rh22  1  0.178219  0.657482  0.212292  1
  Rh  Rh23  1  0.945189  0.965927  0.287705  1
  Rh  Rh24  1  0.965926  0.178215  0.020734  1
  Rh  Rh25  1  0.657489  0.945190  0.479271  1
  Rh  Rh26  1  0.842511  0.321781  0.287703  1
  Rh  Rh27  1  0.534078  0.554807  0.212295  1
  Rh  Rh28  1  0.678219  0.465926  0.520733  1
  Rh  Rh29  1  0.445194  0.157489  0.979273  1
  Rh  Rh30  1  0.821779  0.342512  0.787701  1
  Rh  Rh31  1  0.054812  0.034081  0.712303  1
  Rh  Rh32  1  0.034074  0.821786  0.979262  1
  Rh  Rh33  1  0.342514  0.054808  0.520732  1
  Rh  Rh34  1  0.157486  0.678218  0.712294  1
  Rh  Rh35  1  0.465929  0.445194  0.787712  1
