# generated using pymatgen
data_K3V2(PO4)3
_symmetry_space_group_name_H-M   'P 1'
_cell_length_a   8.99107695
_cell_length_b   8.99107664
_cell_length_c   9.26693885
_cell_angle_alpha   89.69614612
_cell_angle_beta   60.01623867
_cell_angle_gamma   118.64923520
_symmetry_Int_Tables_number   1
_chemical_formula_structural   K3V2(PO4)3
_chemical_formula_sum   'K6 V4 P6 O24'
_cell_volume   539.06830917
_cell_formula_units_Z   2
loop_
 _symmetry_equiv_pos_site_id
 _symmetry_equiv_pos_as_xyz
  1  'x, y, z'
loop_
 _atom_site_type_symbol
 _atom_site_label
 _atom_site_symmetry_multiplicity
 _atom_site_fract_x
 _atom_site_fract_y
 _atom_site_fract_z
 _atom_site_occupancy
  K  K0  1  -0.000000  0.500000  0.000000  1
  K  K1  1  -0.000000  -0.000000  0.500000  1
  K  K2  1  0.147492  0.254893  0.757721  1
  K  K3  1  0.512614  0.905214  0.742279  1
  K  K4  1  0.487386  0.094786  0.257721  1
  K  K5  1  0.852508  0.745107  0.242279  1
  V  V6  1  0.294807  0.650314  0.548033  1
  V  V7  1  0.301653  0.157161  0.048033  1
  V  V8  1  0.698347  0.842839  0.951967  1
  V  V9  1  0.705193  0.349686  0.451967  1
  P  P10  1  0.208246  0.740382  0.245375  1
  P  P11  1  0.204426  0.954426  0.750000  1
  P  P12  1  0.485756  0.453621  0.254625  1
  P  P13  1  0.514244  0.546379  0.745375  1
  P  P14  1  0.795574  0.045574  0.250000  1
  P  P15  1  0.791754  0.259618  0.754625  1
  O  O16  1  0.015474  0.572258  0.273800  1
  O  O17  1  0.197279  0.906674  0.219095  1
  O  O18  1  0.002054  0.922997  0.785026  1
  O  O19  1  0.407767  0.775311  0.074892  1
  O  O20  1  0.225603  0.729621  0.402352  1
  O  O21  1  0.213921  0.980671  0.911726  1
  O  O22  1  0.208024  0.787080  0.714974  1
  O  O23  1  0.346059  0.289274  0.226200  1
  O  O24  1  0.350205  0.482660  0.425108  1
  O  O25  1  0.631973  0.627953  0.097648  1
  O  O26  1  0.607605  0.874352  0.411726  1
  O  O27  1  0.374232  0.583626  0.719095  1
  O  O28  1  0.625768  0.416374  0.280905  1
  O  O29  1  0.392395  0.125648  0.588274  1
  O  O30  1  0.368027  0.372047  0.902353  1
  O  O31  1  0.649795  0.517340  0.574892  1
  O  O32  1  0.653941  0.710726  0.773800  1
  O  O33  1  0.791976  0.212921  0.285026  1
  O  O34  1  0.786079  0.019329  0.088274  1
  O  O35  1  0.774397  0.270379  0.597647  1
  O  O36  1  0.592233  0.224689  0.925108  1
  O  O37  1  0.997946  0.077002  0.214974  1
  O  O38  1  0.802721  0.093326  0.780905  1
  O  O39  1  0.984526  0.427742  0.726200  1
