# generated using pymatgen
data_SiC
_symmetry_space_group_name_H-M   'P 1'
_cell_length_a   12.78008932
_cell_length_b   12.78008932
_cell_length_c   12.78008932
_cell_angle_alpha   13.90859335
_cell_angle_beta   13.90859334
_cell_angle_gamma   13.90859335
_symmetry_Int_Tables_number   1
_chemical_formula_structural   SiC
_chemical_formula_sum   'Si5 C5'
_cell_volume   104.96228122
_cell_formula_units_Z   5
loop_
 _symmetry_equiv_pos_site_id
 _symmetry_equiv_pos_as_xyz
  1  'x, y, z'
loop_
 _atom_site_type_symbol
 _atom_site_label
 _atom_site_symmetry_multiplicity
 _atom_site_fract_x
 _atom_site_fract_y
 _atom_site_fract_z
 _atom_site_occupancy
  C  C0  1  0.866645  0.866645  0.866645  1
  C  C1  1  0.599852  0.599852  0.599852  1
  C  C2  1  0.399896  0.399896  0.399896  1
  C  C3  1  0.133401  0.133401  0.133401  1
  C  C4  1  0.000048  0.000048  0.000048  1
  Si  Si5  1  0.916658  0.916658  0.916658  1
  Si  Si6  1  0.650009  0.650009  0.650009  1
  Si  Si7  1  0.450045  0.450045  0.450045  1
  Si  Si8  1  0.183405  0.183405  0.183405  1
  Si  Si9  1  0.050042  0.050042  0.050042  1
