# generated using pymatgen
data_NaLi2B(PO4)2
_symmetry_space_group_name_H-M   'P 1'
_cell_length_a   5.50286760
_cell_length_b   7.48331185
_cell_length_c   8.11016786
_cell_angle_alpha   103.38544972
_cell_angle_beta   109.46942301
_cell_angle_gamma   87.31721834
_symmetry_Int_Tables_number   1
_chemical_formula_structural   NaLi2B(PO4)2
_chemical_formula_sum   'Na2 Li4 B2 P4 O16'
_cell_volume   306.15574285
_cell_formula_units_Z   2
loop_
 _symmetry_equiv_pos_site_id
 _symmetry_equiv_pos_as_xyz
  1  'x, y, z'
loop_
 _atom_site_type_symbol
 _atom_site_label
 _atom_site_symmetry_multiplicity
 _atom_site_fract_x
 _atom_site_fract_y
 _atom_site_fract_z
 _atom_site_occupancy
  Na  Na0  1  0.253695  0.880738  0.741048  1
  Na  Na1  1  0.746305  0.119262  0.258952  1
  Li  Li2  1  0.309522  0.501352  0.858034  1
  Li  Li3  1  0.690478  0.498648  0.141966  1
  Li  Li4  1  0.855093  0.469823  0.597778  1
  Li  Li5  1  0.144907  0.530177  0.402222  1
  B  B6  1  0.748710  0.046028  0.765903  1
  B  B7  1  0.251290  0.953972  0.234097  1
  P  P8  1  0.621541  0.773839  0.452845  1
  P  P9  1  0.378459  0.226161  0.547155  1
  P  P10  1  0.854884  0.751556  0.945748  1
  P  P11  1  0.145116  0.248444  0.054252  1
  O  O12  1  0.967215  0.179874  0.851747  1
  O  O13  1  0.032785  0.820126  0.148253  1
  O  O14  1  0.501948  0.862187  0.283494  1
  O  O15  1  0.498052  0.137813  0.716506  1
  O  O16  1  0.012926  0.665859  0.825883  1
  O  O17  1  0.987074  0.334141  0.174117  1
  O  O18  1  0.800216  0.623929  0.403874  1
  O  O19  1  0.199784  0.376071  0.596126  1
  O  O20  1  0.723169  0.934041  0.890436  1
  O  O21  1  0.276831  0.065959  0.109564  1
  O  O22  1  0.645844  0.626957  0.945707  1
  O  O23  1  0.354156  0.373043  0.054293  1
  O  O24  1  0.801212  0.932581  0.606271  1
  O  O25  1  0.198788  0.067419  0.393729  1
  O  O26  1  0.414359  0.712783  0.513751  1
  O  O27  1  0.585641  0.287217  0.486249  1
