# generated using pymatgen
data_K3AlSe3
_symmetry_space_group_name_H-M   'P 1'
_cell_length_a   8.19607164
_cell_length_b   8.52417375
_cell_length_c   13.31312803
_cell_angle_alpha   90.00000000
_cell_angle_beta   90.00000000
_cell_angle_gamma   101.59929294
_symmetry_Int_Tables_number   1
_chemical_formula_structural   K3AlSe3
_chemical_formula_sum   'K12 Al4 Se12'
_cell_volume   911.12308736
_cell_formula_units_Z   4
loop_
 _symmetry_equiv_pos_site_id
 _symmetry_equiv_pos_as_xyz
  1  'x, y, z'
loop_
 _atom_site_type_symbol
 _atom_site_label
 _atom_site_symmetry_multiplicity
 _atom_site_fract_x
 _atom_site_fract_y
 _atom_site_fract_z
 _atom_site_occupancy
  Al  Al0  1  0.899081  0.841959  0.937724  1
  Al  Al1  1  0.600919  0.658041  0.437724  1
  Al  Al2  1  0.399081  0.341959  0.562276  1
  Al  Al3  1  0.100919  0.158041  0.062276  1
  K  K4  1  0.774299  0.925369  0.688196  1
  K  K5  1  0.225701  0.074631  0.311804  1
  K  K6  1  0.725701  0.574631  0.188196  1
  K  K7  1  0.279733  0.601431  0.102146  1
  K  K8  1  0.152150  0.529545  0.380698  1
  K  K9  1  0.347850  0.970455  0.880698  1
  K  K10  1  0.847850  0.470455  0.619302  1
  K  K11  1  0.652150  0.029545  0.119302  1
  K  K12  1  0.779733  0.101431  0.397854  1
  K  K13  1  0.720267  0.398569  0.897854  1
  K  K14  1  0.220267  0.898569  0.602146  1
  K  K15  1  0.274299  0.425369  0.811804  1
  Se  Se16  1  0.459439  0.631889  0.601322  1
  Se  Se17  1  0.040561  0.868111  0.101322  1
  Se  Se18  1  0.540561  0.368111  0.398678  1
  Se  Se19  1  0.959439  0.131889  0.898678  1
  Se  Se20  1  0.475899  0.801235  0.314011  1
  Se  Se21  1  0.024101  0.698765  0.814011  1
  Se  Se22  1  0.524101  0.198765  0.685989  1
  Se  Se23  1  0.975899  0.301235  0.185989  1
  Se  Se24  1  0.891712  0.762361  0.453381  1
  Se  Se25  1  0.608288  0.737639  0.953381  1
  Se  Se26  1  0.108288  0.237639  0.546619  1
  Se  Se27  1  0.391712  0.262361  0.046619  1
