# generated using pymatgen
data_ZrN2
_symmetry_space_group_name_H-M   'P 1'
_cell_length_a   3.39849324
_cell_length_b   3.39904890
_cell_length_c   4.37068865
_cell_angle_alpha   90.00000006
_cell_angle_beta   89.99217596
_cell_angle_gamma   120.00540634
_symmetry_Int_Tables_number   1
_chemical_formula_structural   ZrN2
_chemical_formula_sum   'Zr1 N2'
_cell_volume   43.72206425
_cell_formula_units_Z   1
loop_
 _symmetry_equiv_pos_site_id
 _symmetry_equiv_pos_as_xyz
  1  'x, y, z'
loop_
 _atom_site_type_symbol
 _atom_site_label
 _atom_site_symmetry_multiplicity
 _atom_site_fract_x
 _atom_site_fract_y
 _atom_site_fract_z
 _atom_site_occupancy
  Zr  Zr0  1  -0.000000  0.000000  0.000000  1
  N  N1  1  0.666614  0.333307  0.776865  1
  N  N2  1  0.333386  0.666693  0.223135  1
