# generated using pymatgen
data_Te2MoWSeS
_symmetry_space_group_name_H-M   'P 1'
_cell_length_a   3.39465688
_cell_length_b   3.39467951
_cell_length_c   39.84093198
_cell_angle_alpha   90.00216051
_cell_angle_beta   89.99941354
_cell_angle_gamma   119.99923116
_symmetry_Int_Tables_number   1
_chemical_formula_structural   Te2MoWSeS
_chemical_formula_sum   'Te4 Mo2 W2 Se2 S2'
_cell_volume   397.61077785
_cell_formula_units_Z   2
loop_
 _symmetry_equiv_pos_site_id
 _symmetry_equiv_pos_as_xyz
  1  'x, y, z'
loop_
 _atom_site_type_symbol
 _atom_site_label
 _atom_site_symmetry_multiplicity
 _atom_site_fract_x
 _atom_site_fract_y
 _atom_site_fract_z
 _atom_site_occupancy
  Te  Te0  1  0.333324  0.666644  0.330125  1
  Te  Te1  1  0.666612  0.333218  0.045448  1
  Te  Te2  1  0.666687  0.333369  0.139508  1
  Te  Te3  1  0.333317  0.666627  0.236075  1
  Mo  Mo4  1  0.333316  0.666629  0.092421  1
  Mo  Mo5  1  0.666675  0.333341  0.283064  1
  W  W6  1  0.333306  0.666560  0.469786  1
  W  W7  1  0.666733  0.333511  0.657623  1
  Se  Se8  1  0.333371  0.666806  0.699145  1
  Se  Se9  1  0.333401  0.666807  0.616055  1
  S  S10  1  0.666586  0.333166  0.431864  1
  S  S11  1  0.666671  0.333321  0.507634  1
