# generated using pymatgen
data_K2Ni2(SO4)3
_symmetry_space_group_name_H-M   'P 1'
_cell_length_a   9.97992408
_cell_length_b   9.97992408
_cell_length_c   9.97992408
_cell_angle_alpha   90.00000000
_cell_angle_beta   90.00000000
_cell_angle_gamma   90.00000000
_symmetry_Int_Tables_number   1
_chemical_formula_structural   K2Ni2(SO4)3
_chemical_formula_sum   'K8 Ni8 S12 O48'
_cell_volume   993.98930719
_cell_formula_units_Z   4
loop_
 _symmetry_equiv_pos_site_id
 _symmetry_equiv_pos_as_xyz
  1  'x, y, z'
loop_
 _atom_site_type_symbol
 _atom_site_label
 _atom_site_symmetry_multiplicity
 _atom_site_fract_x
 _atom_site_fract_y
 _atom_site_fract_z
 _atom_site_occupancy
  O  O0  1  0.254199  0.595692  0.663773  1
  O  O1  1  0.754199  0.904308  0.336227  1
  O  O2  1  0.745802  0.095692  0.836227  1
  O  O3  1  0.904308  0.336227  0.754199  1
  O  O4  1  0.836227  0.745802  0.095692  1
  O  O5  1  0.336227  0.754199  0.904308  1
  O  O6  1  0.595692  0.663773  0.254199  1
  O  O7  1  0.663773  0.254199  0.595692  1
  O  O8  1  0.095692  0.836227  0.745802  1
  O  O9  1  0.404308  0.163773  0.245801  1
  O  O10  1  0.163773  0.245801  0.404308  1
  O  O11  1  0.245801  0.404308  0.163773  1
  O  O12  1  0.258723  0.496072  0.445325  1
  O  O13  1  0.758723  0.003928  0.554675  1
  O  O14  1  0.741276  0.996072  0.054675  1
  O  O15  1  0.003928  0.554675  0.758723  1
  O  O16  1  0.054675  0.741276  0.996072  1
  O  O17  1  0.554675  0.758723  0.003928  1
  O  O18  1  0.996325  0.576377  0.170237  1
  O  O19  1  0.445325  0.258723  0.496072  1
  O  O20  1  0.996072  0.054675  0.741276  1
  O  O21  1  0.503928  0.945325  0.241277  1
  O  O22  1  0.945325  0.241277  0.503928  1
  O  O23  1  0.241277  0.503928  0.945325  1
  O  O24  1  0.423623  0.670237  0.503675  1
  O  O25  1  0.923622  0.829764  0.496325  1
  O  O26  1  0.576377  0.170237  0.996325  1
  O  O27  1  0.829764  0.496325  0.923622  1
  O  O28  1  0.308886  0.275345  0.962850  1
  O  O29  1  0.962850  0.308886  0.275345  1
  O  O30  1  0.275345  0.962850  0.308886  1
  O  O31  1  0.224655  0.037151  0.808885  1
  O  O32  1  0.462849  0.191114  0.724655  1
  O  O33  1  0.724655  0.462849  0.191114  1
  O  O34  1  0.537151  0.691114  0.775346  1
  O  O35  1  0.037151  0.808885  0.224655  1
  O  O36  1  0.775346  0.537151  0.691114  1
  O  O37  1  0.808885  0.224655  0.037151  1
  O  O38  1  0.691114  0.775346  0.537151  1
  O  O39  1  0.191114  0.724655  0.462849  1
  O  O40  1  0.076377  0.329763  0.003675  1
  O  O41  1  0.003675  0.076377  0.329763  1
  O  O42  1  0.329763  0.003675  0.076377  1
  O  O43  1  0.170237  0.996325  0.576377  1
  O  O44  1  0.503675  0.423623  0.670237  1
  O  O45  1  0.670237  0.503675  0.423623  1
  O  O46  1  0.496325  0.923622  0.829764  1
  O  O47  1  0.496072  0.445325  0.258723  1
  S  S48  1  0.282354  0.622737  0.520913  1
  S  S49  1  0.782354  0.877263  0.479087  1
  S  S50  1  0.717647  0.122737  0.979087  1
  S  S51  1  0.877263  0.479087  0.782354  1
  S  S52  1  0.979087  0.717647  0.122737  1
  S  S53  1  0.479087  0.782354  0.877263  1
  S  S54  1  0.622737  0.520913  0.282354  1
  S  S55  1  0.520913  0.282354  0.622737  1
  S  S56  1  0.122737  0.979087  0.717647  1
  S  S57  1  0.217647  0.377263  0.020913  1
  S  S58  1  0.020913  0.217647  0.377263  1
  S  S59  1  0.377263  0.020913  0.217647  1
  K  K60  1  0.684909  0.184910  0.315090  1
  K  K61  1  0.315090  0.684909  0.184910  1
  K  K62  1  0.950146  0.549855  0.450146  1
  K  K63  1  0.184910  0.315090  0.684909  1
  K  K64  1  0.049854  0.049854  0.049854  1
  K  K65  1  0.450146  0.950146  0.549855  1
  K  K66  1  0.549855  0.450146  0.950146  1
  K  K67  1  0.815090  0.815090  0.815090  1
  Ni  Ni68  1  0.336024  0.336024  0.336024  1
  Ni  Ni69  1  0.163977  0.663977  0.836024  1
  Ni  Ni70  1  0.836024  0.163977  0.663977  1
  Ni  Ni71  1  0.663977  0.836024  0.163977  1
  Ni  Ni72  1  0.594310  0.594310  0.594310  1
  Ni  Ni73  1  0.094310  0.905690  0.405690  1
  Ni  Ni74  1  0.405690  0.094310  0.905690  1
  Ni  Ni75  1  0.905690  0.405690  0.094310  1
