# generated using pymatgen
data_SmCoSi2
_symmetry_space_group_name_H-M   'P 1'
_cell_length_a   4.04431819
_cell_length_b   4.11061650
_cell_length_c   8.38659539
_cell_angle_alpha   104.18600802
_cell_angle_beta   90.00000000
_cell_angle_gamma   90.00000000
_symmetry_Int_Tables_number   1
_chemical_formula_structural   SmCoSi2
_chemical_formula_sum   'Sm2 Co2 Si4'
_cell_volume   135.17243066
_cell_formula_units_Z   2
loop_
 _symmetry_equiv_pos_site_id
 _symmetry_equiv_pos_as_xyz
  1  'x, y, z'
loop_
 _atom_site_type_symbol
 _atom_site_label
 _atom_site_symmetry_multiplicity
 _atom_site_fract_x
 _atom_site_fract_y
 _atom_site_fract_z
 _atom_site_occupancy
  Si  Si0  1  0.250000  0.249784  0.499568  1
  Si  Si1  1  0.750000  0.750216  0.500432  1
  Si  Si2  1  0.750000  0.456867  0.913734  1
  Si  Si3  1  0.250000  0.543133  0.086266  1
  Co  Co4  1  0.750000  0.318810  0.637621  1
  Co  Co5  1  0.250000  0.681190  0.362379  1
  Sm  Sm6  1  0.250000  0.893255  0.786509  1
  Sm  Sm7  1  0.750000  0.106745  0.213491  1
