# generated using pymatgen
data_Te2MoWSeS
_symmetry_space_group_name_H-M   'P 1'
_cell_length_a   3.39415575
_cell_length_b   3.39412843
_cell_length_c   38.80657792
_cell_angle_alpha   89.99968719
_cell_angle_beta   90.00000000
_cell_angle_gamma   120.00026632
_symmetry_Int_Tables_number   1
_chemical_formula_structural   Te2MoWSeS
_chemical_formula_sum   'Te4 Mo2 W2 Se2 S2'
_cell_volume   387.16389699
_cell_formula_units_Z   2
loop_
 _symmetry_equiv_pos_site_id
 _symmetry_equiv_pos_as_xyz
  1  'x, y, z'
loop_
 _atom_site_type_symbol
 _atom_site_label
 _atom_site_symmetry_multiplicity
 _atom_site_fract_x
 _atom_site_fract_y
 _atom_site_fract_z
 _atom_site_occupancy
  Te  Te0  1  0.666636  0.333271  0.045612  1
  Te  Te1  1  0.666651  0.333300  0.421308  1
  Te  Te2  1  0.666646  0.333291  0.142245  1
  Te  Te3  1  0.666643  0.333286  0.517987  1
  Mo  Mo4  1  0.333308  0.666616  0.093913  1
  Mo  Mo5  1  0.333310  0.666621  0.469628  1
  W  W6  1  0.666690  0.333380  0.281792  1
  W  W7  1  0.666693  0.333385  0.657565  1
  Se  Se8  1  0.333357  0.666715  0.700245  1
  Se  Se9  1  0.333355  0.666711  0.614867  1
  S  S10  1  0.333355  0.666710  0.320603  1
  S  S11  1  0.333356  0.666713  0.242983  1
