# generated using pymatgen
data_Te2Mo3W(SeS2)2
_symmetry_space_group_name_H-M   'P 1'
_cell_length_a   3.30583837
_cell_length_b   3.30589175
_cell_length_c   37.61625739
_cell_angle_alpha   89.99972822
_cell_angle_beta   90.00000000
_cell_angle_gamma   119.99946576
_symmetry_Int_Tables_number   1
_chemical_formula_structural   Te2Mo3W(SeS2)2
_chemical_formula_sum   'Te2 Mo3 W1 Se2 S4'
_cell_volume   356.02360865
_cell_formula_units_Z   1
loop_
 _symmetry_equiv_pos_site_id
 _symmetry_equiv_pos_as_xyz
  1  'x, y, z'
loop_
 _atom_site_type_symbol
 _atom_site_label
 _atom_site_symmetry_multiplicity
 _atom_site_fract_x
 _atom_site_fract_y
 _atom_site_fract_z
 _atom_site_occupancy
  Te  Te0  1  0.333352  0.666704  0.708430  1
  Te  Te1  1  0.333356  0.666713  0.606703  1
  Mo  Mo2  1  0.333302  0.666605  0.093910  1
  Mo  Mo3  1  0.666695  0.333389  0.281810  1
  Mo  Mo4  1  0.666689  0.333377  0.657584  1
  W  W5  1  0.333308  0.666616  0.469636  1
  Se  Se6  1  0.333360  0.666721  0.326509  1
  Se  Se7  1  0.333356  0.666713  0.237065  1
  S  S8  1  0.666650  0.333299  0.053303  1
  S  S9  1  0.666640  0.333279  0.428857  1
  S  S10  1  0.666645  0.333289  0.134519  1
  S  S11  1  0.666647  0.333293  0.510423  1
