# generated using pymatgen
data_Si3Ag3(SnP3)2
_symmetry_space_group_name_H-M   'P 1'
_cell_length_a   9.07066982
_cell_length_b   9.07066982
_cell_length_c   9.07066982
_cell_angle_alpha   109.47122066
_cell_angle_beta   109.47122065
_cell_angle_gamma   109.47122063
_symmetry_Int_Tables_number   1
_chemical_formula_structural   Si3Ag3(SnP3)2
_chemical_formula_sum   'Si6 Ag6 Sn4 P12'
_cell_volume   574.50813763
_cell_formula_units_Z   2
loop_
 _symmetry_equiv_pos_site_id
 _symmetry_equiv_pos_as_xyz
  1  'x, y, z'
loop_
 _atom_site_type_symbol
 _atom_site_label
 _atom_site_symmetry_multiplicity
 _atom_site_fract_x
 _atom_site_fract_y
 _atom_site_fract_z
 _atom_site_occupancy
  Si  Si0  1  0.250000  0.750000  0.500000  1
  Si  Si1  1  0.500000  0.750000  0.250000  1
  Si  Si2  1  0.750000  0.250000  0.500000  1
  Si  Si3  1  0.250000  0.500000  0.750000  1
  Si  Si4  1  0.750000  0.500000  0.250000  1
  Si  Si5  1  0.500000  0.250000  0.750000  1
  P  P6  1  0.247646  0.748518  0.247646  1
  P  P7  1  0.748518  0.247646  0.247646  1
  P  P8  1  0.000000  0.752354  0.500872  1
  P  P9  1  0.752354  0.500872  0.000000  1
  P  P10  1  0.752354  0.000000  0.500872  1
  P  P11  1  0.500872  0.000000  0.752354  1
  P  P12  1  0.000000  0.500872  0.752354  1
  P  P13  1  0.251482  0.499128  0.499128  1
  P  P14  1  0.247646  0.247646  0.748518  1
  P  P15  1  0.499128  0.251482  0.499128  1
  P  P16  1  0.499128  0.499128  0.251482  1
  P  P17  1  0.500872  0.752354  0.000000  1
  Ag  Ag18  1  0.000000  0.198949  0.198949  1
  Ag  Ag19  1  0.801051  0.000000  0.801051  1
  Ag  Ag20  1  0.198949  0.000000  0.198949  1
  Ag  Ag21  1  0.198949  0.198949  0.000000  1
  Ag  Ag22  1  0.000000  0.801051  0.801051  1
  Ag  Ag23  1  0.801051  0.801051  0.000000  1
  Sn  Sn24  1  0.590468  0.590468  0.590468  1
  Sn  Sn25  1  0.409532  0.000000  0.000000  1
  Sn  Sn26  1  0.000000  0.409532  0.000000  1
  Sn  Sn27  1  0.000000  0.000000  0.409532  1
