# generated using pymatgen
data_Ce2Zn2Ni5
_symmetry_space_group_name_H-M   'P 1'
_cell_length_a   12.77026738
_cell_length_b   12.77026738
_cell_length_c   12.77026737
_cell_angle_alpha   22.73949006
_cell_angle_beta   22.73949002
_cell_angle_gamma   22.73949002
_symmetry_Int_Tables_number   1
_chemical_formula_structural   Ce2Zn2Ni5
_chemical_formula_sum   'Ce4 Zn4 Ni10'
_cell_volume   273.01366157
_cell_formula_units_Z   2
loop_
 _symmetry_equiv_pos_site_id
 _symmetry_equiv_pos_as_xyz
  1  'x, y, z'
loop_
 _atom_site_type_symbol
 _atom_site_label
 _atom_site_symmetry_multiplicity
 _atom_site_fract_x
 _atom_site_fract_y
 _atom_site_fract_z
 _atom_site_occupancy
  Ni  Ni0  1  0.389176  0.389176  0.891039  1
  Ni  Ni1  1  0.389399  0.389399  0.389399  1
  Ni  Ni2  1  0.723054  0.723054  0.723054  1
  Ni  Ni3  1  0.276946  0.276946  0.276946  1
  Ni  Ni4  1  0.610824  0.108961  0.610824  1
  Ni  Ni5  1  0.610824  0.610824  0.108961  1
  Ni  Ni6  1  0.610601  0.610601  0.610601  1
  Ni  Ni7  1  0.891039  0.389176  0.389176  1
  Ni  Ni8  1  0.389176  0.891039  0.389176  1
  Ni  Ni9  1  0.108961  0.610824  0.610824  1
  Zn  Zn10  1  0.500000  0.500000  0.000000  1
  Zn  Zn11  1  0.000000  0.500000  0.500000  1
  Zn  Zn12  1  0.500000  0.000000  0.500000  1
  Zn  Zn13  1  0.500000  0.500000  0.500000  1
  Ce  Ce14  1  0.854285  0.854285  0.854285  1
  Ce  Ce15  1  0.145715  0.145715  0.145715  1
  Ce  Ce16  1  0.942993  0.942993  0.942993  1
  Ce  Ce17  1  0.057007  0.057007  0.057007  1
