# generated using pymatgen
data_TeMoWSeS2
_symmetry_space_group_name_H-M   'P 1'
_cell_length_a   3.30435644
_cell_length_b   3.30438795
_cell_length_c   39.11745476
_cell_angle_alpha   89.99793321
_cell_angle_beta   90.00000000
_cell_angle_gamma   119.99968459
_symmetry_Int_Tables_number   1
_chemical_formula_structural   TeMoWSeS2
_chemical_formula_sum   'Te2 Mo2 W2 Se2 S4'
_cell_volume   369.89675232
_cell_formula_units_Z   2
loop_
 _symmetry_equiv_pos_site_id
 _symmetry_equiv_pos_as_xyz
  1  'x, y, z'
loop_
 _atom_site_type_symbol
 _atom_site_label
 _atom_site_symmetry_multiplicity
 _atom_site_fract_x
 _atom_site_fract_y
 _atom_site_fract_z
 _atom_site_occupancy
  Te  Te0  1  0.333259  0.666520  0.330113  1
  Te  Te1  1  0.333298  0.666597  0.231722  1
  Mo  Mo2  1  0.333250  0.666499  0.093337  1
  Mo  Mo3  1  0.333360  0.666720  0.470876  1
  W  W4  1  0.666634  0.333269  0.280962  1
  W  W5  1  0.666688  0.333377  0.657783  1
  Se  Se6  1  0.666720  0.333439  0.427873  1
  Se  Se7  1  0.666713  0.333424  0.513782  1
  S  S8  1  0.333373  0.666747  0.696997  1
  S  S9  1  0.666695  0.333390  0.054321  1
  S  S10  1  0.666663  0.333325  0.132435  1
  S  S11  1  0.333347  0.666695  0.618546  1
