# generated using pymatgen
data_NaNd(PO3)4
_symmetry_space_group_name_H-M   'P 1'
_cell_length_a   7.31852748
_cell_length_b   10.05802406
_cell_length_c   13.36496609
_cell_angle_alpha   90.00000000
_cell_angle_beta   90.00000000
_cell_angle_gamma   90.41592545
_symmetry_Int_Tables_number   1
_chemical_formula_structural   NaNd(PO3)4
_chemical_formula_sum   'Na4 Nd4 P16 O48'
_cell_volume   983.76823592
_cell_formula_units_Z   4
loop_
 _symmetry_equiv_pos_site_id
 _symmetry_equiv_pos_as_xyz
  1  'x, y, z'
loop_
 _atom_site_type_symbol
 _atom_site_label
 _atom_site_symmetry_multiplicity
 _atom_site_fract_x
 _atom_site_fract_y
 _atom_site_fract_z
 _atom_site_occupancy
  O  O0  1  0.911880  0.707889  0.419346  1
  O  O1  1  0.588120  0.792111  0.919346  1
  O  O2  1  0.088120  0.292111  0.580654  1
  O  O3  1  0.411880  0.207889  0.080654  1
  O  O4  1  0.215685  0.783472  0.486968  1
  O  O5  1  0.284315  0.716528  0.986968  1
  O  O6  1  0.784315  0.216528  0.513032  1
  O  O7  1  0.715685  0.283472  0.013032  1
  O  O8  1  0.193992  0.601325  0.352639  1
  O  O9  1  0.306008  0.898675  0.852639  1
  O  O10  1  0.806008  0.398675  0.647361  1
  O  O11  1  0.693992  0.101325  0.147361  1
  O  O12  1  0.133799  0.847800  0.314448  1
  O  O13  1  0.366201  0.652200  0.814448  1
  O  O14  1  0.866201  0.152200  0.685552  1
  O  O15  1  0.633799  0.347800  0.185552  1
  O  O16  1  0.759235  0.913266  0.339253  1
  O  O17  1  0.073229  0.668335  0.122527  1
  O  O18  1  0.740765  0.586734  0.839253  1
  O  O19  1  0.259235  0.413266  0.160747  1
  O  O20  1  0.573891  0.704745  0.387534  1
  O  O21  1  0.926109  0.795255  0.887534  1
  O  O22  1  0.426109  0.295255  0.612466  1
  O  O23  1  0.073891  0.204745  0.112466  1
  O  O24  1  0.284524  0.103348  0.294677  1
  O  O25  1  0.215476  0.396652  0.794677  1
  O  O26  1  0.715476  0.896652  0.705323  1
  O  O27  1  0.784524  0.603348  0.205323  1
  O  O28  1  0.322210  0.342793  0.365558  1
  O  O29  1  0.177790  0.157207  0.865558  1
  O  O30  1  0.677790  0.657207  0.634442  1
  O  O31  1  0.822210  0.842793  0.134442  1
  O  O32  1  0.905499  0.204244  0.336203  1
  O  O33  1  0.594501  0.295756  0.836203  1
  O  O34  1  0.094501  0.795756  0.663797  1
  O  O35  1  0.405499  0.704244  0.163797  1
  O  O36  1  0.715353  0.404914  0.388243  1
  O  O37  1  0.784647  0.095086  0.888243  1
  O  O38  1  0.284647  0.595086  0.611757  1
  O  O39  1  0.215353  0.904914  0.111757  1
  O  O40  1  0.286971  0.139494  0.480171  1
  O  O41  1  0.213029  0.360506  0.980171  1
  O  O42  1  0.713029  0.860506  0.519829  1
  O  O43  1  0.786971  0.639494  0.019829  1
  O  O44  1  0.573229  0.168335  0.377473  1
  O  O45  1  0.926771  0.331665  0.877473  1
  O  O46  1  0.426771  0.831665  0.622527  1
  O  O47  1  0.240765  0.086734  0.660747  1
  Na  Na48  1  0.499273  0.936156  0.223148  1
  Na  Na49  1  0.000727  0.563844  0.723148  1
  Na  Na50  1  0.500727  0.063844  0.776852  1
  Na  Na51  1  0.999273  0.436156  0.276852  1
  P  P52  1  0.121110  0.733499  0.385814  1
  P  P53  1  0.378890  0.766501  0.885814  1
  P  P54  1  0.878890  0.266501  0.614186  1
  P  P55  1  0.621110  0.233499  0.114186  1
  P  P56  1  0.730476  0.797696  0.408892  1
  P  P57  1  0.769524  0.702304  0.908892  1
  P  P58  1  0.269524  0.202304  0.591108  1
  P  P59  1  0.230476  0.297696  0.091108  1
  P  P60  1  0.251301  0.758333  0.101243  1
  P  P61  1  0.248699  0.741667  0.601243  1
  P  P62  1  0.748699  0.241667  0.898757  1
  P  P63  1  0.751301  0.258333  0.398757  1
  P  P64  1  0.856162  0.696326  0.126275  1
  P  P65  1  0.643838  0.803674  0.626275  1
  P  P66  1  0.143838  0.303673  0.873725  1
  P  P67  1  0.356162  0.196326  0.373725  1
  Nd  Nd68  1  0.486962  0.521830  0.278531  1
  Nd  Nd69  1  0.013038  0.978170  0.778531  1
  Nd  Nd70  1  0.513038  0.478170  0.721469  1
  Nd  Nd71  1  0.986962  0.021830  0.221469  1
