# generated using pymatgen
data_Dy2TeO2
_symmetry_space_group_name_H-M   'P 1'
_cell_length_a   3.93429646
_cell_length_b   3.93429646
_cell_length_c   6.85211897
_cell_angle_alpha   106.68358620
_cell_angle_beta   106.68358624
_cell_angle_gamma   90.00000003
_symmetry_Int_Tables_number   1
_chemical_formula_structural   Dy2TeO2
_chemical_formula_sum   'Dy2 Te1 O2'
_cell_volume   96.92698711
_cell_formula_units_Z   1
loop_
 _symmetry_equiv_pos_site_id
 _symmetry_equiv_pos_as_xyz
  1  'x, y, z'
loop_
 _atom_site_type_symbol
 _atom_site_label
 _atom_site_symmetry_multiplicity
 _atom_site_fract_x
 _atom_site_fract_y
 _atom_site_fract_z
 _atom_site_occupancy
  O  O0  1  0.250000  0.750000  0.500000  1
  O  O1  1  0.750000  0.250000  0.500000  1
  Te  Te2  1  0.000000  0.000000  0.000000  1
  Dy  Dy3  1  0.662669  0.662669  0.325338  1
  Dy  Dy4  1  0.337331  0.337331  0.674662  1
