# generated using pymatgen
data_MoW3(SeS)4
_symmetry_space_group_name_H-M   'P 1'
_cell_length_a   3.25811763
_cell_length_b   3.25808360
_cell_length_c   36.91997131
_cell_angle_alpha   89.99985551
_cell_angle_beta   90.00000000
_cell_angle_gamma   120.00034545
_symmetry_Int_Tables_number   1
_chemical_formula_structural   MoW3(SeS)4
_chemical_formula_sum   'Mo1 W3 Se4 S4'
_cell_volume   339.40595503
_cell_formula_units_Z   1
loop_
 _symmetry_equiv_pos_site_id
 _symmetry_equiv_pos_as_xyz
  1  'x, y, z'
loop_
 _atom_site_type_symbol
 _atom_site_label
 _atom_site_symmetry_multiplicity
 _atom_site_fract_x
 _atom_site_fract_y
 _atom_site_fract_z
 _atom_site_occupancy
  Mo  Mo0  1  0.333304  0.666609  0.469669  1
  W  W1  1  0.333310  0.666620  0.093893  1
  W  W2  1  0.666697  0.333395  0.281790  1
  W  W3  1  0.666700  0.333400  0.657593  1
  Se  Se4  1  0.333346  0.666693  0.328032  1
  Se  Se5  1  0.333349  0.666700  0.703825  1
  Se  Se6  1  0.333347  0.666694  0.235522  1
  Se  Se7  1  0.333350  0.666702  0.611306  1
  S  S8  1  0.666651  0.333300  0.051907  1
  S  S9  1  0.666648  0.333296  0.427936  1
  S  S10  1  0.666650  0.333299  0.135876  1
  S  S11  1  0.666647  0.333294  0.511398  1
