# generated using pymatgen
data_Na4CO4
_symmetry_space_group_name_H-M   'P 1'
_cell_length_a   5.46060624
_cell_length_b   5.31228189
_cell_length_c   5.30110454
_cell_angle_alpha   120.06977304
_cell_angle_beta   112.93481574
_cell_angle_gamma   90.00000002
_symmetry_Int_Tables_number   1
_chemical_formula_structural   Na4CO4
_chemical_formula_sum   'Na4 C1 O4'
_cell_volume   118.82524400
_cell_formula_units_Z   1
loop_
 _symmetry_equiv_pos_site_id
 _symmetry_equiv_pos_as_xyz
  1  'x, y, z'
loop_
 _atom_site_type_symbol
 _atom_site_label
 _atom_site_symmetry_multiplicity
 _atom_site_fract_x
 _atom_site_fract_y
 _atom_site_fract_z
 _atom_site_occupancy
  C  C0  1  0.000000  0.775158  0.000000  1
  O  O1  1  0.111446  0.843331  0.833763  1
  O  O2  1  0.888554  0.009568  0.166237  1
  O  O3  1  0.212868  0.729792  0.228868  1
  O  O4  1  0.787132  0.500924  0.771132  1
  Na  Na5  1  0.466970  0.746869  0.681890  1
  Na  Na6  1  0.533030  0.064979  0.318110  1
  Na  Na7  1  0.886904  0.488463  0.265086  1
  Na  Na8  1  0.113096  0.223377  0.734914  1
