# generated using pymatgen
data_Lu7(TePd)2
_symmetry_space_group_name_H-M   'P 1'
_cell_length_a   3.89496411
_cell_length_b   9.23658267
_cell_length_c   9.23658268
_cell_angle_alpha   61.94144696
_cell_angle_beta   77.82815710
_cell_angle_gamma   77.82815717
_symmetry_Int_Tables_number   1
_chemical_formula_structural   Lu7(TePd)2
_chemical_formula_sum   'Lu7 Te2 Pd2'
_cell_volume   284.23693474
_cell_formula_units_Z   1
loop_
 _symmetry_equiv_pos_site_id
 _symmetry_equiv_pos_as_xyz
  1  'x, y, z'
loop_
 _atom_site_type_symbol
 _atom_site_label
 _atom_site_symmetry_multiplicity
 _atom_site_fract_x
 _atom_site_fract_y
 _atom_site_fract_z
 _atom_site_occupancy
  Pd  Pd0  1  0.236403  0.694905  0.832288  1
  Pd  Pd1  1  0.763597  0.167712  0.305095  1
  Te  Te2  1  0.000000  0.660717  0.339283  1
  Te  Te3  1  0.500000  0.266816  0.733184  1
  Lu  Lu4  1  0.683024  0.943756  0.690195  1
  Lu  Lu5  1  0.316976  0.309805  0.056244  1
  Lu  Lu6  1  0.000000  0.000322  0.999678  1
  Lu  Lu7  1  0.131214  0.285828  0.451744  1
  Lu  Lu8  1  0.868786  0.548256  0.714172  1
  Lu  Lu9  1  0.356106  0.911536  0.376253  1
  Lu  Lu10  1  0.643894  0.623747  0.088464  1
