# generated using pymatgen
data_TeMo2SeS2
_symmetry_space_group_name_H-M   'P 1'
_cell_length_a   3.30806277
_cell_length_b   3.30809338
_cell_length_c   37.56258646
_cell_angle_alpha   89.99970541
_cell_angle_beta   90.00000000
_cell_angle_gamma   119.99969385
_symmetry_Int_Tables_number   1
_chemical_formula_structural   TeMo2SeS2
_chemical_formula_sum   'Te2 Mo4 Se2 S4'
_cell_volume   355.99095354
_cell_formula_units_Z   2
loop_
 _symmetry_equiv_pos_site_id
 _symmetry_equiv_pos_as_xyz
  1  'x, y, z'
loop_
 _atom_site_type_symbol
 _atom_site_label
 _atom_site_symmetry_multiplicity
 _atom_site_fract_x
 _atom_site_fract_y
 _atom_site_fract_z
 _atom_site_occupancy
  Te  Te0  1  0.333352  0.666706  0.332672  1
  Te  Te1  1  0.333352  0.666705  0.230922  1
  Mo  Mo2  1  0.333306  0.666612  0.093905  1
  Mo  Mo3  1  0.333306  0.666611  0.469671  1
  Mo  Mo4  1  0.666690  0.333380  0.281798  1
  Mo  Mo5  1  0.666692  0.333384  0.657527  1
  Se  Se6  1  0.333353  0.666707  0.702184  1
  Se  Se7  1  0.333358  0.666717  0.612882  1
  S  S8  1  0.666650  0.333298  0.053268  1
  S  S9  1  0.666646  0.333290  0.428993  1
  S  S10  1  0.666651  0.333301  0.134560  1
  S  S11  1  0.666644  0.333287  0.510366  1
