# generated using pymatgen
data_LiCa3Si2N5
_symmetry_space_group_name_H-M   'P 1'
_cell_length_a   5.17944049
_cell_length_b   10.43794141
_cell_length_c   10.58065532
_cell_angle_alpha   89.70986674
_cell_angle_beta   75.83235156
_cell_angle_gamma   88.81454135
_symmetry_Int_Tables_number   1
_chemical_formula_structural   LiCa3Si2N5
_chemical_formula_sum   'Li4 Ca12 Si8 N20'
_cell_volume   554.50135857
_cell_formula_units_Z   4
loop_
 _symmetry_equiv_pos_site_id
 _symmetry_equiv_pos_as_xyz
  1  'x, y, z'
loop_
 _atom_site_type_symbol
 _atom_site_label
 _atom_site_symmetry_multiplicity
 _atom_site_fract_x
 _atom_site_fract_y
 _atom_site_fract_z
 _atom_site_occupancy
  Li  Li0  1  0.844734  0.750000  0.310532  1
  Li  Li1  1  0.155266  0.250000  0.689468  1
  Li  Li2  1  0.372677  0.750000  0.254646  1
  Li  Li3  1  0.627323  0.250000  0.745354  1
  Ca  Ca4  1  0.461257  0.854454  0.570102  1
  Ca  Ca5  1  0.968641  0.645546  0.570102  1
  Ca  Ca6  1  0.538743  0.145546  0.429898  1
  Ca  Ca7  1  0.031359  0.354454  0.429898  1
  Ca  Ca8  1  0.343160  0.644509  0.820303  1
  Ca  Ca9  1  0.836537  0.855491  0.820303  1
  Ca  Ca10  1  0.656840  0.355491  0.179697  1
  Ca  Ca11  1  0.163463  0.144509  0.179697  1
  Ca  Ca12  1  0.732016  0.632142  0.037801  1
  Ca  Ca13  1  0.230183  0.867858  0.037801  1
  Ca  Ca14  1  0.267984  0.367858  0.962199  1
  Ca  Ca15  1  0.769817  0.132142  0.962199  1
  Si  Si16  1  0.307686  0.037886  0.790473  1
  Si  Si17  1  0.901841  0.462114  0.790473  1
  Si  Si18  1  0.692314  0.962114  0.209527  1
  Si  Si19  1  0.098159  0.537886  0.209527  1
  Si  Si20  1  0.113602  0.952398  0.392863  1
  Si  Si21  1  0.493535  0.547602  0.392863  1
  Si  Si22  1  0.886398  0.047602  0.607137  1
  Si  Si23  1  0.506465  0.452398  0.607137  1
  N  N24  1  0.497397  0.616388  0.547897  1
  N  N25  1  0.954705  0.883612  0.547897  1
  N  N26  1  0.502603  0.383612  0.452103  1
  N  N27  1  0.045295  0.116388  0.452103  1
  N  N28  1  0.000619  0.076351  0.744102  1
  N  N29  1  0.255279  0.423649  0.744102  1
  N  N30  1  -0.000619  0.923649  0.255898  1
  N  N31  1  0.744721  0.576351  0.255898  1
  N  N32  1  0.700203  0.877436  0.066283  1
  N  N33  1  0.233514  0.622564  0.066283  1
  N  N34  1  0.299797  0.122564  0.933717  1
  N  N35  1  0.766486  0.377436  0.933717  1
  N  N36  1  0.333716  0.869915  0.804291  1
  N  N37  1  0.861993  0.630085  0.804291  1
  N  N38  1  0.666284  0.130085  0.195709  1
  N  N39  1  0.138007  0.369915  0.195709  1
  N  N40  1  0.452566  0.912326  0.352918  1
  N  N41  1  0.194516  0.587674  0.352918  1
  N  N42  1  0.547434  0.087674  0.647082  1
  N  N43  1  0.805484  0.412326  0.647082  1
