# generated using pymatgen
data_BaSi3SnO9
_symmetry_space_group_name_H-M   'P 1'
_cell_length_a   6.83229765
_cell_length_b   6.83229765
_cell_length_c   9.99143842
_cell_angle_alpha   90.00000000
_cell_angle_beta   90.00000000
_cell_angle_gamma   120.00000004
_symmetry_Int_Tables_number   1
_chemical_formula_structural   BaSi3SnO9
_chemical_formula_sum   'Ba2 Si6 Sn2 O18'
_cell_volume   403.91706693
_cell_formula_units_Z   2
loop_
 _symmetry_equiv_pos_site_id
 _symmetry_equiv_pos_as_xyz
  1  'x, y, z'
loop_
 _atom_site_type_symbol
 _atom_site_label
 _atom_site_symmetry_multiplicity
 _atom_site_fract_x
 _atom_site_fract_y
 _atom_site_fract_z
 _atom_site_occupancy
  O  O0  1  0.580836  0.924400  0.614289  1
  O  O1  1  0.075600  0.419164  0.385711  1
  O  O2  1  0.075600  0.656436  0.614289  1
  O  O3  1  0.343564  0.419164  0.614289  1
  O  O4  1  0.075600  0.656436  0.885711  1
  O  O5  1  0.343564  0.419164  0.885711  1
  O  O6  1  0.580836  0.924400  0.885711  1
  O  O7  1  0.343564  0.924400  0.114289  1
  O  O8  1  0.580836  0.656436  0.114289  1
  O  O9  1  0.580836  0.656436  0.385711  1
  O  O10  1  0.249097  0.192924  0.250000  1
  O  O11  1  0.943827  0.750903  0.250000  1
  O  O12  1  0.807076  0.056173  0.250000  1
  O  O13  1  0.807076  0.750903  0.750000  1
  O  O14  1  0.943827  0.192924  0.750000  1
  O  O15  1  0.249097  0.056173  0.750000  1
  O  O16  1  0.075600  0.419164  0.114289  1
  O  O17  1  0.343564  0.924400  0.385711  1
  Si  Si18  1  0.064564  0.782194  0.750000  1
  Si  Si19  1  0.217806  0.282370  0.750000  1
  Si  Si20  1  0.717630  0.935436  0.750000  1
  Si  Si21  1  0.717630  0.782194  0.250000  1
  Si  Si22  1  0.217806  0.935436  0.250000  1
  Si  Si23  1  0.064564  0.282370  0.250000  1
  Sn  Sn24  1  0.333333  0.666667  0.500000  1
  Sn  Sn25  1  0.333333  0.666667  0.000000  1
  Ba  Ba26  1  0.666667  0.333333  0.500000  1
  Ba  Ba27  1  0.666667  0.333333  0.000000  1
