# generated using pymatgen
data_Sb2(PSe3)3
_symmetry_space_group_name_H-M   'P 1'
_cell_length_a   7.71195593
_cell_length_b   9.53240885
_cell_length_c   21.92381271
_cell_angle_alpha   90.20591758
_cell_angle_beta   90.00000000
_cell_angle_gamma   90.00000000
_symmetry_Int_Tables_number   1
_chemical_formula_structural   Sb2(PSe3)3
_chemical_formula_sum   'Sb8 P12 Se36'
_cell_volume   1611.68616882
_cell_formula_units_Z   4
loop_
 _symmetry_equiv_pos_site_id
 _symmetry_equiv_pos_as_xyz
  1  'x, y, z'
loop_
 _atom_site_type_symbol
 _atom_site_label
 _atom_site_symmetry_multiplicity
 _atom_site_fract_x
 _atom_site_fract_y
 _atom_site_fract_z
 _atom_site_occupancy
  P  P0  1  0.546854  0.029044  0.452115  1
  P  P1  1  0.046854  0.470956  0.047885  1
  P  P2  1  0.453146  0.970956  0.547885  1
  P  P3  1  0.953146  0.529044  0.952115  1
  P  P4  1  0.437319  0.067056  0.145465  1
  P  P5  1  0.937319  0.432944  0.354535  1
  P  P6  1  0.562681  0.932944  0.854535  1
  P  P7  1  0.062681  0.567056  0.645465  1
  P  P8  1  0.346491  0.066345  0.815125  1
  P  P9  1  0.846491  0.433655  0.684875  1
  P  P10  1  0.653509  0.933655  0.184875  1
  P  P11  1  0.153509  0.566345  0.315125  1
  Se  Se12  1  0.752729  0.039351  0.266226  1
  Se  Se13  1  0.464627  0.278123  0.798320  1
  Se  Se14  1  0.035373  0.778123  0.298320  1
  Se  Se15  1  0.535373  0.721877  0.201680  1
  Se  Se16  1  0.649072  0.445171  0.609675  1
  Se  Se17  1  0.149072  0.054829  0.890325  1
  Se  Se18  1  0.350928  0.554829  0.390325  1
  Se  Se19  1  0.850928  0.945171  0.109675  1
  Se  Se20  1  0.266646  0.566400  0.714753  1
  Se  Se21  1  0.766646  0.933600  0.785247  1
  Se  Se22  1  0.733354  0.433600  0.285247  1
  Se  Se23  1  0.964627  0.221877  0.701680  1
  Se  Se24  1  0.938021  0.769315  0.620913  1
  Se  Se25  1  0.438021  0.730685  0.879087  1
  Se  Se26  1  0.061979  0.230685  0.379087  1
  Se  Se27  1  0.561979  0.269315  0.120913  1
  Se  Se28  1  0.146127  0.435492  0.565507  1
  Se  Se29  1  0.646127  0.064508  0.934493  1
  Se  Se30  1  0.853873  0.564508  0.434493  1
  Se  Se31  1  0.353873  0.935492  0.065507  1
  Se  Se32  1  0.924348  0.762559  0.955813  1
  Se  Se33  1  0.424348  0.737441  0.544187  1
  Se  Se34  1  0.075652  0.237441  0.044187  1
  Se  Se35  1  0.575652  0.262559  0.455813  1
  Se  Se36  1  0.138970  0.459785  0.883887  1
  Se  Se37  1  0.638970  0.040215  0.616113  1
  Se  Se38  1  0.861030  0.540215  0.116113  1
  Se  Se39  1  0.361030  0.959785  0.383887  1
  Se  Se40  1  0.693599  0.424195  0.945804  1
  Se  Se41  1  0.193599  0.075805  0.554196  1
  Se  Se42  1  0.306401  0.575805  0.054196  1
  Se  Se43  1  0.806401  0.924195  0.445804  1
  Se  Se44  1  0.247271  0.960649  0.733774  1
  Se  Se45  1  0.747271  0.539351  0.766226  1
  Se  Se46  1  0.233354  0.066400  0.214753  1
  Se  Se47  1  0.252729  0.460649  0.233774  1
  Sb  Sb48  1  0.717067  0.745604  0.354404  1
  Sb  Sb49  1  0.217067  0.754396  0.145596  1
  Sb  Sb50  1  0.282933  0.254396  0.645596  1
  Sb  Sb51  1  0.782933  0.245604  0.854404  1
  Sb  Sb52  1  0.594074  0.712381  0.653406  1
  Sb  Sb53  1  0.094074  0.787619  0.846594  1
  Sb  Sb54  1  0.405926  0.287619  0.346594  1
  Sb  Sb55  1  0.905926  0.212381  0.153406  1
