# generated using pymatgen
data_MoW(SeS)2
_symmetry_space_group_name_H-M   'P 1'
_cell_length_a   3.25390216
_cell_length_b   3.25388838
_cell_length_c   36.89824573
_cell_angle_alpha   89.99926716
_cell_angle_beta   90.00000528
_cell_angle_gamma   120.00012202
_symmetry_Int_Tables_number   1
_chemical_formula_structural   MoW(SeS)2
_chemical_formula_sum   'Mo2 W2 Se4 S4'
_cell_volume   338.33190741
_cell_formula_units_Z   2
loop_
 _symmetry_equiv_pos_site_id
 _symmetry_equiv_pos_as_xyz
  1  'x, y, z'
loop_
 _atom_site_type_symbol
 _atom_site_label
 _atom_site_symmetry_multiplicity
 _atom_site_fract_x
 _atom_site_fract_y
 _atom_site_fract_z
 _atom_site_occupancy
  Mo  Mo0  1  0.333312  0.666624  0.093912  1
  Mo  Mo1  1  0.666691  0.333382  0.281769  1
  W  W2  1  0.333312  0.666624  0.469677  1
  W  W3  1  0.666691  0.333383  0.657546  1
  Se  Se4  1  0.333351  0.666702  0.327758  1
  Se  Se5  1  0.666635  0.333269  0.423359  1
  Se  Se6  1  0.666649  0.333298  0.516002  1
  Se  Se7  1  0.333351  0.666703  0.235800  1
  S  S8  1  0.333358  0.666717  0.699539  1
  S  S9  1  0.666647  0.333293  0.052036  1
  S  S10  1  0.666648  0.333295  0.135800  1
  S  S11  1  0.333355  0.666710  0.615549  1
