# generated using pymatgen
data_Sn4As3
_symmetry_space_group_name_H-M   'P 1'
_cell_length_a   12.44076889
_cell_length_b   12.44076889
_cell_length_c   12.44076889
_cell_angle_alpha   19.24004532
_cell_angle_beta   19.24004533
_cell_angle_gamma   19.24004530
_symmetry_Int_Tables_number   1
_chemical_formula_structural   Sn4As3
_chemical_formula_sum   'Sn4 As3'
_cell_volume   182.77395337
_cell_formula_units_Z   1
loop_
 _symmetry_equiv_pos_site_id
 _symmetry_equiv_pos_as_xyz
  1  'x, y, z'
loop_
 _atom_site_type_symbol
 _atom_site_label
 _atom_site_symmetry_multiplicity
 _atom_site_fract_x
 _atom_site_fract_y
 _atom_site_fract_z
 _atom_site_occupancy
  As  As0  1  0.431861  0.431861  0.431861  1
  As  As1  1  0.002135  0.002135  0.002135  1
  As  As2  1  0.572428  0.572428  0.572428  1
  Sn  Sn3  1  0.867116  0.867116  0.867116  1
  Sn  Sn4  1  0.137159  0.137159  0.137159  1
  Sn  Sn5  1  0.712706  0.712706  0.712706  1
  Sn  Sn6  1  0.291484  0.291484  0.291484  1
