# generated using pymatgen
data_Te2MoWS2
_symmetry_space_group_name_H-M   'P 1'
_cell_length_a   3.35896869
_cell_length_b   3.35893790
_cell_length_c   38.34067210
_cell_angle_alpha   89.99978799
_cell_angle_beta   90.00000000
_cell_angle_gamma   120.00030309
_symmetry_Int_Tables_number   1
_chemical_formula_structural   Te2MoWS2
_chemical_formula_sum   'Te4 Mo2 W2 S4'
_cell_volume   374.62517409
_cell_formula_units_Z   2
loop_
 _symmetry_equiv_pos_site_id
 _symmetry_equiv_pos_as_xyz
  1  'x, y, z'
loop_
 _atom_site_type_symbol
 _atom_site_label
 _atom_site_symmetry_multiplicity
 _atom_site_fract_x
 _atom_site_fract_y
 _atom_site_fract_z
 _atom_site_occupancy
  Te  Te0  1  0.333353  0.666706  0.331136  1
  Te  Te1  1  0.333351  0.666703  0.707160  1
  Te  Te2  1  0.333356  0.666712  0.232486  1
  Te  Te3  1  0.333363  0.666727  0.607896  1
  Mo  Mo4  1  0.333325  0.666649  0.469659  1
  Mo  Mo5  1  0.666687  0.333373  0.281796  1
  W  W6  1  0.333309  0.666618  0.093909  1
  W  W7  1  0.666688  0.333377  0.657552  1
  S  S8  1  0.666645  0.333290  0.054288  1
  S  S9  1  0.666637  0.333274  0.430202  1
  S  S10  1  0.666648  0.333295  0.133545  1
  S  S11  1  0.666638  0.333275  0.509117  1
