# generated using pymatgen
data_Ba5Gd8Zn4O21
_symmetry_space_group_name_H-M   'P 1'
_cell_length_a   5.81568232
_cell_length_b   10.35178600
_cell_length_c   10.35178600
_cell_angle_alpha   85.47430671
_cell_angle_beta   73.68593200
_cell_angle_gamma   73.68593198
_symmetry_Int_Tables_number   1
_chemical_formula_structural   Ba5Gd8Zn4O21
_chemical_formula_sum   'Ba5 Gd8 Zn4 O21'
_cell_volume   574.03071904
_cell_formula_units_Z   1
loop_
 _symmetry_equiv_pos_site_id
 _symmetry_equiv_pos_as_xyz
  1  'x, y, z'
loop_
 _atom_site_type_symbol
 _atom_site_label
 _atom_site_symmetry_multiplicity
 _atom_site_fract_x
 _atom_site_fract_y
 _atom_site_fract_z
 _atom_site_occupancy
  O  O0  1  0.098524  0.888631  0.406386  1
  O  O1  1  0.504910  0.593614  0.888631  1
  O  O2  1  0.987154  0.406386  0.111369  1
  O  O3  1  0.393540  0.111369  0.593614  1
  O  O4  1  0.901476  0.111369  0.593614  1
  O  O5  1  0.495090  0.406386  0.111369  1
  O  O6  1  0.012846  0.593614  0.888631  1
  O  O7  1  0.606460  0.888631  0.406386  1
  O  O8  1  0.930100  0.868359  0.774625  1
  O  O9  1  0.704726  0.225375  0.868359  1
  O  O10  1  0.798459  0.774625  0.131641  1
  O  O11  1  0.573084  0.131641  0.225375  1
  O  O12  1  0.069900  0.131641  0.225375  1
  O  O13  1  0.295274  0.774625  0.131641  1
  O  O14  1  0.201541  0.225375  0.868359  1
  O  O15  1  0.426916  0.868359  0.774625  1
  O  O16  1  0.373509  0.661093  0.591889  1
  O  O17  1  0.500000  0.000000  0.000000  1
  O  O18  1  0.626491  0.338907  0.408111  1
  O  O19  1  0.034602  0.591889  0.338907  1
  O  O20  1  0.965398  0.408111  0.661093  1
  Zn  Zn21  1  0.959045  0.788561  0.293348  1
  Zn  Zn22  1  0.252393  0.706652  0.788561  1
  Zn  Zn23  1  0.747607  0.293348  0.211439  1
  Zn  Zn24  1  0.040955  0.211439  0.706652  1
  Ba  Ba25  1  0.466611  0.394939  0.671838  1
  Ba  Ba26  1  0.138449  0.328162  0.394939  1
  Ba  Ba27  1  0.861551  0.671838  0.605061  1
  Ba  Ba28  1  0.533389  0.605061  0.328162  1
  Ba  Ba29  1  0.000000  0.000000  0.000000  1
  Gd  Gd30  1  0.589042  0.053621  0.768295  1
  Gd  Gd31  1  0.357337  0.231705  0.053621  1
  Gd  Gd32  1  0.642663  0.768295  0.946379  1
  Gd  Gd33  1  0.410958  0.946379  0.231705  1
  Gd  Gd34  1  0.752605  0.080206  0.414584  1
  Gd  Gd35  1  0.167189  0.585416  0.080206  1
  Gd  Gd36  1  0.832811  0.414584  0.919794  1
  Gd  Gd37  1  0.247395  0.919794  0.585416  1
