# generated using pymatgen
data_Na3Mn2(GeO4)3
_symmetry_space_group_name_H-M   'P 1'
_cell_length_a   10.62692774
_cell_length_b   10.62243503
_cell_length_c   10.62496593
_cell_angle_alpha   109.46131305
_cell_angle_beta   109.47824601
_cell_angle_gamma   109.46795103
_symmetry_Int_Tables_number   1
_chemical_formula_structural   Na3Mn2(GeO4)3
_chemical_formula_sum   'Na12 Mn8 Ge12 O48'
_cell_volume   923.35866144
_cell_formula_units_Z   4
loop_
 _symmetry_equiv_pos_site_id
 _symmetry_equiv_pos_as_xyz
  1  'x, y, z'
loop_
 _atom_site_type_symbol
 _atom_site_label
 _atom_site_symmetry_multiplicity
 _atom_site_fract_x
 _atom_site_fract_y
 _atom_site_fract_z
 _atom_site_occupancy
  Na  Na0  1  0.625029  0.250036  0.874901  1
  Na  Na1  1  0.875217  0.750432  0.625041  1
  Na  Na2  1  0.749967  0.625007  0.875073  1
  Na  Na3  1  0.249764  0.875191  0.624762  1
  Na  Na4  1  0.874996  0.625372  0.250134  1
  Na  Na5  1  0.625149  0.875084  0.750125  1
  Na  Na6  1  0.374971  0.749964  0.125098  1
  Na  Na7  1  0.124783  0.249568  0.374958  1
  Na  Na8  1  0.250033  0.374993  0.124927  1
  Na  Na9  1  0.750236  0.124810  0.375238  1
  Na  Na10  1  0.125004  0.374628  0.749866  1
  Na  Na11  1  0.374850  0.124916  0.249874  1
  Mn  Mn12  1  0.500001  0.500000  0.499999  1
  Mn  Mn13  1  0.500002  0.500002  0.000000  1
  Mn  Mn14  1  0.499999  1.000000  0.500001  1
  Mn  Mn15  1  0.000000  0.499999  0.499998  1
  Mn  Mn16  1  0.500001  0.000001  0.000001  1
  Mn  Mn17  1  1.000000  1.000001  0.500001  1
  Mn  Mn18  1  1.000000  0.500001  1.000000  1
  Mn  Mn19  1  0.000001  0.999999  0.999999  1
  Ge  Ge20  1  0.874933  0.124838  0.749770  1
  Ge  Ge21  1  0.125064  0.875157  0.250229  1
  Ge  Ge22  1  0.250074  0.624990  0.375003  1
  Ge  Ge23  1  0.124993  0.749981  0.875048  1
  Ge  Ge24  1  0.750194  0.875080  0.125158  1
  Ge  Ge25  1  0.374825  0.249877  0.625013  1
  Ge  Ge26  1  0.625178  0.750124  0.374990  1
  Ge  Ge27  1  0.875004  0.250020  0.124954  1
  Ge  Ge28  1  0.249807  0.124918  0.874842  1
  Ge  Ge29  1  0.749925  0.375011  0.624997  1
  Ge  Ge30  1  0.374946  0.624997  0.750030  1
  Ge  Ge31  1  0.625052  0.375001  0.249972  1
  O  O32  1  0.805384  0.417901  0.818690  1
  O  O33  1  0.081084  0.886660  0.400252  1
  O  O34  1  0.681312  0.099187  0.986693  1
  O  O35  1  0.694741  0.513543  0.612579  1
  O  O36  1  0.694462  0.681136  0.081528  1
  O  O37  1  0.513266  0.612464  0.694620  1
  O  O38  1  0.099336  0.612652  0.418043  1
  O  O39  1  0.612048  0.694617  0.513228  1
  O  O40  1  0.400832  0.818740  0.513536  1
  O  O41  1  0.887042  0.986633  0.805490  1
  O  O42  1  0.986471  0.805214  0.887246  1
  O  O43  1  0.081987  0.694609  0.681271  1
  O  O44  1  0.612752  0.417952  0.099192  1
  O  O45  1  0.513218  0.400888  0.818717  1
  O  O46  1  0.681293  0.082155  0.694493  1
  O  O47  1  0.418466  0.099587  0.612958  1
  O  O48  1  0.818751  0.513352  0.400682  1
  O  O49  1  0.401146  0.082556  0.887953  1
  O  O50  1  0.099790  0.986434  0.680883  1
  O  O51  1  0.599168  0.181258  0.486462  1
  O  O52  1  0.986851  0.681403  0.098911  1
  O  O53  1  0.819112  0.805569  0.418924  1
  O  O54  1  0.887422  0.400973  0.082198  1
  O  O55  1  0.805521  0.887653  0.986769  1
  O  O56  1  0.194616  0.582098  0.181308  1
  O  O57  1  0.918914  0.113339  0.599749  1
  O  O58  1  0.318690  0.900814  0.013309  1
  O  O59  1  0.305259  0.486457  0.387421  1
  O  O60  1  0.305541  0.318867  0.918475  1
  O  O61  1  0.486733  0.387536  0.305380  1
  O  O62  1  0.900664  0.387346  0.581954  1
  O  O63  1  0.387952  0.305386  0.486773  1
  O  O64  1  0.194478  0.112348  0.013230  1
  O  O65  1  0.112577  0.599030  0.917802  1
  O  O66  1  0.180889  0.194432  0.581077  1
  O  O67  1  0.582227  0.181226  0.194810  1
  O  O68  1  0.013150  0.318597  0.901090  1
  O  O69  1  0.900212  0.013569  0.319118  1
  O  O70  1  0.598855  0.917445  0.112047  1
  O  O71  1  0.181247  0.486647  0.599317  1
  O  O72  1  0.581533  0.900414  0.387042  1
  O  O73  1  0.318707  0.917844  0.305507  1
  O  O74  1  0.486782  0.599112  0.181284  1
  O  O75  1  0.387247  0.582047  0.900808  1
  O  O76  1  0.918012  0.305390  0.318726  1
  O  O77  1  0.013531  0.194786  0.112754  1
  O  O78  1  0.112957  0.013365  0.194508  1
  O  O79  1  0.417773  0.818774  0.805190  1
