# generated using pymatgen
data_Sm2Mn12P7
_symmetry_space_group_name_H-M   'P 1'
_cell_length_a   9.32846112
_cell_length_b   9.32018703
_cell_length_c   3.62999897
_cell_angle_alpha   90.00000000
_cell_angle_beta   90.00000000
_cell_angle_gamma   119.97901736
_symmetry_Int_Tables_number   1
_chemical_formula_structural   Sm2Mn12P7
_chemical_formula_sum   'Sm2 Mn12 P7'
_cell_volume   273.37799428
_cell_formula_units_Z   1
loop_
 _symmetry_equiv_pos_site_id
 _symmetry_equiv_pos_as_xyz
  1  'x, y, z'
loop_
 _atom_site_type_symbol
 _atom_site_label
 _atom_site_symmetry_multiplicity
 _atom_site_fract_x
 _atom_site_fract_y
 _atom_site_fract_z
 _atom_site_occupancy
  Sm  Sm0  1  0.666930  0.333778  0.499999  1
  Sm  Sm1  1  0.333233  0.666062  0.000000  1
  Mn  Mn2  1  0.425741  0.047910  0.000000  1
  Mn  Mn3  1  0.952340  0.378272  0.000000  1
  Mn  Mn4  1  0.622305  0.574509  0.000000  1
  Mn  Mn5  1  0.154616  0.274185  0.000000  1
  Mn  Mn6  1  0.724670  0.879726  0.000000  1
  Mn  Mn7  1  0.120869  0.846107  0.000000  1
  Mn  Mn8  1  0.390536  0.435126  0.499999  1
  Mn  Mn9  1  0.564594  0.955336  0.499999  1
  Mn  Mn10  1  0.045374  0.609663  0.499999  1
  Mn  Mn11  1  0.222126  0.101291  0.499999  1
  Mn  Mn12  1  0.897562  0.121280  0.499999  1
  Mn  Mn13  1  0.878857  0.776941  0.499999  1
  P  P14  1  0.122695  0.404553  0.499999  1
  P  P15  1  0.594822  0.717879  0.499999  1
  P  P16  1  0.282920  0.877068  0.499999  1
  P  P17  1  0.999238  -0.000440  0.000000  1
  P  P18  1  0.406916  0.288879  0.000000  1
  P  P19  1  0.710945  0.118134  0.000000  1
  P  P20  1  0.882707  0.593736  0.000000  1
