# generated using pymatgen
data_C3N
_symmetry_space_group_name_H-M   'P 1'
_cell_length_a   3.34538560
_cell_length_b   7.55707388
_cell_length_c   6.83665990
_cell_angle_alpha   90.00000000
_cell_angle_beta   90.00000000
_cell_angle_gamma   90.00000000
_symmetry_Int_Tables_number   1
_chemical_formula_structural   C3N
_chemical_formula_sum   'C12 N4'
_cell_volume   172.83982861
_cell_formula_units_Z   4
loop_
 _symmetry_equiv_pos_site_id
 _symmetry_equiv_pos_as_xyz
  1  'x, y, z'
loop_
 _atom_site_type_symbol
 _atom_site_label
 _atom_site_symmetry_multiplicity
 _atom_site_fract_x
 _atom_site_fract_y
 _atom_site_fract_z
 _atom_site_occupancy
  C  C0  1  0.325077  0.499014  0.250000  1
  C  C1  1  0.174923  -0.000986  0.250000  1
  C  C2  1  0.674923  0.500986  0.750000  1
  C  C3  1  0.825077  0.000986  0.750000  1
  C  C4  1  0.021337  0.499561  0.099677  1
  C  C5  1  0.478663  -0.000439  0.400323  1
  C  C6  1  0.978663  0.500439  0.599677  1
  C  C7  1  0.521337  0.000439  0.900323  1
  C  C8  1  0.978663  0.500439  0.900323  1
  C  C9  1  0.521337  0.000439  0.599677  1
  C  C10  1  0.021337  0.499561  0.400323  1
  C  C11  1  0.478663  -0.000439  0.099677  1
  N  N12  1  0.776939  -0.000225  0.250000  1
  N  N13  1  0.723061  0.499775  0.250000  1
  N  N14  1  0.223061  0.000225  0.750000  1
  N  N15  1  0.276939  0.500225  0.750000  1
