# generated using pymatgen
data_MoW(SeS)2
_symmetry_space_group_name_H-M   'P 1'
_cell_length_a   3.25413202
_cell_length_b   3.25411143
_cell_length_c   36.95595650
_cell_angle_alpha   89.99988172
_cell_angle_beta   90.00000000
_cell_angle_gamma   120.00020932
_symmetry_Int_Tables_number   1
_chemical_formula_structural   MoW(SeS)2
_chemical_formula_sum   'Mo2 W2 Se4 S4'
_cell_volume   338.90794598
_cell_formula_units_Z   2
loop_
 _symmetry_equiv_pos_site_id
 _symmetry_equiv_pos_as_xyz
  1  'x, y, z'
loop_
 _atom_site_type_symbol
 _atom_site_label
 _atom_site_symmetry_multiplicity
 _atom_site_fract_x
 _atom_site_fract_y
 _atom_site_fract_z
 _atom_site_occupancy
  Mo  Mo0  1  0.333304  0.666607  0.093909  1
  Mo  Mo1  1  0.666696  0.333393  0.657549  1
  W  W2  1  0.333302  0.666604  0.469709  1
  W  W3  1  0.666698  0.333396  0.281749  1
  Se  Se4  1  0.333350  0.666701  0.327997  1
  Se  Se5  1  0.666650  0.333299  0.423461  1
  Se  Se6  1  0.666648  0.333295  0.515927  1
  Se  Se7  1  0.333352  0.666705  0.235531  1
  S  S8  1  0.333354  0.666709  0.699336  1
  S  S9  1  0.666646  0.333291  0.052122  1
  S  S10  1  0.666646  0.333292  0.135700  1
  S  S11  1  0.333354  0.666708  0.615758  1
