# generated using pymatgen
data_Sr3ErRhO6
_symmetry_space_group_name_H-M   'P 1'
_cell_length_a   6.84441030
_cell_length_b   6.84441030
_cell_length_c   6.84441031
_cell_angle_alpha   92.22870311
_cell_angle_beta   92.22870312
_cell_angle_gamma   92.22870315
_symmetry_Int_Tables_number   1
_chemical_formula_structural   Sr3ErRhO6
_chemical_formula_sum   'Sr6 Er2 Rh2 O12'
_cell_volume   319.88584838
_cell_formula_units_Z   2
loop_
 _symmetry_equiv_pos_site_id
 _symmetry_equiv_pos_as_xyz
  1  'x, y, z'
loop_
 _atom_site_type_symbol
 _atom_site_label
 _atom_site_symmetry_multiplicity
 _atom_site_fract_x
 _atom_site_fract_y
 _atom_site_fract_z
 _atom_site_occupancy
  O  O0  1  0.792130  0.592498  0.457977  1
  O  O1  1  0.592498  0.457977  0.792130  1
  O  O2  1  0.457977  0.792130  0.592498  1
  O  O3  1  0.042023  0.907502  0.707870  1
  O  O4  1  0.907502  0.707870  0.042023  1
  O  O5  1  0.707870  0.042023  0.907502  1
  O  O6  1  0.207870  0.407502  0.542023  1
  O  O7  1  0.407502  0.542023  0.207870  1
  O  O8  1  0.542023  0.207870  0.407502  1
  O  O9  1  0.957977  0.092498  0.292130  1
  O  O10  1  0.292130  0.957977  0.092498  1
  O  O11  1  0.092498  0.292130  0.957977  1
  Sr  Sr12  1  0.618707  0.881293  0.250000  1
  Sr  Sr13  1  0.250000  0.618707  0.881293  1
  Sr  Sr14  1  0.881293  0.250000  0.618707  1
  Sr  Sr15  1  0.381293  0.118707  0.750000  1
  Sr  Sr16  1  0.118707  0.750000  0.381293  1
  Sr  Sr17  1  0.750000  0.381293  0.118707  1
  Rh  Rh18  1  0.500000  0.500000  0.500000  1
  Rh  Rh19  1  0.000000  0.000000  0.000000  1
  Er  Er20  1  0.750000  0.750000  0.750000  1
  Er  Er21  1  0.250000  0.250000  0.250000  1
