# generated using pymatgen
data_TeMoWSeS2
_symmetry_space_group_name_H-M   'P 1'
_cell_length_a   3.30815595
_cell_length_b   3.30816906
_cell_length_c   37.69455732
_cell_angle_alpha   89.99987552
_cell_angle_beta   90.00000000
_cell_angle_gamma   119.99986899
_symmetry_Int_Tables_number   1
_chemical_formula_structural   TeMoWSeS2
_chemical_formula_sum   'Te2 Mo2 W2 Se2 S4'
_cell_volume   357.25928334
_cell_formula_units_Z   2
loop_
 _symmetry_equiv_pos_site_id
 _symmetry_equiv_pos_as_xyz
  1  'x, y, z'
loop_
 _atom_site_type_symbol
 _atom_site_label
 _atom_site_symmetry_multiplicity
 _atom_site_fract_x
 _atom_site_fract_y
 _atom_site_fract_z
 _atom_site_occupancy
  Te  Te0  1  0.333353  0.666707  0.332857  1
  Te  Te1  1  0.333352  0.666706  0.230703  1
  Mo  Mo2  1  0.333296  0.666593  0.093900  1
  Mo  Mo3  1  0.666688  0.333376  0.657534  1
  W  W4  1  0.333311  0.666622  0.469698  1
  W  W5  1  0.666689  0.333377  0.281787  1
  Se  Se6  1  0.333352  0.666705  0.702147  1
  Se  Se7  1  0.333352  0.666705  0.612930  1
  S  S8  1  0.666655  0.333309  0.053377  1
  S  S9  1  0.666648  0.333296  0.428991  1
  S  S10  1  0.666657  0.333313  0.134442  1
  S  S11  1  0.666646  0.333291  0.510382  1
