# generated using pymatgen
data_Ce2(CuGe)3
_symmetry_space_group_name_H-M   'P 1'
_cell_length_a   4.22879288
_cell_length_b   4.15943619
_cell_length_c   8.82509282
_cell_angle_alpha   90.00000000
_cell_angle_beta   103.86229262
_cell_angle_gamma   90.00000000
_symmetry_Int_Tables_number   1
_chemical_formula_structural   Ce2(CuGe)3
_chemical_formula_sum   'Ce2 Cu3 Ge3'
_cell_volume   150.70692160
_cell_formula_units_Z   1
loop_
 _symmetry_equiv_pos_site_id
 _symmetry_equiv_pos_as_xyz
  1  'x, y, z'
loop_
 _atom_site_type_symbol
 _atom_site_label
 _atom_site_symmetry_multiplicity
 _atom_site_fract_x
 _atom_site_fract_y
 _atom_site_fract_z
 _atom_site_occupancy
  Ce  Ce0  1  0.164529  0.500000  0.329059  1
  Ce  Ce1  1  0.376738  0.000000  0.753475  1
  Cu  Cu2  1  0.798309  0.500000  0.596618  1
  Cu  Cu3  1  0.015596  0.000000  0.031192  1
  Cu  Cu4  1  0.593069  0.000000  0.186139  1
  Ge  Ge5  1  0.934318  0.500000  0.868636  1
  Ge  Ge6  1  0.522658  0.500000  0.045317  1
  Ge  Ge7  1  0.732782  0.000000  0.465564  1
