# generated using pymatgen
data_NaMoO3
_symmetry_space_group_name_H-M   'P 1'
_cell_length_a   3.93206755
_cell_length_b   3.93291267
_cell_length_c   3.93268902
_cell_angle_alpha   89.85761453
_cell_angle_beta   89.71263505
_cell_angle_gamma   89.97701652
_symmetry_Int_Tables_number   1
_chemical_formula_structural   NaMoO3
_chemical_formula_sum   'Na1 Mo1 O3'
_cell_volume   60.81602650
_cell_formula_units_Z   1
loop_
 _symmetry_equiv_pos_site_id
 _symmetry_equiv_pos_as_xyz
  1  'x, y, z'
loop_
 _atom_site_type_symbol
 _atom_site_label
 _atom_site_symmetry_multiplicity
 _atom_site_fract_x
 _atom_site_fract_y
 _atom_site_fract_z
 _atom_site_occupancy
  Na  Na0  1  0.992618  0.999933  0.999050  1
  Mo  Mo1  1  0.487165  0.500006  0.497799  1
  O  O2  1  0.486588  0.000019  0.497341  1
  O  O3  1  0.986902  0.500129  0.498066  1
  O  O4  1  0.486727  0.499918  0.997745  1
