# generated using pymatgen
data_Te2Mo3W(Se2S)2
_symmetry_space_group_name_H-M   'P 1'
_cell_length_a   3.34317638
_cell_length_b   3.34311782
_cell_length_c   38.02833033
_cell_angle_alpha   90.00006541
_cell_angle_beta   90.00000000
_cell_angle_gamma   120.00057940
_symmetry_Int_Tables_number   1
_chemical_formula_structural   Te2Mo3W(Se2S)2
_chemical_formula_sum   'Te2 Mo3 W1 Se4 S2'
_cell_volume   368.08348033
_cell_formula_units_Z   1
loop_
 _symmetry_equiv_pos_site_id
 _symmetry_equiv_pos_as_xyz
  1  'x, y, z'
loop_
 _atom_site_type_symbol
 _atom_site_label
 _atom_site_symmetry_multiplicity
 _atom_site_fract_x
 _atom_site_fract_y
 _atom_site_fract_z
 _atom_site_occupancy
  Te  Te0  1  0.333359  0.666719  0.331686  1
  Te  Te1  1  0.333359  0.666720  0.231951  1
  Mo  Mo2  1  0.333309  0.666618  0.093876  1
  Mo  Mo3  1  0.333286  0.666572  0.469674  1
  Mo  Mo4  1  0.666694  0.333388  0.281824  1
  W  W5  1  0.666695  0.333391  0.657538  1
  Se  Se6  1  0.333351  0.666704  0.701517  1
  Se  Se7  1  0.666637  0.333273  0.050119  1
  Se  Se8  1  0.666651  0.333301  0.137676  1
  Se  Se9  1  0.333352  0.666706  0.613539  1
  S  S10  1  0.666654  0.333307  0.429758  1
  S  S11  1  0.666651  0.333302  0.509589  1
