# generated using pymatgen
data_Eu2AlNO3
_symmetry_space_group_name_H-M   'P 1'
_cell_length_a   3.73616552
_cell_length_b   3.73616552
_cell_length_c   6.76076614
_cell_angle_alpha   106.04023322
_cell_angle_beta   106.04023322
_cell_angle_gamma   90.00000000
_symmetry_Int_Tables_number   1
_chemical_formula_structural   Eu2AlNO3
_chemical_formula_sum   'Eu2 Al1 N1 O3'
_cell_volume   86.86953807
_cell_formula_units_Z   1
loop_
 _symmetry_equiv_pos_site_id
 _symmetry_equiv_pos_as_xyz
  1  'x, y, z'
loop_
 _atom_site_type_symbol
 _atom_site_label
 _atom_site_symmetry_multiplicity
 _atom_site_fract_x
 _atom_site_fract_y
 _atom_site_fract_z
 _atom_site_occupancy
  Eu  Eu0  1  0.520415  0.520415  0.040830  1
  Eu  Eu1  1  0.807407  0.807407  0.614814  1
  Al  Al2  1  0.165500  0.165500  0.331000  1
  N  N3  1  0.997016  0.997016  0.994033  1
  O  O4  1  0.166840  0.666840  0.333681  1
  O  O5  1  0.666840  0.166840  0.333681  1
  O  O6  1  0.328681  0.328681  0.657362  1
