# generated using pymatgen
data_NdAs2
_symmetry_space_group_name_H-M   'P 1'
_cell_length_a   4.14422590
_cell_length_b   6.91185174
_cell_length_c   10.22046978
_cell_angle_alpha   90.00000000
_cell_angle_beta   96.03614210
_cell_angle_gamma   90.00000000
_symmetry_Int_Tables_number   1
_chemical_formula_structural   NdAs2
_chemical_formula_sum   'Nd4 As8'
_cell_volume   291.13482668
_cell_formula_units_Z   4
loop_
 _symmetry_equiv_pos_site_id
 _symmetry_equiv_pos_as_xyz
  1  'x, y, z'
loop_
 _atom_site_type_symbol
 _atom_site_label
 _atom_site_symmetry_multiplicity
 _atom_site_fract_x
 _atom_site_fract_y
 _atom_site_fract_z
 _atom_site_occupancy
  As  As0  1  0.320394  0.876997  0.049702  1
  As  As1  1  0.179606  0.376997  0.450298  1
  As  As2  1  0.679606  0.123003  0.950298  1
  As  As3  1  0.820394  0.623003  0.549702  1
  As  As4  1  0.290381  0.355953  0.828823  1
  As  As5  1  0.209619  0.855953  0.671177  1
  As  As6  1  0.709619  0.644047  0.171177  1
  As  As7  1  0.790381  0.144047  0.328823  1
  Nd  Nd8  1  0.269947  0.812576  0.359673  1
  Nd  Nd9  1  0.230053  0.312576  0.140327  1
  Nd  Nd10  1  0.730053  0.187424  0.640327  1
  Nd  Nd11  1  0.769947  0.687424  0.859673  1
