# generated using pymatgen
data_Y3Ge5
_symmetry_space_group_name_H-M   'P 1'
_cell_length_a   5.79711904
_cell_length_b   7.48837510
_cell_length_c   9.18651820
_cell_angle_alpha   82.98489531
_cell_angle_beta   71.60759886
_cell_angle_gamma   67.22740775
_symmetry_Int_Tables_number   1
_chemical_formula_structural   Y3Ge5
_chemical_formula_sum   'Y6 Ge10'
_cell_volume   348.92581274
_cell_formula_units_Z   2
loop_
 _symmetry_equiv_pos_site_id
 _symmetry_equiv_pos_as_xyz
  1  'x, y, z'
loop_
 _atom_site_type_symbol
 _atom_site_label
 _atom_site_symmetry_multiplicity
 _atom_site_fract_x
 _atom_site_fract_y
 _atom_site_fract_z
 _atom_site_occupancy
  Ge  Ge0  1  0.400928  0.701871  0.871603  1
  Ge  Ge1  1  0.897201  0.701871  0.128397  1
  Ge  Ge2  1  0.275598  0.201871  0.371603  1
  Ge  Ge3  1  0.522531  0.201871  0.628397  1
  Ge  Ge4  1  0.668696  0.335275  0.826057  1
  Ge  Ge5  1  0.996029  0.335275  0.173943  1
  Ge  Ge6  1  0.943864  0.112272  0.000000  1
  Ge  Ge7  1  0.193864  0.612272  0.500000  1
  Ge  Ge8  1  0.744753  0.835275  0.673943  1
  Ge  Ge9  1  0.419973  0.835275  0.326057  1
  Y  Y10  1  0.745165  0.509669  0.500000  1
  Y  Y11  1  0.495165  0.009669  0.000000  1
  Y  Y12  1  0.155972  0.993784  0.663770  1
  Y  Y13  1  0.850244  0.993784  0.336230  1
  Y  Y14  1  0.436474  0.493784  0.163770  1
  Y  Y15  1  0.069742  0.493784  0.836230  1
