# generated using pymatgen
data_Te2Mo2WSe4
_symmetry_space_group_name_H-M   'P 1'
_cell_length_a   3.39840924
_cell_length_b   3.39835734
_cell_length_c   31.41386725
_cell_angle_alpha   90.00036521
_cell_angle_beta   90.00000479
_cell_angle_gamma   120.00051696
_symmetry_Int_Tables_number   1
_chemical_formula_structural   Te2Mo2WSe4
_chemical_formula_sum   'Te2 Mo2 W1 Se4'
_cell_volume   314.19154402
_cell_formula_units_Z   1
loop_
 _symmetry_equiv_pos_site_id
 _symmetry_equiv_pos_as_xyz
  1  'x, y, z'
loop_
 _atom_site_type_symbol
 _atom_site_label
 _atom_site_symmetry_multiplicity
 _atom_site_fract_x
 _atom_site_fract_y
 _atom_site_fract_z
 _atom_site_occupancy
  Te  Te0  1  0.666650  0.333299  0.056041  1
  Te  Te1  1  0.666650  0.333299  0.175282  1
  Mo  Mo2  1  0.333311  0.666622  0.115646  1
  Mo  Mo3  1  0.666689  0.333379  0.346997  1
  W  W4  1  0.333308  0.666616  0.578299  1
  Se  Se5  1  0.333353  0.666706  0.399483  1
  Se  Se6  1  0.666639  0.333276  0.525635  1
  Se  Se7  1  0.666649  0.333297  0.630961  1
  Se  Se8  1  0.333352  0.666705  0.294497  1
