# generated using pymatgen
data_Nd3Ga5O12
_symmetry_space_group_name_H-M   'P 1'
_cell_length_a   10.96113676
_cell_length_b   10.96113675
_cell_length_c   10.96113675
_cell_angle_alpha   109.47122063
_cell_angle_beta   109.47122062
_cell_angle_gamma   109.47122065
_symmetry_Int_Tables_number   1
_chemical_formula_structural   Nd3Ga5O12
_chemical_formula_sum   'Nd12 Ga20 O48'
_cell_volume   1013.78275070
_cell_formula_units_Z   4
loop_
 _symmetry_equiv_pos_site_id
 _symmetry_equiv_pos_as_xyz
  1  'x, y, z'
loop_
 _atom_site_type_symbol
 _atom_site_label
 _atom_site_symmetry_multiplicity
 _atom_site_fract_x
 _atom_site_fract_y
 _atom_site_fract_z
 _atom_site_occupancy
  O  O0  1  0.298564  0.477016  0.380523  1
  O  O1  1  0.022984  0.321548  0.903506  1
  O  O2  1  0.119477  0.596494  0.918042  1
  O  O3  1  0.201436  0.581958  0.178452  1
  O  O4  1  0.201436  0.119477  0.022984  1
  O  O5  1  0.581958  0.178452  0.201436  1
  O  O6  1  0.596494  0.178452  0.477016  1
  O  O7  1  0.178452  0.201436  0.581958  1
  O  O8  1  0.903506  0.380523  0.581958  1
  O  O9  1  0.321548  0.918042  0.298564  1
  O  O10  1  0.918042  0.298564  0.321548  1
  O  O11  1  0.022984  0.201436  0.119477  1
  O  O12  1  0.178452  0.477016  0.596494  1
  O  O13  1  0.581958  0.903506  0.380523  1
  O  O14  1  0.119477  0.022984  0.201436  1
  O  O15  1  0.477016  0.596494  0.178452  1
  O  O16  1  0.380523  0.581958  0.903506  1
  O  O17  1  0.903506  0.022984  0.321548  1
  O  O18  1  0.596494  0.918042  0.119477  1
  O  O19  1  0.096494  0.619477  0.418042  1
  O  O20  1  0.918042  0.119477  0.596494  1
  O  O21  1  0.380523  0.298564  0.477016  1
  O  O22  1  0.321548  0.903506  0.022984  1
  O  O23  1  0.298564  0.321548  0.918042  1
  O  O24  1  0.701436  0.522984  0.619477  1
  O  O25  1  0.977016  0.678452  0.096494  1
  O  O26  1  0.880523  0.403506  0.081958  1
  O  O27  1  0.798564  0.418042  0.821548  1
  O  O28  1  0.798564  0.880523  0.977016  1
  O  O29  1  0.418042  0.821548  0.798564  1
  O  O30  1  0.403506  0.821548  0.522984  1
  O  O31  1  0.821548  0.798564  0.418042  1
  O  O32  1  0.701436  0.678452  0.081958  1
  O  O33  1  0.678452  0.096494  0.977016  1
  O  O34  1  0.619477  0.701436  0.522984  1
  O  O35  1  0.522984  0.619477  0.701436  1
  O  O36  1  0.081958  0.880523  0.403506  1
  O  O37  1  0.403506  0.081958  0.880523  1
  O  O38  1  0.096494  0.977016  0.678452  1
  O  O39  1  0.619477  0.418042  0.096494  1
  O  O40  1  0.522984  0.403506  0.821548  1
  O  O41  1  0.880523  0.977016  0.798564  1
  O  O42  1  0.418042  0.096494  0.619477  1
  O  O43  1  0.821548  0.522984  0.403506  1
  O  O44  1  0.977016  0.798564  0.880523  1
  O  O45  1  0.081958  0.701436  0.678452  1
  O  O46  1  0.678452  0.081958  0.701436  1
  O  O47  1  0.477016  0.380523  0.298564  1
  Ga  Ga48  1  0.250000  0.125000  0.875000  1
  Ga  Ga49  1  0.750000  0.875000  0.125000  1
  Ga  Ga50  1  0.375000  0.250000  0.625000  1
  Ga  Ga51  1  0.625000  0.375000  0.250000  1
  Ga  Ga52  1  0.125000  0.750000  0.875000  1
  Ga  Ga53  1  0.875000  0.125000  0.750000  1
  Ga  Ga54  1  0.750000  0.375000  0.625000  1
  Ga  Ga55  1  0.375000  0.625000  0.750000  1
  Ga  Ga56  1  0.125000  0.875000  0.250000  1
  Ga  Ga57  1  0.875000  0.250000  0.125000  1
  Ga  Ga58  1  0.625000  0.750000  0.375000  1
  Ga  Ga59  1  0.250000  0.625000  0.375000  1
  Ga  Ga60  1  0.500000  0.500000  0.500000  1
  Ga  Ga61  1  0.500000  0.500000  0.000000  1
  Ga  Ga62  1  0.500000  0.000000  0.500000  1
  Ga  Ga63  1  0.000000  0.500000  0.500000  1
  Ga  Ga64  1  0.500000  0.000000  0.000000  1
  Ga  Ga65  1  0.000000  0.000000  0.500000  1
  Ga  Ga66  1  0.000000  0.500000  0.000000  1
  Ga  Ga67  1  0.000000  0.000000  0.000000  1
  Nd  Nd68  1  0.250000  0.875000  0.625000  1
  Nd  Nd69  1  0.875000  0.625000  0.250000  1
  Nd  Nd70  1  0.625000  0.875000  0.750000  1
  Nd  Nd71  1  0.875000  0.750000  0.625000  1
  Nd  Nd72  1  0.625000  0.250000  0.875000  1
  Nd  Nd73  1  0.750000  0.625000  0.875000  1
  Nd  Nd74  1  0.750000  0.125000  0.375000  1
  Nd  Nd75  1  0.125000  0.375000  0.750000  1
  Nd  Nd76  1  0.375000  0.125000  0.250000  1
  Nd  Nd77  1  0.125000  0.250000  0.375000  1
  Nd  Nd78  1  0.375000  0.750000  0.125000  1
  Nd  Nd79  1  0.250000  0.375000  0.125000  1
