# generated using pymatgen
data_Sm6GaCo2
_symmetry_space_group_name_H-M   'P 1'
_cell_length_a   8.44403970
_cell_length_b   8.44403970
_cell_length_c   8.44403970
_cell_angle_alpha   109.15890521
_cell_angle_beta   107.15125051
_cell_angle_gamma   112.14275985
_symmetry_Int_Tables_number   1
_chemical_formula_structural   Sm6GaCo2
_chemical_formula_sum   'Sm12 Ga2 Co4'
_cell_volume   462.58288557
_cell_formula_units_Z   2
loop_
 _symmetry_equiv_pos_site_id
 _symmetry_equiv_pos_as_xyz
  1  'x, y, z'
loop_
 _atom_site_type_symbol
 _atom_site_label
 _atom_site_symmetry_multiplicity
 _atom_site_fract_x
 _atom_site_fract_y
 _atom_site_fract_z
 _atom_site_occupancy
  Sm  Sm0  1  0.737499  0.303967  0.041466  1
  Sm  Sm1  1  0.781193  0.961325  0.180132  1
  Sm  Sm2  1  0.218807  0.398939  0.180132  1
  Sm  Sm3  1  0.512376  0.186891  0.325485  1
  Sm  Sm4  1  0.138594  0.813108  0.325485  1
  Sm  Sm5  1  0.737499  0.696034  0.433531  1
  Sm  Sm6  1  0.262501  0.303967  0.566469  1
  Sm  Sm7  1  0.487622  0.813108  0.674515  1
  Sm  Sm8  1  0.861406  0.186891  0.674515  1
  Sm  Sm9  1  0.781193  0.601060  0.819868  1
  Sm  Sm10  1  0.218808  0.038675  0.819868  1
  Sm  Sm11  1  0.262501  0.696033  0.958534  1
  Ga  Ga12  1  0.500000  0.500000  -0.000000  1
  Ga  Ga13  1  -0.000000  0.500000  0.500000  1
  Co  Co14  1  0.113174  -0.000000  0.113174  1
  Co  Co15  1  0.500000  0.834645  0.334644  1
  Co  Co16  1  0.500000  0.165356  0.665357  1
  Co  Co17  1  0.886826  0.000000  0.886826  1
