# generated using pymatgen
data_CsB5O8
_symmetry_space_group_name_H-M   'P 1'
_cell_length_a   8.13346059
_cell_length_b   9.70831466
_cell_length_c   8.44862455
_cell_angle_alpha   90.00000000
_cell_angle_beta   90.00000000
_cell_angle_gamma   90.00000000
_symmetry_Int_Tables_number   1
_chemical_formula_structural   CsB5O8
_chemical_formula_sum   'Cs4 B20 O32'
_cell_volume   667.12193652
_cell_formula_units_Z   4
loop_
 _symmetry_equiv_pos_site_id
 _symmetry_equiv_pos_as_xyz
  1  'x, y, z'
loop_
 _atom_site_type_symbol
 _atom_site_label
 _atom_site_symmetry_multiplicity
 _atom_site_fract_x
 _atom_site_fract_y
 _atom_site_fract_z
 _atom_site_occupancy
  Cs  Cs0  1  0.539255  0.250000  0.210021  1
  Cs  Cs1  1  0.039255  0.250000  0.289979  1
  Cs  Cs2  1  0.460745  0.750000  0.789979  1
  Cs  Cs3  1  0.960745  0.750000  0.710021  1
  B  B4  1  0.087259  0.750000  0.118323  1
  B  B5  1  0.587259  0.750000  0.381677  1
  B  B6  1  0.912741  0.250000  0.881677  1
  B  B7  1  0.412741  0.250000  0.618323  1
  B  B8  1  0.273113  0.637254  0.348153  1
  B  B9  1  0.773113  0.862746  0.151847  1
  B  B10  1  0.726887  0.137254  0.651847  1
  B  B11  1  0.226887  0.362746  0.848153  1
  B  B12  1  0.726887  0.362746  0.651847  1
  B  B13  1  0.226887  0.137254  0.848153  1
  B  B14  1  0.273113  0.862746  0.348153  1
  B  B15  1  0.773113  0.637254  0.151847  1
  B  B16  1  0.244525  0.528791  0.084787  1
  B  B17  1  0.744525  0.971209  0.415213  1
  B  B18  1  0.755475  0.028791  0.915213  1
  B  B19  1  0.255475  0.471209  0.584787  1
  B  B20  1  0.755475  0.471209  0.915213  1
  B  B21  1  0.255475  0.028791  0.584787  1
  B  B22  1  0.244525  0.971209  0.084787  1
  B  B23  1  0.744525  0.528791  0.415213  1
  O  O24  1  0.346630  0.250000  0.786950  1
  O  O25  1  0.846630  0.250000  0.713050  1
  O  O26  1  0.653370  0.750000  0.213050  1
  O  O27  1  0.153370  0.750000  0.286950  1
  O  O28  1  0.315083  0.535849  0.233472  1
  O  O29  1  0.815083  0.964151  0.266528  1
  O  O30  1  0.684917  0.035849  0.766528  1
  O  O31  1  0.184917  0.464151  0.733472  1
  O  O32  1  0.684917  0.464151  0.766528  1
  O  O33  1  0.184917  0.035849  0.733472  1
  O  O34  1  0.315083  0.964151  0.233472  1
  O  O35  1  0.815083  0.535849  0.266528  1
  O  O36  1  0.138135  0.627727  0.032109  1
  O  O37  1  0.638135  0.872273  0.467891  1
  O  O38  1  0.861865  0.127727  0.967891  1
  O  O39  1  0.361865  0.372273  0.532109  1
  O  O40  1  0.861865  0.372273  0.967891  1
  O  O41  1  0.361865  0.127727  0.532109  1
  O  O42  1  0.138135  0.872273  0.032109  1
  O  O43  1  0.638135  0.627727  0.467891  1
  O  O44  1  0.096901  0.250000  0.877185  1
  O  O45  1  0.596901  0.250000  0.622815  1
  O  O46  1  0.903099  0.750000  0.122815  1
  O  O47  1  0.403099  0.750000  0.377185  1
  O  O48  1  0.286953  0.415776  0.995962  1
  O  O49  1  0.786953  0.084224  0.504038  1
  O  O50  1  0.713047  0.915776  0.004038  1
  O  O51  1  0.213047  0.584224  0.495962  1
  O  O52  1  0.713047  0.584224  0.004038  1
  O  O53  1  0.213047  0.915776  0.495962  1
  O  O54  1  0.286953  0.084224  0.995962  1
  O  O55  1  0.786953  0.415776  0.504038  1
