# generated using pymatgen
data_CsZnPO4
_symmetry_space_group_name_H-M   'P 1'
_cell_length_a   5.58651977
_cell_length_b   9.19528566
_cell_length_c   9.77019215
_cell_angle_alpha   90.00000000
_cell_angle_beta   90.00000000
_cell_angle_gamma   90.00000000
_symmetry_Int_Tables_number   1
_chemical_formula_structural   CsZnPO4
_chemical_formula_sum   'Cs4 Zn4 P4 O16'
_cell_volume   501.89130360
_cell_formula_units_Z   4
loop_
 _symmetry_equiv_pos_site_id
 _symmetry_equiv_pos_as_xyz
  1  'x, y, z'
loop_
 _atom_site_type_symbol
 _atom_site_label
 _atom_site_symmetry_multiplicity
 _atom_site_fract_x
 _atom_site_fract_y
 _atom_site_fract_z
 _atom_site_occupancy
  O  O0  1  0.974522  0.757681  0.987531  1
  O  O1  1  0.474522  0.242319  0.012469  1
  O  O2  1  0.525478  0.257681  0.512469  1
  O  O3  1  0.025478  0.742319  0.487531  1
  O  O4  1  0.025478  0.242319  0.012469  1
  O  O5  1  0.525478  0.757681  0.987531  1
  O  O6  1  0.474522  0.742319  0.487531  1
  O  O7  1  0.974522  0.257681  0.512469  1
  O  O8  1  0.250000  0.195809  0.794858  1
  O  O9  1  0.750000  0.804191  0.205142  1
  O  O10  1  0.250000  0.695809  0.705142  1
  O  O11  1  0.750000  0.304191  0.294858  1
  O  O12  1  0.750000  0.048968  0.394722  1
  O  O13  1  0.250000  0.951032  0.605278  1
  O  O14  1  0.750000  0.548968  0.105278  1
  O  O15  1  0.250000  0.451032  0.894722  1
  P  P16  1  0.250000  0.287454  0.927376  1
  P  P17  1  0.750000  0.712546  0.072624  1
  P  P18  1  0.250000  0.787454  0.572624  1
  P  P19  1  0.750000  0.212546  0.427376  1
  Zn  Zn20  1  0.250000  0.662419  0.904312  1
  Zn  Zn21  1  0.750000  0.337581  0.095688  1
  Zn  Zn22  1  0.250000  0.162419  0.595688  1
  Zn  Zn23  1  0.750000  0.837581  0.404312  1
  Cs  Cs24  1  0.250000  0.487767  0.309397  1
  Cs  Cs25  1  0.750000  0.512233  0.690603  1
  Cs  Cs26  1  0.250000  0.987767  0.190603  1
  Cs  Cs27  1  0.750000  0.012233  0.809397  1
