# generated using pymatgen
data_Te3MoWS
_symmetry_space_group_name_H-M   'P 1'
_cell_length_a   3.45552167
_cell_length_b   3.45552044
_cell_length_c   39.43171940
_cell_angle_alpha   89.99998668
_cell_angle_beta   90.00000000
_cell_angle_gamma   120.00001184
_symmetry_Int_Tables_number   1
_chemical_formula_structural   Te3MoWS
_chemical_formula_sum   'Te6 Mo2 W2 S2'
_cell_volume   407.75883711
_cell_formula_units_Z   2
loop_
 _symmetry_equiv_pos_site_id
 _symmetry_equiv_pos_as_xyz
  1  'x, y, z'
loop_
 _atom_site_type_symbol
 _atom_site_label
 _atom_site_symmetry_multiplicity
 _atom_site_fract_x
 _atom_site_fract_y
 _atom_site_fract_z
 _atom_site_occupancy
  Te  Te0  1  0.333350  0.666701  0.328926  1
  Te  Te1  1  0.333350  0.666700  0.704757  1
  Te  Te2  1  0.666642  0.333283  0.422692  1
  Te  Te3  1  0.666652  0.333303  0.516589  1
  Te  Te4  1  0.333352  0.666705  0.234517  1
  Te  Te5  1  0.333354  0.666710  0.610399  1
  Mo  Mo6  1  0.333311  0.666623  0.093956  1
  Mo  Mo7  1  0.333314  0.666627  0.469674  1
  W  W8  1  0.666690  0.333380  0.281745  1
  W  W9  1  0.666688  0.333376  0.657601  1
  S  S10  1  0.666649  0.333296  0.056163  1
  S  S11  1  0.666649  0.333296  0.131730  1
