# generated using pymatgen
data_Pr3NbO7
_symmetry_space_group_name_H-M   'P 1'
_cell_length_a   6.73935452
_cell_length_b   6.73935452
_cell_length_c   7.79952333
_cell_angle_alpha   90.00000000
_cell_angle_beta   90.00000000
_cell_angle_gamma   111.14811410
_symmetry_Int_Tables_number   1
_chemical_formula_structural   Pr3NbO7
_chemical_formula_sum   'Pr6 Nb2 O14'
_cell_volume   330.38763128
_cell_formula_units_Z   2
loop_
 _symmetry_equiv_pos_site_id
 _symmetry_equiv_pos_as_xyz
  1  'x, y, z'
loop_
 _atom_site_type_symbol
 _atom_site_label
 _atom_site_symmetry_multiplicity
 _atom_site_fract_x
 _atom_site_fract_y
 _atom_site_fract_z
 _atom_site_occupancy
  O  O0  1  0.570377  0.570377  0.750000  1
  O  O1  1  0.429624  0.429623  0.250000  1
  O  O2  1  0.108293  0.846037  0.750000  1
  O  O3  1  0.891706  0.153962  0.250000  1
  O  O4  1  0.846036  0.108293  0.750000  1
  O  O5  1  0.153963  0.891706  0.250000  1
  O  O6  1  0.185467  0.438602  0.965460  1
  O  O7  1  0.814534  0.561397  0.465460  1
  O  O8  1  0.438602  0.185467  0.965460  1
  O  O9  1  0.561397  0.814533  0.465460  1
  O  O10  1  0.185467  0.438602  0.534540  1
  O  O11  1  0.438602  0.185467  0.534540  1
  O  O12  1  0.561397  0.814533  0.034540  1
  O  O13  1  0.814534  0.561397  0.034540  1
  Nb  Nb14  1  0.500000  0.500000  0.500000  1
  Nb  Nb15  1  0.500000  0.500000  0.000000  1
  Pr  Pr16  1  0.478113  0.930101  0.750000  1
  Pr  Pr17  1  0.069898  0.521888  0.250000  1
  Pr  Pr18  1  0.930101  0.478112  0.750000  1
  Pr  Pr19  1  0.521888  0.069898  0.250000  1
  Pr  Pr20  1  0.000000  0.000000  0.500000  1
  Pr  Pr21  1  0.000000  0.000000  0.000000  1
