# generated using pymatgen
data_SrSiO3
_symmetry_space_group_name_H-M   'P 1'
_cell_length_a   7.04130972
_cell_length_b   7.03028700
_cell_length_c   9.84897130
_cell_angle_alpha   86.10503410
_cell_angle_beta   69.02064633
_cell_angle_gamma   75.34288484
_symmetry_Int_Tables_number   1
_chemical_formula_structural   SrSiO3
_chemical_formula_sum   'Sr6 Si6 O18'
_cell_volume   440.27522422
_cell_formula_units_Z   6
loop_
 _symmetry_equiv_pos_site_id
 _symmetry_equiv_pos_as_xyz
  1  'x, y, z'
loop_
 _atom_site_type_symbol
 _atom_site_label
 _atom_site_symmetry_multiplicity
 _atom_site_fract_x
 _atom_site_fract_y
 _atom_site_fract_z
 _atom_site_occupancy
  O  O0  1  0.870723  0.963125  0.392638  1
  O  O1  1  0.129277  0.036875  0.607362  1
  O  O2  1  0.642260  0.859422  0.260104  1
  O  O3  1  0.357740  0.140578  0.739896  1
  O  O4  1  0.857342  0.134529  0.137177  1
  O  O5  1  0.142658  0.865471  0.862823  1
  O  O6  1  0.658263  0.135107  0.943456  1
  O  O7  1  0.341737  0.864893  0.056544  1
  O  O8  1  0.916011  0.384485  0.919955  1
  O  O9  1  0.083989  0.615515  0.080045  1
  O  O10  1  0.548024  0.437106  0.139902  1
  O  O11  1  0.451976  0.562894  0.860098  1
  O  O12  1  0.783348  0.731165  0.736877  1
  O  O13  1  0.216652  0.268835  0.263123  1
  O  O14  1  0.478093  0.772690  0.622184  1
  O  O15  1  0.521907  0.227310  0.377816  1
  O  O16  1  0.766690  0.431763  0.599021  1
  O  O17  1  0.233310  0.568237  0.400979  1
  Si  Si18  1  0.726803  0.039845  0.294137  1
  Si  Si19  1  0.273197  0.960155  0.705863  1
  Si  Si20  1  0.747086  0.269047  0.021850  1
  Si  Si21  1  0.252914  0.730953  0.978150  1
  Si  Si22  1  0.374732  0.379177  0.293923  1
  Si  Si23  1  0.625268  0.620823  0.706077  1
  Sr  Sr24  1  0.890265  0.585182  0.345484  1
  Sr  Sr25  1  0.109735  0.414818  0.654516  1
  Sr  Sr26  1  0.745429  0.083140  0.660142  1
  Sr  Sr27  1  0.254571  0.916860  0.339858  1
  Sr  Sr28  1  0.249009  0.238297  0.003392  1
  Sr  Sr29  1  0.750991  0.761703  0.996608  1
