# generated using pymatgen
data_HgSeO3
_symmetry_space_group_name_H-M   'P 1'
_cell_length_a   5.03819868
_cell_length_b   7.22977462
_cell_length_c   9.42747368
_cell_angle_alpha   90.00000000
_cell_angle_beta   90.00000000
_cell_angle_gamma   90.35449513
_symmetry_Int_Tables_number   1
_chemical_formula_structural   HgSeO3
_chemical_formula_sum   'Hg4 Se4 O12'
_cell_volume   343.38954264
_cell_formula_units_Z   4
loop_
 _symmetry_equiv_pos_site_id
 _symmetry_equiv_pos_as_xyz
  1  'x, y, z'
loop_
 _atom_site_type_symbol
 _atom_site_label
 _atom_site_symmetry_multiplicity
 _atom_site_fract_x
 _atom_site_fract_y
 _atom_site_fract_z
 _atom_site_occupancy
  O  O0  1  0.693058  0.398796  0.129838  1
  O  O1  1  0.306942  0.101204  0.629838  1
  O  O2  1  0.306942  0.601204  0.870162  1
  O  O3  1  0.693058  0.898796  0.370162  1
  O  O4  1  0.738945  0.239901  0.876543  1
  O  O5  1  0.261055  0.260099  0.376543  1
  O  O6  1  0.261055  0.760099  0.123457  1
  O  O7  1  0.738945  0.739901  0.623457  1
  O  O8  1  0.908701  0.826930  0.906008  1
  O  O9  1  0.091299  0.673070  0.406008  1
  O  O10  1  0.091299  0.173070  0.093992  1
  O  O11  1  0.908701  0.326930  0.593992  1
  Se  Se12  1  0.752403  0.184619  0.059021  1
  Se  Se13  1  0.247597  0.315381  0.559021  1
  Se  Se14  1  0.247597  0.815381  0.940979  1
  Se  Se15  1  0.752403  0.684619  0.440979  1
  Hg  Hg16  1  0.788145  0.036682  0.673529  1
  Hg  Hg17  1  0.211855  0.463318  0.173529  1
  Hg  Hg18  1  0.211855  0.963318  0.326471  1
  Hg  Hg19  1  0.788145  0.536682  0.826471  1
