# generated using pymatgen
data_KAl(PO3)4
_symmetry_space_group_name_H-M   'P 1'
_cell_length_a   5.14175126
_cell_length_b   10.44824698
_cell_length_c   10.44824698
_cell_angle_alpha   72.64869112
_cell_angle_beta   81.74968742
_cell_angle_gamma   81.74968742
_symmetry_Int_Tables_number   1
_chemical_formula_structural   KAl(PO3)4
_chemical_formula_sum   'K2 Al2 P8 O24'
_cell_volume   527.19471941
_cell_formula_units_Z   2
loop_
 _symmetry_equiv_pos_site_id
 _symmetry_equiv_pos_as_xyz
  1  'x, y, z'
loop_
 _atom_site_type_symbol
 _atom_site_label
 _atom_site_symmetry_multiplicity
 _atom_site_fract_x
 _atom_site_fract_y
 _atom_site_fract_z
 _atom_site_occupancy
  K  K0  1  0.745224  0.407120  0.407120  1
  K  K1  1  0.254776  0.592880  0.592880  1
  Al  Al2  1  0.000000  0.500000  0.000000  1
  Al  Al3  1  0.000000  0.000000  0.500000  1
  P  P4  1  0.531746  0.311414  0.068759  1
  P  P5  1  0.531746  0.068759  0.311414  1
  P  P6  1  0.468254  0.688586  0.931241  1
  P  P7  1  0.468254  0.931241  0.688586  1
  P  P8  1  0.835669  0.353872  0.801761  1
  P  P9  1  0.835669  0.801761  0.353872  1
  P  P10  1  0.164331  0.646128  0.198239  1
  P  P11  1  0.164331  0.198239  0.646128  1
  O  O12  1  0.760358  0.649423  0.912473  1
  O  O13  1  0.760358  0.912473  0.649423  1
  O  O14  1  0.239642  0.350577  0.087527  1
  O  O15  1  0.239642  0.087527  0.350577  1
  O  O16  1  0.012720  0.424395  0.857175  1
  O  O17  1  0.012720  0.857175  0.424395  1
  O  O18  1  0.987280  0.575605  0.142825  1
  O  O19  1  0.987280  0.142825  0.575605  1
  O  O20  1  0.708901  0.401713  0.096146  1
  O  O21  1  0.708901  0.096146  0.401713  1
  O  O22  1  0.291099  0.598287  0.903854  1
  O  O23  1  0.291099  0.903854  0.598287  1
  O  O24  1  0.614176  0.289677  0.922925  1
  O  O25  1  0.614176  0.922925  0.289677  1
  O  O26  1  0.385824  0.710323  0.077075  1
  O  O27  1  0.385824  0.077075  0.710323  1
  O  O28  1  0.713622  0.431487  0.677849  1
  O  O29  1  0.713622  0.677849  0.431487  1
  O  O30  1  0.286378  0.568513  0.322151  1
  O  O31  1  0.286378  0.322151  0.568513  1
  O  O32  1  0.000000  0.213936  0.786064  1
  O  O33  1  0.000000  0.786064  0.213936  1
  O  O34  1  0.597534  0.160269  0.160269  1
  O  O35  1  0.402466  0.839731  0.839731  1
