# generated using pymatgen
data_Sr2CaMoO6
_symmetry_space_group_name_H-M   'P 1'
_cell_length_a   5.81094659
_cell_length_b   6.13299019
_cell_length_c   8.33586347
_cell_angle_alpha   90.00000000
_cell_angle_beta   90.00000000
_cell_angle_gamma   90.00000000
_symmetry_Int_Tables_number   1
_chemical_formula_structural   Sr2CaMoO6
_chemical_formula_sum   'Sr4 Ca2 Mo2 O12'
_cell_volume   297.07749048
_cell_formula_units_Z   2
loop_
 _symmetry_equiv_pos_site_id
 _symmetry_equiv_pos_as_xyz
  1  'x, y, z'
loop_
 _atom_site_type_symbol
 _atom_site_label
 _atom_site_symmetry_multiplicity
 _atom_site_fract_x
 _atom_site_fract_y
 _atom_site_fract_z
 _atom_site_occupancy
  O  O0  1  0.500000  0.513238  0.732439  1
  O  O1  1  0.500000  0.513238  0.267561  1
  O  O2  1  0.000000  0.948651  0.767563  1
  O  O3  1  0.000000  0.948651  0.232437  1
  O  O4  1  0.746949  0.293457  0.500000  1
  O  O5  1  0.253051  0.293457  0.500000  1
  O  O6  1  0.731502  0.737323  0.500000  1
  O  O7  1  0.268498  0.737323  0.500000  1
  O  O8  1  0.246879  0.168631  0.000000  1
  O  O9  1  0.753121  0.168631  0.000000  1
  O  O10  1  0.768425  0.724755  0.000000  1
  O  O11  1  0.231575  0.724755  0.000000  1
  Ca  Ca12  1  0.000000  0.009337  0.500000  1
  Ca  Ca13  1  0.500000  0.452664  0.000000  1
  Sr  Sr14  1  0.500000  0.927847  0.768491  1
  Sr  Sr15  1  0.000000  0.534084  0.268487  1
  Sr  Sr16  1  0.500000  0.927847  0.231509  1
  Sr  Sr17  1  0.000000  0.534084  0.731513  1
  Mo  Mo18  1  0.500000  0.495671  0.500000  1
  Mo  Mo19  1  0.000000  0.966354  0.000000  1
