# generated using pymatgen
data_KFePO4F
_symmetry_space_group_name_H-M   'P 1'
_cell_length_a   6.44466664
_cell_length_b   10.80982854
_cell_length_c   13.04926945
_cell_angle_alpha   90.00000000
_cell_angle_beta   90.00000000
_cell_angle_gamma   90.00000000
_symmetry_Int_Tables_number   1
_chemical_formula_structural   KFePO4F
_chemical_formula_sum   'K8 Fe8 P8 O32 F8'
_cell_volume   909.08703065
_cell_formula_units_Z   8
loop_
 _symmetry_equiv_pos_site_id
 _symmetry_equiv_pos_as_xyz
  1  'x, y, z'
loop_
 _atom_site_type_symbol
 _atom_site_label
 _atom_site_symmetry_multiplicity
 _atom_site_fract_x
 _atom_site_fract_y
 _atom_site_fract_z
 _atom_site_occupancy
  O  O0  1  0.308440  0.969166  0.112728  1
  O  O1  1  0.809921  0.023236  0.615339  1
  O  O2  1  0.309921  0.523237  0.884661  1
  O  O3  1  0.690079  0.023236  0.115339  1
  O  O4  1  0.035954  0.381023  0.247110  1
  O  O5  1  0.964046  0.881024  0.752890  1
  O  O6  1  0.464047  0.381023  0.747110  1
  O  O7  1  0.535954  0.881024  0.252890  1
  O  O8  1  0.519205  0.859261  0.513501  1
  O  O9  1  0.480795  0.359262  0.486499  1
  O  O10  1  0.980795  0.859261  0.013501  1
  O  O11  1  0.019204  0.359262  0.986499  1
  O  O12  1  0.808442  0.469166  0.387272  1
  O  O13  1  0.191559  0.969166  0.612728  1
  O  O14  1  0.691559  0.469166  0.887272  1
  O  O15  1  0.190080  0.523237  0.384661  1
  O  O16  1  0.529166  0.631227  0.488921  1
  O  O17  1  0.470833  0.131228  0.511079  1
  O  O18  1  0.970835  0.631227  0.988921  1
  O  O19  1  0.451999  0.106814  0.255446  1
  O  O20  1  0.807618  0.766835  0.404203  1
  O  O21  1  0.192383  0.266836  0.595797  1
  O  O22  1  0.692383  0.766835  0.904203  1
  O  O23  1  0.307616  0.266836  0.095797  1
  O  O24  1  0.693900  0.729943  0.096756  1
  O  O25  1  0.306099  0.229943  0.903244  1
  O  O26  1  0.806100  0.729943  0.596756  1
  O  O27  1  0.193901  0.229943  0.403244  1
  O  O28  1  0.952000  0.606815  0.244554  1
  O  O29  1  0.048001  0.106814  0.755446  1
  O  O30  1  0.548001  0.606815  0.744554  1
  O  O31  1  0.029166  0.131228  0.011079  1
  F  F32  1  0.981711  0.867992  0.227036  1
  F  F33  1  0.018289  0.367992  0.772964  1
  F  F34  1  0.518289  0.867992  0.727036  1
  F  F35  1  0.481712  0.367992  0.272964  1
  F  F36  1  0.026666  0.119370  0.230288  1
  F  F37  1  0.973333  0.619370  0.769712  1
  F  F38  1  0.473333  0.119370  0.730288  1
  F  F39  1  0.526666  0.619370  0.269712  1
  P  P40  1  0.998338  0.495955  0.317367  1
  P  P41  1  0.498337  0.995955  0.182633  1
  P  P42  1  0.501662  0.495955  0.817368  1
  P  P43  1  0.001662  0.995955  0.682633  1
  P  P44  1  0.170063  0.247863  0.000096  1
  P  P45  1  0.829938  0.747864  0.999904  1
  P  P46  1  0.329937  0.247863  0.500096  1
  P  P47  1  0.670062  0.747864  0.499904  1
  K  K48  1  0.771839  0.204400  0.373979  1
  K  K49  1  0.303819  0.943711  0.894804  1
  K  K50  1  0.803819  0.443711  0.605196  1
  K  K51  1  0.196180  0.943711  0.394804  1
  K  K52  1  0.696181  0.443711  0.105196  1
  K  K53  1  0.271840  0.704400  0.126021  1
  K  K54  1  0.728161  0.204400  0.873979  1
  K  K55  1  0.228160  0.704400  0.626021  1
  Fe  Fe56  1  0.751147  0.748497  0.253018  1
  Fe  Fe57  1  0.248853  0.248497  0.746982  1
  Fe  Fe58  1  0.748853  0.748497  0.753018  1
  Fe  Fe59  1  0.251148  0.248497  0.246982  1
  Fe  Fe60  1  0.493619  0.499004  0.388925  1
  Fe  Fe61  1  0.506382  0.999004  0.611075  1
  Fe  Fe62  1  0.006381  0.499004  0.888925  1
  Fe  Fe63  1  0.993618  0.999004  0.111075  1
