# generated using pymatgen
data_BaB2S3O13
_symmetry_space_group_name_H-M   'P 1'
_cell_length_a   17.51312477
_cell_length_b   12.64423337
_cell_length_c   4.50746732
_cell_angle_alpha   90.00000000
_cell_angle_beta   90.00000000
_cell_angle_gamma   90.00000000
_symmetry_Int_Tables_number   1
_chemical_formula_structural   BaB2S3O13
_chemical_formula_sum   'Ba4 B8 S12 O52'
_cell_volume   998.13372845
_cell_formula_units_Z   4
loop_
 _symmetry_equiv_pos_site_id
 _symmetry_equiv_pos_as_xyz
  1  'x, y, z'
loop_
 _atom_site_type_symbol
 _atom_site_label
 _atom_site_symmetry_multiplicity
 _atom_site_fract_x
 _atom_site_fract_y
 _atom_site_fract_z
 _atom_site_occupancy
  Ba  Ba0  1  0.282056  0.750000  0.472507  1
  Ba  Ba1  1  0.782056  0.750000  0.027493  1
  Ba  Ba2  1  0.717944  0.250000  0.527493  1
  Ba  Ba3  1  0.217944  0.250000  0.972507  1
  B  B4  1  0.579567  0.650311  0.062261  1
  B  B5  1  0.079567  0.849689  0.437739  1
  B  B6  1  0.420433  0.150311  0.937739  1
  B  B7  1  0.920433  0.349689  0.562261  1
  B  B8  1  0.420433  0.349689  0.937739  1
  B  B9  1  0.920433  0.150311  0.562261  1
  B  B10  1  0.579567  0.849689  0.062261  1
  B  B11  1  0.079567  0.650311  0.437739  1
  S  S12  1  0.147420  0.563504  0.942961  1
  S  S13  1  0.647420  0.936496  0.557039  1
  S  S14  1  0.852580  0.063504  0.057039  1
  S  S15  1  0.352580  0.436496  0.442961  1
  S  S16  1  0.852580  0.436496  0.057039  1
  S  S17  1  0.352580  0.063504  0.442961  1
  S  S18  1  0.147420  0.936496  0.942961  1
  S  S19  1  0.647420  0.563504  0.557039  1
  S  S20  1  0.453537  0.750000  0.867132  1
  S  S21  1  0.953537  0.750000  0.632868  1
  S  S22  1  0.546463  0.250000  0.132868  1
  S  S23  1  0.046463  0.250000  0.367132  1
  O  O24  1  0.116474  0.750000  0.465083  1
  O  O25  1  0.616474  0.750000  0.034917  1
  O  O26  1  0.883526  0.250000  0.534917  1
  O  O27  1  0.383526  0.250000  0.965083  1
  O  O28  1  0.496848  0.652788  0.985864  1
  O  O29  1  0.996848  0.847212  0.514136  1
  O  O30  1  0.503152  0.152788  0.014136  1
  O  O31  1  0.003152  0.347212  0.485864  1
  O  O32  1  0.503152  0.347212  0.014136  1
  O  O33  1  0.003152  0.152788  0.485864  1
  O  O34  1  0.496848  0.847212  0.985864  1
  O  O35  1  0.996848  0.652788  0.514136  1
  O  O36  1  0.212556  0.634799  0.974500  1
  O  O37  1  0.712556  0.865201  0.525500  1
  O  O38  1  0.787444  0.134799  0.025500  1
  O  O39  1  0.287444  0.365201  0.474500  1
  O  O40  1  0.787444  0.365201  0.025500  1
  O  O41  1  0.287444  0.134799  0.474500  1
  O  O42  1  0.212556  0.865201  0.974500  1
  O  O43  1  0.712556  0.634799  0.525500  1
  O  O44  1  0.377033  0.750000  0.994704  1
  O  O45  1  0.877033  0.750000  0.505296  1
  O  O46  1  0.622967  0.250000  0.005296  1
  O  O47  1  0.122967  0.250000  0.494704  1
  O  O48  1  0.451368  0.750000  0.548749  1
  O  O49  1  0.951368  0.750000  0.951251  1
  O  O50  1  0.548632  0.250000  0.451251  1
  O  O51  1  0.048632  0.250000  0.048749  1
  O  O52  1  0.162949  0.454340  0.010727  1
  O  O53  1  0.662949  0.045660  0.489273  1
  O  O54  1  0.837051  0.954340  0.989273  1
  O  O55  1  0.337051  0.545660  0.510727  1
  O  O56  1  0.837051  0.545660  0.989273  1
  O  O57  1  0.337051  0.954340  0.510727  1
  O  O58  1  0.162949  0.045660  0.010727  1
  O  O59  1  0.662949  0.454340  0.489273  1
  O  O60  1  0.118099  0.565877  0.621131  1
  O  O61  1  0.618099  0.934123  0.878869  1
  O  O62  1  0.881901  0.065877  0.378869  1
  O  O63  1  0.381901  0.434123  0.121131  1
  O  O64  1  0.881901  0.434123  0.378869  1
  O  O65  1  0.381901  0.065877  0.121131  1
  O  O66  1  0.118099  0.934123  0.621131  1
  O  O67  1  0.618099  0.565877  0.878869  1
  O  O68  1  0.079446  0.604979  0.124603  1
  O  O69  1  0.579446  0.895021  0.375397  1
  O  O70  1  0.920554  0.104979  0.875397  1
  O  O71  1  0.420554  0.395021  0.624603  1
  O  O72  1  0.920554  0.395021  0.875397  1
  O  O73  1  0.420554  0.104979  0.624603  1
  O  O74  1  0.079446  0.895021  0.124603  1
  O  O75  1  0.579446  0.604979  0.375397  1
