# generated using pymatgen
data_Yb4Al23Ni6
_symmetry_space_group_name_H-M   'P 1'
_cell_length_a   4.07833472
_cell_length_b   8.24756697
_cell_length_c   17.02291405
_cell_angle_alpha   85.17351917
_cell_angle_beta   83.12004244
_cell_angle_gamma   75.68547155
_symmetry_Int_Tables_number   1
_chemical_formula_structural   Yb4Al23Ni6
_chemical_formula_sum   'Yb4 Al23 Ni6'
_cell_volume   549.93098688
_cell_formula_units_Z   1
loop_
 _symmetry_equiv_pos_site_id
 _symmetry_equiv_pos_as_xyz
  1  'x, y, z'
loop_
 _atom_site_type_symbol
 _atom_site_label
 _atom_site_symmetry_multiplicity
 _atom_site_fract_x
 _atom_site_fract_y
 _atom_site_fract_z
 _atom_site_occupancy
  Al  Al0  1  0.000000  0.500000  0.500000  1
  Al  Al1  1  0.855435  0.431633  0.857498  1
  Al  Al2  1  0.919315  0.474115  0.687255  1
  Al  Al3  1  0.080685  0.525885  0.312745  1
  Al  Al4  1  0.910052  0.130700  0.049195  1
  Al  Al5  1  0.089948  0.869300  0.950805  1
  Al  Al6  1  0.908189  0.905432  0.278190  1
  Al  Al7  1  0.091811  0.094568  0.721810  1
  Al  Al8  1  0.797765  0.882982  0.521489  1
  Al  Al9  1  0.202235  0.117018  0.478511  1
  Al  Al10  1  0.144565  0.568367  0.142502  1
  Al  Al11  1  0.608879  0.944210  0.838031  1
  Al  Al12  1  0.744852  0.463926  0.046370  1
  Al  Al13  1  0.255148  0.536074  0.953630  1
  Al  Al14  1  0.391121  0.055790  0.161969  1
  Al  Al15  1  0.467483  0.283873  0.781161  1
  Al  Al16  1  0.728244  0.866980  0.676532  1
  Al  Al17  1  0.271756  0.133020  0.323468  1
  Al  Al18  1  0.621537  0.352618  0.404309  1
  Al  Al19  1  0.378463  0.647382  0.595691  1
  Al  Al20  1  0.568485  0.802182  0.060847  1
  Al  Al21  1  0.431515  0.197818  0.939153  1
  Al  Al22  1  0.532517  0.716127  0.218839  1
  Ni  Ni23  1  0.993253  0.879320  0.134174  1
  Ni  Ni24  1  0.006747  0.120680  0.865826  1
  Ni  Ni25  1  0.772805  0.056890  0.397500  1
  Ni  Ni26  1  0.689372  0.688354  0.932902  1
  Ni  Ni27  1  0.227195  0.943110  0.602500  1
  Ni  Ni28  1  0.310628  0.311646  0.067098  1
  Yb  Yb29  1  0.738404  0.307657  0.215534  1
  Yb  Yb30  1  0.578802  0.249152  0.593245  1
  Yb  Yb31  1  0.421198  0.750848  0.406755  1
  Yb  Yb32  1  0.261596  0.692343  0.784466  1
