# generated using pymatgen
data_Pr4Ga2O9
_symmetry_space_group_name_H-M   'P 1'
_cell_length_a   7.90760808
_cell_length_b   11.16422992
_cell_length_c   11.69701872
_cell_angle_alpha   90.00000000
_cell_angle_beta   109.15524283
_cell_angle_gamma   90.00000000
_symmetry_Int_Tables_number   1
_chemical_formula_structural   Pr4Ga2O9
_chemical_formula_sum   'Pr16 Ga8 O36'
_cell_volume   975.46613614
_cell_formula_units_Z   4
loop_
 _symmetry_equiv_pos_site_id
 _symmetry_equiv_pos_as_xyz
  1  'x, y, z'
loop_
 _atom_site_type_symbol
 _atom_site_label
 _atom_site_symmetry_multiplicity
 _atom_site_fract_x
 _atom_site_fract_y
 _atom_site_fract_z
 _atom_site_occupancy
  O  O0  1  0.569213  0.489240  0.898488  1
  O  O1  1  0.430787  0.989240  0.601512  1
  O  O2  1  0.430787  0.510760  0.101512  1
  O  O3  1  0.569213  0.010760  0.398488  1
  O  O4  1  0.076556  0.504404  0.895416  1
  O  O5  1  0.923444  0.004404  0.604584  1
  O  O6  1  0.923444  0.495596  0.104584  1
  O  O7  1  0.076556  0.995596  0.395416  1
  O  O8  1  0.703935  0.468672  0.678467  1
  O  O9  1  0.296065  0.968672  0.821533  1
  O  O10  1  0.296065  0.531328  0.321533  1
  O  O11  1  0.703935  0.031328  0.178467  1
  O  O12  1  0.639874  0.273579  0.460438  1
  O  O13  1  0.360126  0.773579  0.039562  1
  O  O14  1  0.221428  0.470285  0.672406  1
  O  O15  1  0.360126  0.726421  0.539562  1
  O  O16  1  0.431832  0.250267  0.612391  1
  O  O17  1  0.568168  0.750267  0.887609  1
  O  O18  1  0.568168  0.749733  0.387609  1
  O  O19  1  0.431832  0.249733  0.112391  1
  O  O20  1  0.072491  0.268301  0.475816  1
  O  O21  1  0.927509  0.768301  0.024184  1
  O  O22  1  0.927509  0.731699  0.524184  1
  O  O23  1  0.072491  0.231699  0.975816  1
  O  O24  1  0.784379  0.223586  0.748099  1
  O  O25  1  0.215621  0.723586  0.751901  1
  O  O26  1  0.215621  0.776414  0.251901  1
  O  O27  1  0.784379  0.276414  0.248099  1
  O  O28  1  0.233968  0.224888  0.767284  1
  O  O29  1  0.766032  0.724888  0.732716  1
  O  O30  1  0.766032  0.775112  0.232716  1
  O  O31  1  0.233968  0.275112  0.267284  1
  O  O32  1  0.221428  0.029715  0.172406  1
  O  O33  1  0.778572  0.529715  0.327594  1
  O  O34  1  0.778572  0.970285  0.827594  1
  O  O35  1  0.639874  0.226421  0.960438  1
  Ga  Ga36  1  0.654499  0.315210  0.615091  1
  Ga  Ga37  1  0.345501  0.815210  0.884909  1
  Ga  Ga38  1  0.345501  0.684790  0.384909  1
  Ga  Ga39  1  0.654499  0.184790  0.115091  1
  Ga  Ga40  1  0.217697  0.312218  0.627199  1
  Ga  Ga41  1  0.782303  0.812218  0.872801  1
  Ga  Ga42  1  0.782303  0.687782  0.372801  1
  Ga  Ga43  1  0.217697  0.187782  0.127199  1
  Pr  Pr44  1  0.834730  0.377840  0.911811  1
  Pr  Pr45  1  0.165270  0.877840  0.588189  1
  Pr  Pr46  1  0.165270  0.622160  0.088189  1
  Pr  Pr47  1  0.834730  0.122160  0.411811  1
  Pr  Pr48  1  0.333749  0.378067  0.928262  1
  Pr  Pr49  1  0.666251  0.878067  0.571738  1
  Pr  Pr50  1  0.666251  0.621933  0.071738  1
  Pr  Pr51  1  0.333749  0.121933  0.428262  1
  Pr  Pr52  1  0.023569  0.411359  0.305769  1
  Pr  Pr53  1  0.976431  0.911359  0.194231  1
  Pr  Pr54  1  0.976431  0.588641  0.694231  1
  Pr  Pr55  1  0.023569  0.088641  0.805769  1
  Pr  Pr56  1  0.520872  0.396305  0.282415  1
  Pr  Pr57  1  0.479128  0.896305  0.217585  1
  Pr  Pr58  1  0.479128  0.603695  0.717585  1
  Pr  Pr59  1  0.520872  0.103695  0.782415  1
