# generated using pymatgen
data_Ba3(SnAs2)2
_symmetry_space_group_name_H-M   'P 1'
_cell_length_a   8.06699706
_cell_length_b   8.18103408
_cell_length_c   20.15552175
_cell_angle_alpha   90.00000000
_cell_angle_beta   90.00000000
_cell_angle_gamma   112.23367186
_symmetry_Int_Tables_number   1
_chemical_formula_structural   Ba3(SnAs2)2
_chemical_formula_sum   'Ba12 Sn8 As16'
_cell_volume   1231.28953433
_cell_formula_units_Z   4
loop_
 _symmetry_equiv_pos_site_id
 _symmetry_equiv_pos_as_xyz
  1  'x, y, z'
loop_
 _atom_site_type_symbol
 _atom_site_label
 _atom_site_symmetry_multiplicity
 _atom_site_fract_x
 _atom_site_fract_y
 _atom_site_fract_z
 _atom_site_occupancy
  As  As0  1  0.746147  0.498151  0.564203  1
  As  As1  1  0.753853  0.501849  0.064203  1
  As  As2  1  0.253853  0.501849  0.435797  1
  As  As3  1  0.246147  0.498151  0.935797  1
  As  As4  1  0.249411  0.001016  0.554819  1
  As  As5  1  0.250589  0.998984  0.054819  1
  As  As6  1  0.750589  0.998984  0.445181  1
  As  As7  1  0.749411  0.001016  0.945181  1
  As  As8  1  0.215883  0.035378  0.817125  1
  As  As9  1  0.284117  0.964622  0.317125  1
  As  As10  1  0.784117  0.964622  0.182875  1
  As  As11  1  0.715883  0.035378  0.682875  1
  As  As12  1  0.284544  0.487658  0.199066  1
  As  As13  1  0.784544  0.487658  0.300934  1
  As  As14  1  0.715456  0.512342  0.800934  1
  As  As15  1  0.215456  0.512342  0.699066  1
  Sn  Sn16  1  0.474281  0.789943  0.376703  1
  Sn  Sn17  1  0.025719  0.210057  0.876703  1
  Sn  Sn18  1  0.525719  0.210057  0.623297  1
  Sn  Sn19  1  0.974281  0.789943  0.123297  1
  Sn  Sn20  1  0.599341  0.683381  0.258095  1
  Sn  Sn21  1  0.099341  0.683381  0.241905  1
  Sn  Sn22  1  0.400659  0.316619  0.741905  1
  Sn  Sn23  1  0.900659  0.316619  0.758095  1
  Ba  Ba24  1  0.990650  0.786909  0.682954  1
  Ba  Ba25  1  0.509350  0.213091  0.182954  1
  Ba  Ba26  1  0.009350  0.213091  0.317046  1
  Ba  Ba27  1  0.490650  0.786909  0.817046  1
  Ba  Ba28  1  0.005093  0.261675  0.560712  1
  Ba  Ba29  1  0.494907  0.738325  0.060712  1
  Ba  Ba30  1  0.994907  0.738325  0.439288  1
  Ba  Ba31  1  0.505093  0.261675  0.939288  1
  Ba  Ba32  1  0.488805  0.742593  0.563199  1
  Ba  Ba33  1  0.011195  0.257407  0.063199  1
  Ba  Ba34  1  0.511195  0.257407  0.436801  1
  Ba  Ba35  1  0.988805  0.742593  0.936801  1
