# generated using pymatgen
data_Ba3NbAs3O
_symmetry_space_group_name_H-M   'P 1'
_cell_length_a   6.82955193
_cell_length_b   11.26775765
_cell_length_c   13.68820869
_cell_angle_alpha   90.00000000
_cell_angle_beta   90.00000000
_cell_angle_gamma   90.00000000
_symmetry_Int_Tables_number   1
_chemical_formula_structural   Ba3NbAs3O
_chemical_formula_sum   'Ba12 Nb4 As12 O4'
_cell_volume   1053.35879792
_cell_formula_units_Z   4
loop_
 _symmetry_equiv_pos_site_id
 _symmetry_equiv_pos_as_xyz
  1  'x, y, z'
loop_
 _atom_site_type_symbol
 _atom_site_label
 _atom_site_symmetry_multiplicity
 _atom_site_fract_x
 _atom_site_fract_y
 _atom_site_fract_z
 _atom_site_occupancy
  O  O0  1  0.119576  0.250000  0.053549  1
  O  O1  1  0.619576  0.250000  0.446451  1
  O  O2  1  0.880424  0.750000  0.946451  1
  O  O3  1  0.380424  0.750000  0.553549  1
  As  As4  1  0.227443  0.750000  0.133672  1
  As  As5  1  0.772557  0.250000  0.866328  1
  As  As6  1  0.727443  0.750000  0.366328  1
  As  As7  1  0.272557  0.250000  0.633672  1
  As  As8  1  0.736316  0.444727  0.117676  1
  As  As9  1  0.236316  0.055272  0.382324  1
  As  As10  1  0.263684  0.944727  0.882323  1
  As  As11  1  0.763684  0.555273  0.617676  1
  As  As12  1  0.263684  0.555273  0.882323  1
  As  As13  1  0.763684  0.944727  0.617676  1
  As  As14  1  0.736316  0.055272  0.117676  1
  As  As15  1  0.236316  0.444727  0.382324  1
  Nb  Nb16  1  0.838889  0.250000  0.045716  1
  Nb  Nb17  1  0.338887  0.250000  0.454284  1
  Nb  Nb18  1  0.161112  0.750000  0.954284  1
  Nb  Nb19  1  0.661112  0.750000  0.545716  1
  Ba  Ba20  1  0.243612  0.045248  0.130857  1
  Ba  Ba21  1  0.256388  0.545247  0.630857  1
  Ba  Ba22  1  0.243612  0.454752  0.130857  1
  Ba  Ba23  1  0.743611  0.045248  0.369143  1
  Ba  Ba24  1  0.756390  0.954753  0.869142  1
  Ba  Ba25  1  0.743611  0.454752  0.369143  1
  Ba  Ba26  1  0.756390  0.545247  0.869142  1
  Ba  Ba27  1  0.256388  0.954753  0.630857  1
  Ba  Ba28  1  0.273448  0.250000  0.872113  1
  Ba  Ba29  1  0.773448  0.250000  0.627887  1
  Ba  Ba30  1  0.726551  0.750000  0.127887  1
  Ba  Ba31  1  0.226551  0.750000  0.372114  1
