# generated using pymatgen
data_Te2MoW3(SeS2)2
_symmetry_space_group_name_H-M   'P 1'
_cell_length_a   3.30837910
_cell_length_b   3.30833964
_cell_length_c   37.68473779
_cell_angle_alpha   90.00008486
_cell_angle_beta   90.00000000
_cell_angle_gamma   120.00039457
_symmetry_Int_Tables_number   1
_chemical_formula_structural   Te2MoW3(SeS2)2
_chemical_formula_sum   'Te2 Mo1 W3 Se2 S4'
_cell_volume   357.20683456
_cell_formula_units_Z   1
loop_
 _symmetry_equiv_pos_site_id
 _symmetry_equiv_pos_as_xyz
  1  'x, y, z'
loop_
 _atom_site_type_symbol
 _atom_site_label
 _atom_site_symmetry_multiplicity
 _atom_site_fract_x
 _atom_site_fract_y
 _atom_site_fract_z
 _atom_site_occupancy
  Te  Te0  1  0.333361  0.666723  0.332834  1
  Te  Te1  1  0.333351  0.666703  0.230730  1
  Mo  Mo2  1  0.333327  0.666655  0.093907  1
  W  W3  1  0.333311  0.666623  0.469685  1
  W  W4  1  0.666690  0.333379  0.281801  1
  W  W5  1  0.666689  0.333378  0.657536  1
  Se  Se6  1  0.333352  0.666704  0.702372  1
  Se  Se7  1  0.333353  0.666708  0.612696  1
  S  S8  1  0.666634  0.333267  0.053376  1
  S  S9  1  0.666649  0.333296  0.428980  1
  S  S10  1  0.666639  0.333277  0.134460  1
  S  S11  1  0.666644  0.333287  0.510372  1
