# generated using pymatgen
data_Zr2P2WO12
_symmetry_space_group_name_H-M   'P 1'
_cell_length_a   9.35235778
_cell_length_b   9.52099649
_cell_length_c   12.57991468
_cell_angle_alpha   90.00000000
_cell_angle_beta   90.00000000
_cell_angle_gamma   90.00000000
_symmetry_Int_Tables_number   1
_chemical_formula_structural   Zr2P2WO12
_chemical_formula_sum   'Zr8 P8 W4 O48'
_cell_volume   1120.16297399
_cell_formula_units_Z   4
loop_
 _symmetry_equiv_pos_site_id
 _symmetry_equiv_pos_as_xyz
  1  'x, y, z'
loop_
 _atom_site_type_symbol
 _atom_site_label
 _atom_site_symmetry_multiplicity
 _atom_site_fract_x
 _atom_site_fract_y
 _atom_site_fract_z
 _atom_site_occupancy
  O  O0  1  0.641924  0.239944  0.172717  1
  O  O1  1  0.641924  0.260056  0.827282  1
  O  O2  1  0.858077  0.739944  0.327282  1
  O  O3  1  0.858077  0.760056  0.672718  1
  O  O4  1  0.358077  0.760056  0.827282  1
  O  O5  1  0.358077  0.739944  0.172717  1
  O  O6  1  0.141923  0.260056  0.672718  1
  O  O7  1  0.141923  0.239944  0.327282  1
  O  O8  1  0.925566  0.157605  0.093486  1
  O  O9  1  0.925566  0.342395  0.906514  1
  O  O10  1  0.574435  0.657604  0.406514  1
  O  O11  1  0.574435  0.842396  0.593486  1
  O  O12  1  0.074435  0.842396  0.906514  1
  O  O13  1  0.074435  0.657604  0.093486  1
  O  O14  1  0.425565  0.342395  0.593486  1
  O  O15  1  0.425565  0.157605  0.406514  1
  O  O16  1  0.202070  0.008174  0.720295  1
  O  O17  1  0.797930  0.508174  0.720295  1
  O  O18  1  0.702070  0.491826  0.220295  1
  O  O19  1  0.702070  0.008174  0.779704  1
  O  O20  1  0.348743  0.871661  0.427978  1
  O  O21  1  0.348743  0.628339  0.572021  1
  O  O22  1  0.151257  0.371660  0.072021  1
  O  O23  1  0.151257  0.128339  0.927978  1
  O  O24  1  0.651257  0.128339  0.572021  1
  O  O25  1  0.651257  0.371660  0.427978  1
  O  O26  1  0.848743  0.628339  0.927978  1
  O  O27  1  0.848743  0.871661  0.072021  1
  O  O28  1  0.042369  0.930736  0.348372  1
  O  O29  1  0.042369  0.569264  0.651628  1
  O  O30  1  0.457631  0.430736  0.151628  1
  O  O31  1  0.457631  0.069264  0.848372  1
  O  O32  1  0.957630  0.069264  0.651628  1
  O  O33  1  0.957630  0.430736  0.348372  1
  O  O34  1  0.542370  0.569264  0.848372  1
  O  O35  1  0.542370  0.930736  0.151628  1
  O  O36  1  0.171458  0.078082  0.528915  1
  O  O37  1  0.171458  0.421918  0.471085  1
  O  O38  1  0.328543  0.578082  0.971085  1
  O  O39  1  0.328543  0.921919  0.028915  1
  O  O40  1  0.828543  0.921919  0.471085  1
  O  O41  1  0.828543  0.578082  0.528915  1
  O  O42  1  0.671457  0.421918  0.028915  1
  O  O43  1  0.671457  0.078082  0.971085  1
  O  O44  1  0.297931  0.991826  0.220295  1
  O  O45  1  0.297931  0.508174  0.779704  1
  O  O46  1  0.202070  0.491826  0.279704  1
  O  O47  1  0.797930  0.991826  0.279704  1
  P  P48  1  0.881399  0.603736  0.642855  1
  P  P49  1  0.881399  0.896263  0.357145  1
  P  P50  1  0.618602  0.103736  0.857144  1
  P  P51  1  0.618602  0.396264  0.142855  1
  P  P52  1  0.118601  0.396264  0.357145  1
  P  P53  1  0.118601  0.103736  0.642855  1
  P  P54  1  0.381399  0.896263  0.142855  1
  P  P55  1  0.381399  0.603736  0.857144  1
  Zr  Zr56  1  0.224907  0.452993  0.630206  1
  Zr  Zr57  1  0.275092  0.547006  0.130207  1
  Zr  Zr58  1  0.775093  0.952994  0.630206  1
  Zr  Zr59  1  0.275092  0.952994  0.869793  1
  Zr  Zr60  1  0.724907  0.047006  0.130207  1
  Zr  Zr61  1  0.724907  0.452993  0.869793  1
  Zr  Zr62  1  0.775093  0.547006  0.369793  1
  Zr  Zr63  1  0.224907  0.047006  0.369793  1
  W  W64  1  0.038459  0.250000  0.000000  1
  W  W65  1  0.961540  0.750000  0.000000  1
  W  W66  1  0.538460  0.250000  0.500000  1
  W  W67  1  0.461540  0.750000  0.500000  1
