# generated using pymatgen
data_NdZn(BO2)5
_symmetry_space_group_name_H-M   'P 1'
_cell_length_a   7.69381808
_cell_length_b   8.78238431
_cell_length_c   9.53092833
_cell_angle_alpha   92.74951690
_cell_angle_beta   90.00000000
_cell_angle_gamma   90.00000000
_symmetry_Int_Tables_number   1
_chemical_formula_structural   NdZn(BO2)5
_chemical_formula_sum   'Nd4 Zn4 B20 O40'
_cell_volume   643.26408306
_cell_formula_units_Z   4
loop_
 _symmetry_equiv_pos_site_id
 _symmetry_equiv_pos_as_xyz
  1  'x, y, z'
loop_
 _atom_site_type_symbol
 _atom_site_label
 _atom_site_symmetry_multiplicity
 _atom_site_fract_x
 _atom_site_fract_y
 _atom_site_fract_z
 _atom_site_occupancy
  B  B0  1  0.421319  0.085706  0.738212  1
  B  B1  1  0.814429  0.569845  0.085695  1
  B  B2  1  0.314429  0.930155  0.414305  1
  B  B3  1  0.185571  0.430155  0.914305  1
  B  B4  1  0.685571  0.069845  0.585695  1
  B  B5  1  0.098400  0.653208  0.499821  1
  B  B6  1  0.598400  0.846792  0.000179  1
  B  B7  1  0.901600  0.346792  0.500179  1
  B  B8  1  0.401600  0.153208  0.999821  1
  B  B9  1  0.921319  0.414294  0.761788  1
  B  B10  1  0.578681  0.914294  0.261788  1
  B  B11  1  0.078681  0.585706  0.238212  1
  B  B12  1  0.673894  0.515640  0.607428  1
  B  B13  1  0.173894  0.984360  0.892572  1
  B  B14  1  0.326106  0.484360  0.392572  1
  B  B15  1  0.826106  0.015640  0.107428  1
  B  B16  1  0.467866  0.281033  0.554260  1
  B  B17  1  0.967866  0.218967  0.945740  1
  B  B18  1  0.532134  0.718967  0.445740  1
  B  B19  1  0.032134  0.781033  0.054260  1
  O  O20  1  0.787854  0.530653  0.733670  1
  O  O21  1  0.346187  0.499989  0.931338  1
  O  O22  1  0.846187  0.000011  0.568662  1
  O  O23  1  0.653813  0.500011  0.068662  1
  O  O24  1  0.153813  0.999989  0.431338  1
  O  O25  1  0.546467  0.766549  0.883360  1
  O  O26  1  0.046467  0.733451  0.616640  1
  O  O27  1  0.453533  0.233451  0.116640  1
  O  O28  1  0.287854  0.969347  0.766330  1
  O  O29  1  0.953533  0.266549  0.383360  1
  O  O30  1  0.712146  0.030653  0.233670  1
  O  O31  1  0.212146  0.469347  0.266330  1
  O  O32  1  0.465041  0.181649  0.868402  1
  O  O33  1  0.965041  0.318351  0.631598  1
  O  O34  1  0.534959  0.818351  0.131598  1
  O  O35  1  0.034959  0.681649  0.368402  1
  O  O36  1  0.585630  0.012476  0.691575  1
  O  O37  1  0.085630  0.487524  0.808425  1
  O  O38  1  0.414370  0.987524  0.308425  1
  O  O39  1  0.914370  0.512476  0.191575  1
  O  O40  1  0.349746  0.185106  0.632426  1
  O  O41  1  0.849746  0.314894  0.867574  1
  O  O42  1  0.650254  0.814894  0.367574  1
  O  O43  1  0.150254  0.685106  0.132426  1
  O  O44  1  0.526992  0.414205  0.646741  1
  O  O45  1  0.026992  0.085795  0.853259  1
  O  O46  1  0.473008  0.585795  0.353259  1
  O  O47  1  0.973008  0.914205  0.146741  1
  O  O48  1  0.606364  0.671064  0.582683  1
  O  O49  1  0.106364  0.828936  0.917317  1
  O  O50  1  0.393636  0.328936  0.417317  1
  O  O51  1  0.874570  0.687347  0.009334  1
  O  O52  1  0.773924  0.457617  0.485339  1
  O  O53  1  0.273924  0.042383  0.014661  1
  O  O54  1  0.226076  0.542383  0.514661  1
  O  O55  1  0.726076  0.957617  0.985339  1
  O  O56  1  0.625430  0.187347  0.509334  1
  O  O57  1  0.125430  0.312653  0.990666  1
  O  O58  1  0.374570  0.812653  0.490666  1
  O  O59  1  0.893636  0.171064  0.082683  1
  Zn  Zn60  1  0.588725  0.390345  0.876566  1
  Zn  Zn61  1  0.088725  0.109655  0.623434  1
  Zn  Zn62  1  0.411275  0.609655  0.123434  1
  Zn  Zn63  1  0.911275  0.890345  0.376566  1
  Nd  Nd64  1  0.816030  0.816534  0.763291  1
  Nd  Nd65  1  0.316030  0.683466  0.736709  1
  Nd  Nd66  1  0.183970  0.183466  0.236709  1
  Nd  Nd67  1  0.683970  0.316534  0.263291  1
