# generated using pymatgen
data_Na2Sm2Ti3O10
_symmetry_space_group_name_H-M   'P 1'
_cell_length_a   3.83674590
_cell_length_b   3.83674590
_cell_length_c   14.60320831
_cell_angle_alpha   97.54856655
_cell_angle_beta   97.54856654
_cell_angle_gamma   90.00000004
_symmetry_Int_Tables_number   1
_chemical_formula_structural   Na2Sm2Ti3O10
_chemical_formula_sum   'Na2 Sm2 Ti3 O10'
_cell_volume   211.22594939
_cell_formula_units_Z   1
loop_
 _symmetry_equiv_pos_site_id
 _symmetry_equiv_pos_as_xyz
  1  'x, y, z'
loop_
 _atom_site_type_symbol
 _atom_site_label
 _atom_site_symmetry_multiplicity
 _atom_site_fract_x
 _atom_site_fract_y
 _atom_site_fract_z
 _atom_site_occupancy
  O  O0  1  0.869232  0.369233  0.738465  1
  O  O1  1  0.369233  0.869232  0.738465  1
  O  O2  1  0.130768  0.630768  0.261535  1
  O  O3  1  0.630768  0.130768  0.261535  1
  O  O4  1  0.792442  0.792442  0.584884  1
  O  O5  1  0.207558  0.207558  0.415116  1
  O  O6  1  0.000000  0.500000  0.000000  1
  O  O7  1  0.067377  0.067377  0.134753  1
  O  O8  1  0.932623  0.932623  0.865247  1
  O  O9  1  0.500000  0.000000  0.000000  1
  Na  Na10  1  0.712166  0.712166  0.424332  1
  Na  Na11  1  0.287834  0.287834  0.575668  1
  Ti  Ti12  1  0.853976  0.853976  0.707951  1
  Ti  Ti13  1  0.146024  0.146024  0.292049  1
  Ti  Ti14  1  0.000000  0.000000  0.000000  1
  Sm  Sm15  1  0.575383  0.575383  0.150766  1
  Sm  Sm16  1  0.424617  0.424617  0.849234  1
