# generated using pymatgen
data_Tc3P
_symmetry_space_group_name_H-M   'P 1'
_cell_length_a   4.85921293
_cell_length_b   7.18585599
_cell_length_c   7.18585599
_cell_angle_alpha   83.43570658
_cell_angle_beta   70.23826124
_cell_angle_gamma   70.23826119
_symmetry_Int_Tables_number   1
_chemical_formula_structural   Tc3P
_chemical_formula_sum   'Tc12 P4'
_cell_volume   222.22900286
_cell_formula_units_Z   4
loop_
 _symmetry_equiv_pos_site_id
 _symmetry_equiv_pos_as_xyz
  1  'x, y, z'
loop_
 _atom_site_type_symbol
 _atom_site_label
 _atom_site_symmetry_multiplicity
 _atom_site_fract_x
 _atom_site_fract_y
 _atom_site_fract_z
 _atom_site_occupancy
  P  P0  1  0.209008  0.288088  0.294038  1
  P  P1  1  0.496955  0.294038  0.711912  1
  P  P2  1  0.502905  0.705962  0.288088  1
  P  P3  1  0.791133  0.711912  0.705962  1
  Tc  Tc4  1  0.344190  0.653853  0.648847  1
  Tc  Tc5  1  0.006962  0.648847  0.346147  1
  Tc  Tc6  1  0.001956  0.351153  0.653853  1
  Tc  Tc7  1  0.646891  0.346147  0.351153  1
  Tc  Tc8  1  0.907064  0.005350  0.591578  1
  Tc  Tc9  1  0.501358  0.591578  0.994650  1
  Tc  Tc10  1  0.087586  0.408422  0.005350  1
  Tc  Tc11  1  0.503992  0.994650  0.408422  1
  Tc  Tc12  1  0.094729  0.000649  0.197119  1
  Tc  Tc13  1  0.708152  0.197119  0.999351  1
  Tc  Tc14  1  0.904622  0.802881  0.000649  1
  Tc  Tc15  1  0.292497  0.999351  0.802881  1
