# generated using pymatgen
data_Sr2LiBeB3O8
_symmetry_space_group_name_H-M   'P 1'
_cell_length_a   8.68380167
_cell_length_b   6.55837729
_cell_length_c   13.03300287
_cell_angle_alpha   90.00000000
_cell_angle_beta   106.65023542
_cell_angle_gamma   90.00000000
_symmetry_Int_Tables_number   1
_chemical_formula_structural   Sr2LiBeB3O8
_chemical_formula_sum   'Sr8 Li4 Be4 B12 O32'
_cell_volume   711.12968199
_cell_formula_units_Z   4
loop_
 _symmetry_equiv_pos_site_id
 _symmetry_equiv_pos_as_xyz
  1  'x, y, z'
loop_
 _atom_site_type_symbol
 _atom_site_label
 _atom_site_symmetry_multiplicity
 _atom_site_fract_x
 _atom_site_fract_y
 _atom_site_fract_z
 _atom_site_occupancy
  Sr  Sr0  1  0.356975  0.256599  0.927491  1
  Sr  Sr1  1  0.643025  0.756599  0.572509  1
  Sr  Sr2  1  0.643025  0.743401  0.072509  1
  Sr  Sr3  1  0.356975  0.243401  0.427491  1
  Sr  Sr4  1  0.964278  0.610754  0.841869  1
  Sr  Sr5  1  0.035722  0.110754  0.658131  1
  Sr  Sr6  1  0.035722  0.389246  0.158131  1
  Sr  Sr7  1  0.964278  0.889246  0.341869  1
  Li  Li8  1  0.373276  0.730970  0.828159  1
  Li  Li9  1  0.626724  0.230970  0.671841  1
  Li  Li10  1  0.626724  0.269030  0.171841  1
  Li  Li11  1  0.373276  0.769030  0.328159  1
  Be  Be12  1  0.675822  0.930151  0.844644  1
  Be  Be13  1  0.324178  0.430151  0.655356  1
  Be  Be14  1  0.324178  0.069849  0.155356  1
  Be  Be15  1  0.675822  0.569849  0.344644  1
  B  B16  1  0.738530  0.230949  0.985847  1
  B  B17  1  0.261470  0.730949  0.514153  1
  B  B18  1  0.261470  0.769051  0.014153  1
  B  B19  1  0.738530  0.269051  0.485847  1
  B  B20  1  0.936427  0.152046  0.880097  1
  B  B21  1  0.063573  0.652046  0.619903  1
  B  B22  1  0.063573  0.847954  0.119903  1
  B  B23  1  0.936427  0.347954  0.380097  1
  B  B24  1  0.402153  0.051154  0.706350  1
  B  B25  1  0.597847  0.551154  0.793650  1
  B  B26  1  0.597847  0.948846  0.293650  1
  B  B27  1  0.402153  0.448846  0.206350  1
  O  O28  1  0.884323  0.268172  0.957898  1
  O  O29  1  0.115677  0.768172  0.542102  1
  O  O30  1  0.115677  0.731828  0.042102  1
  O  O31  1  0.884323  0.231828  0.457898  1
  O  O32  1  0.639673  0.072574  0.939646  1
  O  O33  1  0.360327  0.572574  0.560354  1
  O  O34  1  0.360327  0.927426  0.060354  1
  O  O35  1  0.639673  0.427426  0.439646  1
  O  O36  1  0.708880  0.357622  0.060203  1
  O  O37  1  0.291120  0.857622  0.439797  1
  O  O38  1  0.291120  0.642378  0.939797  1
  O  O39  1  0.708880  0.142378  0.560203  1
  O  O40  1  0.859600  0.975686  0.839956  1
  O  O41  1  0.140400  0.475686  0.660044  1
  O  O42  1  0.140400  0.024314  0.160044  1
  O  O43  1  0.859600  0.524314  0.339956  1
  O  O44  1  0.056858  0.237603  0.847467  1
  O  O45  1  0.943142  0.737603  0.652533  1
  O  O46  1  0.943142  0.762397  0.152533  1
  O  O47  1  0.056858  0.262397  0.347467  1
  O  O48  1  0.557684  0.976564  0.723657  1
  O  O49  1  0.442316  0.476564  0.776343  1
  O  O50  1  0.442316  0.023436  0.276343  1
  O  O51  1  0.557684  0.523436  0.223657  1
  O  O52  1  0.651247  0.693526  0.876952  1
  O  O53  1  0.348753  0.193526  0.623048  1
  O  O54  1  0.348753  0.306474  0.123048  1
  O  O55  1  0.651247  0.806474  0.376952  1
  O  O56  1  0.306547  0.995166  0.768926  1
  O  O57  1  0.693453  0.495166  0.731074  1
  O  O58  1  0.693453  0.004834  0.231074  1
  O  O59  1  0.306547  0.504834  0.268926  1
