# generated using pymatgen
data_Tb(CuS)2
_symmetry_space_group_name_H-M   'P 1'
_cell_length_a   3.95395320
_cell_length_b   3.95395316
_cell_length_c   6.37188699
_cell_angle_alpha   89.97565134
_cell_angle_beta   90.02435114
_cell_angle_gamma   119.90485033
_symmetry_Int_Tables_number   1
_chemical_formula_structural   Tb(CuS)2
_chemical_formula_sum   'Tb1 Cu2 S2'
_cell_volume   86.35297196
_cell_formula_units_Z   1
loop_
 _symmetry_equiv_pos_site_id
 _symmetry_equiv_pos_as_xyz
  1  'x, y, z'
loop_
 _atom_site_type_symbol
 _atom_site_label
 _atom_site_symmetry_multiplicity
 _atom_site_fract_x
 _atom_site_fract_y
 _atom_site_fract_z
 _atom_site_occupancy
  Tb  Tb0  1  -0.000000  -0.000000  -0.000000  1
  Cu  Cu1  1  0.666111  0.333889  0.671491  1
  Cu  Cu2  1  0.333889  0.666111  0.328509  1
  S  S3  1  0.667439  0.332561  0.270514  1
  S  S4  1  0.332561  0.667439  0.729486  1
