# generated using pymatgen
data_TbHg2
_symmetry_space_group_name_H-M   'P 1'
_cell_length_a   5.37658231
_cell_length_b   5.37615634
_cell_length_c   3.39685572
_cell_angle_alpha   90.00000001
_cell_angle_beta   90.03157983
_cell_angle_gamma   119.99737607
_symmetry_Int_Tables_number   1
_chemical_formula_structural   TbHg2
_chemical_formula_sum   'Tb1 Hg2'
_cell_volume   85.03492158
_cell_formula_units_Z   1
loop_
 _symmetry_equiv_pos_site_id
 _symmetry_equiv_pos_as_xyz
  1  'x, y, z'
loop_
 _atom_site_type_symbol
 _atom_site_label
 _atom_site_symmetry_multiplicity
 _atom_site_fract_x
 _atom_site_fract_y
 _atom_site_fract_z
 _atom_site_occupancy
  Tb  Tb0  1  -0.000000  -0.000000  -0.000000  1
  Hg  Hg1  1  0.666660  0.333330  0.955840  1
  Hg  Hg2  1  0.333340  0.666670  0.044160  1
