# generated using pymatgen
data_Dy3Ga5O12
_symmetry_space_group_name_H-M   'P 1'
_cell_length_a   10.74867278
_cell_length_b   10.74867278
_cell_length_c   10.74867278
_cell_angle_alpha   109.47122066
_cell_angle_beta   109.47122065
_cell_angle_gamma   109.47122062
_symmetry_Int_Tables_number   1
_chemical_formula_structural   Dy3Ga5O12
_chemical_formula_sum   'Dy12 Ga20 O48'
_cell_volume   955.96641464
_cell_formula_units_Z   4
loop_
 _symmetry_equiv_pos_site_id
 _symmetry_equiv_pos_as_xyz
  1  'x, y, z'
loop_
 _atom_site_type_symbol
 _atom_site_label
 _atom_site_symmetry_multiplicity
 _atom_site_fract_x
 _atom_site_fract_y
 _atom_site_fract_z
 _atom_site_occupancy
  O  O0  1  0.793824  0.417318  0.822617  1
  O  O1  1  0.082682  0.876506  0.405299  1
  O  O2  1  0.677383  0.094701  0.971207  1
  O  O3  1  0.706176  0.528793  0.623494  1
  O  O4  1  0.706176  0.677383  0.082682  1
  O  O5  1  0.528793  0.623494  0.706176  1
  O  O6  1  0.094701  0.623494  0.417318  1
  O  O7  1  0.623494  0.706176  0.528793  1
  O  O8  1  0.405299  0.822617  0.528793  1
  O  O9  1  0.876506  0.971207  0.793824  1
  O  O10  1  0.971207  0.793824  0.876506  1
  O  O11  1  0.082682  0.706176  0.677383  1
  O  O12  1  0.623494  0.417318  0.094701  1
  O  O13  1  0.528793  0.405299  0.822617  1
  O  O14  1  0.677383  0.082682  0.706176  1
  O  O15  1  0.417318  0.094701  0.623494  1
  O  O16  1  0.822617  0.528793  0.405299  1
  O  O17  1  0.405299  0.082682  0.876506  1
  O  O18  1  0.094701  0.971207  0.677383  1
  O  O19  1  0.594701  0.177383  0.471207  1
  O  O20  1  0.971207  0.677383  0.094701  1
  O  O21  1  0.822617  0.793824  0.417318  1
  O  O22  1  0.876506  0.405299  0.082682  1
  O  O23  1  0.793824  0.876506  0.971207  1
  O  O24  1  0.206176  0.582682  0.177383  1
  O  O25  1  0.917318  0.123494  0.594701  1
  O  O26  1  0.322617  0.905299  0.028793  1
  O  O27  1  0.293824  0.471207  0.376506  1
  O  O28  1  0.293824  0.322617  0.917318  1
  O  O29  1  0.471207  0.376506  0.293824  1
  O  O30  1  0.905299  0.376506  0.582682  1
  O  O31  1  0.376506  0.293824  0.471207  1
  O  O32  1  0.206176  0.123494  0.028793  1
  O  O33  1  0.123494  0.594701  0.917318  1
  O  O34  1  0.177383  0.206176  0.582682  1
  O  O35  1  0.582682  0.177383  0.206176  1
  O  O36  1  0.028793  0.322617  0.905299  1
  O  O37  1  0.905299  0.028793  0.322617  1
  O  O38  1  0.594701  0.917318  0.123494  1
  O  O39  1  0.177383  0.471207  0.594701  1
  O  O40  1  0.582682  0.905299  0.376506  1
  O  O41  1  0.322617  0.917318  0.293824  1
  O  O42  1  0.471207  0.594701  0.177383  1
  O  O43  1  0.376506  0.582682  0.905299  1
  O  O44  1  0.917318  0.293824  0.322617  1
  O  O45  1  0.028793  0.206176  0.123494  1
  O  O46  1  0.123494  0.028793  0.206176  1
  O  O47  1  0.417318  0.822617  0.793824  1
  Ga  Ga48  1  0.875000  0.125000  0.750000  1
  Ga  Ga49  1  0.125000  0.875000  0.250000  1
  Ga  Ga50  1  0.250000  0.625000  0.375000  1
  Ga  Ga51  1  0.125000  0.750000  0.875000  1
  Ga  Ga52  1  0.750000  0.875000  0.125000  1
  Ga  Ga53  1  0.375000  0.250000  0.625000  1
  Ga  Ga54  1  0.625000  0.750000  0.375000  1
  Ga  Ga55  1  0.875000  0.250000  0.125000  1
  Ga  Ga56  1  0.250000  0.125000  0.875000  1
  Ga  Ga57  1  0.750000  0.375000  0.625000  1
  Ga  Ga58  1  0.375000  0.625000  0.750000  1
  Ga  Ga59  1  0.625000  0.375000  0.250000  1
  Ga  Ga60  1  0.500000  0.500000  0.500000  1
  Ga  Ga61  1  0.500000  0.500000  0.000000  1
  Ga  Ga62  1  0.500000  0.000000  0.500000  1
  Ga  Ga63  1  0.000000  0.500000  0.500000  1
  Ga  Ga64  1  0.500000  0.000000  0.000000  1
  Ga  Ga65  1  0.000000  0.000000  0.500000  1
  Ga  Ga66  1  0.000000  0.500000  0.000000  1
  Ga  Ga67  1  0.000000  0.000000  0.000000  1
  Dy  Dy68  1  0.625000  0.250000  0.875000  1
  Dy  Dy69  1  0.875000  0.750000  0.625000  1
  Dy  Dy70  1  0.750000  0.625000  0.875000  1
  Dy  Dy71  1  0.250000  0.875000  0.625000  1
  Dy  Dy72  1  0.875000  0.625000  0.250000  1
  Dy  Dy73  1  0.625000  0.875000  0.750000  1
  Dy  Dy74  1  0.375000  0.750000  0.125000  1
  Dy  Dy75  1  0.125000  0.250000  0.375000  1
  Dy  Dy76  1  0.250000  0.375000  0.125000  1
  Dy  Dy77  1  0.750000  0.125000  0.375000  1
  Dy  Dy78  1  0.125000  0.375000  0.750000  1
  Dy  Dy79  1  0.375000  0.125000  0.250000  1
