# generated using pymatgen
data_NaPO3
_symmetry_space_group_name_H-M   'P 1'
_cell_length_a   8.06239429
_cell_length_b   7.09398689
_cell_length_c   7.18402533
_cell_angle_alpha   90.25338432
_cell_angle_beta   94.03996583
_cell_angle_gamma   103.39428601
_symmetry_Int_Tables_number   1
_chemical_formula_structural   NaPO3
_chemical_formula_sum   'Na6 P6 O18'
_cell_volume   398.62601347
_cell_formula_units_Z   6
loop_
 _symmetry_equiv_pos_site_id
 _symmetry_equiv_pos_as_xyz
  1  'x, y, z'
loop_
 _atom_site_type_symbol
 _atom_site_label
 _atom_site_symmetry_multiplicity
 _atom_site_fract_x
 _atom_site_fract_y
 _atom_site_fract_z
 _atom_site_occupancy
  Na  Na0  1  0.807794  0.575747  0.757931  1
  Na  Na1  1  0.192206  0.424253  0.242069  1
  Na  Na2  1  0.785237  0.058356  0.750112  1
  Na  Na3  1  0.214763  0.941644  0.249888  1
  Na  Na4  1  0.512431  0.253187  0.975243  1
  Na  Na5  1  0.487569  0.746813  0.024757  1
  P  P6  1  0.817077  0.619855  0.233186  1
  P  P7  1  0.182923  0.380145  0.766814  1
  P  P8  1  0.818619  0.041147  0.234000  1
  P  P9  1  0.181381  0.958853  0.766000  1
  P  P10  1  0.618807  0.278622  0.441885  1
  P  P11  1  0.381193  0.721378  0.558115  1
  O  O12  1  0.703192  0.555204  0.058149  1
  O  O13  1  0.296808  0.444796  0.941851  1
  O  O14  1  0.705879  0.047686  0.059008  1
  O  O15  1  0.294121  0.952314  0.940992  1
  O  O16  1  0.995173  0.365596  0.766105  1
  O  O17  1  0.004827  0.634404  0.233895  1
  O  O18  1  0.992632  0.877016  0.763860  1
  O  O19  1  0.007368  0.122984  0.236140  1
  O  O20  1  0.781789  0.821638  0.309087  1
  O  O21  1  0.218211  0.178362  0.690913  1
  O  O22  1  0.742784  0.490682  0.408601  1
  O  O23  1  0.257216  0.509318  0.591399  1
  O  O24  1  0.746100  0.134524  0.408673  1
  O  O25  1  0.253900  0.865476  0.591327  1
  O  O26  1  0.603591  0.274634  0.648887  1
  O  O27  1  0.396409  0.725366  0.351113  1
  O  O28  1  0.534311  0.764214  0.695561  1
  O  O29  1  0.465689  0.235786  0.304439  1
