# generated using pymatgen
data_NaYS2
_symmetry_space_group_name_H-M   'P 1'
_cell_length_a   7.07253536
_cell_length_b   7.07253536
_cell_length_c   7.07253536
_cell_angle_alpha   32.76790665
_cell_angle_beta   32.76790662
_cell_angle_gamma   32.76790665
_symmetry_Int_Tables_number   1
_chemical_formula_structural   NaYS2
_chemical_formula_sum   'Na1 Y1 S2'
_cell_volume   92.19047103
_cell_formula_units_Z   1
loop_
 _symmetry_equiv_pos_site_id
 _symmetry_equiv_pos_as_xyz
  1  'x, y, z'
loop_
 _atom_site_type_symbol
 _atom_site_label
 _atom_site_symmetry_multiplicity
 _atom_site_fract_x
 _atom_site_fract_y
 _atom_site_fract_z
 _atom_site_occupancy
  Na  Na0  1  0.500000  0.500000  0.500000  1
  S  S1  1  0.257668  0.257668  0.257668  1
  S  S2  1  0.742332  0.742332  0.742332  1
  Y  Y3  1  0.000000  0.000000  0.000000  1
