# generated using pymatgen
data_S5N6
_symmetry_space_group_name_H-M   'P 1'
_cell_length_a   7.68352941
_cell_length_b   7.68352941
_cell_length_c   7.91807450
_cell_angle_alpha   99.54039258
_cell_angle_beta   99.54039255
_cell_angle_gamma   102.71906574
_symmetry_Int_Tables_number   1
_chemical_formula_structural   S5N6
_chemical_formula_sum   'S10 N12'
_cell_volume   439.62947913
_cell_formula_units_Z   2
loop_
 _symmetry_equiv_pos_site_id
 _symmetry_equiv_pos_as_xyz
  1  'x, y, z'
loop_
 _atom_site_type_symbol
 _atom_site_label
 _atom_site_symmetry_multiplicity
 _atom_site_fract_x
 _atom_site_fract_y
 _atom_site_fract_z
 _atom_site_occupancy
  N  N0  1  0.243316  0.536235  0.008353  1
  N  N1  1  0.463765  0.756684  0.491647  1
  N  N2  1  0.756684  0.463765  0.991647  1
  N  N3  1  0.536235  0.243316  0.508353  1
  N  N4  1  0.513671  0.817979  0.163077  1
  N  N5  1  0.182021  0.486329  0.336923  1
  N  N6  1  0.486329  0.182021  0.836923  1
  N  N7  1  0.817979  0.513671  0.663077  1
  N  N8  1  0.169893  0.868341  0.082156  1
  N  N9  1  0.131659  0.830107  0.417844  1
  N  N10  1  0.868341  0.169893  0.582156  1
  N  N11  1  0.830107  0.131659  0.917844  1
  S  S12  1  0.552405  0.715824  0.322687  1
  S  S13  1  0.284176  0.447595  0.177313  1
  S  S14  1  0.447595  0.284176  0.677313  1
  S  S15  1  0.715824  0.552405  0.822687  1
  S  S16  1  0.324201  0.753171  0.014954  1
  S  S17  1  0.246829  0.675799  0.485046  1
  S  S18  1  0.675799  0.246829  0.985046  1
  S  S19  1  0.753171  0.324201  0.514954  1
  S  S20  1  0.093218  0.906782  0.250000  1
  S  S21  1  0.906782  0.093218  0.750000  1
