# generated using pymatgen
data_AlSb
_symmetry_space_group_name_H-M   'P 1'
_cell_length_a   4.33005591
_cell_length_b   4.33005591
_cell_length_c   5.23346087
_cell_angle_alpha   89.50317550
_cell_angle_beta   89.50317550
_cell_angle_gamma   81.24474298
_symmetry_Int_Tables_number   1
_chemical_formula_structural   AlSb
_chemical_formula_sum   'Al2 Sb2'
_cell_volume   96.97445281
_cell_formula_units_Z   2
loop_
 _symmetry_equiv_pos_site_id
 _symmetry_equiv_pos_as_xyz
  1  'x, y, z'
loop_
 _atom_site_type_symbol
 _atom_site_label
 _atom_site_symmetry_multiplicity
 _atom_site_fract_x
 _atom_site_fract_y
 _atom_site_fract_z
 _atom_site_occupancy
  Al  Al0  1  0.375285  0.375285  0.748614  1
  Al  Al1  1  0.624715  0.624715  0.251386  1
  Sb  Sb2  1  0.802429  0.802429  0.749169  1
  Sb  Sb3  1  0.197571  0.197571  0.250831  1
