# generated using pymatgen
data_Te2Mo3(SeS)2
_symmetry_space_group_name_H-M   'P 1'
_cell_length_a   3.35037595
_cell_length_b   3.35062118
_cell_length_c   30.94868398
_cell_angle_alpha   89.99990279
_cell_angle_beta   90.00000486
_cell_angle_gamma   119.99769652
_symmetry_Int_Tables_number   1
_chemical_formula_structural   Te2Mo3(SeS)2
_chemical_formula_sum   'Te2 Mo3 Se2 S2'
_cell_volume   300.88585395
_cell_formula_units_Z   1
loop_
 _symmetry_equiv_pos_site_id
 _symmetry_equiv_pos_as_xyz
  1  'x, y, z'
loop_
 _atom_site_type_symbol
 _atom_site_label
 _atom_site_symmetry_multiplicity
 _atom_site_fract_x
 _atom_site_fract_y
 _atom_site_fract_z
 _atom_site_occupancy
  Te  Te0  1  0.666653  0.333305  0.517155  1
  Te  Te1  1  0.666642  0.333284  0.639521  1
  Mo  Mo2  1  0.333295  0.666591  0.115656  1
  Mo  Mo3  1  0.333314  0.666628  0.578359  1
  Mo  Mo4  1  0.666689  0.333378  0.346941  1
  Se  Se5  1  0.333349  0.666699  0.400713  1
  Se  Se6  1  0.333351  0.666702  0.293177  1
  S  S7  1  0.666654  0.333306  0.066617  1
  S  S8  1  0.666655  0.333308  0.164702  1
