# generated using pymatgen
data_TeW2Se2S
_symmetry_space_group_name_H-M   'P 1'
_cell_length_a   3.34339712
_cell_length_b   3.34337445
_cell_length_c   41.07582674
_cell_angle_alpha   90.00483913
_cell_angle_beta   90.00000000
_cell_angle_gamma   120.00022430
_symmetry_Int_Tables_number   1
_chemical_formula_structural   TeW2Se2S
_chemical_formula_sum   'Te2 W4 Se4 S2'
_cell_volume   397.63897414
_cell_formula_units_Z   2
loop_
 _symmetry_equiv_pos_site_id
 _symmetry_equiv_pos_as_xyz
  1  'x, y, z'
loop_
 _atom_site_type_symbol
 _atom_site_label
 _atom_site_symmetry_multiplicity
 _atom_site_fract_x
 _atom_site_fract_y
 _atom_site_fract_z
 _atom_site_occupancy
  Te  Te0  1  0.666687  0.333374  0.423206  1
  Te  Te1  1  0.666683  0.333365  0.516118  1
  W  W2  1  0.333252  0.666504  0.093702  1
  W  W3  1  0.333340  0.666680  0.469633  1
  W  W4  1  0.666756  0.333511  0.280437  1
  W  W5  1  0.666645  0.333290  0.659083  1
  Se  Se6  1  0.333404  0.666808  0.321224  1
  Se  Se7  1  0.333334  0.666669  0.699841  1
  Se  Se8  1  0.333460  0.666921  0.239728  1
  Se  Se9  1  0.333280  0.666562  0.618360  1
  S  S10  1  0.666513  0.333025  0.056657  1
  S  S11  1  0.666646  0.333291  0.130758  1
