# generated using pymatgen
data_K2Hg3(GeS4)2
_symmetry_space_group_name_H-M   'P 1'
_cell_length_a   6.55276803
_cell_length_b   6.55276803
_cell_length_c   9.88572253
_cell_angle_alpha   86.47150883
_cell_angle_beta   86.47150886
_cell_angle_gamma   83.26255375
_symmetry_Int_Tables_number   1
_chemical_formula_structural   K2Hg3(GeS4)2
_chemical_formula_sum   'K2 Hg3 Ge2 S8'
_cell_volume   420.11786550
_cell_formula_units_Z   1
loop_
 _symmetry_equiv_pos_site_id
 _symmetry_equiv_pos_as_xyz
  1  'x, y, z'
loop_
 _atom_site_type_symbol
 _atom_site_label
 _atom_site_symmetry_multiplicity
 _atom_site_fract_x
 _atom_site_fract_y
 _atom_site_fract_z
 _atom_site_occupancy
  S  S0  1  0.244361  0.285239  0.081308  1
  S  S1  1  0.714761  0.755639  0.918692  1
  S  S2  1  0.235881  0.840955  0.741272  1
  S  S3  1  0.159045  0.764119  0.258728  1
  S  S4  1  0.768086  0.393554  0.260758  1
  S  S5  1  0.230047  0.270329  0.458394  1
  S  S6  1  0.729671  0.769953  0.541606  1
  S  S7  1  0.606446  0.231914  0.739242  1
  K  K8  1  0.633790  0.933290  0.230123  1
  K  K9  1  0.066710  0.366210  0.769877  1
  Ge  Ge10  1  0.569823  0.895323  0.725233  1
  Ge  Ge11  1  0.104677  0.430177  0.274767  1
  Hg  Hg12  1  0.475911  0.524089  0.000000  1
  Hg  Hg13  1  0.156851  0.843149  0.500000  1
  Hg  Hg14  1  0.639948  0.360052  0.500000  1
