# generated using pymatgen
data_Zr2Ni12P7
_symmetry_space_group_name_H-M   'P 1'
_cell_length_a   8.99908811
_cell_length_b   8.99908811
_cell_length_c   3.58738478
_cell_angle_alpha   90.00000000
_cell_angle_beta   90.00000000
_cell_angle_gamma   120.00000003
_symmetry_Int_Tables_number   1
_chemical_formula_structural   Zr2Ni12P7
_chemical_formula_sum   'Zr2 Ni12 P7'
_cell_volume   251.59708265
_cell_formula_units_Z   1
loop_
 _symmetry_equiv_pos_site_id
 _symmetry_equiv_pos_as_xyz
  1  'x, y, z'
loop_
 _atom_site_type_symbol
 _atom_site_label
 _atom_site_symmetry_multiplicity
 _atom_site_fract_x
 _atom_site_fract_y
 _atom_site_fract_z
 _atom_site_occupancy
  P  P0  1  0.000000  0.000000  0.000000  1
  P  P1  1  0.412850  0.119266  0.000000  1
  P  P2  1  0.589157  0.880128  0.500000  1
  P  P3  1  0.119872  0.709028  0.500000  1
  P  P4  1  0.290972  0.410843  0.500000  1
  P  P5  1  0.880734  0.293584  0.000000  1
  P  P6  1  0.706416  0.587150  0.000000  1
  Ni  Ni7  1  0.627566  0.060827  0.000000  1
  Ni  Ni8  1  0.219010  0.128213  0.500000  1
  Ni  Ni9  1  0.433260  0.372434  0.000000  1
  Ni  Ni10  1  0.871787  0.090796  0.500000  1
  Ni  Ni11  1  0.723338  0.842218  0.000000  1
  Ni  Ni12  1  0.118880  0.276662  0.000000  1
  Ni  Ni13  1  0.157782  0.881120  0.000000  1
  Ni  Ni14  1  0.565302  0.612150  0.500000  1
  Ni  Ni15  1  0.387850  0.953152  0.500000  1
  Ni  Ni16  1  0.046848  0.434698  0.500000  1
  Ni  Ni17  1  0.909204  0.780990  0.500000  1
  Ni  Ni18  1  0.939173  0.566739  0.000000  1
  Zr  Zr19  1  0.333333  0.666667  0.000000  1
  Zr  Zr20  1  0.666667  0.333333  0.500000  1
