# generated using pymatgen
data_BaCaP2O7
_symmetry_space_group_name_H-M   'P 1'
_cell_length_a   12.23308691
_cell_length_b   10.74102418
_cell_length_c   9.66249965
_cell_angle_alpha   90.00000000
_cell_angle_beta   94.80179267
_cell_angle_gamma   90.00000000
_symmetry_Int_Tables_number   1
_chemical_formula_structural   BaCaP2O7
_chemical_formula_sum   'Ba8 Ca8 P16 O56'
_cell_volume   1265.15663281
_cell_formula_units_Z   8
loop_
 _symmetry_equiv_pos_site_id
 _symmetry_equiv_pos_as_xyz
  1  'x, y, z'
loop_
 _atom_site_type_symbol
 _atom_site_label
 _atom_site_symmetry_multiplicity
 _atom_site_fract_x
 _atom_site_fract_y
 _atom_site_fract_z
 _atom_site_occupancy
  Ba  Ba0  1  0.343327  0.192821  0.408407  1
  Ba  Ba1  1  0.656673  0.692821  0.091593  1
  Ba  Ba2  1  0.656673  0.807179  0.591593  1
  Ba  Ba3  1  0.343327  0.307179  0.908407  1
  Ba  Ba4  1  0.084067  0.485613  0.223528  1
  Ba  Ba5  1  0.915933  0.985613  0.276472  1
  Ba  Ba6  1  0.915933  0.514387  0.776472  1
  Ba  Ba7  1  0.084067  0.014387  0.723528  1
  Ca  Ca8  1  0.217766  0.847056  0.327739  1
  Ca  Ca9  1  0.782234  0.347056  0.172261  1
  Ca  Ca10  1  0.782234  0.152944  0.672261  1
  Ca  Ca11  1  0.217766  0.652944  0.827739  1
  Ca  Ca12  1  0.652135  0.423219  0.510282  1
  Ca  Ca13  1  0.347865  0.923219  0.989718  1
  Ca  Ca14  1  0.347865  0.576781  0.489718  1
  Ca  Ca15  1  0.652135  0.076781  0.010282  1
  P  P16  1  0.502641  0.908073  0.255695  1
  P  P17  1  0.497359  0.408073  0.244305  1
  P  P18  1  0.497359  0.091927  0.744305  1
  P  P19  1  0.502641  0.591927  0.755695  1
  P  P20  1  0.656508  0.104595  0.382910  1
  P  P21  1  0.343492  0.604595  0.117090  1
  P  P22  1  0.343492  0.895405  0.617090  1
  P  P23  1  0.656508  0.395405  0.882910  1
  P  P24  1  0.158726  0.138444  0.113063  1
  P  P25  1  0.841274  0.638444  0.386937  1
  P  P26  1  0.841274  0.861556  0.886937  1
  P  P27  1  0.158726  0.361556  0.613063  1
  P  P28  1  0.939065  0.228596  0.971541  1
  P  P29  1  0.060935  0.728596  0.528459  1
  P  P30  1  0.060935  0.771404  0.028459  1
  P  P31  1  0.939065  0.271404  0.471541  1
  O  O32  1  0.550417  0.792590  0.327718  1
  O  O33  1  0.449583  0.292590  0.172282  1
  O  O34  1  0.449583  0.207410  0.672282  1
  O  O35  1  0.550417  0.707410  0.827718  1
  O  O36  1  0.377441  0.925307  0.242143  1
  O  O37  1  0.622559  0.425307  0.257857  1
  O  O38  1  0.622559  0.074693  0.757857  1
  O  O39  1  0.377441  0.574693  0.742143  1
  O  O40  1  0.545843  0.925031  0.111411  1
  O  O41  1  0.454157  0.425031  0.388589  1
  O  O42  1  0.454157  0.074969  0.888589  1
  O  O43  1  0.545843  0.574969  0.611411  1
  O  O44  1  0.540305  0.030427  0.349857  1
  O  O45  1  0.459695  0.530427  0.150143  1
  O  O46  1  0.459695  0.969573  0.650143  1
  O  O47  1  0.540305  0.469573  0.849857  1
  O  O48  1  0.621560  0.214241  0.467574  1
  O  O49  1  0.378440  0.714241  0.032426  1
  O  O50  1  0.378440  0.785759  0.532426  1
  O  O51  1  0.621560  0.285759  0.967574  1
  O  O52  1  0.703680  0.136015  0.244353  1
  O  O53  1  0.296320  0.636015  0.255647  1
  O  O54  1  0.296320  0.863985  0.755647  1
  O  O55  1  0.703680  0.363985  0.744353  1
  O  O56  1  0.734987  0.018040  0.470200  1
  O  O57  1  0.265013  0.518040  0.029800  1
  O  O58  1  0.265013  0.981960  0.529800  1
  O  O59  1  0.734987  0.481960  0.970200  1
  O  O60  1  0.224799  0.097814  0.990948  1
  O  O61  1  0.775201  0.597814  0.509052  1
  O  O62  1  0.775201  0.902186  0.009052  1
  O  O63  1  0.224799  0.402186  0.490948  1
  O  O64  1  0.190556  0.269506  0.162168  1
  O  O65  1  0.809444  0.769506  0.337832  1
  O  O66  1  0.809444  0.730494  0.837832  1
  O  O67  1  0.190556  0.230494  0.662168  1
  O  O68  1  0.159572  0.044915  0.232789  1
  O  O69  1  0.840428  0.544915  0.267211  1
  O  O70  1  0.840428  0.955085  0.767211  1
  O  O71  1  0.159572  0.455085  0.732789  1
  O  O72  1  0.030235  0.135480  0.049067  1
  O  O73  1  0.969765  0.635480  0.450933  1
  O  O74  1  0.969765  0.864520  0.950933  1
  O  O75  1  0.030235  0.364520  0.549067  1
  O  O76  1  0.946344  0.215196  0.814866  1
  O  O77  1  0.053656  0.715196  0.685134  1
  O  O78  1  0.053656  0.784804  0.185134  1
  O  O79  1  0.946344  0.284804  0.314866  1
  O  O80  1  0.831969  0.177607  0.021184  1
  O  O81  1  0.168031  0.677607  0.478816  1
  O  O82  1  0.168031  0.822393  0.978816  1
  O  O83  1  0.831969  0.322393  0.521184  1
  O  O84  1  0.959213  0.362775  0.021381  1
  O  O85  1  0.040787  0.862775  0.478619  1
  O  O86  1  0.040787  0.637225  0.978619  1
  O  O87  1  0.959213  0.137225  0.521381  1
