# generated using pymatgen
data_Mg2ZnAs2
_symmetry_space_group_name_H-M   'P 1'
_cell_length_a   4.28118647
_cell_length_b   4.28167011
_cell_length_c   6.62242854
_cell_angle_alpha   90.00000002
_cell_angle_beta   89.98952598
_cell_angle_gamma   120.00374095
_symmetry_Int_Tables_number   1
_chemical_formula_structural   Mg2ZnAs2
_chemical_formula_sum   'Mg2 Zn1 As2'
_cell_volume   105.12569423
_cell_formula_units_Z   1
loop_
 _symmetry_equiv_pos_site_id
 _symmetry_equiv_pos_as_xyz
  1  'x, y, z'
loop_
 _atom_site_type_symbol
 _atom_site_label
 _atom_site_symmetry_multiplicity
 _atom_site_fract_x
 _atom_site_fract_y
 _atom_site_fract_z
 _atom_site_occupancy
  Mg  Mg0  1  0.666644  0.333322  0.354934  1
  Mg  Mg1  1  0.333356  0.666678  0.645066  1
  Zn  Zn2  1  0.000000  0.000000  0.000000  1
  As  As3  1  0.666599  0.333299  0.777802  1
  As  As4  1  0.333401  0.666701  0.222198  1
