# generated using pymatgen
data_Si(Hg2S3)2
_symmetry_space_group_name_H-M   'P 1'
_cell_length_a   7.30529705
_cell_length_b   7.30529705
_cell_length_c   12.58337093
_cell_angle_alpha   90.63490447
_cell_angle_beta   106.08395221
_cell_angle_gamma   120.24524293
_symmetry_Int_Tables_number   1
_chemical_formula_structural   Si(Hg2S3)2
_chemical_formula_sum   'Si2 Hg8 S12'
_cell_volume   548.16631682
_cell_formula_units_Z   2
loop_
 _symmetry_equiv_pos_site_id
 _symmetry_equiv_pos_as_xyz
  1  'x, y, z'
loop_
 _atom_site_type_symbol
 _atom_site_label
 _atom_site_symmetry_multiplicity
 _atom_site_fract_x
 _atom_site_fract_y
 _atom_site_fract_z
 _atom_site_occupancy
  Si  Si0  1  0.470485  0.676693  0.603160  1
  Si  Si1  1  0.426467  0.132675  0.103160  1
  S  S2  1  0.210808  0.546916  0.233782  1
  S  S3  1  0.186865  0.022974  0.733782  1
  S  S4  1  0.592217  0.984194  0.555400  1
  S  S5  1  0.071206  0.963183  0.055400  1
  S  S6  1  0.565158  0.966075  0.050709  1
  S  S7  1  0.584634  0.485551  0.550709  1
  S  S8  1  0.543257  0.709628  0.782035  1
  S  S9  1  0.572407  0.238778  0.282035  1
  S  S10  1  0.946938  0.415751  0.854281  1
  S  S11  1  0.938530  0.907343  0.354281  1
  S  S12  1  0.109207  0.485031  0.529695  1
  S  S13  1  0.544665  0.420489  0.029695  1
  Hg  Hg14  1  0.031027  0.279150  0.694963  1
  Hg  Hg15  1  0.915814  0.663936  0.194963  1
  Hg  Hg16  1  0.947339  0.782206  0.848525  1
  Hg  Hg17  1  0.566319  0.901186  0.348525  1
  Hg  Hg18  1  0.268031  0.538898  0.042324  1
  Hg  Hg19  1  0.003426  0.774293  0.542324  1
  Hg  Hg20  1  0.580238  0.079862  0.854425  1
  Hg  Hg21  1  0.274563  0.274187  0.354425  1
