# generated using pymatgen
data_Ba(Cu2P)4
_symmetry_space_group_name_H-M   'P 1'
_cell_length_a   3.86506642
_cell_length_b   7.46811198
_cell_length_c   7.46811198
_cell_angle_alpha   86.16045279
_cell_angle_beta   75.00283076
_cell_angle_gamma   75.00283081
_symmetry_Int_Tables_number   1
_chemical_formula_structural   Ba(Cu2P)4
_chemical_formula_sum   'Ba1 Cu8 P4'
_cell_volume   201.13037227
_cell_formula_units_Z   1
loop_
 _symmetry_equiv_pos_site_id
 _symmetry_equiv_pos_as_xyz
  1  'x, y, z'
loop_
 _atom_site_type_symbol
 _atom_site_label
 _atom_site_symmetry_multiplicity
 _atom_site_fract_x
 _atom_site_fract_y
 _atom_site_fract_z
 _atom_site_occupancy
  P  P0  1  0.766356  0.808795  0.658493  1
  P  P1  1  0.233644  0.191205  0.341507  1
  P  P2  1  0.424849  0.341507  0.808795  1
  P  P3  1  0.575151  0.658493  0.191205  1
  Cu  Cu4  1  0.661395  0.109570  0.567640  1
  Cu  Cu5  1  0.770965  0.567640  0.890430  1
  Cu  Cu6  1  0.634370  0.379272  0.351987  1
  Cu  Cu7  1  0.365630  0.620728  0.648013  1
  Cu  Cu8  1  0.986358  0.648013  0.379272  1
  Cu  Cu9  1  0.229035  0.432360  0.109570  1
  Cu  Cu10  1  0.013642  0.351987  0.620728  1
  Cu  Cu11  1  0.338605  0.890430  0.432360  1
  Ba  Ba12  1  0.000000  0.000000  0.000000  1
