# generated using pymatgen
data_K3Eu(PO4)2
_symmetry_space_group_name_H-M   'P 1'
_cell_length_a   5.74865169
_cell_length_b   7.55766163
_cell_length_c   9.68408414
_cell_angle_alpha   91.22656383
_cell_angle_beta   90.00000000
_cell_angle_gamma   90.00000000
_symmetry_Int_Tables_number   1
_chemical_formula_structural   K3Eu(PO4)2
_chemical_formula_sum   'K6 Eu2 P4 O16'
_cell_volume   420.64184255
_cell_formula_units_Z   2
loop_
 _symmetry_equiv_pos_site_id
 _symmetry_equiv_pos_as_xyz
  1  'x, y, z'
loop_
 _atom_site_type_symbol
 _atom_site_label
 _atom_site_symmetry_multiplicity
 _atom_site_fract_x
 _atom_site_fract_y
 _atom_site_fract_z
 _atom_site_occupancy
  O  O0  1  0.972123  0.153863  0.341953  1
  O  O1  1  0.472123  0.846137  0.658047  1
  O  O2  1  0.027877  0.846137  0.658047  1
  O  O3  1  0.527877  0.153863  0.341953  1
  O  O4  1  0.250000  0.562888  0.603907  1
  O  O5  1  0.750000  0.437112  0.396093  1
  O  O6  1  0.250000  0.989425  0.953449  1
  O  O7  1  0.750000  0.010575  0.046551  1
  O  O8  1  0.250000  0.285466  0.073418  1
  O  O9  1  0.750000  0.714534  0.926582  1
  O  O10  1  0.250000  0.817426  0.433000  1
  O  O11  1  0.029149  0.244699  0.845126  1
  O  O12  1  0.470851  0.244699  0.845126  1
  O  O13  1  0.970851  0.755301  0.154874  1
  O  O14  1  0.529149  0.755301  0.154874  1
  O  O15  1  0.750000  0.182574  0.567000  1
  P  P16  1  0.750000  0.808575  0.071855  1
  P  P17  1  0.250000  0.191425  0.928145  1
  P  P18  1  0.250000  0.765362  0.588035  1
  P  P19  1  0.750000  0.234638  0.411965  1
  K  K20  1  0.250000  0.642500  0.911399  1
  K  K21  1  0.250000  0.493413  0.307794  1
  K  K22  1  0.750000  0.800103  0.414907  1
  K  K23  1  0.750000  0.506587  0.692206  1
  K  K24  1  0.250000  0.199897  0.585093  1
  K  K25  1  0.750000  0.357500  0.088601  1
  Eu  Eu26  1  0.750000  0.005942  0.790072  1
  Eu  Eu27  1  0.250000  0.994058  0.209928  1
