# generated using pymatgen
data_K2SmF5
_symmetry_space_group_name_H-M   'P 1'
_cell_length_a   6.75400770
_cell_length_b   7.48690735
_cell_length_c   11.05797629
_cell_angle_alpha   90.00000000
_cell_angle_beta   90.00000000
_cell_angle_gamma   90.00000000
_symmetry_Int_Tables_number   1
_chemical_formula_structural   K2SmF5
_chemical_formula_sum   'K8 Sm4 F20'
_cell_volume   559.16459440
_cell_formula_units_Z   4
loop_
 _symmetry_equiv_pos_site_id
 _symmetry_equiv_pos_as_xyz
  1  'x, y, z'
loop_
 _atom_site_type_symbol
 _atom_site_label
 _atom_site_symmetry_multiplicity
 _atom_site_fract_x
 _atom_site_fract_y
 _atom_site_fract_z
 _atom_site_occupancy
  F  F0  1  0.865211  0.006340  0.168034  1
  F  F1  1  0.134789  0.506340  0.831966  1
  F  F2  1  0.634789  0.006340  0.668034  1
  F  F3  1  0.365211  0.506340  0.331966  1
  F  F4  1  0.834566  0.506405  0.194918  1
  F  F5  1  0.165434  0.006405  0.805082  1
  F  F6  1  0.665434  0.506405  0.694918  1
  F  F7  1  0.334566  0.006405  0.305082  1
  F  F8  1  0.645921  0.223000  0.420727  1
  F  F9  1  0.354079  0.723000  0.579273  1
  F  F10  1  0.854079  0.223000  0.920727  1
  F  F11  1  0.145921  0.723000  0.079273  1
  F  F12  1  0.400284  0.006373  0.011826  1
  F  F13  1  0.599716  0.506373  0.988174  1
  F  F14  1  0.099716  0.006373  0.511826  1
  F  F15  1  0.900284  0.506373  0.488174  1
  F  F16  1  0.146118  0.289840  0.079270  1
  F  F17  1  0.853882  0.789840  0.920731  1
  F  F18  1  0.353882  0.289840  0.579269  1
  F  F19  1  0.646118  0.789840  0.420731  1
  K  K20  1  0.529140  0.253473  0.171730  1
  K  K21  1  0.470860  0.753473  0.828270  1
  K  K22  1  0.970860  0.253473  0.671730  1
  K  K23  1  0.029140  0.753473  0.328270  1
  K  K24  1  0.529034  0.759168  0.171730  1
  K  K25  1  0.470966  0.259168  0.828270  1
  K  K26  1  0.970966  0.759168  0.671730  1
  K  K27  1  0.029034  0.259168  0.328270  1
  Sm  Sm28  1  0.565555  0.506401  0.497210  1
  Sm  Sm29  1  0.434445  0.006401  0.502790  1
  Sm  Sm30  1  0.934445  0.506401  0.997210  1
  Sm  Sm31  1  0.065555  0.006401  0.002790  1
