# generated using pymatgen
data_NaEr(PO3)4
_symmetry_space_group_name_H-M   'P 1'
_cell_length_a   7.25063651
_cell_length_b   9.76571598
_cell_length_c   13.20063267
_cell_angle_alpha   90.00000000
_cell_angle_beta   90.00000000
_cell_angle_gamma   90.51719836
_symmetry_Int_Tables_number   1
_chemical_formula_structural   NaEr(PO3)4
_chemical_formula_sum   'Na4 Er4 P16 O48'
_cell_volume   934.66778720
_cell_formula_units_Z   4
loop_
 _symmetry_equiv_pos_site_id
 _symmetry_equiv_pos_as_xyz
  1  'x, y, z'
loop_
 _atom_site_type_symbol
 _atom_site_label
 _atom_site_symmetry_multiplicity
 _atom_site_fract_x
 _atom_site_fract_y
 _atom_site_fract_z
 _atom_site_occupancy
  O  O0  1  0.207730  0.603222  0.349345  1
  O  O1  1  0.292270  0.896778  0.849345  1
  O  O2  1  0.792270  0.396778  0.650655  1
  O  O3  1  0.707730  0.103222  0.150655  1
  O  O4  1  0.763002  0.911825  0.336290  1
  O  O5  1  0.736998  0.588175  0.836290  1
  O  O6  1  0.236998  0.088175  0.663710  1
  O  O7  1  0.263002  0.411825  0.163710  1
  O  O8  1  0.406832  0.698541  0.166371  1
  O  O9  1  0.093168  0.801459  0.666371  1
  O  O10  1  0.593168  0.301459  0.833629  1
  O  O11  1  0.906832  0.198541  0.333629  1
  O  O12  1  0.215043  0.906116  0.114977  1
  O  O13  1  0.284957  0.593884  0.614977  1
  O  O14  1  0.784957  0.093884  0.885023  1
  O  O15  1  0.715043  0.406116  0.385023  1
  O  O16  1  0.575167  0.696862  0.385269  1
  O  O17  1  0.773781  0.606753  0.207353  1
  O  O18  1  0.924833  0.803138  0.885269  1
  O  O19  1  0.075167  0.196862  0.114731  1
  O  O20  1  0.829929  0.850828  0.134201  1
  O  O21  1  0.670071  0.649172  0.634201  1
  O  O22  1  0.170071  0.149172  0.865799  1
  O  O23  1  0.329929  0.350828  0.365799  1
  O  O24  1  0.284569  0.142030  0.481061  1
  O  O25  1  0.215431  0.357970  0.981061  1
  O  O26  1  0.715431  0.857970  0.518939  1
  O  O27  1  0.784569  0.642030  0.018939  1
  O  O28  1  0.718471  0.287927  0.012005  1
  O  O29  1  0.781529  0.212073  0.512005  1
  O  O30  1  0.281529  0.712073  0.987995  1
  O  O31  1  0.218471  0.787927  0.487995  1
  O  O32  1  0.570438  0.162846  0.373963  1
  O  O33  1  0.929562  0.337154  0.873963  1
  O  O34  1  0.429562  0.837154  0.626037  1
  O  O35  1  0.070438  0.662846  0.126037  1
  O  O36  1  0.416885  0.201137  0.081835  1
  O  O37  1  0.083115  0.298863  0.581835  1
  O  O38  1  0.583115  0.798863  0.918165  1
  O  O39  1  0.916885  0.701137  0.418165  1
  O  O40  1  0.631216  0.354941  0.185893  1
  O  O41  1  0.868784  0.145059  0.685893  1
  O  O42  1  0.368784  0.645059  0.814107  1
  O  O43  1  0.131216  0.854941  0.314107  1
  O  O44  1  0.273781  0.106753  0.292647  1
  O  O45  1  0.226219  0.393247  0.792647  1
  O  O46  1  0.726219  0.893247  0.707353  1
  O  O47  1  0.424833  0.303138  0.614731  1
  Na  Na48  1  0.499594  0.060501  0.776458  1
  Na  Na49  1  0.999594  0.560501  0.723542  1
  Na  Na50  1  0.500406  0.939499  0.223542  1
  Na  Na51  1  0.000406  0.439499  0.276458  1
  P  P52  1  0.373359  0.764458  0.884986  1
  P  P53  1  0.249464  0.744757  0.603985  1
  P  P54  1  0.749464  0.244757  0.896015  1
  P  P55  1  0.750536  0.255243  0.396015  1
  P  P56  1  0.126641  0.735542  0.384986  1
  P  P57  1  0.250536  0.755243  0.103985  1
  P  P58  1  0.873359  0.264458  0.615014  1
  P  P59  1  0.626641  0.235542  0.115014  1
  P  P60  1  0.353336  0.198814  0.372821  1
  P  P61  1  0.766729  0.707068  0.906683  1
  P  P62  1  0.266729  0.207068  0.593317  1
  P  P63  1  0.233271  0.292932  0.093317  1
  P  P64  1  0.146664  0.301186  0.872821  1
  P  P65  1  0.646664  0.801186  0.627179  1
  P  P66  1  0.853336  0.698814  0.127179  1
  P  P67  1  0.733271  0.792932  0.406683  1
  Er  Er68  1  0.488464  0.521685  0.277867  1
  Er  Er69  1  0.011536  0.978315  0.777867  1
  Er  Er70  1  0.511536  0.478315  0.722133  1
  Er  Er71  1  0.988464  0.021685  0.222133  1
