# generated using pymatgen
data_Ba6Na2V2Ru2O17
_symmetry_space_group_name_H-M   'P 1'
_cell_length_a   5.94259941
_cell_length_b   5.94259941
_cell_length_c   30.20319331
_cell_angle_alpha   90.00000000
_cell_angle_beta   90.00000000
_cell_angle_gamma   120.00000006
_symmetry_Int_Tables_number   1
_chemical_formula_structural   Ba6Na2V2Ru2O17
_chemical_formula_sum   'Ba12 Na4 V4 Ru4 O34'
_cell_volume   923.71161517
_cell_formula_units_Z   2
loop_
 _symmetry_equiv_pos_site_id
 _symmetry_equiv_pos_as_xyz
  1  'x, y, z'
loop_
 _atom_site_type_symbol
 _atom_site_label
 _atom_site_symmetry_multiplicity
 _atom_site_fract_x
 _atom_site_fract_y
 _atom_site_fract_z
 _atom_site_occupancy
  O  O0  1  0.333333  0.666667  0.994853  1
  O  O1  1  0.666667  0.333333  0.494853  1
  O  O2  1  0.666667  0.333333  0.005147  1
  O  O3  1  0.333333  0.666667  0.505147  1
  O  O4  1  0.486036  0.972072  0.750000  1
  O  O5  1  0.513965  0.486036  0.250000  1
  O  O6  1  0.972072  0.486036  0.250000  1
  O  O7  1  0.027929  0.513965  0.750000  1
  O  O8  1  0.486036  0.513965  0.750000  1
  O  O9  1  0.513965  0.027929  0.250000  1
  O  O10  1  0.177048  0.822951  0.670132  1
  O  O11  1  0.177049  0.354097  0.670132  1
  O  O12  1  0.645903  0.822951  0.670132  1
  O  O13  1  0.354097  0.177048  0.170132  1
  O  O14  1  0.822952  0.645903  0.329868  1
  O  O15  1  0.822951  0.177048  0.170132  1
  O  O16  1  0.822952  0.645903  0.170132  1
  O  O17  1  0.177048  0.822951  0.829868  1
  O  O18  1  0.645903  0.822951  0.829868  1
  O  O19  1  0.354097  0.177048  0.329868  1
  O  O20  1  0.822951  0.177048  0.329868  1
  O  O21  1  0.177049  0.354097  0.829868  1
  O  O22  1  0.174716  0.825284  0.072677  1
  O  O23  1  0.174716  0.349432  0.072677  1
  O  O24  1  0.174716  0.349432  0.427323  1
  O  O25  1  0.825284  0.174715  0.927323  1
  O  O26  1  0.349432  0.174715  0.927323  1
  O  O27  1  0.650568  0.825284  0.427323  1
  O  O28  1  0.174716  0.825284  0.427323  1
  O  O29  1  0.650568  0.825284  0.072677  1
  O  O30  1  0.825284  0.174715  0.572677  1
  O  O31  1  0.825285  0.650569  0.927323  1
  O  O32  1  0.349432  0.174715  0.572677  1
  O  O33  1  0.825285  0.650569  0.572677  1
  Na  Na34  1  0.000000  0.000000  0.376047  1
  Na  Na35  1  0.000000  0.000000  0.876047  1
  Na  Na36  1  0.000000  0.000000  0.623953  1
  Na  Na37  1  0.000000  0.000000  0.123953  1
  V  V38  1  0.333333  0.666667  0.447974  1
  V  V39  1  0.666667  0.333333  0.947974  1
  V  V40  1  0.333333  0.666667  0.052026  1
  V  V41  1  0.666667  0.333333  0.552026  1
  Ru  Ru42  1  0.333333  0.666667  0.796183  1
  Ru  Ru43  1  0.666667  0.333333  0.296183  1
  Ru  Ru44  1  0.666667  0.333333  0.203817  1
  Ru  Ru45  1  0.333333  0.666667  0.703817  1
  Ba  Ba46  1  0.000000  0.000000  0.750000  1
  Ba  Ba47  1  0.000000  0.000000  0.250000  1
  Ba  Ba48  1  0.000000  0.000000  0.500000  1
  Ba  Ba49  1  0.000000  0.000000  0.000000  1
  Ba  Ba50  1  0.333333  0.666667  0.907350  1
  Ba  Ba51  1  0.666667  0.333333  0.407351  1
  Ba  Ba52  1  0.666667  0.333333  0.092649  1
  Ba  Ba53  1  0.333333  0.666667  0.592649  1
  Ba  Ba54  1  0.333333  0.666667  0.319344  1
  Ba  Ba55  1  0.666667  0.333333  0.819344  1
  Ba  Ba56  1  0.666667  0.333333  0.680656  1
  Ba  Ba57  1  0.333333  0.666667  0.180656  1
