# generated using pymatgen
data_KGeSbO5
_symmetry_space_group_name_H-M   'P 1'
_cell_length_a   6.70513023
_cell_length_b   10.94520855
_cell_length_c   13.46721423
_cell_angle_alpha   90.00000000
_cell_angle_beta   90.00000000
_cell_angle_gamma   90.00000000
_symmetry_Int_Tables_number   1
_chemical_formula_structural   KGeSbO5
_chemical_formula_sum   'K8 Ge8 Sb8 O40'
_cell_volume   988.34604128
_cell_formula_units_Z   8
loop_
 _symmetry_equiv_pos_site_id
 _symmetry_equiv_pos_as_xyz
  1  'x, y, z'
loop_
 _atom_site_type_symbol
 _atom_site_label
 _atom_site_symmetry_multiplicity
 _atom_site_fract_x
 _atom_site_fract_y
 _atom_site_fract_z
 _atom_site_occupancy
  O  O0  1  0.956114  0.129734  0.779672  1
  O  O1  1  0.043886  0.629734  0.220328  1
  O  O2  1  0.543886  0.129734  0.279672  1
  O  O3  1  0.456114  0.629734  0.720328  1
  O  O4  1  0.473051  0.876933  0.274761  1
  O  O5  1  0.526949  0.376933  0.725239  1
  O  O6  1  0.026949  0.876933  0.774761  1
  O  O7  1  0.973051  0.376933  0.225239  1
  O  O8  1  0.537969  0.125513  0.735570  1
  O  O9  1  0.462031  0.625513  0.264430  1
  O  O10  1  0.962031  0.125513  0.235570  1
  O  O11  1  0.037969  0.625513  0.764430  1
  O  O12  1  0.049287  0.884261  0.229809  1
  O  O13  1  0.950712  0.384261  0.770191  1
  O  O14  1  0.450713  0.884261  0.729809  1
  O  O15  1  0.158987  0.772245  0.600999  1
  O  O16  1  0.549288  0.384261  0.270191  1
  O  O17  1  0.713366  0.533398  0.101181  1
  O  O18  1  0.213366  0.033398  0.398819  1
  O  O19  1  0.786634  0.533398  0.601181  1
  O  O20  1  0.804763  0.963013  0.393414  1
  O  O21  1  0.195237  0.463013  0.606586  1
  O  O22  1  0.695237  0.963013  0.893414  1
  O  O23  1  0.304763  0.463013  0.106586  1
  O  O24  1  0.499896  0.867600  0.485658  1
  O  O25  1  0.500104  0.367600  0.514342  1
  O  O26  1  0.000104  0.867600  0.985658  1
  O  O27  1  0.999896  0.367600  0.014342  1
  O  O28  1  0.960290  0.114596  0.996979  1
  O  O29  1  0.039710  0.614596  0.003021  1
  O  O30  1  0.539710  0.114596  0.496979  1
  O  O31  1  0.460290  0.614596  0.503021  1
  O  O32  1  0.168650  0.738518  0.389868  1
  O  O33  1  0.831350  0.238518  0.610132  1
  O  O34  1  0.331350  0.738518  0.889868  1
  O  O35  1  0.668650  0.238518  0.110132  1
  O  O36  1  0.658987  0.272245  0.899001  1
  O  O37  1  0.341014  0.772245  0.100999  1
  O  O38  1  0.841013  0.272245  0.399001  1
  O  O39  1  0.286634  0.033398  0.898819  1
  K  K40  1  0.773994  0.690558  0.381917  1
  K  K41  1  0.296112  0.434639  0.889500  1
  K  K42  1  0.203888  0.434639  0.389500  1
  K  K43  1  0.703888  0.934639  0.110500  1
  K  K44  1  0.273994  0.190558  0.118083  1
  K  K45  1  0.726006  0.690558  0.881917  1
  K  K46  1  0.226006  0.190558  0.618083  1
  K  K47  1  0.796112  0.934639  0.610500  1
  Ge  Ge48  1  0.681228  0.251532  0.502230  1
  Ge  Ge49  1  0.181228  0.751532  0.997770  1
  Ge  Ge50  1  0.818772  0.251532  0.002230  1
  Ge  Ge51  1  0.511342  0.502836  0.181375  1
  Ge  Ge52  1  0.488658  0.002836  0.818625  1
  Ge  Ge53  1  0.988658  0.502836  0.681375  1
  Ge  Ge54  1  0.318772  0.751532  0.497770  1
  Ge  Ge55  1  0.011342  0.002836  0.318625  1
  Sb  Sb56  1  0.256790  0.755575  0.245179  1
  Sb  Sb57  1  0.743210  0.255575  0.754821  1
  Sb  Sb58  1  0.243210  0.755575  0.745179  1
  Sb  Sb59  1  0.507686  0.000759  0.382414  1
  Sb  Sb60  1  0.492314  0.500759  0.617586  1
  Sb  Sb61  1  0.992314  0.000759  0.882414  1
  Sb  Sb62  1  0.007686  0.500759  0.117586  1
  Sb  Sb63  1  0.756790  0.255575  0.254821  1
