# generated using pymatgen
data_Te4MoW3Se4
_symmetry_space_group_name_H-M   'P 1'
_cell_length_a   3.44006800
_cell_length_b   3.44007458
_cell_length_c   39.16015360
_cell_angle_alpha   90.00111837
_cell_angle_beta   90.00000692
_cell_angle_gamma   119.99989584
_symmetry_Int_Tables_number   1
_chemical_formula_structural   Te4MoW3Se4
_chemical_formula_sum   'Te4 Mo1 W3 Se4'
_cell_volume   401.33807165
_cell_formula_units_Z   1
loop_
 _symmetry_equiv_pos_site_id
 _symmetry_equiv_pos_as_xyz
  1  'x, y, z'
loop_
 _atom_site_type_symbol
 _atom_site_label
 _atom_site_symmetry_multiplicity
 _atom_site_fract_x
 _atom_site_fract_y
 _atom_site_fract_z
 _atom_site_occupancy
  Te  Te0  1  0.333362  0.666725  0.705155  1
  Te  Te1  1  0.666639  0.333277  0.046308  1
  Te  Te2  1  0.666641  0.333281  0.141561  1
  Te  Te3  1  0.333354  0.666708  0.609910  1
  Mo  Mo4  1  0.666687  0.333375  0.281801  1
  W  W5  1  0.333312  0.666624  0.093917  1
  W  W6  1  0.333310  0.666620  0.469634  1
  W  W7  1  0.666695  0.333391  0.657537  1
  Se  Se8  1  0.333354  0.666709  0.323597  1
  Se  Se9  1  0.666643  0.333285  0.427750  1
  Se  Se10  1  0.666652  0.333303  0.511546  1
  Se  Se11  1  0.333351  0.666702  0.240031  1
