# generated using pymatgen
data_Te2MoWSe2
_symmetry_space_group_name_H-M   'P 1'
_cell_length_a   3.43802590
_cell_length_b   3.43795388
_cell_length_c   39.13950099
_cell_angle_alpha   89.99991465
_cell_angle_beta   90.00000000
_cell_angle_gamma   120.00069294
_symmetry_Int_Tables_number   1
_chemical_formula_structural   Te2MoWSe2
_chemical_formula_sum   'Te4 Mo2 W2 Se4'
_cell_volume   400.63794013
_cell_formula_units_Z   2
loop_
 _symmetry_equiv_pos_site_id
 _symmetry_equiv_pos_as_xyz
  1  'x, y, z'
loop_
 _atom_site_type_symbol
 _atom_site_label
 _atom_site_symmetry_multiplicity
 _atom_site_fract_x
 _atom_site_fract_y
 _atom_site_fract_z
 _atom_site_occupancy
  Te  Te0  1  0.333359  0.666720  0.329511  1
  Te  Te1  1  0.666637  0.333274  0.046518  1
  Te  Te2  1  0.666635  0.333269  0.141270  1
  Te  Te3  1  0.333354  0.666709  0.234160  1
  Mo  Mo4  1  0.333308  0.666616  0.093877  1
  Mo  Mo5  1  0.333313  0.666627  0.469662  1
  W  W6  1  0.666695  0.333390  0.281840  1
  W  W7  1  0.666689  0.333379  0.657530  1
  Se  Se8  1  0.333352  0.666706  0.699463  1
  Se  Se9  1  0.666631  0.333261  0.427833  1
  Se  Se10  1  0.666650  0.333298  0.511477  1
  Se  Se11  1  0.333376  0.666753  0.615608  1
