# generated using pymatgen
data_PbCN2
_symmetry_space_group_name_H-M   'P 1'
_cell_length_a   3.92357466
_cell_length_b   5.59424857
_cell_length_c   12.40668392
_cell_angle_alpha   90.00000000
_cell_angle_beta   90.00000000
_cell_angle_gamma   90.00000000
_symmetry_Int_Tables_number   1
_chemical_formula_structural   PbCN2
_chemical_formula_sum   'Pb4 C4 N8'
_cell_volume   272.31991233
_cell_formula_units_Z   4
loop_
 _symmetry_equiv_pos_site_id
 _symmetry_equiv_pos_as_xyz
  1  'x, y, z'
loop_
 _atom_site_type_symbol
 _atom_site_label
 _atom_site_symmetry_multiplicity
 _atom_site_fract_x
 _atom_site_fract_y
 _atom_site_fract_z
 _atom_site_occupancy
  C  C0  1  0.250000  0.619143  0.099980  1
  C  C1  1  0.750000  0.380857  0.900020  1
  C  C2  1  0.250000  0.119143  0.400020  1
  C  C3  1  0.750000  0.880857  0.599980  1
  N  N4  1  0.750000  0.673549  0.561986  1
  N  N5  1  0.250000  0.326451  0.438014  1
  N  N6  1  0.750000  0.173549  0.938014  1
  N  N7  1  0.250000  0.826451  0.061986  1
  N  N8  1  0.750000  0.079978  0.641111  1
  N  N9  1  0.250000  0.920022  0.358889  1
  N  N10  1  0.750000  0.579978  0.858889  1
  N  N11  1  0.250000  0.420022  0.141111  1
  Pb  Pb12  1  0.250000  0.883051  0.871335  1
  Pb  Pb13  1  0.750000  0.116949  0.128665  1
  Pb  Pb14  1  0.250000  0.383051  0.628665  1
  Pb  Pb15  1  0.750000  0.616949  0.371335  1
