# generated using pymatgen
data_TeWSe
_symmetry_space_group_name_H-M   'P 1'
_cell_length_a   3.43751260
_cell_length_b   3.43748672
_cell_length_c   39.21108314
_cell_angle_alpha   89.99956204
_cell_angle_beta   90.00001593
_cell_angle_gamma   120.00025641
_symmetry_Int_Tables_number   1
_chemical_formula_structural   TeWSe
_chemical_formula_sum   'Te4 W4 Se4'
_cell_volume   401.25797400
_cell_formula_units_Z   4
loop_
 _symmetry_equiv_pos_site_id
 _symmetry_equiv_pos_as_xyz
  1  'x, y, z'
loop_
 _atom_site_type_symbol
 _atom_site_label
 _atom_site_symmetry_multiplicity
 _atom_site_fract_x
 _atom_site_fract_y
 _atom_site_fract_z
 _atom_site_occupancy
  Te  Te0  1  0.333357  0.666715  0.329363  1
  Te  Te1  1  0.666643  0.333285  0.422095  1
  Te  Te2  1  0.666636  0.333272  0.517281  1
  Te  Te3  1  0.333364  0.666728  0.234177  1
  W  W4  1  0.333309  0.666618  0.093922  1
  W  W5  1  0.333306  0.666612  0.469687  1
  W  W6  1  0.666694  0.333388  0.281771  1
  W  W7  1  0.666691  0.333382  0.657536  1
  Se  Se8  1  0.333354  0.666710  0.699433  1
  Se  Se9  1  0.666646  0.333290  0.052025  1
  Se  Se10  1  0.666641  0.333281  0.135824  1
  Se  Se11  1  0.333359  0.666719  0.615634  1
