# generated using pymatgen
data_Ba4Zr3S10
_symmetry_space_group_name_H-M   'P 1'
_cell_length_a   5.04886995
_cell_length_b   5.04886995
_cell_length_c   18.31448284
_cell_angle_alpha   97.92406505
_cell_angle_beta   97.92406506
_cell_angle_gamma   89.99069630
_symmetry_Int_Tables_number   1
_chemical_formula_structural   Ba4Zr3S10
_chemical_formula_sum   'Ba4 Zr3 S10'
_cell_volume   457.89874468
_cell_formula_units_Z   1
loop_
 _symmetry_equiv_pos_site_id
 _symmetry_equiv_pos_as_xyz
  1  'x, y, z'
loop_
 _atom_site_type_symbol
 _atom_site_label
 _atom_site_symmetry_multiplicity
 _atom_site_fract_x
 _atom_site_fract_y
 _atom_site_fract_z
 _atom_site_occupancy
  S  S0  1  0.860596  0.360596  0.721192  1
  S  S1  1  0.639404  0.139404  0.278808  1
  S  S2  1  0.139404  0.639404  0.278808  1
  S  S3  1  0.360596  0.860596  0.721192  1
  S  S4  1  0.000000  0.500000  0.000000  1
  S  S5  1  0.500000  0.000000  0.000000  1
  S  S6  1  0.213109  0.213109  0.426217  1
  S  S7  1  0.929503  0.929503  0.859007  1
  S  S8  1  0.070497  0.070497  0.140993  1
  S  S9  1  0.786891  0.786891  0.573783  1
  Zr  Zr10  1  0.000000  0.000000  0.000000  1
  Zr  Zr11  1  0.856829  0.856829  0.713658  1
  Zr  Zr12  1  0.143171  0.143171  0.286342  1
  Ba  Ba13  1  0.432636  0.432636  0.865272  1
  Ba  Ba14  1  0.567364  0.567364  0.134728  1
  Ba  Ba15  1  0.300281  0.300281  0.600561  1
  Ba  Ba16  1  0.699719  0.699719  0.399439  1
