# generated using pymatgen
data_Te4MoW3(SeS)2
_symmetry_space_group_name_H-M   'P 1'
_cell_length_a   3.39739393
_cell_length_b   3.39740444
_cell_length_c   41.15675689
_cell_angle_alpha   90.00309238
_cell_angle_beta   90.00000000
_cell_angle_gamma   119.99989778
_symmetry_Int_Tables_number   1
_chemical_formula_structural   Te4MoW3(SeS)2
_chemical_formula_sum   'Te4 Mo1 W3 Se2 S2'
_cell_volume   411.40103508
_cell_formula_units_Z   1
loop_
 _symmetry_equiv_pos_site_id
 _symmetry_equiv_pos_as_xyz
  1  'x, y, z'
loop_
 _atom_site_type_symbol
 _atom_site_label
 _atom_site_symmetry_multiplicity
 _atom_site_fract_x
 _atom_site_fract_y
 _atom_site_fract_z
 _atom_site_occupancy
  Te  Te0  1  0.333407  0.666815  0.705752  1
  Te  Te1  1  0.666650  0.333299  0.421846  1
  Te  Te2  1  0.666686  0.333371  0.513372  1
  Te  Te3  1  0.333335  0.666671  0.614219  1
  Mo  Mo4  1  0.666679  0.333359  0.281356  1
  W  W5  1  0.333281  0.666562  0.093920  1
  W  W6  1  0.333332  0.666665  0.467603  1
  W  W7  1  0.666701  0.333402  0.660038  1
  Se  Se8  1  0.333351  0.666704  0.321448  1
  Se  Se9  1  0.333349  0.666698  0.241320  1
  S  S10  1  0.666600  0.333199  0.057362  1
  S  S11  1  0.666628  0.333256  0.130512  1
