# generated using pymatgen
data_MoW3(Se3S)2
_symmetry_space_group_name_H-M   'P 1'
_cell_length_a   3.28652124
_cell_length_b   3.28648956
_cell_length_c   37.40032348
_cell_angle_alpha   90.00011959
_cell_angle_beta   90.00000000
_cell_angle_gamma   120.00031890
_symmetry_Int_Tables_number   1
_chemical_formula_structural   MoW3(Se3S)2
_chemical_formula_sum   'Mo1 W3 Se6 S2'
_cell_volume   349.84308547
_cell_formula_units_Z   1
loop_
 _symmetry_equiv_pos_site_id
 _symmetry_equiv_pos_as_xyz
  1  'x, y, z'
loop_
 _atom_site_type_symbol
 _atom_site_label
 _atom_site_symmetry_multiplicity
 _atom_site_fract_x
 _atom_site_fract_y
 _atom_site_fract_z
 _atom_site_occupancy
  Mo  Mo0  1  0.333313  0.666627  0.469657  1
  W  W1  1  0.333314  0.666628  0.093918  1
  W  W2  1  0.666690  0.333379  0.281792  1
  W  W3  1  0.666691  0.333381  0.657545  1
  Se  Se4  1  0.333356  0.666713  0.327149  1
  Se  Se5  1  0.333355  0.666711  0.702907  1
  Se  Se6  1  0.666642  0.333282  0.424588  1
  Se  Se7  1  0.666639  0.333278  0.514745  1
  Se  Se8  1  0.333348  0.666696  0.236439  1
  Se  Se9  1  0.333355  0.666710  0.612165  1
  S  S10  1  0.666649  0.333296  0.052737  1
  S  S11  1  0.666649  0.333298  0.135105  1
