# generated using pymatgen
data_Te6Mo3WS2
_symmetry_space_group_name_H-M   'P 1'
_cell_length_a   3.45744122
_cell_length_b   3.45747013
_cell_length_c   39.26373300
_cell_angle_alpha   89.98952045
_cell_angle_beta   90.00000000
_cell_angle_gamma   119.99972336
_symmetry_Int_Tables_number   1
_chemical_formula_structural   Te6Mo3WS2
_chemical_formula_sum   'Te6 Mo3 W1 S2'
_cell_volume   406.47764259
_cell_formula_units_Z   1
loop_
 _symmetry_equiv_pos_site_id
 _symmetry_equiv_pos_as_xyz
  1  'x, y, z'
loop_
 _atom_site_type_symbol
 _atom_site_label
 _atom_site_symmetry_multiplicity
 _atom_site_fract_x
 _atom_site_fract_y
 _atom_site_fract_z
 _atom_site_occupancy
  Te  Te0  1  0.333407  0.666814  0.328866  1
  Te  Te1  1  0.333383  0.666766  0.704876  1
  Te  Te2  1  0.666475  0.332949  0.422508  1
  Te  Te3  1  0.666628  0.333255  0.516632  1
  Te  Te4  1  0.333462  0.666924  0.234179  1
  Te  Te5  1  0.333459  0.666919  0.610699  1
  Mo  Mo6  1  0.333264  0.666528  0.094031  1
  Mo  Mo7  1  0.333224  0.666448  0.469570  1
  Mo  Mo8  1  0.666743  0.333485  0.657802  1
  W  W9  1  0.666776  0.333552  0.281513  1
  S  S10  1  0.666687  0.333373  0.056118  1
  S  S11  1  0.666494  0.332987  0.131954  1
