# generated using pymatgen
data_K2TaAgS4
_symmetry_space_group_name_H-M   'P 1'
_cell_length_a   5.98885289
_cell_length_b   7.39871061
_cell_length_c   11.93301541
_cell_angle_alpha   84.17101274
_cell_angle_beta   75.46707686
_cell_angle_gamma   66.12624611
_symmetry_Int_Tables_number   1
_chemical_formula_structural   K2TaAgS4
_chemical_formula_sum   'K4 Ta2 Ag2 S8'
_cell_volume   468.03875580
_cell_formula_units_Z   2
loop_
 _symmetry_equiv_pos_site_id
 _symmetry_equiv_pos_as_xyz
  1  'x, y, z'
loop_
 _atom_site_type_symbol
 _atom_site_label
 _atom_site_symmetry_multiplicity
 _atom_site_fract_x
 _atom_site_fract_y
 _atom_site_fract_z
 _atom_site_occupancy
  S  S0  1  0.881505  0.546558  0.865544  1
  S  S1  1  0.793606  0.953442  0.634456  1
  S  S2  1  0.571938  0.546558  0.634456  1
  S  S3  1  0.252951  0.953442  0.865544  1
  S  S4  1  0.118495  0.453442  0.134456  1
  S  S5  1  0.747049  0.046558  0.134456  1
  S  S6  1  0.428062  0.453442  0.365544  1
  S  S7  1  0.206394  0.046558  0.365544  1
  K  K8  1  0.194717  0.250000  0.610565  1
  K  K9  1  0.805283  0.750000  0.389435  1
  K  K10  1  0.555283  0.250000  0.889435  1
  K  K11  1  0.444717  0.750000  0.110565  1
  Ag  Ag12  1  0.125000  0.750000  0.750000  1
  Ag  Ag13  1  0.875000  0.250000  0.250000  1
  Ta  Ta14  1  0.625000  0.750000  0.750000  1
  Ta  Ta15  1  0.375000  0.250000  0.250000  1
