# generated using pymatgen
data_Mo3(SeS2)2
_symmetry_space_group_name_H-M   'P 1'
_cell_length_a   3.23112977
_cell_length_b   3.23105217
_cell_length_c   29.66780495
_cell_angle_alpha   90.00000000
_cell_angle_beta   90.00000000
_cell_angle_gamma   120.00079454
_symmetry_Int_Tables_number   1
_chemical_formula_structural   Mo3(SeS2)2
_chemical_formula_sum   'Mo3 Se2 S4'
_cell_volume   268.23221826
_cell_formula_units_Z   1
loop_
 _symmetry_equiv_pos_site_id
 _symmetry_equiv_pos_as_xyz
  1  'x, y, z'
loop_
 _atom_site_type_symbol
 _atom_site_label
 _atom_site_symmetry_multiplicity
 _atom_site_fract_x
 _atom_site_fract_y
 _atom_site_fract_z
 _atom_site_occupancy
  Mo  Mo0  1  0.333310  0.666621  0.115636  1
  Mo  Mo1  1  0.333310  0.666621  0.578329  1
  Mo  Mo2  1  0.666690  0.333381  0.346982  1
  Se  Se3  1  0.333358  0.666718  0.404534  1
  Se  Se4  1  0.333358  0.666718  0.289431  1
  S  S5  1  0.666641  0.333280  0.063309  1
  S  S6  1  0.666646  0.333291  0.525997  1
  S  S7  1  0.666646  0.333291  0.167968  1
  S  S8  1  0.666641  0.333280  0.630655  1
