# generated using pymatgen
data_NaVAsO5
_symmetry_space_group_name_H-M   'P 1'
_cell_length_a   6.80704600
_cell_length_b   7.21441680
_cell_length_c   8.87977608
_cell_angle_alpha   90.00000000
_cell_angle_beta   90.00000000
_cell_angle_gamma   114.61023277
_symmetry_Int_Tables_number   1
_chemical_formula_structural   NaVAsO5
_chemical_formula_sum   'Na4 V4 As4 O20'
_cell_volume   396.46338522
_cell_formula_units_Z   4
loop_
 _symmetry_equiv_pos_site_id
 _symmetry_equiv_pos_as_xyz
  1  'x, y, z'
loop_
 _atom_site_type_symbol
 _atom_site_label
 _atom_site_symmetry_multiplicity
 _atom_site_fract_x
 _atom_site_fract_y
 _atom_site_fract_z
 _atom_site_occupancy
  O  O0  1  0.567824  0.093548  0.693123  1
  O  O1  1  0.432176  0.406452  0.193123  1
  O  O2  1  0.432176  0.906452  0.306877  1
  O  O3  1  0.567824  0.593548  0.806877  1
  O  O4  1  0.364483  0.619672  0.541245  1
  O  O5  1  0.635517  0.880328  0.041245  1
  O  O6  1  0.635517  0.380328  0.458755  1
  O  O7  1  0.364483  0.119672  0.958755  1
  O  O8  1  0.248240  0.249215  0.690837  1
  O  O9  1  0.751760  0.250785  0.190837  1
  O  O10  1  0.751760  0.750785  0.309163  1
  O  O11  1  0.248240  0.749215  0.809163  1
  O  O12  1  0.152137  0.390622  0.957184  1
  O  O13  1  0.847863  0.109378  0.457184  1
  O  O14  1  0.847863  0.609378  0.042816  1
  O  O15  1  0.152137  0.890622  0.542816  1
  O  O16  1  0.947629  0.922843  0.820310  1
  O  O17  1  0.052371  0.577157  0.320310  1
  O  O18  1  0.052371  0.077157  0.179690  1
  O  O19  1  0.947629  0.422843  0.679690  1
  Na  Na20  1  0.757590  0.766749  0.577531  1
  Na  Na21  1  0.242410  0.733251  0.077531  1
  Na  Na22  1  0.242410  0.233251  0.422469  1
  Na  Na23  1  0.757590  0.266749  0.922469  1
  V  V24  1  0.255706  0.482830  0.741650  1
  V  V25  1  0.744294  0.017170  0.241650  1
  V  V26  1  0.744294  0.517170  0.258350  1
  V  V27  1  0.255706  0.982830  0.758350  1
  As  As28  1  0.751036  0.252269  0.565857  1
  As  As29  1  0.248964  0.247731  0.065857  1
  As  As30  1  0.248964  0.747731  0.434143  1
  As  As31  1  0.751036  0.752269  0.934143  1
