# generated using pymatgen
data_CaSiO3
_symmetry_space_group_name_H-M   'P 1'
_cell_length_a   6.90945204
_cell_length_b   6.90945205
_cell_length_c   10.61770453
_cell_angle_alpha   71.70553937
_cell_angle_beta   71.70553934
_cell_angle_gamma   60.25370756
_symmetry_Int_Tables_number   1
_chemical_formula_structural   CaSiO3
_chemical_formula_sum   'Ca6 Si6 O18'
_cell_volume   410.09470787
_cell_formula_units_Z   6
loop_
 _symmetry_equiv_pos_site_id
 _symmetry_equiv_pos_as_xyz
  1  'x, y, z'
loop_
 _atom_site_type_symbol
 _atom_site_label
 _atom_site_symmetry_multiplicity
 _atom_site_fract_x
 _atom_site_fract_y
 _atom_site_fract_z
 _atom_site_occupancy
  O  O0  1  0.642064  0.357936  0.250000  1
  O  O1  1  0.357936  0.642064  0.750000  1
  O  O2  1  0.106621  0.993136  0.105269  1
  O  O3  1  0.006864  0.893379  0.394731  1
  O  O4  1  0.893379  0.006864  0.894731  1
  O  O5  1  0.993136  0.106621  0.605269  1
  O  O6  1  0.417885  0.805102  0.252487  1
  O  O7  1  0.194898  0.582115  0.247513  1
  O  O8  1  0.582115  0.194898  0.747513  1
  O  O9  1  0.805102  0.417885  0.752487  1
  O  O10  1  0.829260  0.628092  0.112032  1
  O  O11  1  0.371908  0.170740  0.387968  1
  O  O12  1  0.532217  0.724338  0.903383  1
  O  O13  1  0.275662  0.467783  0.596617  1
  O  O14  1  0.467783  0.275662  0.096617  1
  O  O15  1  0.724338  0.532217  0.403383  1
  O  O16  1  0.628092  0.829260  0.612032  1
  O  O17  1  0.170740  0.371908  0.887968  1
  Si  Si18  1  0.160401  0.839599  0.250000  1
  Si  Si19  1  0.839599  0.160401  0.750000  1
  Si  Si20  1  0.674884  0.580781  0.255323  1
  Si  Si21  1  0.419219  0.325116  0.244677  1
  Si  Si22  1  0.325116  0.419219  0.744677  1
  Si  Si23  1  0.580781  0.674884  0.755323  1
  Ca  Ca24  1  0.000000  0.500000  0.500000  1
  Ca  Ca25  1  0.500000  0.000000  0.000000  1
  Ca  Ca26  1  0.849280  0.326273  0.000999  1
  Ca  Ca27  1  0.673727  0.150720  0.499001  1
  Ca  Ca28  1  0.150720  0.673727  0.999001  1
  Ca  Ca29  1  0.326273  0.849280  0.500999  1
