# generated using pymatgen
data_CoSe2O5
_symmetry_space_group_name_H-M   'P 1'
_cell_length_a   6.16078300
_cell_length_b   6.97254328
_cell_length_c   10.49904071
_cell_angle_alpha   90.00000000
_cell_angle_beta   90.00000000
_cell_angle_gamma   90.00000000
_symmetry_Int_Tables_number   1
_chemical_formula_structural   CoSe2O5
_chemical_formula_sum   'Co4 Se8 O20'
_cell_volume   451.00021654
_cell_formula_units_Z   4
loop_
 _symmetry_equiv_pos_site_id
 _symmetry_equiv_pos_as_xyz
  1  'x, y, z'
loop_
 _atom_site_type_symbol
 _atom_site_label
 _atom_site_symmetry_multiplicity
 _atom_site_fract_x
 _atom_site_fract_y
 _atom_site_fract_z
 _atom_site_occupancy
  O  O0  1  0.052867  0.154078  0.067055  1
  O  O1  1  0.552868  0.345922  0.432945  1
  O  O2  1  0.947132  0.654078  0.432945  1
  O  O3  1  0.447132  0.845922  0.067055  1
  O  O4  1  0.947132  0.845922  0.932946  1
  O  O5  1  0.447132  0.654078  0.567054  1
  O  O6  1  0.052867  0.345922  0.567054  1
  O  O7  1  0.552868  0.154078  0.932946  1
  O  O8  1  0.750001  0.000000  0.435087  1
  O  O9  1  0.250000  0.500000  0.064913  1
  O  O10  1  0.250000  0.000000  0.564913  1
  O  O11  1  0.750001  0.500000  0.935087  1
  O  O12  1  0.670434  0.195717  0.209601  1
  O  O13  1  0.170434  0.304285  0.290399  1
  O  O14  1  0.329567  0.695717  0.290399  1
  O  O15  1  0.829566  0.804285  0.209601  1
  O  O16  1  0.170434  0.195717  0.790399  1
  O  O17  1  0.829566  0.695717  0.709601  1
  O  O18  1  0.670434  0.304285  0.709601  1
  O  O19  1  0.329567  0.804285  0.790399  1
  Co  Co20  1  0.250000  0.000000  0.935767  1
  Co  Co21  1  0.750001  0.500000  0.564233  1
  Co  Co22  1  0.750001  0.000000  0.064233  1
  Co  Co23  1  0.250000  0.500000  0.435767  1
  Se  Se24  1  0.536294  0.136671  0.346144  1
  Se  Se25  1  0.963705  0.863329  0.346144  1
  Se  Se26  1  0.463706  0.636671  0.153855  1
  Se  Se27  1  0.036294  0.363329  0.153855  1
  Se  Se28  1  0.963705  0.636671  0.846144  1
  Se  Se29  1  0.463706  0.863329  0.653856  1
  Se  Se30  1  0.036294  0.136671  0.653856  1
  Se  Se31  1  0.536294  0.363329  0.846144  1
