# generated using pymatgen
data_K2Li3B(P2O7)2
_symmetry_space_group_name_H-M   'P 1'
_cell_length_a   6.98885536
_cell_length_b   14.08321605
_cell_length_c   14.08321605
_cell_angle_alpha   119.54092816
_cell_angle_beta   90.00000000
_cell_angle_gamma   90.00000000
_symmetry_Int_Tables_number   1
_chemical_formula_structural   K2Li3B(P2O7)2
_chemical_formula_sum   'K8 Li12 B4 P16 O56'
_cell_volume   1205.95428789
_cell_formula_units_Z   4
loop_
 _symmetry_equiv_pos_site_id
 _symmetry_equiv_pos_as_xyz
  1  'x, y, z'
loop_
 _atom_site_type_symbol
 _atom_site_label
 _atom_site_symmetry_multiplicity
 _atom_site_fract_x
 _atom_site_fract_y
 _atom_site_fract_z
 _atom_site_occupancy
  K  K0  1  0.750000  0.091030  0.591030  1
  K  K1  1  0.250000  0.408970  0.908970  1
  K  K2  1  0.250000  0.908970  0.408970  1
  K  K3  1  0.750000  0.591030  0.091030  1
  K  K4  1  0.696693  0.608658  0.608658  1
  K  K5  1  0.303307  0.391342  0.391342  1
  K  K6  1  0.196693  0.891342  0.891342  1
  K  K7  1  0.803307  0.108658  0.108658  1
  Li  Li8  1  0.973678  0.898539  0.629709  1
  Li  Li9  1  0.026322  0.370291  0.101461  1
  Li  Li10  1  0.473678  0.870291  0.601461  1
  Li  Li11  1  0.526322  0.398539  0.129709  1
  Li  Li12  1  0.026322  0.101461  0.370291  1
  Li  Li13  1  0.973678  0.629709  0.898539  1
  Li  Li14  1  0.526322  0.129709  0.398539  1
  Li  Li15  1  0.473678  0.601461  0.870291  1
  Li  Li16  1  0.000000  0.118606  0.881394  1
  Li  Li17  1  0.500000  0.618606  0.381394  1
  Li  Li18  1  0.000000  0.881394  0.118606  1
  Li  Li19  1  0.500000  0.381394  0.618606  1
  B  B20  1  0.500000  0.118807  0.881193  1
  B  B21  1  0.000000  0.618807  0.381193  1
  B  B22  1  0.500000  0.881193  0.118807  1
  B  B23  1  0.000000  0.381193  0.618807  1
  P  P24  1  0.697544  0.923739  0.799925  1
  P  P25  1  0.302456  0.200075  0.076261  1
  P  P26  1  0.197544  0.700075  0.576261  1
  P  P27  1  0.802456  0.423739  0.299925  1
  P  P28  1  0.302456  0.076261  0.200075  1
  P  P29  1  0.697544  0.799925  0.923739  1
  P  P30  1  0.802456  0.299925  0.423739  1
  P  P31  1  0.197544  0.576261  0.700075  1
  P  P32  1  0.757540  0.784705  0.404474  1
  P  P33  1  0.242460  0.595526  0.215295  1
  P  P34  1  0.257540  0.095526  0.715295  1
  P  P35  1  0.742460  0.284705  0.904474  1
  P  P36  1  0.242460  0.215295  0.595526  1
  P  P37  1  0.757540  0.404474  0.784705  1
  P  P38  1  0.742460  0.904474  0.284705  1
  P  P39  1  0.257540  0.715295  0.095526  1
  O  O40  1  0.871167  0.983421  0.864591  1
  O  O41  1  0.128833  0.135409  0.016579  1
  O  O42  1  0.371167  0.635409  0.516579  1
  O  O43  1  0.628833  0.483421  0.364591  1
  O  O44  1  0.128833  0.016579  0.135409  1
  O  O45  1  0.871167  0.864591  0.983421  1
  O  O46  1  0.628833  0.364591  0.483421  1
  O  O47  1  0.371167  0.516579  0.635409  1
  O  O48  1  0.513776  0.998768  0.833000  1
  O  O49  1  0.486224  0.167000  0.001232  1
  O  O50  1  0.013776  0.667000  0.501232  1
  O  O51  1  0.986224  0.498768  0.333000  1
  O  O52  1  0.486224  0.001232  0.167000  1
  O  O53  1  0.513776  0.833000  0.998768  1
  O  O54  1  0.986224  0.333000  0.498768  1
  O  O55  1  0.013776  0.501232  0.667000  1
  O  O56  1  0.629058  0.831085  0.831085  1
  O  O57  1  0.370942  0.168915  0.168915  1
  O  O58  1  0.129058  0.668915  0.668915  1
  O  O59  1  0.870942  0.331085  0.331085  1
  O  O60  1  0.716309  0.862274  0.676528  1
  O  O61  1  0.283691  0.323472  0.137726  1
  O  O62  1  0.216309  0.823472  0.637726  1
  O  O63  1  0.783691  0.362274  0.176528  1
  O  O64  1  0.283691  0.137726  0.323472  1
  O  O65  1  0.716309  0.676528  0.862274  1
  O  O66  1  0.783691  0.176528  0.362274  1
  O  O67  1  0.216309  0.637726  0.823472  1
  O  O68  1  0.898166  0.868619  0.481715  1
  O  O69  1  0.101834  0.518285  0.131381  1
  O  O70  1  0.398166  0.018285  0.631381  1
  O  O71  1  0.601834  0.368619  0.981715  1
  O  O72  1  0.101834  0.131381  0.518285  1
  O  O73  1  0.898166  0.481715  0.868619  1
  O  O74  1  0.601834  0.981715  0.368619  1
  O  O75  1  0.398166  0.631381  0.018285  1
  O  O76  1  0.750000  0.791915  0.291915  1
  O  O77  1  0.250000  0.708085  0.208085  1
  O  O78  1  0.250000  0.208085  0.708085  1
  O  O79  1  0.750000  0.291915  0.791915  1
  O  O80  1  0.827060  0.662293  0.355809  1
  O  O81  1  0.172940  0.644191  0.337707  1
  O  O82  1  0.327060  0.144191  0.837707  1
  O  O83  1  0.672940  0.162294  0.855809  1
  O  O84  1  0.172940  0.337707  0.644191  1
  O  O85  1  0.827060  0.355809  0.662293  1
  O  O86  1  0.672940  0.855809  0.162294  1
  O  O87  1  0.327060  0.837707  0.144191  1
  O  O88  1  0.553756  0.788718  0.443215  1
  O  O89  1  0.446244  0.556785  0.211282  1
  O  O90  1  0.053756  0.056785  0.711282  1
  O  O91  1  0.946244  0.288718  0.943215  1
  O  O92  1  0.446244  0.211282  0.556785  1
  O  O93  1  0.553756  0.443215  0.788718  1
  O  O94  1  0.946244  0.943215  0.288718  1
  O  O95  1  0.053756  0.711282  0.056785  1
