# generated using pymatgen
data_K2WO4
_symmetry_space_group_name_H-M   'P 1'
_cell_length_a   6.29049412
_cell_length_b   7.04594922
_cell_length_c   7.69784399
_cell_angle_alpha   113.24726384
_cell_angle_beta   90.00000000
_cell_angle_gamma   116.51235749
_symmetry_Int_Tables_number   1
_chemical_formula_structural   K2WO4
_chemical_formula_sum   'K4 W2 O8'
_cell_volume   274.00307875
_cell_formula_units_Z   2
loop_
 _symmetry_equiv_pos_site_id
 _symmetry_equiv_pos_as_xyz
  1  'x, y, z'
loop_
 _atom_site_type_symbol
 _atom_site_label
 _atom_site_symmetry_multiplicity
 _atom_site_fract_x
 _atom_site_fract_y
 _atom_site_fract_z
 _atom_site_occupancy
  O  O0  1  0.379234  0.285679  0.077717  1
  O  O1  1  0.093555  0.714321  0.922283  1
  O  O2  1  0.620766  0.714321  0.922283  1
  O  O3  1  0.906445  0.285679  0.077717  1
  O  O4  1  0.911748  0.823496  0.636294  1
  O  O5  1  0.088252  0.176504  0.363706  1
  O  O6  1  0.334214  0.668428  0.387833  1
  O  O7  1  0.665786  0.331572  0.612167  1
  K  K8  1  0.507117  0.014235  0.232908  1
  K  K9  1  0.492883  0.985765  0.767092  1
  K  K10  1  0.156172  0.312345  0.748258  1
  K  K11  1  0.843828  0.687655  0.251742  1
  W  W12  1  0.176122  0.352245  0.228942  1
  W  W13  1  0.823878  0.647755  0.771058  1
