# generated using pymatgen
data_Ta2TiN3
_symmetry_space_group_name_H-M   'P 1'
_cell_length_a   5.25364468
_cell_length_b   5.25364435
_cell_length_c   2.93449486
_cell_angle_alpha   90.00000000
_cell_angle_beta   90.00000000
_cell_angle_gamma   119.99855415
_symmetry_Int_Tables_number   1
_chemical_formula_structural   Ta2TiN3
_chemical_formula_sum   'Ta2 Ti1 N3'
_cell_volume   70.14418583
_cell_formula_units_Z   1
loop_
 _symmetry_equiv_pos_site_id
 _symmetry_equiv_pos_as_xyz
  1  'x, y, z'
loop_
 _atom_site_type_symbol
 _atom_site_label
 _atom_site_symmetry_multiplicity
 _atom_site_fract_x
 _atom_site_fract_y
 _atom_site_fract_z
 _atom_site_occupancy
  Ta  Ta0  1  0.666685  0.333401  0.500000  1
  Ta  Ta1  1  0.333401  0.666685  0.500000  1
  Ti  Ti2  1  0.000002  0.000002  0.000000  1
  N  N3  1  0.500000  0.500000  0.000000  1
  N  N4  1  0.500005  0.000008  0.000000  1
  N  N5  1  0.000008  0.500005  0.000000  1
