# generated using pymatgen
data_SiP2O7
_symmetry_space_group_name_H-M   'P 1'
_cell_length_a   4.79134378
_cell_length_b   7.75248616
_cell_length_c   12.16855886
_cell_angle_alpha   90.00000000
_cell_angle_beta   90.00000000
_cell_angle_gamma   91.17909033
_symmetry_Int_Tables_number   1
_chemical_formula_structural   SiP2O7
_chemical_formula_sum   'Si4 P8 O28'
_cell_volume   451.90329971
_cell_formula_units_Z   4
loop_
 _symmetry_equiv_pos_site_id
 _symmetry_equiv_pos_as_xyz
  1  'x, y, z'
loop_
 _atom_site_type_symbol
 _atom_site_label
 _atom_site_symmetry_multiplicity
 _atom_site_fract_x
 _atom_site_fract_y
 _atom_site_fract_z
 _atom_site_occupancy
  Si  Si0  1  0.222268  0.346432  0.851329  1
  Si  Si1  1  0.722268  0.846432  0.648671  1
  Si  Si2  1  0.777732  0.653568  0.148671  1
  Si  Si3  1  0.277732  0.153568  0.351329  1
  P  P4  1  0.222596  0.947492  0.801934  1
  P  P5  1  0.722596  0.447492  0.698066  1
  P  P6  1  0.297056  0.695862  0.981382  1
  P  P7  1  0.702944  0.304138  0.018618  1
  P  P8  1  0.277404  0.552508  0.301934  1
  P  P9  1  0.777404  0.052508  0.198066  1
  P  P10  1  0.797056  0.195862  0.518618  1
  P  P11  1  0.202944  0.804138  0.481382  1
  O  O12  1  0.513196  0.338560  0.763382  1
  O  O13  1  0.321596  0.562633  0.889637  1
  O  O14  1  0.577785  0.736834  0.036160  1
  O  O15  1  0.870823  0.867567  0.186777  1
  O  O16  1  0.021337  0.428731  0.739028  1
  O  O17  1  0.986804  0.161440  0.263382  1
  O  O18  1  0.573056  0.145567  0.436636  1
  O  O19  1  0.711901  0.373777  0.574368  1
  O  O20  1  0.922215  0.763166  0.536160  1
  O  O21  1  0.073056  0.645567  0.063364  1
  O  O22  1  0.370823  0.367567  0.313223  1
  O  O23  1  0.478663  0.071269  0.239028  1
  O  O24  1  0.629177  0.632433  0.686777  1
  O  O25  1  0.486804  0.661440  0.236618  1
  O  O26  1  0.077785  0.236834  0.463840  1
  O  O27  1  0.521337  0.928731  0.760972  1
  O  O28  1  0.422215  0.263166  0.963840  1
  O  O29  1  0.178404  0.937367  0.389637  1
  O  O30  1  0.288099  0.626223  0.425632  1
  O  O31  1  0.678404  0.437367  0.110363  1
  O  O32  1  0.821596  0.062633  0.610363  1
  O  O33  1  0.788099  0.126223  0.074368  1
  O  O34  1  0.426944  0.854433  0.563364  1
  O  O35  1  0.926944  0.354433  0.936636  1
  O  O36  1  0.129177  0.132433  0.813223  1
  O  O37  1  0.978663  0.571269  0.260972  1
  O  O38  1  0.013196  0.838560  0.736618  1
  O  O39  1  0.211901  0.873777  0.925632  1
