# generated using pymatgen
data_Sc2(WO4)3
_symmetry_space_group_name_H-M   'P 1'
_cell_length_a   9.77221982
_cell_length_b   9.86642832
_cell_length_c   13.67634110
_cell_angle_alpha   90.00000000
_cell_angle_beta   90.00000000
_cell_angle_gamma   90.00000000
_symmetry_Int_Tables_number   1
_chemical_formula_structural   Sc2(WO4)3
_chemical_formula_sum   'Sc8 W12 O48'
_cell_volume   1318.63049948
_cell_formula_units_Z   4
loop_
 _symmetry_equiv_pos_site_id
 _symmetry_equiv_pos_as_xyz
  1  'x, y, z'
loop_
 _atom_site_type_symbol
 _atom_site_label
 _atom_site_symmetry_multiplicity
 _atom_site_fract_x
 _atom_site_fract_y
 _atom_site_fract_z
 _atom_site_occupancy
  O  O0  1  0.859061  0.293564  0.163446  1
  O  O1  1  0.859061  0.206436  0.836554  1
  O  O2  1  0.640940  0.793564  0.336554  1
  O  O3  1  0.640940  0.706436  0.663445  1
  O  O4  1  0.140939  0.706436  0.836554  1
  O  O5  1  0.140939  0.793564  0.163446  1
  O  O6  1  0.359061  0.206436  0.663445  1
  O  O7  1  0.359061  0.293564  0.336554  1
  O  O8  1  0.817963  0.065293  0.028381  1
  O  O9  1  0.817963  0.434707  0.971619  1
  O  O10  1  0.682036  0.565293  0.471620  1
  O  O11  1  0.682036  0.934707  0.528380  1
  O  O12  1  0.182036  0.934707  0.971619  1
  O  O13  1  0.182036  0.565293  0.028381  1
  O  O14  1  0.317963  0.434707  0.528380  1
  O  O15  1  0.317963  0.065293  0.471620  1
  O  O16  1  0.418660  0.661838  0.912944  1
  O  O17  1  0.581340  0.161838  0.912944  1
  O  O18  1  0.918660  0.838162  0.412945  1
  O  O19  1  0.918660  0.661838  0.587056  1
  O  O20  1  0.075583  0.087532  0.140146  1
  O  O21  1  0.075583  0.412468  0.859854  1
  O  O22  1  0.424416  0.587532  0.359854  1
  O  O23  1  0.424416  0.912468  0.640146  1
  O  O24  1  0.924416  0.912468  0.859854  1
  O  O25  1  0.924416  0.587532  0.140146  1
  O  O26  1  0.575583  0.412468  0.640146  1
  O  O27  1  0.575583  0.087532  0.359854  1
  O  O28  1  0.366974  0.130368  0.065324  1
  O  O29  1  0.366974  0.369632  0.934676  1
  O  O30  1  0.133026  0.630368  0.434676  1
  O  O31  1  0.133026  0.869632  0.565324  1
  O  O32  1  0.633026  0.869632  0.934676  1
  O  O33  1  0.633026  0.630368  0.065324  1
  O  O34  1  0.866974  0.369632  0.565324  1
  O  O35  1  0.866974  0.130368  0.434676  1
  O  O36  1  0.317038  0.013900  0.258962  1
  O  O37  1  0.317038  0.486100  0.741038  1
  O  O38  1  0.182962  0.513900  0.241038  1
  O  O39  1  0.182962  0.986100  0.758961  1
  O  O40  1  0.682961  0.986100  0.741038  1
  O  O41  1  0.682961  0.513900  0.258962  1
  O  O42  1  0.817038  0.486100  0.758961  1
  O  O43  1  0.817038  0.013900  0.241038  1
  O  O44  1  0.081340  0.338163  0.412945  1
  O  O45  1  0.081340  0.161838  0.587056  1
  O  O46  1  0.418660  0.838162  0.087056  1
  O  O47  1  0.581340  0.338163  0.087056  1
  Sc  Sc48  1  0.249571  0.467507  0.381977  1
  Sc  Sc49  1  0.249571  0.032493  0.618023  1
  Sc  Sc50  1  0.250429  0.967507  0.118023  1
  Sc  Sc51  1  0.250429  0.532493  0.881977  1
  Sc  Sc52  1  0.750429  0.532493  0.618023  1
  Sc  Sc53  1  0.750429  0.967507  0.381977  1
  Sc  Sc54  1  0.749571  0.032493  0.881977  1
  Sc  Sc55  1  0.749571  0.467507  0.118023  1
  W  W56  1  0.026439  0.750000  0.500000  1
  W  W57  1  0.526439  0.750000  0.000000  1
  W  W58  1  0.973561  0.250000  0.500000  1
  W  W59  1  0.473561  0.250000  0.000000  1
  W  W60  1  0.392307  0.114761  0.356026  1
  W  W61  1  0.392307  0.385239  0.643974  1
  W  W62  1  0.107693  0.614761  0.143974  1
  W  W63  1  0.107693  0.885239  0.856026  1
  W  W64  1  0.607693  0.885239  0.643974  1
  W  W65  1  0.607693  0.614761  0.356026  1
  W  W66  1  0.892307  0.385239  0.856026  1
  W  W67  1  0.892307  0.114761  0.143974  1
