# generated using pymatgen
data_Te2Mo2WS4
_symmetry_space_group_name_H-M   'P 1'
_cell_length_a   3.30011345
_cell_length_b   3.29992545
_cell_length_c   30.26710624
_cell_angle_alpha   90.00384617
_cell_angle_beta   89.99997539
_cell_angle_gamma   120.00180597
_symmetry_Int_Tables_number   1
_chemical_formula_structural   Te2Mo2WS4
_chemical_formula_sum   'Te2 Mo2 W1 S4'
_cell_volume   285.44775178
_cell_formula_units_Z   1
loop_
 _symmetry_equiv_pos_site_id
 _symmetry_equiv_pos_as_xyz
  1  'x, y, z'
loop_
 _atom_site_type_symbol
 _atom_site_label
 _atom_site_symmetry_multiplicity
 _atom_site_fract_x
 _atom_site_fract_y
 _atom_site_fract_z
 _atom_site_occupancy
  Te  Te0  1  0.666626  0.333251  0.052352  1
  Te  Te1  1  0.666691  0.333381  0.178875  1
  Mo  Mo2  1  0.333314  0.666628  0.115591  1
  Mo  Mo3  1  0.666732  0.333465  0.347049  1
  W  W4  1  0.333275  0.666549  0.578312  1
  S  S5  1  0.333387  0.666774  0.397553  1
  S  S6  1  0.666594  0.333187  0.527575  1
  S  S7  1  0.666630  0.333259  0.629037  1
  S  S8  1  0.333353  0.666706  0.296496  1
