# generated using pymatgen
data_UGe2
_symmetry_space_group_name_H-M   'P 1'
_cell_length_a   3.97815901
_cell_length_b   4.18228871
_cell_length_c   7.76892277
_cell_angle_alpha   105.61475600
_cell_angle_beta   90.00000000
_cell_angle_gamma   90.00000000
_symmetry_Int_Tables_number   1
_chemical_formula_structural   UGe2
_chemical_formula_sum   'U2 Ge4'
_cell_volume   124.48737329
_cell_formula_units_Z   2
loop_
 _symmetry_equiv_pos_site_id
 _symmetry_equiv_pos_as_xyz
  1  'x, y, z'
loop_
 _atom_site_type_symbol
 _atom_site_label
 _atom_site_symmetry_multiplicity
 _atom_site_fract_x
 _atom_site_fract_y
 _atom_site_fract_z
 _atom_site_occupancy
  Ge  Ge0  1  0.250000  0.560813  0.121627  1
  Ge  Ge1  1  0.750000  0.439187  0.878373  1
  Ge  Ge2  1  0.750000  0.747546  0.495092  1
  Ge  Ge3  1  0.250000  0.252454  0.504908  1
  U  U4  1  0.250000  0.899914  0.799828  1
  U  U5  1  0.750000  0.100086  0.200172  1
