# generated using pymatgen
data_TeMoWSe3
_symmetry_space_group_name_H-M   'P 1'
_cell_length_a   3.38299731
_cell_length_b   3.38301802
_cell_length_c   38.47392358
_cell_angle_alpha   90.00035318
_cell_angle_beta   90.00000000
_cell_angle_gamma   119.99979738
_symmetry_Int_Tables_number   1
_chemical_formula_structural   TeMoWSe3
_chemical_formula_sum   'Te2 Mo2 W2 Se6'
_cell_volume   381.33262252
_cell_formula_units_Z   2
loop_
 _symmetry_equiv_pos_site_id
 _symmetry_equiv_pos_as_xyz
  1  'x, y, z'
loop_
 _atom_site_type_symbol
 _atom_site_label
 _atom_site_symmetry_multiplicity
 _atom_site_fract_x
 _atom_site_fract_y
 _atom_site_fract_z
 _atom_site_occupancy
  Te  Te0  1  0.333360  0.666720  0.706653  1
  Te  Te1  1  0.333353  0.666706  0.608428  1
  Mo  Mo2  1  0.333310  0.666619  0.469648  1
  Mo  Mo3  1  0.666689  0.333377  0.281800  1
  W  W4  1  0.333310  0.666620  0.093916  1
  W  W5  1  0.666690  0.333380  0.657560  1
  Se  Se6  1  0.333353  0.666707  0.324786  1
  Se  Se7  1  0.666643  0.333285  0.050758  1
  Se  Se8  1  0.666640  0.333279  0.426677  1
  Se  Se9  1  0.666649  0.333297  0.137082  1
  Se  Se10  1  0.666648  0.333294  0.512639  1
  Se  Se11  1  0.333357  0.666714  0.238802  1
