# generated using pymatgen
data_TbCBr
_symmetry_space_group_name_H-M   'P 1'
_cell_length_a   3.81332769
_cell_length_b   4.01977264
_cell_length_c   10.56500717
_cell_angle_alpha   98.49291016
_cell_angle_beta   90.00000000
_cell_angle_gamma   118.31517002
_symmetry_Int_Tables_number   1
_chemical_formula_structural   TbCBr
_chemical_formula_sum   'Tb2 C2 Br2'
_cell_volume   140.55063988
_cell_formula_units_Z   2
loop_
 _symmetry_equiv_pos_site_id
 _symmetry_equiv_pos_as_xyz
  1  'x, y, z'
loop_
 _atom_site_type_symbol
 _atom_site_label
 _atom_site_symmetry_multiplicity
 _atom_site_fract_x
 _atom_site_fract_y
 _atom_site_fract_z
 _atom_site_occupancy
  Tb  Tb0  1  0.593299  0.186599  0.860106  1
  Tb  Tb1  1  0.406701  0.813401  0.139894  1
  C  C2  1  0.912389  0.824778  0.964979  1
  C  C3  1  0.087611  0.175222  0.035021  1
  Br  Br4  1  0.794943  0.589886  0.321079  1
  Br  Br5  1  0.205057  0.410114  0.678921  1
