# generated using pymatgen
data_Ba3ZnB5PO14
_symmetry_space_group_name_H-M   'P 1'
_cell_length_a   10.49121624
_cell_length_b   7.18345317
_cell_length_c   8.32283286
_cell_angle_alpha   90.00000000
_cell_angle_beta   90.00000000
_cell_angle_gamma   90.00000000
_symmetry_Int_Tables_number   1
_chemical_formula_structural   Ba3ZnB5PO14
_chemical_formula_sum   'Ba6 Zn2 B10 P2 O28'
_cell_volume   627.23498911
_cell_formula_units_Z   2
loop_
 _symmetry_equiv_pos_site_id
 _symmetry_equiv_pos_as_xyz
  1  'x, y, z'
loop_
 _atom_site_type_symbol
 _atom_site_label
 _atom_site_symmetry_multiplicity
 _atom_site_fract_x
 _atom_site_fract_y
 _atom_site_fract_z
 _atom_site_occupancy
  Ba  Ba0  1  0.730384  0.563265  0.438663  1
  Ba  Ba1  1  0.269616  0.563265  0.438663  1
  Ba  Ba2  1  0.769616  0.436735  0.938663  1
  Ba  Ba3  1  0.230384  0.436735  0.938663  1
  Ba  Ba4  1  0.500000  0.972959  0.225346  1
  Ba  Ba5  1  0.000000  0.027041  0.725346  1
  Zn  Zn6  1  0.000000  0.240547  0.331705  1
  Zn  Zn7  1  0.500000  0.759453  0.831705  1
  B  B8  1  0.763343  0.052106  0.425079  1
  B  B9  1  0.236657  0.052106  0.425079  1
  B  B10  1  0.736657  0.947894  0.925079  1
  B  B11  1  0.263343  0.947894  0.925079  1
  B  B12  1  0.877488  0.898491  0.174607  1
  B  B13  1  0.122512  0.898491  0.174607  1
  B  B14  1  0.622512  0.101509  0.674607  1
  B  B15  1  0.377488  0.101509  0.674607  1
  B  B16  1  0.000000  0.594415  0.160977  1
  B  B17  1  0.500000  0.405585  0.660977  1
  P  P18  1  0.500000  0.435401  0.161067  1
  P  P19  1  0.000000  0.564599  0.661067  1
  O  O20  1  0.622773  0.320750  0.200779  1
  O  O21  1  0.377227  0.320750  0.200779  1
  O  O22  1  0.877227  0.679250  0.700779  1
  O  O23  1  0.122773  0.679250  0.700779  1
  O  O24  1  0.000000  0.971090  0.231613  1
  O  O25  1  0.500000  0.028910  0.731613  1
  O  O26  1  0.615424  0.310168  0.658951  1
  O  O27  1  0.384576  0.310168  0.658951  1
  O  O28  1  0.884576  0.689832  0.158951  1
  O  O29  1  0.115424  0.689832  0.158951  1
  O  O30  1  0.500000  0.611448  0.270260  1
  O  O31  1  0.000000  0.388552  0.770260  1
  O  O32  1  0.000000  0.405457  0.143267  1
  O  O33  1  0.500000  0.594543  0.643267  1
  O  O34  1  0.500000  0.480055  0.979006  1
  O  O35  1  0.000000  0.519945  0.479006  1
  O  O36  1  0.846672  0.188920  0.462508  1
  O  O37  1  0.153328  0.188920  0.462508  1
  O  O38  1  0.653328  0.811080  0.962508  1
  O  O39  1  0.346672  0.811080  0.962508  1
  O  O40  1  0.773394  0.929615  0.294495  1
  O  O41  1  0.226606  0.929615  0.294495  1
  O  O42  1  0.726606  0.070385  0.794495  1
  O  O43  1  0.273394  0.070385  0.794495  1
  O  O44  1  0.655222  0.013969  0.517663  1
  O  O45  1  0.344778  0.013969  0.517663  1
  O  O46  1  0.844778  0.986031  0.017663  1
  O  O47  1  0.155222  0.986031  0.017663  1
