# generated using pymatgen
data_LiCr(SiO3)2
_symmetry_space_group_name_H-M   'P 1'
_cell_length_a   5.35706459
_cell_length_b   6.54233718
_cell_length_c   6.54233719
_cell_angle_alpha   83.69469502
_cell_angle_beta   74.76654456
_cell_angle_gamma   74.76654459
_symmetry_Int_Tables_number   1
_chemical_formula_structural   LiCr(SiO3)2
_chemical_formula_sum   'Li2 Cr2 Si4 O12'
_cell_volume   213.25883458
_cell_formula_units_Z   2
loop_
 _symmetry_equiv_pos_site_id
 _symmetry_equiv_pos_as_xyz
  1  'x, y, z'
loop_
 _atom_site_type_symbol
 _atom_site_label
 _atom_site_symmetry_multiplicity
 _atom_site_fract_x
 _atom_site_fract_y
 _atom_site_fract_z
 _atom_site_occupancy
  Li  Li0  1  0.750000  0.260600  0.739400  1
  Li  Li1  1  0.250000  0.739400  0.260600  1
  O  O2  1  0.944240  0.353014  0.358448  1
  O  O3  1  0.444240  0.358448  0.353014  1
  O  O4  1  0.055760  0.646986  0.641552  1
  O  O5  1  0.555760  0.641552  0.646986  1
  O  O6  1  0.149152  0.798991  0.969432  1
  O  O7  1  0.171354  0.110017  0.628339  1
  O  O8  1  0.850848  0.201009  0.030568  1
  O  O9  1  0.649152  0.969432  0.798991  1
  O  O10  1  0.350848  0.030568  0.201009  1
  O  O11  1  0.828646  0.889983  0.371661  1
  O  O12  1  0.671354  0.628339  0.110017  1
  O  O13  1  0.328646  0.371661  0.889983  1
  Si  Si14  1  0.765657  0.792662  0.611179  1
  Si  Si15  1  0.234343  0.207338  0.388821  1
  Si  Si16  1  0.265657  0.611179  0.792662  1
  Si  Si17  1  0.734343  0.388821  0.207338  1
  Cr  Cr18  1  0.750000  0.906845  0.093155  1
  Cr  Cr19  1  0.250000  0.093155  0.906845  1
