# generated using pymatgen
data_Mo3W(Se3S)2
_symmetry_space_group_name_H-M   'P 1'
_cell_length_a   3.29083793
_cell_length_b   3.29059760
_cell_length_c   37.53330859
_cell_angle_alpha   90.12769295
_cell_angle_beta   90.00000000
_cell_angle_gamma   120.00241594
_symmetry_Int_Tables_number   1
_chemical_formula_structural   Mo3W(Se3S)2
_chemical_formula_sum   'Mo3 W1 Se6 S2'
_cell_volume   351.97898974
_cell_formula_units_Z   1
loop_
 _symmetry_equiv_pos_site_id
 _symmetry_equiv_pos_as_xyz
  1  'x, y, z'
loop_
 _atom_site_type_symbol
 _atom_site_label
 _atom_site_symmetry_multiplicity
 _atom_site_fract_x
 _atom_site_fract_y
 _atom_site_fract_z
 _atom_site_occupancy
  Mo  Mo0  1  0.333462  0.666924  0.093344  1
  Mo  Mo1  1  0.333815  0.667631  0.468800  1
  Mo  Mo2  1  0.664802  0.329604  0.281844  1
  W  W3  1  0.667750  0.335500  0.658919  1
  Se  Se4  1  0.335167  0.670336  0.704035  1
  Se  Se5  1  0.666163  0.332325  0.048450  1
  Se  Se6  1  0.666449  0.332896  0.423910  1
  Se  Se7  1  0.667601  0.335200  0.138242  1
  Se  Se8  1  0.667914  0.335826  0.513766  1
  Se  Se9  1  0.333708  0.667417  0.613745  1
  S  S10  1  0.332236  0.664472  0.322680  1
  S  S11  1  0.330933  0.661868  0.241013  1
