# generated using pymatgen
data_TeMo2Se2S
_symmetry_space_group_name_H-M   'P 1'
_cell_length_a   3.34334201
_cell_length_b   3.34338983
_cell_length_c   38.02326048
_cell_angle_alpha   90.00120784
_cell_angle_beta   89.99999969
_cell_angle_gamma   119.99796188
_symmetry_Int_Tables_number   1
_chemical_formula_structural   TeMo2Se2S
_chemical_formula_sum   'Te2 Mo4 Se4 S2'
_cell_volume   368.09229561
_cell_formula_units_Z   2
loop_
 _symmetry_equiv_pos_site_id
 _symmetry_equiv_pos_as_xyz
  1  'x, y, z'
loop_
 _atom_site_type_symbol
 _atom_site_label
 _atom_site_symmetry_multiplicity
 _atom_site_fract_x
 _atom_site_fract_y
 _atom_site_fract_z
 _atom_site_occupancy
  Te  Te0  1  0.666646  0.333294  0.419737  1
  Te  Te1  1  0.666653  0.333306  0.519498  1
  Mo  Mo2  1  0.333306  0.666613  0.093922  1
  Mo  Mo3  1  0.333315  0.666631  0.469616  1
  Mo  Mo4  1  0.666673  0.333399  0.281796  1
  Mo  Mo5  1  0.666691  0.333384  0.657592  1
  Se  Se6  1  0.333355  0.666711  0.701457  1
  Se  Se7  1  0.666631  0.333262  0.050049  1
  Se  Se8  1  0.666651  0.333304  0.137802  1
  Se  Se9  1  0.333350  0.666702  0.613703  1
  S  S10  1  0.333365  0.666699  0.321632  1
  S  S11  1  0.333365  0.666697  0.241945  1
