# generated using pymatgen
data_SiO2
_symmetry_space_group_name_H-M   'P 1'
_cell_length_a   5.11937230
_cell_length_b   11.29919792
_cell_length_c   11.29919793
_cell_angle_alpha   103.02140863
_cell_angle_beta   90.00000000
_cell_angle_gamma   90.00000000
_symmetry_Int_Tables_number   1
_chemical_formula_structural   SiO2
_chemical_formula_sum   'Si12 O24'
_cell_volume   636.79315028
_cell_formula_units_Z   12
loop_
 _symmetry_equiv_pos_site_id
 _symmetry_equiv_pos_as_xyz
  1  'x, y, z'
loop_
 _atom_site_type_symbol
 _atom_site_label
 _atom_site_symmetry_multiplicity
 _atom_site_fract_x
 _atom_site_fract_y
 _atom_site_fract_z
 _atom_site_occupancy
  O  O0  1  0.475199  0.107222  0.350061  1
  O  O1  1  0.975199  0.892778  0.649939  1
  O  O2  1  0.475199  0.649939  0.892778  1
  O  O3  1  0.975199  0.350061  0.107222  1
  O  O4  1  0.940995  0.663537  0.522555  1
  O  O5  1  0.440995  0.336463  0.477445  1
  O  O6  1  0.940995  0.477445  0.336463  1
  O  O7  1  0.440995  0.522555  0.663537  1
  O  O8  1  0.094461  0.693679  0.306321  1
  O  O9  1  0.594461  0.306321  0.693679  1
  O  O10  1  0.434682  0.871389  0.314939  1
  O  O11  1  0.934682  0.128611  0.685061  1
  O  O12  1  0.094204  0.345458  0.654542  1
  O  O13  1  0.594204  0.654542  0.345458  1
  O  O14  1  0.282149  0.472000  0.987613  1
  O  O15  1  0.782149  0.528000  0.012387  1
  O  O16  1  0.282149  0.012387  0.528000  1
  O  O17  1  0.782149  0.987613  0.472000  1
  O  O18  1  0.122657  0.710144  0.747139  1
  O  O19  1  0.622657  0.289856  0.252861  1
  O  O20  1  0.122657  0.252861  0.289856  1
  O  O21  1  0.622657  0.747139  0.710144  1
  O  O22  1  0.934682  0.314939  0.871389  1
  O  O23  1  0.434682  0.685061  0.128611  1
  Si  Si24  1  0.490792  0.994718  0.416778  1
  Si  Si25  1  0.990792  0.005282  0.583222  1
  Si  Si26  1  0.490792  0.583222  0.005282  1
  Si  Si27  1  0.990792  0.416778  0.994718  1
  Si  Si28  1  0.915440  0.753589  0.656412  1
  Si  Si29  1  0.415440  0.246411  0.343588  1
  Si  Si30  1  0.915440  0.343588  0.246411  1
  Si  Si31  1  0.415440  0.656412  0.753589  1
  Si  Si32  1  0.392117  0.725820  0.274180  1
  Si  Si33  1  0.892117  0.274180  0.725820  1
  Si  Si34  1  0.892592  0.622645  0.377355  1
  Si  Si35  1  0.392592  0.377355  0.622645  1
