# generated using pymatgen
data_TbGe2Ir
_symmetry_space_group_name_H-M   'P 1'
_cell_length_a   4.29396041
_cell_length_b   8.93016413
_cell_length_c   9.48937635
_cell_angle_alpha   118.06901894
_cell_angle_beta   103.07644821
_cell_angle_gamma   89.99999994
_symmetry_Int_Tables_number   1
_chemical_formula_structural   TbGe2Ir
_chemical_formula_sum   'Tb4 Ge8 Ir4'
_cell_volume   310.34448595
_cell_formula_units_Z   4
loop_
 _symmetry_equiv_pos_site_id
 _symmetry_equiv_pos_as_xyz
  1  'x, y, z'
loop_
 _atom_site_type_symbol
 _atom_site_label
 _atom_site_symmetry_multiplicity
 _atom_site_fract_x
 _atom_site_fract_y
 _atom_site_fract_z
 _atom_site_occupancy
  Ge  Ge0  1  0.200849  0.047696  0.401698  1
  Ge  Ge1  1  0.799151  0.952304  0.598302  1
  Ge  Ge2  1  0.799151  0.645999  0.598302  1
  Ge  Ge3  1  0.200849  0.354001  0.401698  1
  Ge  Ge4  1  0.576927  0.576927  0.153854  1
  Ge  Ge5  1  0.421981  0.921981  0.843962  1
  Ge  Ge6  1  0.578019  0.078019  0.156038  1
  Ge  Ge7  1  0.423073  0.423073  0.846146  1
  Tb  Tb8  1  0.205378  0.705378  0.410757  1
  Tb  Tb9  1  0.000000  0.262391  0.000000  1
  Tb  Tb10  1  0.794622  0.294622  0.589243  1
  Tb  Tb11  1  0.000000  0.737609  0.000000  1
  Ir  Ir12  1  0.354571  0.605491  0.709143  1
  Ir  Ir13  1  0.645429  0.394509  0.290857  1
  Ir  Ir14  1  0.645429  0.896348  0.290857  1
  Ir  Ir15  1  0.354571  0.103652  0.709143  1
