# generated using pymatgen
data_Li3CeBi2
_symmetry_space_group_name_H-M   'P 1'
_cell_length_a   4.72620922
_cell_length_b   4.72419300
_cell_length_c   7.50172047
_cell_angle_alpha   90.00000001
_cell_angle_beta   90.01905560
_cell_angle_gamma   119.98589301
_symmetry_Int_Tables_number   1
_chemical_formula_structural   Li3CeBi2
_chemical_formula_sum   'Li3 Ce1 Bi2'
_cell_volume   145.07539769
_cell_formula_units_Z   1
loop_
 _symmetry_equiv_pos_site_id
 _symmetry_equiv_pos_as_xyz
  1  'x, y, z'
loop_
 _atom_site_type_symbol
 _atom_site_label
 _atom_site_symmetry_multiplicity
 _atom_site_fract_x
 _atom_site_fract_y
 _atom_site_fract_z
 _atom_site_occupancy
  Li  Li0  1  0.666668  0.333334  0.649340  1
  Li  Li1  1  0.333332  0.666666  0.350660  1
  Li  Li2  1  0.000000  0.000000  0.500000  1
  Ce  Ce3  1  0.000000  0.000000  0.000000  1
  Bi  Bi4  1  0.666688  0.333344  0.252125  1
  Bi  Bi5  1  0.333312  0.666656  0.747875  1
