# generated using pymatgen
data_K5TlO4
_symmetry_space_group_name_H-M   'P 1'
_cell_length_a   6.94911647
_cell_length_b   12.06691541
_cell_length_c   20.98697728
_cell_angle_alpha   90.00000000
_cell_angle_beta   90.00000000
_cell_angle_gamma   90.00000000
_symmetry_Int_Tables_number   1
_chemical_formula_structural   K5TlO4
_chemical_formula_sum   'K40 Tl8 O32'
_cell_volume   1759.85040059
_cell_formula_units_Z   8
loop_
 _symmetry_equiv_pos_site_id
 _symmetry_equiv_pos_as_xyz
  1  'x, y, z'
loop_
 _atom_site_type_symbol
 _atom_site_label
 _atom_site_symmetry_multiplicity
 _atom_site_fract_x
 _atom_site_fract_y
 _atom_site_fract_z
 _atom_site_occupancy
  O  O0  1  0.808147  0.365308  0.045703  1
  O  O1  1  0.308147  0.634692  0.454297  1
  O  O2  1  0.691853  0.865308  0.954297  1
  O  O3  1  0.191853  0.134692  0.545703  1
  O  O4  1  0.191853  0.634692  0.954297  1
  O  O5  1  0.691853  0.365308  0.545703  1
  O  O6  1  0.308147  0.134692  0.045703  1
  O  O7  1  0.808147  0.865308  0.454297  1
  O  O8  1  0.859849  0.047992  0.120461  1
  O  O9  1  0.359849  0.952008  0.379539  1
  O  O10  1  0.640151  0.547992  0.879539  1
  O  O11  1  0.140151  0.452008  0.620461  1
  O  O12  1  0.140151  0.952008  0.879539  1
  O  O13  1  0.640151  0.047992  0.620461  1
  O  O14  1  0.359849  0.452008  0.120461  1
  O  O15  1  0.859849  0.547992  0.379539  1
  O  O16  1  0.762023  0.139317  0.375133  1
  O  O17  1  0.262023  0.860683  0.124867  1
  O  O18  1  0.737977  0.639317  0.624867  1
  O  O19  1  0.237977  0.360683  0.875133  1
  O  O20  1  0.237977  0.860683  0.624867  1
  O  O21  1  0.737977  0.139317  0.875133  1
  O  O22  1  0.262023  0.360683  0.375133  1
  O  O23  1  0.762023  0.639317  0.124867  1
  O  O24  1  0.731592  0.376542  0.712920  1
  O  O25  1  0.231592  0.623458  0.787080  1
  O  O26  1  0.768408  0.876542  0.287080  1
  O  O27  1  0.268408  0.123458  0.212920  1
  O  O28  1  0.268408  0.623458  0.287080  1
  O  O29  1  0.768408  0.376542  0.212920  1
  O  O30  1  0.231592  0.123458  0.712920  1
  O  O31  1  0.731592  0.876542  0.787080  1
  K  K32  1  0.925101  0.199559  0.640970  1
  K  K33  1  0.425101  0.800441  0.859030  1
  K  K34  1  0.574899  0.699559  0.359030  1
  K  K35  1  0.074899  0.300441  0.140970  1
  K  K36  1  0.074899  0.800441  0.359030  1
  K  K37  1  0.574899  0.199559  0.140970  1
  K  K38  1  0.425101  0.300441  0.640970  1
  K  K39  1  0.925101  0.699559  0.859030  1
  K  K40  1  0.914275  0.161767  0.003724  1
  K  K41  1  0.414275  0.838233  0.496276  1
  K  K42  1  0.585725  0.661767  0.996276  1
  K  K43  1  0.085725  0.338233  0.503724  1
  K  K44  1  0.085725  0.838233  0.996276  1
  K  K45  1  0.585725  0.161767  0.503724  1
  K  K46  1  0.414275  0.338233  0.003724  1
  K  K47  1  0.914275  0.661767  0.496276  1
  K  K48  1  0.899126  0.080397  0.251219  1
  K  K49  1  0.399126  0.919603  0.248781  1
  K  K50  1  0.600874  0.580397  0.748781  1
  K  K51  1  0.100874  0.419603  0.751219  1
  K  K52  1  0.100874  0.919603  0.748781  1
  K  K53  1  0.600874  0.080397  0.751219  1
  K  K54  1  0.399126  0.419603  0.251219  1
  K  K55  1  0.899126  0.580397  0.248781  1
  K  K56  1  0.916198  0.437541  0.934974  1
  K  K57  1  0.416198  0.562459  0.565026  1
  K  K58  1  0.583802  0.937541  0.065026  1
  K  K59  1  0.083802  0.062459  0.434974  1
  K  K60  1  0.083802  0.562459  0.065026  1
  K  K61  1  0.583802  0.437541  0.434974  1
  K  K62  1  0.416198  0.062459  0.934974  1
  K  K63  1  0.916198  0.937541  0.565026  1
  K  K64  1  0.896504  0.327601  0.328729  1
  K  K65  1  0.396504  0.672399  0.171271  1
  K  K66  1  0.603496  0.827601  0.671271  1
  K  K67  1  0.103496  0.172399  0.828729  1
  K  K68  1  0.103496  0.672399  0.671271  1
  K  K69  1  0.603496  0.327601  0.828729  1
  K  K70  1  0.396504  0.172399  0.328729  1
  K  K71  1  0.896504  0.827601  0.171271  1
  Tl  Tl72  1  0.823997  0.462092  0.623017  1
  Tl  Tl73  1  0.323997  0.537908  0.876983  1
  Tl  Tl74  1  0.676003  0.962092  0.376983  1
  Tl  Tl75  1  0.176003  0.037908  0.123017  1
  Tl  Tl76  1  0.176003  0.537908  0.376983  1
  Tl  Tl77  1  0.676003  0.462092  0.123017  1
  Tl  Tl78  1  0.323997  0.037908  0.623017  1
  Tl  Tl79  1  0.823997  0.962092  0.876983  1
