# generated using pymatgen
data_Te4MoW3Se4
_symmetry_space_group_name_H-M   'P 1'
_cell_length_a   3.43966429
_cell_length_b   3.43967184
_cell_length_c   39.20426810
_cell_angle_alpha   90.00038117
_cell_angle_beta   90.00000037
_cell_angle_gamma   119.99990530
_symmetry_Int_Tables_number   1
_chemical_formula_structural   Te4MoW3Se4
_chemical_formula_sum   'Te4 Mo1 W3 Se4'
_cell_volume   401.69596162
_cell_formula_units_Z   1
loop_
 _symmetry_equiv_pos_site_id
 _symmetry_equiv_pos_as_xyz
  1  'x, y, z'
loop_
 _atom_site_type_symbol
 _atom_site_label
 _atom_site_symmetry_multiplicity
 _atom_site_fract_x
 _atom_site_fract_y
 _atom_site_fract_z
 _atom_site_occupancy
  Te  Te0  1  0.333357  0.666714  0.705150  1
  Te  Te1  1  0.666648  0.333296  0.422033  1
  Te  Te2  1  0.666643  0.333286  0.517202  1
  Te  Te3  1  0.333351  0.666703  0.609988  1
  Mo  Mo4  1  0.666688  0.333377  0.281804  1
  W  W5  1  0.333310  0.666619  0.093919  1
  W  W6  1  0.333314  0.666627  0.469619  1
  W  W7  1  0.666690  0.333382  0.657600  1
  Se  Se8  1  0.333354  0.666708  0.323536  1
  Se  Se9  1  0.666648  0.333295  0.052063  1
  Se  Se10  1  0.666645  0.333291  0.135771  1
  Se  Se11  1  0.333351  0.666703  0.240063  1
