# generated using pymatgen
data_Pu5Ru3
_symmetry_space_group_name_H-M   'P 1'
_cell_length_a   5.66909642
_cell_length_b   8.16100251
_cell_length_c   8.16100250
_cell_angle_alpha   83.07113064
_cell_angle_beta   69.67600306
_cell_angle_gamma   69.67600307
_symmetry_Int_Tables_number   1
_chemical_formula_structural   Pu5Ru3
_chemical_formula_sum   'Pu10 Ru6'
_cell_volume   332.02366139
_cell_formula_units_Z   2
loop_
 _symmetry_equiv_pos_site_id
 _symmetry_equiv_pos_as_xyz
  1  'x, y, z'
loop_
 _atom_site_type_symbol
 _atom_site_label
 _atom_site_symmetry_multiplicity
 _atom_site_fract_x
 _atom_site_fract_y
 _atom_site_fract_z
 _atom_site_occupancy
  Ru  Ru0  1  0.852778  0.500000  0.794443  1
  Ru  Ru1  1  0.647222  0.205557  0.500000  1
  Ru  Ru2  1  0.352778  0.794443  0.500000  1
  Ru  Ru3  1  0.147222  0.500000  0.205557  1
  Ru  Ru4  1  0.750000  0.000000  0.000000  1
  Ru  Ru5  1  0.250000  0.000000  0.000000  1
  Pu  Pu6  1  0.281914  0.130130  0.306041  1
  Pu  Pu7  1  0.718086  0.869870  0.693959  1
  Pu  Pu8  1  0.412044  0.306041  0.869870  1
  Pu  Pu9  1  0.587956  0.693959  0.130130  1
  Pu  Pu10  1  0.912044  0.869870  0.306041  1
  Pu  Pu11  1  0.218086  0.693959  0.869870  1
  Pu  Pu12  1  0.781914  0.306041  0.130130  1
  Pu  Pu13  1  0.087956  0.130130  0.693959  1
  Pu  Pu14  1  0.750000  0.500000  0.500000  1
  Pu  Pu15  1  0.250000  0.500000  0.500000  1
