# generated using pymatgen
data_Ba2Co(BO2)6
_symmetry_space_group_name_H-M   'P 1'
_cell_length_a   7.01770396
_cell_length_b   7.03828459
_cell_length_c   7.03536843
_cell_angle_alpha   61.09886693
_cell_angle_beta   61.13169224
_cell_angle_gamma   61.17275125
_symmetry_Int_Tables_number   1
_chemical_formula_structural   Ba2Co(BO2)6
_chemical_formula_sum   'Ba2 Co1 B6 O12'
_cell_volume   251.98901304
_cell_formula_units_Z   1
loop_
 _symmetry_equiv_pos_site_id
 _symmetry_equiv_pos_as_xyz
  1  'x, y, z'
loop_
 _atom_site_type_symbol
 _atom_site_label
 _atom_site_symmetry_multiplicity
 _atom_site_fract_x
 _atom_site_fract_y
 _atom_site_fract_z
 _atom_site_occupancy
  Ba  Ba0  1  0.208319  0.208578  0.208697  1
  Ba  Ba1  1  0.791680  0.791422  0.791303  1
  Co  Co2  1  0.000000  0.000000  0.000000  1
  B  B3  1  0.756930  0.644660  0.365393  1
  B  B4  1  0.243070  0.355340  0.634607  1
  B  B5  1  0.354773  0.634222  0.243754  1
  B  B6  1  0.645227  0.365778  0.756246  1
  B  B7  1  0.634378  0.243808  0.355257  1
  B  B8  1  0.365622  0.756192  0.644743  1
  O  O9  1  0.804339  0.427314  0.535831  1
  O  O10  1  0.084102  0.314578  0.840551  1
  O  O11  1  0.195661  0.572686  0.464169  1
  O  O12  1  0.313238  0.840113  0.085250  1
  O  O13  1  0.536494  0.803731  0.427245  1
  O  O14  1  0.463506  0.196269  0.572755  1
  O  O15  1  0.840242  0.084892  0.314710  1
  O  O16  1  0.686762  0.159887  0.914750  1
  O  O17  1  0.915898  0.685422  0.159449  1
  O  O18  1  0.427650  0.536056  0.803997  1
  O  O19  1  0.159758  0.915108  0.685290  1
  O  O20  1  0.572350  0.463944  0.196003  1
