# generated using pymatgen
data_Te4MoW3Se4
_symmetry_space_group_name_H-M   'P 1'
_cell_length_a   3.43788509
_cell_length_b   3.43784837
_cell_length_c   39.15755038
_cell_angle_alpha   89.99984575
_cell_angle_beta   90.00000000
_cell_angle_gamma   120.00035319
_symmetry_Int_Tables_number   1
_chemical_formula_structural   Te4MoW3Se4
_chemical_formula_sum   'Te4 Mo1 W3 Se4'
_cell_volume   400.79535172
_cell_formula_units_Z   1
loop_
 _symmetry_equiv_pos_site_id
 _symmetry_equiv_pos_as_xyz
  1  'x, y, z'
loop_
 _atom_site_type_symbol
 _atom_site_label
 _atom_site_symmetry_multiplicity
 _atom_site_fract_x
 _atom_site_fract_y
 _atom_site_fract_z
 _atom_site_occupancy
  Te  Te0  1  0.333353  0.666707  0.329150  1
  Te  Te1  1  0.333352  0.666706  0.705259  1
  Te  Te2  1  0.333352  0.666706  0.234446  1
  Te  Te3  1  0.333360  0.666720  0.609802  1
  Mo  Mo4  1  0.666690  0.333380  0.281795  1
  W  W5  1  0.333310  0.666620  0.093913  1
  W  W6  1  0.333311  0.666622  0.469663  1
  W  W7  1  0.666692  0.333384  0.657539  1
  Se  Se8  1  0.666644  0.333286  0.051961  1
  Se  Se9  1  0.666647  0.333292  0.427694  1
  Se  Se10  1  0.666642  0.333283  0.135895  1
  Se  Se11  1  0.666647  0.333292  0.511631  1
