# generated using pymatgen
data_MoWSe3S
_symmetry_space_group_name_H-M   'P 1'
_cell_length_a   3.29014914
_cell_length_b   3.29015453
_cell_length_c   37.89818251
_cell_angle_alpha   89.99989783
_cell_angle_beta   90.00000000
_cell_angle_gamma   119.99994188
_symmetry_Int_Tables_number   1
_chemical_formula_structural   MoWSe3S
_chemical_formula_sum   'Mo2 W2 Se6 S2'
_cell_volume   355.28849952
_cell_formula_units_Z   2
loop_
 _symmetry_equiv_pos_site_id
 _symmetry_equiv_pos_as_xyz
  1  'x, y, z'
loop_
 _atom_site_type_symbol
 _atom_site_label
 _atom_site_symmetry_multiplicity
 _atom_site_fract_x
 _atom_site_fract_y
 _atom_site_fract_z
 _atom_site_occupancy
  Mo  Mo0  1  0.333307  0.666615  0.093915  1
  Mo  Mo1  1  0.666689  0.333379  0.281782  1
  W  W2  1  0.333310  0.666619  0.469646  1
  W  W3  1  0.666688  0.333376  0.657526  1
  Se  Se4  1  0.333351  0.666703  0.326305  1
  Se  Se5  1  0.666645  0.333290  0.049424  1
  Se  Se6  1  0.666637  0.333274  0.424924  1
  Se  Se7  1  0.666647  0.333292  0.138423  1
  Se  Se8  1  0.666647  0.333293  0.514440  1
  Se  Se9  1  0.333373  0.666747  0.237309  1
  S  S10  1  0.333352  0.666705  0.698181  1
  S  S11  1  0.333352  0.666706  0.616873  1
