# generated using pymatgen
data_CaAlF5
_symmetry_space_group_name_H-M   'P 1'
_cell_length_a   5.42003318
_cell_length_b   7.42231287
_cell_length_c   9.96971566
_cell_angle_alpha   90.00000000
_cell_angle_beta   90.00000000
_cell_angle_gamma   109.89625062
_symmetry_Int_Tables_number   1
_chemical_formula_structural   CaAlF5
_chemical_formula_sum   'Ca4 Al4 F20'
_cell_volume   377.13358815
_cell_formula_units_Z   4
loop_
 _symmetry_equiv_pos_site_id
 _symmetry_equiv_pos_as_xyz
  1  'x, y, z'
loop_
 _atom_site_type_symbol
 _atom_site_label
 _atom_site_symmetry_multiplicity
 _atom_site_fract_x
 _atom_site_fract_y
 _atom_site_fract_z
 _atom_site_occupancy
  F  F0  1  0.651589  0.512208  0.618991  1
  F  F1  1  0.348411  0.987792  0.118991  1
  F  F2  1  0.348411  0.487792  0.381009  1
  F  F3  1  0.651589  0.012208  0.881009  1
  F  F4  1  0.864963  0.341354  0.784475  1
  F  F5  1  0.135037  0.158646  0.284475  1
  F  F6  1  0.135037  0.658646  0.215525  1
  F  F7  1  0.864963  0.841354  0.715525  1
  F  F8  1  0.880160  0.818398  0.388025  1
  F  F9  1  0.119840  0.681602  0.888025  1
  F  F10  1  0.119840  0.181602  0.611975  1
  F  F11  1  0.880160  0.318398  0.111975  1
  F  F12  1  0.156531  0.641289  0.635504  1
  F  F13  1  0.843469  0.858711  0.135504  1
  F  F14  1  0.843469  0.358711  0.364496  1
  F  F15  1  0.156531  0.141289  0.864496  1
  F  F16  1  0.374260  0.944558  0.375552  1
  F  F17  1  0.625740  0.555442  0.875552  1
  F  F18  1  0.625740  0.055442  0.624448  1
  F  F19  1  0.374260  0.444558  0.124448  1
  Al  Al20  1  0.897969  0.600130  0.752531  1
  Al  Al21  1  0.102031  0.899870  0.252531  1
  Al  Al22  1  0.102031  0.399870  0.247469  1
  Al  Al23  1  0.897969  0.100130  0.747469  1
  Ca  Ca24  1  0.526567  0.254481  0.981876  1
  Ca  Ca25  1  0.473433  0.245519  0.481876  1
  Ca  Ca26  1  0.473433  0.745519  0.018124  1
  Ca  Ca27  1  0.526567  0.754481  0.518124  1
