# generated using pymatgen
data_Te4W3Se2
_symmetry_space_group_name_H-M   'P 1'
_cell_length_a   3.47761590
_cell_length_b   3.47761767
_cell_length_c   32.08321640
_cell_angle_alpha   90.00000000
_cell_angle_beta   90.00000000
_cell_angle_gamma   119.99998315
_symmetry_Int_Tables_number   1
_chemical_formula_structural   Te4W3Se2
_chemical_formula_sum   'Te4 W3 Se2'
_cell_volume   336.02535840
_cell_formula_units_Z   1
loop_
 _symmetry_equiv_pos_site_id
 _symmetry_equiv_pos_as_xyz
  1  'x, y, z'
loop_
 _atom_site_type_symbol
 _atom_site_label
 _atom_site_symmetry_multiplicity
 _atom_site_fract_x
 _atom_site_fract_y
 _atom_site_fract_z
 _atom_site_occupancy
  Te  Te0  1  0.666644  0.333286  0.057996  1
  Te  Te1  1  0.666647  0.333294  0.520652  1
  Te  Te2  1  0.666647  0.333294  0.173313  1
  Te  Te3  1  0.666644  0.333286  0.635968  1
  W  W4  1  0.333311  0.666621  0.115648  1
  W  W5  1  0.333311  0.666621  0.578317  1
  W  W6  1  0.666689  0.333377  0.346982  1
  Se  Se7  1  0.333355  0.666710  0.397802  1
  Se  Se8  1  0.333355  0.666710  0.296163  1
