# generated using pymatgen
data_U2Ta6O19
_symmetry_space_group_name_H-M   'P 1'
_cell_length_a   6.37232141
_cell_length_b   6.37232142
_cell_length_c   20.09228554
_cell_angle_alpha   90.00000000
_cell_angle_beta   90.00000000
_cell_angle_gamma   120.00000000
_symmetry_Int_Tables_number   1
_chemical_formula_structural   U2Ta6O19
_chemical_formula_sum   'U4 Ta12 O38'
_cell_volume   706.57020417
_cell_formula_units_Z   2
loop_
 _symmetry_equiv_pos_site_id
 _symmetry_equiv_pos_as_xyz
  1  'x, y, z'
loop_
 _atom_site_type_symbol
 _atom_site_label
 _atom_site_symmetry_multiplicity
 _atom_site_fract_x
 _atom_site_fract_y
 _atom_site_fract_z
 _atom_site_occupancy
  O  O0  1  0.666667  0.333333  0.144771  1
  O  O1  1  0.333333  0.666667  0.644771  1
  O  O2  1  0.333333  0.666667  0.355229  1
  O  O3  1  0.666667  0.333333  0.855229  1
  O  O4  1  0.333333  0.666667  0.855229  1
  O  O5  1  0.666667  0.333333  0.355229  1
  O  O6  1  0.666667  0.333333  0.644771  1
  O  O7  1  0.333333  0.666667  0.144771  1
  O  O8  1  0.400704  0.000000  0.750000  1
  O  O9  1  0.400704  0.400704  0.250000  1
  O  O10  1  0.000000  0.599296  0.250000  1
  O  O11  1  0.000000  0.400704  0.750000  1
  O  O12  1  0.599296  0.599296  0.750000  1
  O  O13  1  0.599296  0.000000  0.250000  1
  O  O14  1  0.615436  0.615436  0.945636  1
  O  O15  1  0.384564  0.000000  0.945636  1
  O  O16  1  0.000000  0.240008  0.155101  1
  O  O17  1  0.759992  0.000000  0.655101  1
  O  O18  1  0.240008  0.240008  0.655101  1
  O  O19  1  0.759992  0.759992  0.155101  1
  O  O20  1  0.240008  0.000000  0.155101  1
  O  O21  1  0.759992  0.759992  0.344899  1
  O  O22  1  0.000000  0.240008  0.344899  1
  O  O23  1  0.000000  0.759992  0.655101  1
  O  O24  1  0.240008  0.000000  0.344899  1
  O  O25  1  0.759992  0.000000  0.844899  1
  O  O26  1  0.240008  0.240008  0.844899  1
  O  O27  1  0.000000  0.759992  0.844899  1
  O  O28  1  0.615436  0.000000  0.054364  1
  O  O29  1  0.615436  0.615436  0.554364  1
  O  O30  1  0.000000  0.384564  0.554364  1
  O  O31  1  0.000000  0.615436  0.054364  1
  O  O32  1  0.384564  0.384564  0.054364  1
  O  O33  1  0.615436  0.000000  0.445636  1
  O  O34  1  0.384564  0.384564  0.445636  1
  O  O35  1  0.384564  0.000000  0.554364  1
  O  O36  1  0.000000  0.615436  0.445636  1
  O  O37  1  0.000000  0.384564  0.945636  1
  Ta  Ta38  1  0.648603  0.648603  0.844500  1
  Ta  Ta39  1  0.351397  0.000000  0.844500  1
  Ta  Ta40  1  0.000000  0.351397  0.844500  1
  Ta  Ta41  1  0.000000  0.648603  0.344500  1
  Ta  Ta42  1  0.351397  0.000000  0.655500  1
  Ta  Ta43  1  0.351397  0.351397  0.344500  1
  Ta  Ta44  1  0.648603  0.000000  0.344500  1
  Ta  Ta45  1  0.351397  0.351397  0.155500  1
  Ta  Ta46  1  0.000000  0.648603  0.155500  1
  Ta  Ta47  1  0.000000  0.351397  0.655500  1
  Ta  Ta48  1  0.648603  0.648603  0.655500  1
  Ta  Ta49  1  0.648603  0.000000  0.155500  1
  U  U50  1  0.333333  0.666667  0.500000  1
  U  U51  1  0.666667  0.333333  0.000000  1
  U  U52  1  0.666667  0.333333  0.500000  1
  U  U53  1  0.333333  0.666667  0.000000  1
