# generated using pymatgen
data_Te2Mo3W(SeS2)2
_symmetry_space_group_name_H-M   'P 1'
_cell_length_a   3.31142615
_cell_length_b   3.31152870
_cell_length_c   38.11998869
_cell_angle_alpha   89.99626456
_cell_angle_beta   90.00000000
_cell_angle_gamma   119.99897177
_symmetry_Int_Tables_number   1
_chemical_formula_structural   Te2Mo3W(SeS2)2
_chemical_formula_sum   'Te2 Mo3 W1 Se2 S4'
_cell_volume   362.01910563
_cell_formula_units_Z   1
loop_
 _symmetry_equiv_pos_site_id
 _symmetry_equiv_pos_as_xyz
  1  'x, y, z'
loop_
 _atom_site_type_symbol
 _atom_site_label
 _atom_site_symmetry_multiplicity
 _atom_site_fract_x
 _atom_site_fract_y
 _atom_site_fract_z
 _atom_site_occupancy
  Te  Te0  1  0.333323  0.666647  0.707997  1
  Te  Te1  1  0.333390  0.666780  0.607025  1
  Mo  Mo2  1  0.333316  0.666632  0.093940  1
  Mo  Mo3  1  0.333320  0.666641  0.469643  1
  Mo  Mo4  1  0.666687  0.333373  0.281802  1
  W  W5  1  0.666675  0.333350  0.657514  1
  Se  Se6  1  0.333340  0.666681  0.325783  1
  Se  Se7  1  0.333381  0.666763  0.237821  1
  S  S8  1  0.666655  0.333309  0.053852  1
  S  S9  1  0.666651  0.333301  0.429617  1
  S  S10  1  0.666628  0.333255  0.134035  1
  S  S11  1  0.666634  0.333267  0.509719  1
