# generated using pymatgen
data_Er2InPd2
_symmetry_space_group_name_H-M   'P 1'
_cell_length_a   3.68009394
_cell_length_b   7.70508721
_cell_length_c   7.70508721
_cell_angle_alpha   90.00000000
_cell_angle_beta   90.00000000
_cell_angle_gamma   90.00000000
_symmetry_Int_Tables_number   1
_chemical_formula_structural   Er2InPd2
_chemical_formula_sum   'Er4 In2 Pd4'
_cell_volume   218.48117467
_cell_formula_units_Z   2
loop_
 _symmetry_equiv_pos_site_id
 _symmetry_equiv_pos_as_xyz
  1  'x, y, z'
loop_
 _atom_site_type_symbol
 _atom_site_label
 _atom_site_symmetry_multiplicity
 _atom_site_fract_x
 _atom_site_fract_y
 _atom_site_fract_z
 _atom_site_occupancy
  Pd  Pd0  1  0.000000  0.128098  0.371902  1
  Pd  Pd1  1  0.000000  0.371902  0.871902  1
  Pd  Pd2  1  0.000000  0.628098  0.128098  1
  Pd  Pd3  1  0.000000  0.871902  0.628098  1
  In  In4  1  0.000000  0.000000  0.000000  1
  In  In5  1  0.000000  0.500000  0.500000  1
  Er  Er6  1  0.500000  0.827055  0.327055  1
  Er  Er7  1  0.500000  0.672945  0.827055  1
  Er  Er8  1  0.500000  0.327055  0.172945  1
  Er  Er9  1  0.500000  0.172945  0.672945  1
