# generated using pymatgen
data_Na2Mg2(Si2O5)3
_symmetry_space_group_name_H-M   'P 1'
_cell_length_a   10.32022060
_cell_length_b   11.43694169
_cell_length_c   11.43694168
_cell_angle_alpha   101.90639476
_cell_angle_beta   90.00000000
_cell_angle_gamma   90.00000000
_symmetry_Int_Tables_number   1
_chemical_formula_structural   Na2Mg2(Si2O5)3
_chemical_formula_sum   'Na8 Mg8 Si24 O60'
_cell_volume   1320.88009170
_cell_formula_units_Z   4
loop_
 _symmetry_equiv_pos_site_id
 _symmetry_equiv_pos_as_xyz
  1  'x, y, z'
loop_
 _atom_site_type_symbol
 _atom_site_label
 _atom_site_symmetry_multiplicity
 _atom_site_fract_x
 _atom_site_fract_y
 _atom_site_fract_z
 _atom_site_occupancy
  O  O0  1  0.059988  0.181597  0.818403  1
  O  O1  1  0.559988  0.318403  0.681597  1
  O  O2  1  0.940012  0.818403  0.181597  1
  O  O3  1  0.440012  0.681597  0.318403  1
  O  O4  1  0.821858  0.052502  0.947498  1
  O  O5  1  0.321858  0.447498  0.552502  1
  O  O6  1  0.178142  0.947498  0.052502  1
  O  O7  1  0.678142  0.552502  0.447498  1
  O  O8  1  0.475622  0.120104  0.879896  1
  O  O9  1  0.975622  0.379896  0.620104  1
  O  O10  1  0.524378  0.879896  0.120104  1
  O  O11  1  0.024378  0.620104  0.379896  1
  O  O12  1  0.828965  0.670104  0.005333  1
  O  O13  1  0.328965  0.829896  0.494667  1
  O  O14  1  0.171035  0.005333  0.670104  1
  O  O15  1  0.671035  0.494667  0.829896  1
  O  O16  1  0.171035  0.329896  0.994667  1
  O  O17  1  0.671035  0.170104  0.505333  1
  O  O18  1  0.828965  0.994667  0.329896  1
  O  O19  1  0.328965  0.505333  0.170104  1
  O  O20  1  0.090489  0.715996  0.002247  1
  O  O21  1  0.590489  0.784004  0.497753  1
  O  O22  1  0.909511  0.002247  0.715996  1
  O  O23  1  0.409511  0.497753  0.784004  1
  O  O24  1  0.666696  0.240347  0.018012  1
  O  O25  1  0.909511  0.284004  0.997753  1
  O  O26  1  0.090489  0.997753  0.284004  1
  O  O27  1  0.590489  0.502247  0.215996  1
  O  O28  1  0.158287  0.827971  0.830224  1
  O  O29  1  0.658287  0.672029  0.669776  1
  O  O30  1  0.841713  0.830224  0.827971  1
  O  O31  1  0.341713  0.669776  0.672029  1
  O  O32  1  0.841713  0.172029  0.169776  1
  O  O33  1  0.341713  0.327971  0.330224  1
  O  O34  1  0.158287  0.169776  0.172029  1
  O  O35  1  0.658287  0.330224  0.327971  1
  O  O36  1  0.333304  0.759653  0.981988  1
  O  O37  1  0.833304  0.740347  0.518012  1
  O  O38  1  0.666696  0.981988  0.759653  1
  O  O39  1  0.166696  0.518012  0.740347  1
  O  O40  1  0.002764  0.584247  0.142388  1
  O  O41  1  0.502764  0.915753  0.357612  1
  O  O42  1  0.997236  0.142388  0.584247  1
  O  O43  1  0.497236  0.357612  0.915753  1
  O  O44  1  0.997236  0.415753  0.857612  1
  O  O45  1  0.497236  0.084247  0.642388  1
  O  O46  1  0.002764  0.857612  0.415753  1
  O  O47  1  0.502764  0.642388  0.084247  1
  O  O48  1  0.077294  0.406723  0.249656  1
  O  O49  1  0.577294  0.093277  0.250344  1
  O  O50  1  0.922706  0.249656  0.406723  1
  O  O51  1  0.422706  0.250344  0.093277  1
  O  O52  1  0.922706  0.593277  0.750344  1
  O  O53  1  0.422706  0.906723  0.749656  1
  O  O54  1  0.077294  0.750344  0.593277  1
  O  O55  1  0.577294  0.749656  0.906723  1
  O  O56  1  0.833304  0.481988  0.259653  1
  O  O57  1  0.333304  0.018012  0.240347  1
  O  O58  1  0.166696  0.259653  0.481988  1
  O  O59  1  0.409511  0.215996  0.502247  1
  Na  Na60  1  0.750000  0.980850  0.519150  1
  Na  Na61  1  0.250000  0.519150  0.980850  1
  Na  Na62  1  0.250000  0.019150  0.480850  1
  Na  Na63  1  0.750000  0.480850  0.019150  1
  Na  Na64  1  0.760800  0.908475  0.091525  1
  Na  Na65  1  0.260800  0.591525  0.408475  1
  Na  Na66  1  0.239200  0.091525  0.908475  1
  Na  Na67  1  0.739200  0.408475  0.591525  1
  Mg  Mg68  1  0.750000  0.660701  0.839299  1
  Mg  Mg69  1  0.250000  0.839299  0.660701  1
  Mg  Mg70  1  0.250000  0.339299  0.160701  1
  Mg  Mg71  1  0.750000  0.160701  0.339299  1
  Mg  Mg72  1  0.500000  0.748655  0.748655  1
  Mg  Mg73  1  0.000000  0.751345  0.751345  1
  Mg  Mg74  1  0.500000  0.251345  0.251345  1
  Mg  Mg75  1  0.000000  0.248655  0.248655  1
  Si  Si76  1  0.959725  0.695580  0.079466  1
  Si  Si77  1  0.459725  0.804420  0.420534  1
  Si  Si78  1  0.040275  0.079466  0.695580  1
  Si  Si79  1  0.540275  0.420534  0.804420  1
  Si  Si80  1  0.040275  0.304420  0.920534  1
  Si  Si81  1  0.540275  0.195580  0.579466  1
  Si  Si82  1  0.959725  0.920534  0.304420  1
  Si  Si83  1  0.459725  0.579466  0.195580  1
  Si  Si84  1  0.189596  0.814448  0.963923  1
  Si  Si85  1  0.689596  0.685552  0.536077  1
  Si  Si86  1  0.810404  0.963923  0.814448  1
  Si  Si87  1  0.310404  0.536077  0.685552  1
  Si  Si88  1  0.810404  0.185552  0.036077  1
  Si  Si89  1  0.310404  0.314448  0.463923  1
  Si  Si90  1  0.189596  0.036077  0.185552  1
  Si  Si91  1  0.689596  0.463923  0.314448  1
  Si  Si92  1  0.486332  0.757649  0.021436  1
  Si  Si93  1  0.986332  0.742351  0.478564  1
  Si  Si94  1  0.513668  0.021436  0.757649  1
  Si  Si95  1  0.013668  0.478564  0.742351  1
  Si  Si96  1  0.513668  0.242351  0.978564  1
  Si  Si97  1  0.013668  0.257649  0.521436  1
  Si  Si98  1  0.486332  0.978564  0.242351  1
  Si  Si99  1  0.986332  0.521436  0.257649  1
