# generated using pymatgen
data_Na3Li3Sc2F12
_symmetry_space_group_name_H-M   'P 1'
_cell_length_a   11.06191738
_cell_length_b   11.06191738
_cell_length_c   11.06191738
_cell_angle_alpha   109.47122062
_cell_angle_beta   109.47122062
_cell_angle_gamma   109.47122064
_symmetry_Int_Tables_number   1
_chemical_formula_structural   Na3Li3Sc2F12
_chemical_formula_sum   'Na12 Li12 Sc8 F48'
_cell_volume   1042.00389061
_cell_formula_units_Z   4
loop_
 _symmetry_equiv_pos_site_id
 _symmetry_equiv_pos_as_xyz
  1  'x, y, z'
loop_
 _atom_site_type_symbol
 _atom_site_label
 _atom_site_symmetry_multiplicity
 _atom_site_fract_x
 _atom_site_fract_y
 _atom_site_fract_z
 _atom_site_occupancy
  Li  Li0  1  0.250000  0.625000  0.375000  1
  Li  Li1  1  0.875000  0.250000  0.125000  1
  Li  Li2  1  0.125000  0.750000  0.875000  1
  Li  Li3  1  0.875000  0.125000  0.750000  1
  Li  Li4  1  0.625000  0.375000  0.250000  1
  Li  Li5  1  0.750000  0.875000  0.125000  1
  Li  Li6  1  0.125000  0.875000  0.250000  1
  Li  Li7  1  0.375000  0.625000  0.750000  1
  Li  Li8  1  0.625000  0.750000  0.375000  1
  Li  Li9  1  0.750000  0.375000  0.625000  1
  Li  Li10  1  0.250000  0.125000  0.875000  1
  Li  Li11  1  0.375000  0.250000  0.625000  1
  F  F12  1  0.801812  0.421152  0.821864  1
  F  F13  1  0.520052  0.400712  0.821864  1
  F  F14  1  0.678136  0.078848  0.698188  1
  F  F15  1  0.421152  0.099288  0.619340  1
  F  F16  1  0.821864  0.520052  0.400712  1
  F  F17  1  0.400712  0.078848  0.880660  1
  F  F18  1  0.099288  0.979948  0.678136  1
  F  F19  1  0.421152  0.821864  0.801812  1
  F  F20  1  0.078848  0.698188  0.678136  1
  F  F21  1  0.979948  0.801812  0.880660  1
  F  F22  1  0.880660  0.979948  0.801812  1
  F  F23  1  0.400712  0.821864  0.520052  1
  F  F24  1  0.619340  0.698188  0.520052  1
  F  F25  1  0.099288  0.619340  0.421152  1
  F  F26  1  0.520052  0.619340  0.698188  1
  F  F27  1  0.698188  0.678136  0.078848  1
  F  F28  1  0.698188  0.520052  0.619340  1
  F  F29  1  0.619340  0.421152  0.099288  1
  F  F30  1  0.678136  0.099288  0.979948  1
  F  F31  1  0.078848  0.880660  0.400712  1
  F  F32  1  0.198188  0.119340  0.020052  1
  F  F33  1  0.119340  0.599288  0.921152  1
  F  F34  1  0.178136  0.198188  0.578848  1
  F  F35  1  0.578848  0.178136  0.198188  1
  F  F36  1  0.020052  0.321864  0.900712  1
  F  F37  1  0.900712  0.020052  0.321864  1
  F  F38  1  0.599288  0.921152  0.119340  1
  F  F39  1  0.178136  0.479948  0.599288  1
  F  F40  1  0.578848  0.900712  0.380660  1
  F  F41  1  0.321864  0.921152  0.301812  1
  F  F42  1  0.479948  0.599288  0.178136  1
  F  F43  1  0.380660  0.578848  0.900712  1
  F  F44  1  0.921152  0.301812  0.321864  1
  F  F45  1  0.020052  0.198188  0.119340  1
  F  F46  1  0.119340  0.020052  0.198188  1
  F  F47  1  0.599288  0.178136  0.479948  1
  F  F48  1  0.380660  0.301812  0.479948  1
  F  F49  1  0.900712  0.380660  0.578848  1
  F  F50  1  0.479948  0.380660  0.301812  1
  F  F51  1  0.301812  0.321864  0.921152  1
  F  F52  1  0.301812  0.479948  0.380660  1
  F  F53  1  0.321864  0.900712  0.020052  1
  F  F54  1  0.921152  0.119340  0.599288  1
  F  F55  1  0.198188  0.578848  0.178136  1
  F  F56  1  0.801812  0.880660  0.979948  1
  F  F57  1  0.880660  0.400712  0.078848  1
  F  F58  1  0.821864  0.801812  0.421152  1
  F  F59  1  0.979948  0.678136  0.099288  1
  Na  Na60  1  0.625000  0.875000  0.750000  1
  Na  Na61  1  0.875000  0.625000  0.250000  1
  Na  Na62  1  0.625000  0.250000  0.875000  1
  Na  Na63  1  0.250000  0.875000  0.625000  1
  Na  Na64  1  0.750000  0.625000  0.875000  1
  Na  Na65  1  0.875000  0.750000  0.625000  1
  Na  Na66  1  0.375000  0.125000  0.250000  1
  Na  Na67  1  0.125000  0.375000  0.750000  1
  Na  Na68  1  0.375000  0.750000  0.125000  1
  Na  Na69  1  0.750000  0.125000  0.375000  1
  Na  Na70  1  0.125000  0.250000  0.375000  1
  Na  Na71  1  0.250000  0.375000  0.125000  1
  Sc  Sc72  1  0.500000  0.500000  0.500000  1
  Sc  Sc73  1  0.500000  0.500000  0.000000  1
  Sc  Sc74  1  0.500000  0.000000  0.500000  1
  Sc  Sc75  1  0.000000  0.500000  0.500000  1
  Sc  Sc76  1  0.500000  0.000000  0.000000  1
  Sc  Sc77  1  0.000000  0.000000  0.500000  1
  Sc  Sc78  1  0.000000  0.500000  0.000000  1
  Sc  Sc79  1  0.000000  0.000000  0.000000  1
