# generated using pymatgen
data_MgNb2O6
_symmetry_space_group_name_H-M   'P 1'
_cell_length_a   5.12483943
_cell_length_b   5.81755496
_cell_length_c   14.42695193
_cell_angle_alpha   90.00000000
_cell_angle_beta   90.00000000
_cell_angle_gamma   90.00000000
_symmetry_Int_Tables_number   1
_chemical_formula_structural   MgNb2O6
_chemical_formula_sum   'Mg4 Nb8 O24'
_cell_volume   430.12565044
_cell_formula_units_Z   4
loop_
 _symmetry_equiv_pos_site_id
 _symmetry_equiv_pos_as_xyz
  1  'x, y, z'
loop_
 _atom_site_type_symbol
 _atom_site_label
 _atom_site_symmetry_multiplicity
 _atom_site_fract_x
 _atom_site_fract_y
 _atom_site_fract_z
 _atom_site_occupancy
  O  O0  1  0.418282  0.375815  0.755869  1
  O  O1  1  0.918283  0.124185  0.744131  1
  O  O2  1  0.081716  0.375815  0.244131  1
  O  O3  1  0.581717  0.124185  0.255869  1
  O  O4  1  0.581717  0.624185  0.244131  1
  O  O5  1  0.081716  0.875815  0.255869  1
  O  O6  1  0.918283  0.624185  0.755869  1
  O  O7  1  0.418282  0.875815  0.744131  1
  O  O8  1  0.090110  0.384335  0.578690  1
  O  O9  1  0.590111  0.115665  0.921310  1
  O  O10  1  0.409888  0.384335  0.421310  1
  O  O11  1  0.909889  0.115665  0.078690  1
  O  O12  1  0.572653  0.606450  0.904611  1
  O  O13  1  0.072653  0.893550  0.595390  1
  O  O14  1  0.927346  0.606450  0.095390  1
  O  O15  1  0.427348  0.893550  0.404610  1
  O  O16  1  0.427348  0.393550  0.095390  1
  O  O17  1  0.927346  0.106450  0.404610  1
  O  O18  1  0.909889  0.615665  0.421310  1
  O  O19  1  0.572653  0.106450  0.595390  1
  O  O20  1  0.090110  0.884335  0.921310  1
  O  O21  1  0.590111  0.615665  0.578690  1
  O  O22  1  0.409888  0.884335  0.078690  1
  O  O23  1  0.072653  0.393550  0.904611  1
  Mg  Mg24  1  0.750000  0.836446  0.000000  1
  Mg  Mg25  1  0.249999  0.663554  0.500000  1
  Mg  Mg26  1  0.249999  0.163554  0.000000  1
  Mg  Mg27  1  0.750000  0.336446  0.500000  1
  Nb  Nb28  1  0.745359  0.819373  0.659776  1
  Nb  Nb29  1  0.254642  0.680627  0.159776  1
  Nb  Nb30  1  0.754641  0.819373  0.340224  1
  Nb  Nb31  1  0.245359  0.680627  0.840224  1
  Nb  Nb32  1  0.754641  0.319373  0.159776  1
  Nb  Nb33  1  0.254642  0.180627  0.340224  1
  Nb  Nb34  1  0.745359  0.319373  0.840224  1
  Nb  Nb35  1  0.245359  0.180627  0.659776  1
