# generated using pymatgen
data_MnTe2O5
_symmetry_space_group_name_H-M   'P 1'
_cell_length_a   8.94670831
_cell_length_b   8.94670831
_cell_length_c   13.14340518
_cell_angle_alpha   90.00000000
_cell_angle_beta   90.00000000
_cell_angle_gamma   90.00000000
_symmetry_Int_Tables_number   1
_chemical_formula_structural   MnTe2O5
_chemical_formula_sum   'Mn8 Te16 O40'
_cell_volume   1052.04532997
_cell_formula_units_Z   8
loop_
 _symmetry_equiv_pos_site_id
 _symmetry_equiv_pos_as_xyz
  1  'x, y, z'
loop_
 _atom_site_type_symbol
 _atom_site_label
 _atom_site_symmetry_multiplicity
 _atom_site_fract_x
 _atom_site_fract_y
 _atom_site_fract_z
 _atom_site_occupancy
  O  O0  1  0.052373  0.052373  0.750000  1
  O  O1  1  0.447628  0.052373  0.250000  1
  O  O2  1  0.052373  0.447628  0.250000  1
  O  O3  1  0.447628  0.447628  0.750000  1
  O  O4  1  0.947627  0.947627  0.250000  1
  O  O5  1  0.552373  0.947627  0.750000  1
  O  O6  1  0.947627  0.552373  0.750000  1
  O  O7  1  0.552373  0.552373  0.250000  1
  O  O8  1  0.874815  0.520137  0.951868  1
  O  O9  1  0.625185  0.979863  0.951868  1
  O  O10  1  0.520137  0.874815  0.548132  1
  O  O11  1  0.520137  0.625185  0.451868  1
  O  O12  1  0.979863  0.874815  0.451868  1
  O  O13  1  0.625185  0.520137  0.048132  1
  O  O14  1  0.874815  0.979863  0.048132  1
  O  O15  1  0.604004  0.671976  0.866846  1
  O  O16  1  0.125185  0.479863  0.048132  1
  O  O17  1  0.374814  0.020137  0.048132  1
  O  O18  1  0.479863  0.125185  0.451868  1
  O  O19  1  0.479863  0.374814  0.548132  1
  O  O20  1  0.020137  0.125185  0.548132  1
  O  O21  1  0.374814  0.479863  0.951868  1
  O  O22  1  0.125185  0.020137  0.951868  1
  O  O23  1  0.020137  0.374814  0.451868  1
  O  O24  1  0.171977  0.104004  0.366846  1
  O  O25  1  0.395995  0.171977  0.866846  1
  O  O26  1  0.104004  0.328024  0.866846  1
  O  O27  1  0.171977  0.395995  0.633154  1
  O  O28  1  0.328024  0.104004  0.633154  1
  O  O29  1  0.328024  0.395995  0.366846  1
  O  O30  1  0.104004  0.171977  0.133154  1
  O  O31  1  0.395995  0.328024  0.133154  1
  O  O32  1  0.828024  0.895996  0.633154  1
  O  O33  1  0.604004  0.828024  0.133154  1
  O  O34  1  0.895996  0.671976  0.133154  1
  O  O35  1  0.828024  0.604004  0.366846  1
  O  O36  1  0.671976  0.895996  0.366846  1
  O  O37  1  0.671976  0.604004  0.633154  1
  O  O38  1  0.895996  0.828024  0.866846  1
  O  O39  1  0.979863  0.625185  0.548132  1
  Mn  Mn40  1  0.250000  0.250000  0.000000  1
  Mn  Mn41  1  0.250000  0.250000  0.500000  1
  Mn  Mn42  1  0.750000  0.750000  0.000000  1
  Mn  Mn43  1  0.750000  0.750000  0.500000  1
  Mn  Mn44  1  0.250000  0.250000  0.250000  1
  Mn  Mn45  1  0.250000  0.250000  0.750000  1
  Mn  Mn46  1  0.750000  0.750000  0.750000  1
  Mn  Mn47  1  0.750000  0.750000  0.250000  1
  Te  Te48  1  0.035544  0.936364  0.616397  1
  Te  Te49  1  0.563636  0.035544  0.116397  1
  Te  Te50  1  0.464456  0.936364  0.383603  1
  Te  Te51  1  0.464456  0.563636  0.616397  1
  Te  Te52  1  0.936364  0.464456  0.116397  1
  Te  Te53  1  0.563636  0.464456  0.883603  1
  Te  Te54  1  0.936364  0.035544  0.883603  1
  Te  Te55  1  0.035544  0.563636  0.383603  1
  Te  Te56  1  0.964456  0.436363  0.616397  1
  Te  Te57  1  0.063636  0.964456  0.116397  1
  Te  Te58  1  0.436363  0.535544  0.116397  1
  Te  Te59  1  0.964456  0.063636  0.383603  1
  Te  Te60  1  0.535544  0.436363  0.383603  1
  Te  Te61  1  0.535544  0.063636  0.616397  1
  Te  Te62  1  0.436363  0.964456  0.883603  1
  Te  Te63  1  0.063636  0.535544  0.883603  1
