# generated using pymatgen
data_LiCaAl3N4
_symmetry_space_group_name_H-M   'P 1'
_cell_length_a   10.24701260
_cell_length_b   10.24701260
_cell_length_c   10.24701260
_cell_angle_alpha   101.71326047
_cell_angle_beta   113.48400488
_cell_angle_gamma   113.48400488
_symmetry_Int_Tables_number   1
_chemical_formula_structural   LiCaAl3N4
_chemical_formula_sum   'Li8 Ca8 Al24 N32'
_cell_volume   817.09552750
_cell_formula_units_Z   8
loop_
 _symmetry_equiv_pos_site_id
 _symmetry_equiv_pos_as_xyz
  1  'x, y, z'
loop_
 _atom_site_type_symbol
 _atom_site_label
 _atom_site_symmetry_multiplicity
 _atom_site_fract_x
 _atom_site_fract_y
 _atom_site_fract_z
 _atom_site_occupancy
  Li  Li0  1  0.619598  0.831152  0.420442  1
  Li  Li1  1  0.880402  0.800844  0.711554  1
  Li  Li2  1  0.089290  0.420442  0.800844  1
  Li  Li3  1  0.410710  0.711554  0.831152  1
  Li  Li4  1  0.380402  0.168848  0.579558  1
  Li  Li5  1  0.119598  0.199156  0.288446  1
  Li  Li6  1  0.910710  0.579558  0.199156  1
  Li  Li7  1  0.589290  0.288446  0.168848  1
  Ca  Ca8  1  0.762241  0.180968  0.453004  1
  Ca  Ca9  1  0.737759  0.690763  0.918727  1
  Ca  Ca10  1  0.772036  0.453004  0.690763  1
  Ca  Ca11  1  0.727964  0.918727  0.180968  1
  Ca  Ca12  1  0.237759  0.819032  0.546996  1
  Ca  Ca13  1  0.262241  0.309237  0.081273  1
  Ca  Ca14  1  0.227964  0.546996  0.309237  1
  Ca  Ca15  1  0.272036  0.081273  0.819032  1
  Al  Al16  1  0.453677  0.228723  0.342150  1
  Al  Al17  1  0.046323  0.888473  0.275046  1
  Al  Al18  1  0.613428  0.342150  0.888473  1
  Al  Al19  1  0.886572  0.275046  0.228723  1
  Al  Al20  1  0.546323  0.771277  0.657850  1
  Al  Al21  1  0.953677  0.111527  0.724954  1
  Al  Al22  1  0.386572  0.657850  0.111527  1
  Al  Al23  1  0.113428  0.724954  0.771277  1
  Al  Al24  1  0.430975  0.469250  0.580254  1
  Al  Al25  1  0.069025  0.149279  0.538275  1
  Al  Al26  1  0.611004  0.580254  0.149279  1
  Al  Al27  1  0.888996  0.538275  0.469250  1
  Al  Al28  1  0.569025  0.530750  0.419746  1
  Al  Al29  1  0.930975  0.850721  0.461725  1
  Al  Al30  1  0.388996  0.419746  0.850721  1
  Al  Al31  1  0.111004  0.461725  0.530750  1
  Al  Al32  1  0.436426  0.980501  0.088376  1
  Al  Al33  1  0.063574  0.651950  0.044075  1
  Al  Al34  1  0.607876  0.088376  0.651950  1
  Al  Al35  1  0.892124  0.044075  0.980501  1
  Al  Al36  1  0.563574  0.019499  0.911624  1
  Al  Al37  1  0.936426  0.348050  0.955925  1
  Al  Al38  1  0.392124  0.911624  0.348050  1
  Al  Al39  1  0.107876  0.955925  0.019499  1
  N  N40  1  0.860250  0.989006  0.508579  1
  N  N41  1  0.639750  0.648329  0.628756  1
  N  N42  1  0.019573  0.508579  0.648329  1
  N  N43  1  0.480427  0.628756  0.989006  1
  N  N44  1  0.139750  0.010994  0.491421  1
  N  N45  1  0.360250  0.351671  0.371244  1
  N  N46  1  0.980427  0.491421  0.351671  1
  N  N47  1  0.519573  0.371244  0.010994  1
  N  N48  1  0.472270  0.874257  0.215996  1
  N  N49  1  0.027730  0.743727  0.901988  1
  N  N50  1  0.841739  0.215996  0.743727  1
  N  N51  1  0.658261  0.901988  0.874257  1
  N  N52  1  0.527730  0.125743  0.784004  1
  N  N53  1  0.972270  0.256273  0.098012  1
  N  N54  1  0.158261  0.784004  0.256273  1
  N  N55  1  0.341739  0.098012  0.125743  1
  N  N56  1  0.510118  0.133451  0.474854  1
  N  N57  1  0.989882  0.964736  0.123333  1
  N  N58  1  0.841403  0.474854  0.964736  1
  N  N59  1  0.658597  0.123333  0.133451  1
  N  N60  1  0.489882  0.866549  0.525146  1
  N  N61  1  0.010118  0.035264  0.876667  1
  N  N62  1  0.158597  0.525146  0.035264  1
  N  N63  1  0.341403  0.876667  0.866549  1
  N  N64  1  0.492502  0.401420  0.735768  1
  N  N65  1  0.007498  0.243265  0.408917  1
  N  N66  1  0.834348  0.735768  0.243265  1
  N  N67  1  0.665652  0.408917  0.401420  1
  N  N68  1  0.507498  0.598580  0.264232  1
  N  N69  1  0.992502  0.756735  0.591083  1
  N  N70  1  0.165652  0.264232  0.756735  1
  N  N71  1  0.334348  0.591083  0.598580  1
