# generated using pymatgen
data_MoWS4
_symmetry_space_group_name_H-M   'P 1'
_cell_length_a   3.19100180
_cell_length_b   3.19100246
_cell_length_c   35.84344928
_cell_angle_alpha   89.99987689
_cell_angle_beta   90.00000000
_cell_angle_gamma   119.99999311
_symmetry_Int_Tables_number   1
_chemical_formula_structural   MoWS4
_chemical_formula_sum   'Mo2 W2 S8'
_cell_volume   316.07827508
_cell_formula_units_Z   2
loop_
 _symmetry_equiv_pos_site_id
 _symmetry_equiv_pos_as_xyz
  1  'x, y, z'
loop_
 _atom_site_type_symbol
 _atom_site_label
 _atom_site_symmetry_multiplicity
 _atom_site_fract_x
 _atom_site_fract_y
 _atom_site_fract_z
 _atom_site_occupancy
  Mo  Mo0  1  0.333309  0.666618  0.093897  1
  Mo  Mo1  1  0.666691  0.333382  0.657561  1
  W  W2  1  0.333305  0.666610  0.469660  1
  W  W3  1  0.666695  0.333390  0.281798  1
  S  S4  1  0.333351  0.666702  0.325644  1
  S  S5  1  0.333354  0.666710  0.701209  1
  S  S6  1  0.666646  0.333290  0.050249  1
  S  S7  1  0.666649  0.333298  0.425814  1
  S  S8  1  0.666647  0.333293  0.137578  1
  S  S9  1  0.666647  0.333292  0.513526  1
  S  S10  1  0.333353  0.666708  0.237932  1
  S  S11  1  0.333353  0.666707  0.613880  1
