# generated using pymatgen
data_Pr10Se19
_symmetry_space_group_name_H-M   'P 1'
_cell_length_a   9.39952558
_cell_length_b   9.39952558
_cell_length_c   17.17786119
_cell_angle_alpha   90.00000000
_cell_angle_beta   90.00000000
_cell_angle_gamma   90.00000000
_symmetry_Int_Tables_number   1
_chemical_formula_structural   Pr10Se19
_chemical_formula_sum   'Pr20 Se38'
_cell_volume   1517.68260762
_cell_formula_units_Z   2
loop_
 _symmetry_equiv_pos_site_id
 _symmetry_equiv_pos_as_xyz
  1  'x, y, z'
loop_
 _atom_site_type_symbol
 _atom_site_label
 _atom_site_symmetry_multiplicity
 _atom_site_fract_x
 _atom_site_fract_y
 _atom_site_fract_z
 _atom_site_occupancy
  Se  Se0  1  0.250000  0.750000  0.064419  1
  Se  Se1  1  0.250000  0.750000  0.564419  1
  Se  Se2  1  0.750000  0.250000  0.935581  1
  Se  Se3  1  0.750000  0.250000  0.435581  1
  Se  Se4  1  0.649289  0.552092  0.563243  1
  Se  Se5  1  0.447908  0.149289  0.063243  1
  Se  Se6  1  0.052092  0.350711  0.063243  1
  Se  Se7  1  0.850711  0.947908  0.563243  1
  Se  Se8  1  0.350711  0.447908  0.436757  1
  Se  Se9  1  0.552092  0.850711  0.936757  1
  Se  Se10  1  0.947908  0.649289  0.936757  1
  Se  Se11  1  0.149289  0.052092  0.436757  1
  Se  Se12  1  0.048950  0.347679  0.571314  1
  Se  Se13  1  0.652321  0.548950  0.071314  1
  Se  Se14  1  0.847679  0.951050  0.071314  1
  Se  Se15  1  0.451050  0.152321  0.571314  1
  Se  Se16  1  0.951050  0.652321  0.428686  1
  Se  Se17  1  0.347679  0.451050  0.928686  1
  Se  Se18  1  0.152321  0.048950  0.928686  1
  Se  Se19  1  0.548950  0.847679  0.428686  1
  Se  Se20  1  0.066165  0.882661  0.249183  1
  Se  Se21  1  0.117339  0.566165  0.749183  1
  Se  Se22  1  0.382661  0.933835  0.749183  1
  Se  Se23  1  0.433835  0.617339  0.249183  1
  Se  Se24  1  0.933835  0.117339  0.750817  1
  Se  Se25  1  0.882661  0.433835  0.250817  1
  Se  Se26  1  0.617339  0.066165  0.250817  1
  Se  Se27  1  0.566165  0.382661  0.750817  1
  Se  Se28  1  0.326086  0.970263  0.250206  1
  Se  Se29  1  0.029737  0.826086  0.750206  1
  Se  Se30  1  0.470263  0.673914  0.750206  1
  Se  Se31  1  0.173914  0.529737  0.250206  1
  Se  Se32  1  0.673914  0.029737  0.749794  1
  Se  Se33  1  0.970263  0.173914  0.249794  1
  Se  Se34  1  0.529737  0.326086  0.249794  1
  Se  Se35  1  0.826086  0.470263  0.749794  1
  Se  Se36  1  0.250000  0.250000  0.750000  1
  Se  Se37  1  0.750000  0.750000  0.250000  1
  Pr  Pr38  1  0.250000  0.750000  0.383423  1
  Pr  Pr39  1  0.250000  0.750000  0.883423  1
  Pr  Pr40  1  0.750000  0.250000  0.616577  1
  Pr  Pr41  1  0.750000  0.250000  0.116577  1
  Pr  Pr42  1  0.648003  0.553500  0.894358  1
  Pr  Pr43  1  0.446500  0.148003  0.394358  1
  Pr  Pr44  1  0.053500  0.351997  0.394358  1
  Pr  Pr45  1  0.851997  0.946500  0.894358  1
  Pr  Pr46  1  0.351997  0.446500  0.105642  1
  Pr  Pr47  1  0.553500  0.851997  0.605642  1
  Pr  Pr48  1  0.946500  0.648003  0.605642  1
  Pr  Pr49  1  0.148003  0.053500  0.105642  1
  Pr  Pr50  1  0.456644  0.152882  0.880210  1
  Pr  Pr51  1  0.847118  0.956644  0.380210  1
  Pr  Pr52  1  0.652882  0.543356  0.380210  1
  Pr  Pr53  1  0.043356  0.347118  0.880210  1
  Pr  Pr54  1  0.543356  0.847118  0.119790  1
  Pr  Pr55  1  0.152882  0.043356  0.619790  1
  Pr  Pr56  1  0.347118  0.456644  0.619790  1
  Pr  Pr57  1  0.956644  0.652882  0.119790  1
