# generated using pymatgen
data_SmCuSe2
_symmetry_space_group_name_H-M   'P 1'
_cell_length_a   6.68792834
_cell_length_b   7.17178321
_cell_length_c   7.43832560
_cell_angle_alpha   90.00000000
_cell_angle_beta   90.00000000
_cell_angle_gamma   96.31049610
_symmetry_Int_Tables_number   1
_chemical_formula_structural   SmCuSe2
_chemical_formula_sum   'Sm4 Cu4 Se8'
_cell_volume   354.61286168
_cell_formula_units_Z   4
loop_
 _symmetry_equiv_pos_site_id
 _symmetry_equiv_pos_as_xyz
  1  'x, y, z'
loop_
 _atom_site_type_symbol
 _atom_site_label
 _atom_site_symmetry_multiplicity
 _atom_site_fract_x
 _atom_site_fract_y
 _atom_site_fract_z
 _atom_site_occupancy
  Cu  Cu0  1  0.070976  0.545473  0.840122  1
  Cu  Cu1  1  0.929024  0.454527  0.159878  1
  Cu  Cu2  1  0.070976  0.045473  0.659878  1
  Cu  Cu3  1  0.929024  0.954527  0.340122  1
  Se  Se4  1  0.423003  0.002301  0.723839  1
  Se  Se5  1  0.423003  0.502301  0.776161  1
  Se  Se6  1  0.576997  0.497699  0.223839  1
  Se  Se7  1  0.576997  0.997699  0.276161  1
  Se  Se8  1  0.901212  0.719792  0.612059  1
  Se  Se9  1  0.098788  0.780208  0.112059  1
  Se  Se10  1  0.098788  0.280208  0.387941  1
  Se  Se11  1  0.901212  0.219792  0.887941  1
  Sm  Sm12  1  0.694440  0.299106  0.543674  1
  Sm  Sm13  1  0.305560  0.200894  0.043674  1
  Sm  Sm14  1  0.305560  0.700894  0.456326  1
  Sm  Sm15  1  0.694440  0.799106  0.956326  1
