# generated using pymatgen
data_PdN
_symmetry_space_group_name_H-M   'P 1'
_cell_length_a   3.24393631
_cell_length_b   3.24232167
_cell_length_c   5.84227173
_cell_angle_alpha   90.00000000
_cell_angle_beta   90.00000000
_cell_angle_gamma   120.01647480
_symmetry_Int_Tables_number   1
_chemical_formula_structural   PdN
_chemical_formula_sum   'Pd2 N2'
_cell_volume   53.20698873
_cell_formula_units_Z   2
loop_
 _symmetry_equiv_pos_site_id
 _symmetry_equiv_pos_as_xyz
  1  'x, y, z'
loop_
 _atom_site_type_symbol
 _atom_site_label
 _atom_site_symmetry_multiplicity
 _atom_site_fract_x
 _atom_site_fract_y
 _atom_site_fract_z
 _atom_site_occupancy
  Pd  Pd0  1  0.666709  0.333418  0.505526  1
  Pd  Pd1  1  0.333291  0.666582  0.005526  1
  N  N2  1  0.666711  0.333422  0.866474  1
  N  N3  1  0.333289  0.666578  0.366474  1
