# generated using pymatgen
data_Te4Mo3W(SeS)2
_symmetry_space_group_name_H-M   'P 1'
_cell_length_a   3.39872909
_cell_length_b   3.39862710
_cell_length_c   38.69866341
_cell_angle_alpha   90.00005345
_cell_angle_beta   90.00000000
_cell_angle_gamma   120.00099281
_symmetry_Int_Tables_number   1
_chemical_formula_structural   Te4Mo3W(SeS)2
_chemical_formula_sum   'Te4 Mo3 W1 Se2 S2'
_cell_volume   387.11706544
_cell_formula_units_Z   1
loop_
 _symmetry_equiv_pos_site_id
 _symmetry_equiv_pos_as_xyz
  1  'x, y, z'
loop_
 _atom_site_type_symbol
 _atom_site_label
 _atom_site_symmetry_multiplicity
 _atom_site_fract_x
 _atom_site_fract_y
 _atom_site_fract_z
 _atom_site_occupancy
  Te  Te0  1  0.333370  0.666741  0.330486  1
  Te  Te1  1  0.333352  0.666706  0.705902  1
  Te  Te2  1  0.333350  0.666702  0.233142  1
  Te  Te3  1  0.333352  0.666706  0.609127  1
  Mo  Mo4  1  0.333310  0.666619  0.093911  1
  Mo  Mo5  1  0.333313  0.666626  0.469664  1
  Mo  Mo6  1  0.666689  0.333378  0.657543  1
  W  W7  1  0.666693  0.333386  0.281820  1
  Se  Se8  1  0.666643  0.333285  0.051296  1
  Se  Se9  1  0.666646  0.333291  0.136527  1
  S  S10  1  0.666638  0.333274  0.430805  1
  S  S11  1  0.666644  0.333287  0.508527  1
