# generated using pymatgen
data_CrN2
_symmetry_space_group_name_H-M   'P 1'
_cell_length_a   4.86885283
_cell_length_b   4.99445323
_cell_length_c   5.57085106
_cell_angle_alpha   116.63252795
_cell_angle_beta   115.91222075
_cell_angle_gamma   89.99999762
_symmetry_Int_Tables_number   1
_chemical_formula_structural   CrN2
_chemical_formula_sum   'Cr2 N4'
_cell_volume   105.63828828
_cell_formula_units_Z   2
loop_
 _symmetry_equiv_pos_site_id
 _symmetry_equiv_pos_as_xyz
  1  'x, y, z'
loop_
 _atom_site_type_symbol
 _atom_site_label
 _atom_site_symmetry_multiplicity
 _atom_site_fract_x
 _atom_site_fract_y
 _atom_site_fract_z
 _atom_site_occupancy
  Cr  Cr0  1  0.000000  0.750000  0.000000  1
  Cr  Cr1  1  0.000000  0.250000  0.000000  1
  N  N2  1  0.919587  0.599399  0.198797  1
  N  N3  1  0.080413  0.400601  0.801203  1
  N  N4  1  0.279211  0.099399  0.198797  1
  N  N5  1  0.720789  0.900601  0.801203  1
