# generated using pymatgen
data_Mn3Cr2(SiO4)3
_symmetry_space_group_name_H-M   'P 1'
_cell_length_a   10.33756122
_cell_length_b   10.33756122
_cell_length_c   10.33756122
_cell_angle_alpha   109.47122064
_cell_angle_beta   109.47122063
_cell_angle_gamma   109.47122063
_symmetry_Int_Tables_number   1
_chemical_formula_structural   Mn3Cr2(SiO4)3
_chemical_formula_sum   'Mn12 Cr8 Si12 O48'
_cell_volume   850.41790002
_cell_formula_units_Z   4
loop_
 _symmetry_equiv_pos_site_id
 _symmetry_equiv_pos_as_xyz
  1  'x, y, z'
loop_
 _atom_site_type_symbol
 _atom_site_label
 _atom_site_symmetry_multiplicity
 _atom_site_fract_x
 _atom_site_fract_y
 _atom_site_fract_z
 _atom_site_occupancy
  O  O0  1  0.707309  0.692191  0.086741  1
  O  O1  1  0.692192  0.105450  0.984883  1
  O  O2  1  0.620568  0.707310  0.515119  1
  O  O3  1  0.515119  0.620568  0.707309  1
  O  O4  1  0.086741  0.879433  0.394551  1
  O  O5  1  0.394551  0.086742  0.879433  1
  O  O6  1  0.105450  0.984881  0.692191  1
  O  O7  1  0.620568  0.413259  0.105449  1
  O  O8  1  0.515118  0.394550  0.807809  1
  O  O9  1  0.879432  0.984881  0.792690  1
  O  O10  1  0.413259  0.105450  0.620568  1
  O  O11  1  0.807809  0.515118  0.394551  1
  O  O12  1  0.984882  0.792691  0.879433  1
  O  O13  1  0.086741  0.707310  0.692191  1
  O  O14  1  0.692191  0.086742  0.707309  1
  O  O15  1  0.105449  0.620568  0.413258  1
  O  O16  1  0.807809  0.792691  0.413258  1
  O  O17  1  0.394551  0.807809  0.515118  1
  O  O18  1  0.413258  0.807809  0.792691  1
  O  O19  1  0.792691  0.879433  0.984882  1
  O  O20  1  0.292690  0.484881  0.379432  1
  O  O21  1  0.879432  0.394550  0.086741  1
  O  O22  1  0.984881  0.692191  0.105450  1
  O  O23  1  0.707310  0.515118  0.620568  1
  O  O24  1  0.292690  0.307809  0.913258  1
  O  O25  1  0.307809  0.894551  0.015118  1
  O  O26  1  0.379432  0.292691  0.484882  1
  O  O27  1  0.484882  0.379432  0.292691  1
  O  O28  1  0.913258  0.120568  0.605450  1
  O  O29  1  0.605449  0.913259  0.120568  1
  O  O30  1  0.894550  0.015118  0.307809  1
  O  O31  1  0.379433  0.586742  0.894550  1
  O  O32  1  0.484882  0.605449  0.192191  1
  O  O33  1  0.120567  0.015118  0.207309  1
  O  O34  1  0.586742  0.894551  0.379433  1
  O  O35  1  0.192191  0.484881  0.605450  1
  O  O36  1  0.015119  0.207309  0.120568  1
  O  O37  1  0.913258  0.292691  0.307809  1
  O  O38  1  0.307809  0.913259  0.292691  1
  O  O39  1  0.894550  0.379432  0.586741  1
  O  O40  1  0.192191  0.207309  0.586741  1
  O  O41  1  0.605450  0.192192  0.484882  1
  O  O42  1  0.586741  0.192192  0.207310  1
  O  O43  1  0.207309  0.120568  0.015118  1
  O  O44  1  0.207309  0.586742  0.192191  1
  O  O45  1  0.120567  0.605449  0.913258  1
  O  O46  1  0.015118  0.307809  0.894551  1
  O  O47  1  0.792691  0.413259  0.807810  1
  Si  Si48  1  0.250000  0.125000  0.875000  1
  Si  Si49  1  0.750000  0.875000  0.125000  1
  Si  Si50  1  0.375000  0.250000  0.625001  1
  Si  Si51  1  0.625000  0.375000  0.250000  1
  Si  Si52  1  0.125000  0.750000  0.875000  1
  Si  Si53  1  0.875001  0.125000  0.750001  1
  Si  Si54  1  0.750000  0.375000  0.625000  1
  Si  Si55  1  0.375000  0.625000  0.750001  1
  Si  Si56  1  0.125000  0.875000  0.250000  1
  Si  Si57  1  0.875001  0.250000  0.125000  1
  Si  Si58  1  0.625000  0.750000  0.375000  1
  Si  Si59  1  0.250000  0.625000  0.375000  1
  Cr  Cr60  1  0.500000  0.500000  0.500000  1
  Cr  Cr61  1  0.500000  0.500000  1.000000  1
  Cr  Cr62  1  0.500000  0.000000  0.500000  1
  Cr  Cr63  1  1.000000  0.500000  0.500000  1
  Cr  Cr64  1  0.500000  0.000000  1.000000  1
  Cr  Cr65  1  0.000000  0.000000  0.500000  1
  Cr  Cr66  1  1.000000  0.500000  1.000000  1
  Cr  Cr67  1  0.000000  0.000000  0.000000  1
  Mn  Mn68  1  0.250000  0.875000  0.625000  1
  Mn  Mn69  1  0.875000  0.625000  0.250000  1
  Mn  Mn70  1  0.625000  0.875000  0.750001  1
  Mn  Mn71  1  0.875000  0.750000  0.625000  1
  Mn  Mn72  1  0.625000  0.250000  0.875000  1
  Mn  Mn73  1  0.750000  0.625000  0.875001  1
  Mn  Mn74  1  0.750000  0.125000  0.375000  1
  Mn  Mn75  1  0.125000  0.375000  0.750000  1
  Mn  Mn76  1  0.375000  0.125000  0.250000  1
  Mn  Mn77  1  0.125000  0.250000  0.375000  1
  Mn  Mn78  1  0.375000  0.750000  0.125000  1
  Mn  Mn79  1  0.250000  0.375000  0.125000  1
