# generated using pymatgen
data_TeMoWSeS2
_symmetry_space_group_name_H-M   'P 1'
_cell_length_a   3.30617325
_cell_length_b   3.30620226
_cell_length_c   37.64117775
_cell_angle_alpha   90.00007019
_cell_angle_beta   90.00000000
_cell_angle_gamma   119.99970960
_symmetry_Int_Tables_number   1
_chemical_formula_structural   TeMoWSeS2
_chemical_formula_sum   'Te2 Mo2 W2 Se2 S4'
_cell_volume   356.32814984
_cell_formula_units_Z   2
loop_
 _symmetry_equiv_pos_site_id
 _symmetry_equiv_pos_as_xyz
  1  'x, y, z'
loop_
 _atom_site_type_symbol
 _atom_site_label
 _atom_site_symmetry_multiplicity
 _atom_site_fract_x
 _atom_site_fract_y
 _atom_site_fract_z
 _atom_site_occupancy
  Te  Te0  1  0.333357  0.666715  0.708374  1
  Te  Te1  1  0.333354  0.666708  0.606755  1
  Mo  Mo2  1  0.333301  0.666601  0.093914  1
  Mo  Mo3  1  0.666691  0.333382  0.657575  1
  W  W4  1  0.333311  0.666622  0.469630  1
  W  W5  1  0.666689  0.333379  0.281792  1
  Se  Se6  1  0.333352  0.666704  0.326683  1
  Se  Se7  1  0.333349  0.666700  0.236907  1
  S  S8  1  0.666654  0.333306  0.053316  1
  S  S9  1  0.666647  0.333293  0.428889  1
  S  S10  1  0.666649  0.333298  0.134515  1
  S  S11  1  0.666646  0.333292  0.510397  1
