# generated using pymatgen
data_Te2MoWSeS
_symmetry_space_group_name_H-M   'P 1'
_cell_length_a   3.39752120
_cell_length_b   3.39749132
_cell_length_c   40.60398154
_cell_angle_alpha   89.99986825
_cell_angle_beta   90.00000000
_cell_angle_gamma   120.00029090
_symmetry_Int_Tables_number   1
_chemical_formula_structural   Te2MoWSeS
_chemical_formula_sum   'Te4 Mo2 W2 Se2 S2'
_cell_volume   405.89949583
_cell_formula_units_Z   2
loop_
 _symmetry_equiv_pos_site_id
 _symmetry_equiv_pos_as_xyz
  1  'x, y, z'
loop_
 _atom_site_type_symbol
 _atom_site_label
 _atom_site_symmetry_multiplicity
 _atom_site_fract_x
 _atom_site_fract_y
 _atom_site_fract_z
 _atom_site_occupancy
  Te  Te0  1  0.333286  0.666572  0.326615  1
  Te  Te1  1  0.666674  0.333347  0.424629  1
  Te  Te2  1  0.666673  0.333346  0.516900  1
  Te  Te3  1  0.333319  0.666640  0.233686  1
  Mo  Mo4  1  0.333297  0.666594  0.093900  1
  Mo  Mo5  1  0.333335  0.666671  0.470783  1
  W  W6  1  0.666632  0.333265  0.280147  1
  W  W7  1  0.666706  0.333412  0.658091  1
  Se  Se8  1  0.333383  0.666766  0.698846  1
  Se  Se9  1  0.333355  0.666711  0.617304  1
  S  S10  1  0.666676  0.333351  0.056923  1
  S  S11  1  0.666664  0.333328  0.130925  1
