# generated using pymatgen
data_Dy3(AlNi3)2
_symmetry_space_group_name_H-M   'P 1'
_cell_length_a   7.71089814
_cell_length_b   7.71089814
_cell_length_c   7.71089814
_cell_angle_alpha   109.47122063
_cell_angle_beta   109.47122062
_cell_angle_gamma   109.47122062
_symmetry_Int_Tables_number   1
_chemical_formula_structural   Dy3(AlNi3)2
_chemical_formula_sum   'Dy6 Al4 Ni12'
_cell_volume   352.93360182
_cell_formula_units_Z   2
loop_
 _symmetry_equiv_pos_site_id
 _symmetry_equiv_pos_as_xyz
  1  'x, y, z'
loop_
 _atom_site_type_symbol
 _atom_site_label
 _atom_site_symmetry_multiplicity
 _atom_site_fract_x
 _atom_site_fract_y
 _atom_site_fract_z
 _atom_site_occupancy
  Al  Al0  1  0.500000  0.500000  0.500000  1
  Al  Al1  1  0.500000  0.000000  0.000000  1
  Al  Al2  1  0.000000  0.500000  0.000000  1
  Al  Al3  1  0.000000  0.000000  0.500000  1
  Ni  Ni4  1  0.334966  0.665034  0.000000  1
  Ni  Ni5  1  0.669933  0.334966  0.334966  1
  Ni  Ni6  1  0.334966  0.669933  0.334966  1
  Ni  Ni7  1  0.665034  0.000000  0.334966  1
  Ni  Ni8  1  0.334966  0.000000  0.665034  1
  Ni  Ni9  1  0.334966  0.334966  0.669933  1
  Ni  Ni10  1  0.330067  0.665034  0.665034  1
  Ni  Ni11  1  0.665034  0.665034  0.330067  1
  Ni  Ni12  1  0.665034  0.330067  0.665034  1
  Ni  Ni13  1  0.000000  0.665034  0.334966  1
  Ni  Ni14  1  0.665034  0.334966  0.000000  1
  Ni  Ni15  1  0.000000  0.334966  0.665034  1
  Dy  Dy16  1  0.000000  0.292487  0.292487  1
  Dy  Dy17  1  0.000000  0.707513  0.707513  1
  Dy  Dy18  1  0.292487  0.292487  0.000000  1
  Dy  Dy19  1  0.707513  0.707513  0.000000  1
  Dy  Dy20  1  0.707513  0.000000  0.707513  1
  Dy  Dy21  1  0.292487  0.000000  0.292487  1
