# generated using pymatgen
data_Pu(CrSi)2
_symmetry_space_group_name_H-M   'P 1'
_cell_length_a   3.68919339
_cell_length_b   3.68919339
_cell_length_c   6.09463315
_cell_angle_alpha   107.61739007
_cell_angle_beta   107.61739004
_cell_angle_gamma   90.00000002
_symmetry_Int_Tables_number   1
_chemical_formula_structural   Pu(CrSi)2
_chemical_formula_sum   'Pu1 Cr2 Si2'
_cell_volume   74.96644324
_cell_formula_units_Z   1
loop_
 _symmetry_equiv_pos_site_id
 _symmetry_equiv_pos_as_xyz
  1  'x, y, z'
loop_
 _atom_site_type_symbol
 _atom_site_label
 _atom_site_symmetry_multiplicity
 _atom_site_fract_x
 _atom_site_fract_y
 _atom_site_fract_z
 _atom_site_occupancy
  Si  Si0  1  0.608725  0.608725  0.217451  1
  Si  Si1  1  0.391275  0.391275  0.782549  1
  Cr  Cr2  1  0.250000  0.750000  0.500000  1
  Cr  Cr3  1  0.750000  0.250000  0.500000  1
  Pu  Pu4  1  0.000000  0.000000  0.000000  1
