# generated using pymatgen
data_MoSeS
_symmetry_space_group_name_H-M   'P 1'
_cell_length_a   3.25647417
_cell_length_b   3.25648260
_cell_length_c   36.82155327
_cell_angle_alpha   90.00019401
_cell_angle_beta   90.00000000
_cell_angle_gamma   119.99991422
_symmetry_Int_Tables_number   1
_chemical_formula_structural   MoSeS
_chemical_formula_sum   'Mo4 Se4 S4'
_cell_volume   338.16566646
_cell_formula_units_Z   4
loop_
 _symmetry_equiv_pos_site_id
 _symmetry_equiv_pos_as_xyz
  1  'x, y, z'
loop_
 _atom_site_type_symbol
 _atom_site_label
 _atom_site_symmetry_multiplicity
 _atom_site_fract_x
 _atom_site_fract_y
 _atom_site_fract_z
 _atom_site_occupancy
  Mo  Mo0  1  0.333308  0.666616  0.093913  1
  Mo  Mo1  1  0.333308  0.666615  0.469645  1
  Mo  Mo2  1  0.666692  0.333385  0.281813  1
  Mo  Mo3  1  0.666692  0.333384  0.657545  1
  Se  Se4  1  0.333352  0.666706  0.703686  1
  Se  Se5  1  0.666648  0.333294  0.047772  1
  Se  Se6  1  0.666649  0.333297  0.140049  1
  Se  Se7  1  0.333351  0.666703  0.611409  1
  S  S8  1  0.333352  0.666705  0.323734  1
  S  S9  1  0.666648  0.333295  0.427724  1
  S  S10  1  0.666647  0.333293  0.511584  1
  S  S11  1  0.333353  0.666707  0.239874  1
