# generated using pymatgen
data_ZnP2PbO7
_symmetry_space_group_name_H-M   'P 1'
_cell_length_a   5.40856912
_cell_length_b   8.41694253
_cell_length_c   13.08757059
_cell_angle_alpha   90.00000000
_cell_angle_beta   90.37172352
_cell_angle_gamma   90.00000000
_symmetry_Int_Tables_number   1
_chemical_formula_structural   ZnP2PbO7
_chemical_formula_sum   'Zn4 P8 Pb4 O28'
_cell_volume   595.78099210
_cell_formula_units_Z   4
loop_
 _symmetry_equiv_pos_site_id
 _symmetry_equiv_pos_as_xyz
  1  'x, y, z'
loop_
 _atom_site_type_symbol
 _atom_site_label
 _atom_site_symmetry_multiplicity
 _atom_site_fract_x
 _atom_site_fract_y
 _atom_site_fract_z
 _atom_site_occupancy
  O  O0  1  0.016856  0.559327  0.201476  1
  O  O1  1  0.483144  0.059327  0.298524  1
  O  O2  1  0.983144  0.440673  0.798524  1
  O  O3  1  0.516856  0.940673  0.701476  1
  O  O4  1  0.673597  0.361852  0.154130  1
  O  O5  1  0.826403  0.861852  0.345870  1
  O  O6  1  0.326403  0.638148  0.845870  1
  O  O7  1  0.173597  0.138148  0.654130  1
  O  O8  1  0.563566  0.619094  0.239134  1
  O  O9  1  0.936434  0.119094  0.260866  1
  O  O10  1  0.436434  0.380906  0.760866  1
  O  O11  1  0.063566  0.880906  0.739134  1
  O  O12  1  0.820791  0.902917  0.099742  1
  O  O13  1  0.679209  0.402917  0.400258  1
  O  O14  1  0.179209  0.097083  0.900258  1
  O  O15  1  0.320791  0.597083  0.599742  1
  O  O16  1  0.304498  0.692819  0.414380  1
  O  O17  1  0.195502  0.192819  0.085620  1
  O  O18  1  0.695502  0.307181  0.585620  1
  O  O19  1  0.804498  0.807181  0.914380  1
  O  O20  1  0.219828  0.884406  0.555023  1
  O  O21  1  0.280172  0.384406  0.944977  1
  O  O22  1  0.780172  0.115594  0.444977  1
  O  O23  1  0.719828  0.615594  0.055023  1
  O  O24  1  0.903335  0.668252  0.520105  1
  O  O25  1  0.596665  0.168252  0.979895  1
  O  O26  1  0.096665  0.331748  0.479895  1
  O  O27  1  0.403335  0.831748  0.020105  1
  P  P28  1  0.682705  0.799667  0.020241  1
  P  P29  1  0.182705  0.700333  0.520241  1
  P  P30  1  0.317295  0.200333  0.979759  1
  P  P31  1  0.817295  0.299667  0.479759  1
  P  P32  1  0.748229  0.536331  0.166855  1
  P  P33  1  0.248229  0.963669  0.666855  1
  P  P34  1  0.251771  0.463669  0.833145  1
  P  P35  1  0.751771  0.036331  0.333145  1
  Zn  Zn36  1  0.328018  0.347990  0.604209  1
  Zn  Zn37  1  0.671982  0.652010  0.395791  1
  Zn  Zn38  1  0.828018  0.152010  0.104209  1
  Zn  Zn39  1  0.171982  0.847990  0.895791  1
  Pb  Pb40  1  0.296199  0.327019  0.277274  1
  Pb  Pb41  1  0.203801  0.827019  0.222726  1
  Pb  Pb42  1  0.703801  0.672981  0.722726  1
  Pb  Pb43  1  0.796199  0.172981  0.777274  1
