# generated using pymatgen
data_Ca2Sb2O7
_symmetry_space_group_name_H-M   'P 1'
_cell_length_a   7.34588831
_cell_length_b   7.34588831
_cell_length_c   7.34588831
_cell_angle_alpha   59.99999997
_cell_angle_beta   59.99999997
_cell_angle_gamma   59.99999996
_symmetry_Int_Tables_number   1
_chemical_formula_structural   Ca2Sb2O7
_chemical_formula_sum   'Ca4 Sb4 O14'
_cell_volume   280.29668716
_cell_formula_units_Z   2
loop_
 _symmetry_equiv_pos_site_id
 _symmetry_equiv_pos_as_xyz
  1  'x, y, z'
loop_
 _atom_site_type_symbol
 _atom_site_label
 _atom_site_symmetry_multiplicity
 _atom_site_fract_x
 _atom_site_fract_y
 _atom_site_fract_z
 _atom_site_occupancy
  O  O0  1  0.125000  0.125000  0.125000  1
  O  O1  1  0.875000  0.875000  0.875000  1
  O  O2  1  0.109896  0.640104  0.640104  1
  O  O3  1  0.359897  0.890104  0.890104  1
  O  O4  1  0.640104  0.109896  0.640104  1
  O  O5  1  0.640104  0.640104  0.109896  1
  O  O6  1  0.109896  0.109896  0.640104  1
  O  O7  1  0.109896  0.640104  0.109896  1
  O  O8  1  0.640104  0.109896  0.109896  1
  O  O9  1  0.890104  0.890104  0.359897  1
  O  O10  1  0.359897  0.359897  0.890104  1
  O  O11  1  0.890104  0.359897  0.359897  1
  O  O12  1  0.890104  0.359897  0.890104  1
  O  O13  1  0.359897  0.890104  0.359897  1
  Ca  Ca14  1  0.500000  0.500000  0.500000  1
  Ca  Ca15  1  0.500000  0.500000  0.000000  1
  Ca  Ca16  1  0.000000  0.500000  0.500000  1
  Ca  Ca17  1  0.500000  0.000000  0.500000  1
  Sb  Sb18  1  0.000000  0.000000  0.000000  1
  Sb  Sb19  1  0.000000  0.000000  0.500000  1
  Sb  Sb20  1  0.500000  0.000000  0.000000  1
  Sb  Sb21  1  0.000000  0.500000  0.000000  1
