# generated using pymatgen
data_Sn3PO6
_symmetry_space_group_name_H-M   'P 1'
_cell_length_a   5.04042827
_cell_length_b   11.19031348
_cell_length_c   12.63173549
_cell_angle_alpha   90.00000000
_cell_angle_beta   110.52610356
_cell_angle_gamma   90.00000000
_symmetry_Int_Tables_number   1
_chemical_formula_structural   Sn3PO6
_chemical_formula_sum   'Sn12 P4 O24'
_cell_volume   667.24651148
_cell_formula_units_Z   4
loop_
 _symmetry_equiv_pos_site_id
 _symmetry_equiv_pos_as_xyz
  1  'x, y, z'
loop_
 _atom_site_type_symbol
 _atom_site_label
 _atom_site_symmetry_multiplicity
 _atom_site_fract_x
 _atom_site_fract_y
 _atom_site_fract_z
 _atom_site_occupancy
  Sn  Sn0  1  0.544706  0.142748  0.679405  1
  Sn  Sn1  1  0.455294  0.642748  0.820595  1
  Sn  Sn2  1  0.455294  0.857252  0.320595  1
  Sn  Sn3  1  0.544706  0.357252  0.179405  1
  Sn  Sn4  1  0.229857  0.108135  0.955341  1
  Sn  Sn5  1  0.770143  0.608135  0.544659  1
  Sn  Sn6  1  0.770143  0.891865  0.044659  1
  Sn  Sn7  1  0.229857  0.391865  0.455341  1
  Sn  Sn8  1  0.868527  0.359046  0.917125  1
  Sn  Sn9  1  0.131473  0.859046  0.582875  1
  Sn  Sn10  1  0.131473  0.640954  0.082875  1
  Sn  Sn11  1  0.868527  0.140954  0.417125  1
  P  P12  1  0.064372  0.344843  0.687402  1
  P  P13  1  0.935628  0.844843  0.812598  1
  P  P14  1  0.935628  0.655157  0.312598  1
  P  P15  1  0.064372  0.155157  0.187402  1
  O  O16  1  0.974434  0.420597  0.771197  1
  O  O17  1  0.025566  0.920597  0.728803  1
  O  O18  1  0.025566  0.579403  0.228803  1
  O  O19  1  0.974434  0.079403  0.271197  1
  O  O20  1  0.074361  0.432685  0.591941  1
  O  O21  1  0.925639  0.932685  0.908059  1
  O  O22  1  0.925639  0.567315  0.408059  1
  O  O23  1  0.074361  0.067315  0.091941  1
  O  O24  1  0.364430  0.291007  0.745033  1
  O  O25  1  0.635570  0.791007  0.754967  1
  O  O26  1  0.635570  0.708993  0.254967  1
  O  O27  1  0.364430  0.208993  0.245033  1
  O  O28  1  0.848839  0.244531  0.630877  1
  O  O29  1  0.151161  0.744531  0.869123  1
  O  O30  1  0.151161  0.755469  0.369123  1
  O  O31  1  0.848839  0.255469  0.130877  1
  O  O32  1  0.284268  0.290027  0.007683  1
  O  O33  1  0.715732  0.790027  0.492317  1
  O  O34  1  0.715732  0.709973  0.992317  1
  O  O35  1  0.284268  0.209973  0.507683  1
  O  O36  1  0.843323  0.182461  0.856606  1
  O  O37  1  0.156677  0.682461  0.643394  1
  O  O38  1  0.156677  0.817539  0.143394  1
  O  O39  1  0.843323  0.317539  0.356606  1
