# generated using pymatgen
data_Sr5NbN5
_symmetry_space_group_name_H-M   'P 1'
_cell_length_a   6.51228872
_cell_length_b   7.33445600
_cell_length_c   18.03005463
_cell_angle_alpha   90.00000000
_cell_angle_beta   90.00000000
_cell_angle_gamma   90.00000000
_symmetry_Int_Tables_number   1
_chemical_formula_structural   Sr5NbN5
_chemical_formula_sum   'Sr20 Nb4 N20'
_cell_volume   861.18924358
_cell_formula_units_Z   4
loop_
 _symmetry_equiv_pos_site_id
 _symmetry_equiv_pos_as_xyz
  1  'x, y, z'
loop_
 _atom_site_type_symbol
 _atom_site_label
 _atom_site_symmetry_multiplicity
 _atom_site_fract_x
 _atom_site_fract_y
 _atom_site_fract_z
 _atom_site_occupancy
  N  N0  1  0.352003  0.750000  0.676035  1
  N  N1  1  0.352003  0.250000  0.823965  1
  N  N2  1  0.647997  0.250000  0.323965  1
  N  N3  1  0.647997  0.750000  0.176035  1
  N  N4  1  0.968272  0.250000  0.510895  1
  N  N5  1  0.968272  0.750000  0.989105  1
  N  N6  1  0.513707  0.750000  0.445784  1
  N  N7  1  0.513707  0.250000  0.054216  1
  N  N8  1  0.486293  0.250000  0.554216  1
  N  N9  1  0.486293  0.750000  0.945784  1
  N  N10  1  0.846645  0.469382  0.654336  1
  N  N11  1  0.846645  0.530618  0.845664  1
  N  N12  1  0.153355  0.969382  0.345664  1
  N  N13  1  0.153355  0.030618  0.154336  1
  N  N14  1  0.153355  0.530618  0.345664  1
  N  N15  1  0.153355  0.469382  0.154336  1
  N  N16  1  0.846645  0.030618  0.654336  1
  N  N17  1  0.846645  0.969382  0.845664  1
  N  N18  1  0.031728  0.750000  0.489105  1
  N  N19  1  0.031728  0.250000  0.010895  1
  Sr  Sr20  1  0.535017  0.000000  0.750000  1
  Sr  Sr21  1  0.464983  0.500000  0.250000  1
  Sr  Sr22  1  0.464983  0.000000  0.250000  1
  Sr  Sr23  1  0.535017  0.500000  0.750000  1
  Sr  Sr24  1  0.000038  0.250000  0.264599  1
  Sr  Sr25  1  0.000038  0.750000  0.235401  1
  Sr  Sr26  1  0.320821  0.750000  0.080251  1
  Sr  Sr27  1  0.320821  0.250000  0.419749  1
  Sr  Sr28  1  0.679179  0.250000  0.919749  1
  Sr  Sr29  1  0.679179  0.750000  0.580251  1
  Sr  Sr30  1  0.799301  0.495096  0.423291  1
  Sr  Sr31  1  0.799301  0.504904  0.076709  1
  Sr  Sr32  1  0.200699  0.995096  0.576709  1
  Sr  Sr33  1  0.200699  0.004904  0.923291  1
  Sr  Sr34  1  0.200699  0.504904  0.576709  1
  Sr  Sr35  1  0.200699  0.495096  0.923291  1
  Sr  Sr36  1  0.799301  0.004904  0.423291  1
  Sr  Sr37  1  0.799301  0.995096  0.076709  1
  Sr  Sr38  1  0.999962  0.750000  0.735401  1
  Sr  Sr39  1  0.999962  0.250000  0.764599  1
  Nb  Nb40  1  0.229224  0.750000  0.406620  1
  Nb  Nb41  1  0.229224  0.250000  0.093380  1
  Nb  Nb42  1  0.770776  0.250000  0.593380  1
  Nb  Nb43  1  0.770776  0.750000  0.906620  1
