# generated using pymatgen
data_La3Co2Sn7
_symmetry_space_group_name_H-M   'P 1'
_cell_length_a   4.64756646
_cell_length_b   4.64499995
_cell_length_c   14.07998564
_cell_angle_alpha   90.00000000
_cell_angle_beta   99.49965059
_cell_angle_gamma   90.00000000
_symmetry_Int_Tables_number   1
_chemical_formula_structural   La3Co2Sn7
_chemical_formula_sum   'La3 Co2 Sn7'
_cell_volume   299.78967466
_cell_formula_units_Z   1
loop_
 _symmetry_equiv_pos_site_id
 _symmetry_equiv_pos_as_xyz
  1  'x, y, z'
loop_
 _atom_site_type_symbol
 _atom_site_label
 _atom_site_symmetry_multiplicity
 _atom_site_fract_x
 _atom_site_fract_y
 _atom_site_fract_z
 _atom_site_occupancy
  Co  Co0  1  0.627271  0.500000  0.254542  1
  Co  Co1  1  0.372729  0.500000  0.745458  1
  Sn  Sn2  1  0.717372  0.500000  0.434745  1
  Sn  Sn3  1  0.282628  0.500000  0.565255  1
  Sn  Sn4  1  0.590147  0.000000  0.180294  1
  Sn  Sn5  1  0.000000  0.000000  0.000000  1
  Sn  Sn6  1  0.409853  0.000000  0.819706  1
  Sn  Sn7  1  0.909682  0.500000  0.819365  1
  Sn  Sn8  1  0.090318  0.500000  0.180635  1
  La  La9  1  0.500000  0.500000  0.000000  1
  La  La10  1  0.184559  0.000000  0.369117  1
  La  La11  1  0.815441  0.000000  0.630883  1
