# generated using pymatgen
data_Te2MoWSe2
_symmetry_space_group_name_H-M   'P 1'
_cell_length_a   3.43750106
_cell_length_b   3.43748271
_cell_length_c   39.14098089
_cell_angle_alpha   90.00030801
_cell_angle_beta   90.00000000
_cell_angle_gamma   120.00017663
_symmetry_Int_Tables_number   1
_chemical_formula_structural   Te2MoWSe2
_chemical_formula_sum   'Te4 Mo2 W2 Se4'
_cell_volume   400.53910813
_cell_formula_units_Z   2
loop_
 _symmetry_equiv_pos_site_id
 _symmetry_equiv_pos_as_xyz
  1  'x, y, z'
loop_
 _atom_site_type_symbol
 _atom_site_label
 _atom_site_symmetry_multiplicity
 _atom_site_fract_x
 _atom_site_fract_y
 _atom_site_fract_z
 _atom_site_occupancy
  Te  Te0  1  0.333355  0.666711  0.705222  1
  Te  Te1  1  0.666637  0.333273  0.422253  1
  Te  Te2  1  0.666652  0.333302  0.516991  1
  Te  Te3  1  0.333354  0.666709  0.609888  1
  Mo  Mo4  1  0.333312  0.666623  0.093920  1
  Mo  Mo5  1  0.333314  0.666629  0.469637  1
  W  W6  1  0.666690  0.333379  0.281798  1
  W  W7  1  0.666691  0.333382  0.657595  1
  Se  Se8  1  0.333354  0.666709  0.323730  1
  Se  Se9  1  0.666648  0.333295  0.052131  1
  Se  Se10  1  0.666642  0.333283  0.135717  1
  Se  Se11  1  0.333352  0.666705  0.239868  1
