# generated using pymatgen
data_NaSmSiO4
_symmetry_space_group_name_H-M   'P 1'
_cell_length_a   5.39335297
_cell_length_b   8.85114069
_cell_length_c   8.85114069
_cell_angle_alpha   84.67392243
_cell_angle_beta   72.26169229
_cell_angle_gamma   72.26169228
_symmetry_Int_Tables_number   1
_chemical_formula_structural   NaSmSiO4
_chemical_formula_sum   'Na4 Sm4 Si4 O16'
_cell_volume   383.30897970
_cell_formula_units_Z   4
loop_
 _symmetry_equiv_pos_site_id
 _symmetry_equiv_pos_as_xyz
  1  'x, y, z'
loop_
 _atom_site_type_symbol
 _atom_site_label
 _atom_site_symmetry_multiplicity
 _atom_site_fract_x
 _atom_site_fract_y
 _atom_site_fract_z
 _atom_site_occupancy
  O  O0  1  0.269735  0.035489  0.425042  1
  O  O1  1  0.694776  0.574958  0.035489  1
  O  O2  1  0.305224  0.425042  0.964511  1
  O  O3  1  0.730265  0.964511  0.574958  1
  O  O4  1  0.603282  0.274936  0.518500  1
  O  O5  1  0.121782  0.481500  0.274936  1
  O  O6  1  0.878218  0.518500  0.725064  1
  O  O7  1  0.396718  0.725064  0.481500  1
  O  O8  1  0.796753  0.153721  0.765911  1
  O  O9  1  0.562663  0.234089  0.153721  1
  O  O10  1  0.950473  0.765911  0.846279  1
  O  O11  1  0.716384  0.846279  0.234089  1
  O  O12  1  0.283616  0.153721  0.765911  1
  O  O13  1  0.049527  0.234089  0.153721  1
  O  O14  1  0.437337  0.765911  0.846279  1
  O  O15  1  0.203247  0.846279  0.234089  1
  Na  Na16  1  0.913104  0.693901  0.479891  1
  Na  Na17  1  0.607005  0.479891  0.306099  1
  Na  Na18  1  0.392995  0.520109  0.693901  1
  Na  Na19  1  0.086896  0.306099  0.520109  1
  Si  Si20  1  0.261575  0.336194  0.140657  1
  Si  Si21  1  0.738425  0.663806  0.859343  1
  Si  Si22  1  0.402232  0.859343  0.336194  1
  Si  Si23  1  0.597768  0.140657  0.663806  1
  Sm  Sm24  1  0.191213  0.930370  0.687203  1
  Sm  Sm25  1  0.121584  0.687203  0.069630  1
  Sm  Sm26  1  0.808787  0.069630  0.312797  1
  Sm  Sm27  1  0.878416  0.312797  0.930370  1
