# generated using pymatgen
data_Te2Mo2SeS
_symmetry_space_group_name_H-M   'P 1'
_cell_length_a   3.39863825
_cell_length_b   3.39877334
_cell_length_c   40.02570487
_cell_angle_alpha   90.00039024
_cell_angle_beta   90.00004583
_cell_angle_gamma   119.99803487
_symmetry_Int_Tables_number   1
_chemical_formula_structural   Te2Mo2SeS
_chemical_formula_sum   'Te4 Mo4 Se2 S2'
_cell_volume   400.41041325
_cell_formula_units_Z   2
loop_
 _symmetry_equiv_pos_site_id
 _symmetry_equiv_pos_as_xyz
  1  'x, y, z'
loop_
 _atom_site_type_symbol
 _atom_site_label
 _atom_site_symmetry_multiplicity
 _atom_site_fract_x
 _atom_site_fract_y
 _atom_site_fract_z
 _atom_site_occupancy
  Te  Te0  1  0.333316  0.666634  0.705752  1
  Te  Te1  1  0.666682  0.333363  0.421576  1
  Te  Te2  1  0.666682  0.333362  0.515221  1
  Te  Te3  1  0.333293  0.666585  0.612151  1
  Mo  Mo4  1  0.333330  0.666672  0.094091  1
  Mo  Mo5  1  0.333355  0.666714  0.468389  1
  Mo  Mo6  1  0.666673  0.333345  0.281467  1
  Mo  Mo7  1  0.666630  0.333259  0.658972  1
  Se  Se8  1  0.333345  0.666693  0.322636  1
  Se  Se9  1  0.333340  0.666682  0.240306  1
  S  S10  1  0.666683  0.333360  0.056576  1
  S  S11  1  0.666669  0.333332  0.131611  1
