# generated using pymatgen
data_Co2SiO4
_symmetry_space_group_name_H-M   'P 1'
_cell_length_a   5.82312715
_cell_length_b   7.73166615
_cell_length_c   7.73166616
_cell_angle_alpha   65.58038797
_cell_angle_beta   67.87821789
_cell_angle_gamma   67.87821789
_symmetry_Int_Tables_number   1
_chemical_formula_structural   Co2SiO4
_chemical_formula_sum   'Co8 Si4 O16'
_cell_volume   283.37897266
_cell_formula_units_Z   4
loop_
 _symmetry_equiv_pos_site_id
 _symmetry_equiv_pos_as_xyz
  1  'x, y, z'
loop_
 _atom_site_type_symbol
 _atom_site_label
 _atom_site_symmetry_multiplicity
 _atom_site_fract_x
 _atom_site_fract_y
 _atom_site_fract_z
 _atom_site_occupancy
  O  O0  1  0.641513  0.615220  0.630826  1
  O  O1  1  0.887559  0.384780  0.369174  1
  O  O2  1  0.858487  0.869174  0.884780  1
  O  O3  1  0.612441  0.130826  0.115220  1
  O  O4  1  0.358487  0.384780  0.369174  1
  O  O5  1  0.112441  0.615220  0.630826  1
  O  O6  1  0.141513  0.130826  0.115220  1
  O  O7  1  0.387559  0.869174  0.884780  1
  O  O8  1  0.487101  0.258875  0.766922  1
  O  O9  1  0.512899  0.741125  0.233078  1
  O  O10  1  0.012899  0.733078  0.241125  1
  O  O11  1  0.987101  0.266922  0.758875  1
  O  O12  1  0.250000  0.968768  0.531232  1
  O  O13  1  0.750000  0.031232  0.468768  1
  O  O14  1  0.250000  0.466933  0.033067  1
  O  O15  1  0.750000  0.533067  0.966933  1
  Si  Si16  1  0.621435  0.761603  0.995527  1
  Si  Si17  1  0.378565  0.238397  0.004473  1
  Si  Si18  1  0.878565  0.504473  0.738397  1
  Si  Si19  1  0.121435  0.495527  0.261603  1
  Co  Co20  1  0.873472  0.126528  0.626528  1
  Co  Co21  1  0.626528  0.873472  0.373472  1
  Co  Co22  1  0.126528  0.873472  0.373472  1
  Co  Co23  1  0.373472  0.126528  0.626528  1
  Co  Co24  1  0.750000  0.275939  0.224061  1
  Co  Co25  1  0.250000  0.724061  0.775939  1
  Co  Co26  1  0.500000  0.500000  0.500000  1
  Co  Co27  1  0.000000  0.000000  0.000000  1
