# generated using pymatgen
data_Te4Mo3W(SeS)2
_symmetry_space_group_name_H-M   'P 1'
_cell_length_a   3.39840178
_cell_length_b   3.39845986
_cell_length_c   38.61682728
_cell_angle_alpha   89.99829545
_cell_angle_beta   90.00000000
_cell_angle_gamma   119.99943465
_symmetry_Int_Tables_number   1
_chemical_formula_structural   Te4Mo3W(SeS)2
_chemical_formula_sum   'Te4 Mo3 W1 Se2 S2'
_cell_volume   386.24828371
_cell_formula_units_Z   1
loop_
 _symmetry_equiv_pos_site_id
 _symmetry_equiv_pos_as_xyz
  1  'x, y, z'
loop_
 _atom_site_type_symbol
 _atom_site_label
 _atom_site_symmetry_multiplicity
 _atom_site_fract_x
 _atom_site_fract_y
 _atom_site_fract_z
 _atom_site_occupancy
  Te  Te0  1  0.666654  0.333307  0.045478  1
  Te  Te1  1  0.666656  0.333312  0.421127  1
  Te  Te2  1  0.666639  0.333277  0.142441  1
  Te  Te3  1  0.666641  0.333281  0.518157  1
  Mo  Mo4  1  0.333313  0.666625  0.093907  1
  Mo  Mo5  1  0.333315  0.666629  0.469630  1
  Mo  Mo6  1  0.666697  0.333395  0.281789  1
  W  W7  1  0.666676  0.333352  0.657540  1
  Se  Se8  1  0.333338  0.666676  0.700336  1
  Se  Se9  1  0.333345  0.666691  0.614758  1
  S  S10  1  0.333367  0.666735  0.320703  1
  S  S11  1  0.333360  0.666721  0.242882  1
