# generated using pymatgen
data_SmCo(BO2)5
_symmetry_space_group_name_H-M   'P 1'
_cell_length_a   7.66471088
_cell_length_b   8.73880991
_cell_length_c   9.47770071
_cell_angle_alpha   93.03793781
_cell_angle_beta   90.00000000
_cell_angle_gamma   90.00000000
_symmetry_Int_Tables_number   1
_chemical_formula_structural   SmCo(BO2)5
_chemical_formula_sum   'Sm4 Co4 B20 O40'
_cell_volume   633.92853395
_cell_formula_units_Z   4
loop_
 _symmetry_equiv_pos_site_id
 _symmetry_equiv_pos_as_xyz
  1  'x, y, z'
loop_
 _atom_site_type_symbol
 _atom_site_label
 _atom_site_symmetry_multiplicity
 _atom_site_fract_x
 _atom_site_fract_y
 _atom_site_fract_z
 _atom_site_occupancy
  B  B0  1  0.422057  0.087489  0.738803  1
  B  B1  1  0.813703  0.569942  0.086438  1
  B  B2  1  0.313704  0.930058  0.413562  1
  B  B3  1  0.186297  0.430058  0.913562  1
  B  B4  1  0.686296  0.069942  0.586438  1
  B  B5  1  0.096358  0.654503  0.500873  1
  B  B6  1  0.596357  0.845498  0.999127  1
  B  B7  1  0.903642  0.345498  0.499127  1
  B  B8  1  0.403643  0.154502  0.000873  1
  B  B9  1  0.922056  0.412511  0.761197  1
  B  B10  1  0.577944  0.912511  0.261197  1
  B  B11  1  0.077944  0.587489  0.238803  1
  B  B12  1  0.673367  0.515950  0.606927  1
  B  B13  1  0.173367  0.984049  0.893072  1
  B  B14  1  0.326633  0.484050  0.393073  1
  B  B15  1  0.826632  0.015951  0.106928  1
  B  B16  1  0.467144  0.280594  0.553092  1
  B  B17  1  0.967145  0.219406  0.946908  1
  B  B18  1  0.532856  0.719406  0.446907  1
  B  B19  1  0.032856  0.780594  0.053092  1
  O  O20  1  0.785478  0.529488  0.735973  1
  O  O21  1  0.347059  0.500825  0.929902  1
  O  O22  1  0.847059  0.999174  0.570098  1
  O  O23  1  0.652941  0.499175  0.070097  1
  O  O24  1  0.152941  0.000825  0.429902  1
  O  O25  1  0.545004  0.766287  0.879880  1
  O  O26  1  0.045004  0.733713  0.620120  1
  O  O27  1  0.454996  0.233713  0.120120  1
  O  O28  1  0.285478  0.970513  0.764026  1
  O  O29  1  0.954997  0.266286  0.379880  1
  O  O30  1  0.714522  0.029487  0.235974  1
  O  O31  1  0.214523  0.470512  0.264026  1
  O  O32  1  0.466225  0.183834  0.869179  1
  O  O33  1  0.966225  0.316166  0.630821  1
  O  O34  1  0.533776  0.816166  0.130821  1
  O  O35  1  0.033775  0.683833  0.369179  1
  O  O36  1  0.586263  0.012616  0.692619  1
  O  O37  1  0.086262  0.487384  0.807381  1
  O  O38  1  0.413737  0.987384  0.307381  1
  O  O39  1  0.913736  0.512617  0.192619  1
  O  O40  1  0.349767  0.185664  0.632420  1
  O  O41  1  0.849767  0.314337  0.867580  1
  O  O42  1  0.650233  0.814336  0.367580  1
  O  O43  1  0.150233  0.685663  0.132420  1
  O  O44  1  0.524783  0.415784  0.645064  1
  O  O45  1  0.024784  0.084216  0.854936  1
  O  O46  1  0.475217  0.584216  0.354936  1
  O  O47  1  0.975217  0.915784  0.145064  1
  O  O48  1  0.607912  0.672973  0.584390  1
  O  O49  1  0.107913  0.827027  0.915610  1
  O  O50  1  0.392088  0.327028  0.415610  1
  O  O51  1  0.873829  0.686854  0.008489  1
  O  O52  1  0.775020  0.457165  0.484744  1
  O  O53  1  0.275019  0.042834  0.015256  1
  O  O54  1  0.224980  0.542835  0.515256  1
  O  O55  1  0.724980  0.957165  0.984744  1
  O  O56  1  0.626170  0.186853  0.508489  1
  O  O57  1  0.126171  0.313147  0.991511  1
  O  O58  1  0.373830  0.813147  0.491511  1
  O  O59  1  0.892087  0.172973  0.084389  1
  Co  Co60  1  0.907184  0.899667  0.372905  1
  Co  Co61  1  0.407183  0.600334  0.127095  1
  Co  Co62  1  0.092816  0.100333  0.627095  1
  Co  Co63  1  0.592816  0.399667  0.872905  1
  Sm  Sm64  1  0.686941  0.316612  0.262686  1
  Sm  Sm65  1  0.186941  0.183389  0.237314  1
  Sm  Sm66  1  0.313059  0.683388  0.737314  1
  Sm  Sm67  1  0.813059  0.816611  0.762686  1
