# generated using pymatgen
data_Li20Si3P3S23Cl
_symmetry_space_group_name_H-M   'P 1'
_cell_length_a   8.80176072
_cell_length_b   8.81881980
_cell_length_c   12.72503938
_cell_angle_alpha   90.00000000
_cell_angle_beta   90.25266519
_cell_angle_gamma   90.00000000
_symmetry_Int_Tables_number   1
_chemical_formula_structural   Li20Si3P3S23Cl
_chemical_formula_sum   'Li20 Si3 P3 S23 Cl1'
_cell_volume   987.72248035
_cell_formula_units_Z   1
loop_
 _symmetry_equiv_pos_site_id
 _symmetry_equiv_pos_as_xyz
  1  'x, y, z'
loop_
 _atom_site_type_symbol
 _atom_site_label
 _atom_site_symmetry_multiplicity
 _atom_site_fract_x
 _atom_site_fract_y
 _atom_site_fract_z
 _atom_site_occupancy
  Li  Li0  1  0.233641  0.765227  0.299845  1
  Li  Li1  1  0.773418  0.229692  0.291604  1
  Li  Li2  1  0.266606  0.272111  0.783658  1
  Li  Li3  1  0.731826  0.729125  0.789604  1
  Li  Li4  1  0.233641  0.234773  0.299845  1
  Li  Li5  1  0.773418  0.770308  0.291604  1
  Li  Li6  1  0.266606  0.727889  0.783658  1
  Li  Li7  1  0.731826  0.270875  0.789604  1
  Li  Li8  1  0.997927  0.500000  0.932589  1
  Li  Li9  1  0.999471  0.500000  0.450814  1
  Li  Li10  1  0.495430  0.000000  0.557341  1
  Li  Li11  1  0.507536  0.000000  0.040080  1
  Li  Li12  1  0.251752  0.254182  0.011263  1
  Li  Li13  1  0.746310  0.753329  0.021328  1
  Li  Li14  1  0.270009  0.751185  0.541954  1
  Li  Li15  1  0.726287  0.249790  0.541431  1
  Li  Li16  1  0.270009  0.248815  0.541954  1
  Li  Li17  1  0.726287  0.750210  0.541431  1
  Li  Li18  1  0.251752  0.745818  0.011263  1
  Li  Li19  1  0.746310  0.246671  0.021328  1
  Si  Si20  1  0.500786  0.000000  0.804914  1
  Si  Si21  1  0.513923  0.000000  0.317307  1
  Si  Si22  1  -0.000917  0.500000  0.691976  1
  P  P23  1  0.001494  0.500000  0.186913  1
  P  P24  1  0.000036  0.000000  0.499711  1
  P  P25  1  0.498037  0.500000  0.006687  1
  S  S26  1  0.001742  0.193649  0.408031  1
  S  S27  1  0.001742  0.806351  0.408031  1
  S  S28  1  0.306776  0.500000  0.911156  1
  S  S29  1  0.692695  0.500000  0.916173  1
  S  S30  1  0.497534  0.691618  0.097315  1
  S  S31  1  0.497534  0.308382  0.097315  1
  S  S32  1  0.188617  0.000000  0.594324  1
  S  S33  1  0.809271  0.000000  0.590641  1
  S  S34  1  0.002256  0.303993  0.097013  1
  S  S35  1  0.002256  0.696007  0.097013  1
  S  S36  1  0.202161  0.500000  0.597244  1
  S  S37  1  0.797742  0.500000  0.594728  1
  S  S38  1  0.495891  0.796673  0.402935  1
  S  S39  1  0.495891  0.203327  0.402935  1
  S  S40  1  0.301727  0.000000  0.904264  1
  S  S41  1  0.702799  0.000000  0.902196  1
  S  S42  1  0.999191  0.697164  0.788452  1
  S  S43  1  0.999191  0.302836  0.788452  1
  S  S44  1  0.808967  0.500000  0.276334  1
  S  S45  1  0.193249  0.500000  0.278811  1
  S  S46  1  0.500035  0.196074  0.704487  1
  S  S47  1  0.500035  0.803926  0.704487  1
  S  S48  1  0.688022  0.000000  0.206163  1
  Cl  Cl49  1  0.301260  0.000000  0.216210  1
