# generated using pymatgen
data_PrF3
_symmetry_space_group_name_H-M   'P 1'
_cell_length_a   7.15523551
_cell_length_b   7.15523551
_cell_length_c   7.13476811
_cell_angle_alpha   90.00000000
_cell_angle_beta   90.00000000
_cell_angle_gamma   119.99999997
_symmetry_Int_Tables_number   1
_chemical_formula_structural   PrF3
_chemical_formula_sum   'Pr6 F18'
_cell_volume   316.34309535
_cell_formula_units_Z   6
loop_
 _symmetry_equiv_pos_site_id
 _symmetry_equiv_pos_as_xyz
  1  'x, y, z'
loop_
 _atom_site_type_symbol
 _atom_site_label
 _atom_site_symmetry_multiplicity
 _atom_site_fract_x
 _atom_site_fract_y
 _atom_site_fract_z
 _atom_site_occupancy
  F  F0  1  0.000000  0.000000  0.750000  1
  F  F1  1  0.000000  0.000000  0.250000  1
  F  F2  1  0.333333  0.666667  0.499931  1
  F  F3  1  0.666667  0.333333  0.999931  1
  F  F4  1  0.666667  0.333333  0.500069  1
  F  F5  1  0.333333  0.666667  0.000069  1
  F  F6  1  0.343805  0.000029  0.165791  1
  F  F7  1  0.343776  0.343805  0.665791  1
  F  F8  1  0.000029  0.656224  0.665791  1
  F  F9  1  0.999971  0.343776  0.165791  1
  F  F10  1  0.656224  0.656195  0.165791  1
  F  F11  1  0.343776  0.999971  0.834209  1
  F  F12  1  0.656195  0.656224  0.834209  1
  F  F13  1  0.656195  0.999971  0.665791  1
  F  F14  1  0.000029  0.343805  0.834209  1
  F  F15  1  0.999971  0.656195  0.334209  1
  F  F16  1  0.656224  0.000029  0.334209  1
  F  F17  1  0.343805  0.343776  0.334209  1
  Pr  Pr18  1  0.670798  0.670798  0.500000  1
  Pr  Pr19  1  0.000000  0.670798  0.000000  1
  Pr  Pr20  1  0.670798  0.000000  0.000000  1
  Pr  Pr21  1  0.329202  0.000000  0.500000  1
  Pr  Pr22  1  0.000000  0.329202  0.500000  1
  Pr  Pr23  1  0.329202  0.329202  0.000000  1
