# generated using pymatgen
data_Th(MoO4)2
_symmetry_space_group_name_H-M   'P 1'
_cell_length_a   10.11807500
_cell_length_b   10.41885127
_cell_length_c   14.85918788
_cell_angle_alpha   90.00000000
_cell_angle_beta   90.00000000
_cell_angle_gamma   90.00000000
_symmetry_Int_Tables_number   1
_chemical_formula_structural   Th(MoO4)2
_chemical_formula_sum   'Th8 Mo16 O64'
_cell_volume   1566.43654521
_cell_formula_units_Z   8
loop_
 _symmetry_equiv_pos_site_id
 _symmetry_equiv_pos_as_xyz
  1  'x, y, z'
loop_
 _atom_site_type_symbol
 _atom_site_label
 _atom_site_symmetry_multiplicity
 _atom_site_fract_x
 _atom_site_fract_y
 _atom_site_fract_z
 _atom_site_occupancy
  O  O0  1  0.787581  0.227696  0.675036  1
  O  O1  1  0.287580  0.772303  0.824964  1
  O  O2  1  0.712419  0.727696  0.324964  1
  O  O3  1  0.212419  0.272304  0.175036  1
  O  O4  1  0.212419  0.772303  0.324964  1
  O  O5  1  0.712419  0.227696  0.175036  1
  O  O6  1  0.287580  0.272304  0.675036  1
  O  O7  1  0.787581  0.727696  0.824964  1
  O  O8  1  0.599013  0.327942  0.876694  1
  O  O9  1  0.099014  0.672059  0.623306  1
  O  O10  1  0.900987  0.827941  0.123306  1
  O  O11  1  0.400987  0.172059  0.376694  1
  O  O12  1  0.400987  0.672059  0.123306  1
  O  O13  1  0.900987  0.327942  0.376694  1
  O  O14  1  0.099014  0.172059  0.876694  1
  O  O15  1  0.599013  0.827941  0.623306  1
  O  O16  1  0.507787  0.085552  0.672532  1
  O  O17  1  0.007787  0.914448  0.827468  1
  O  O18  1  0.992214  0.585552  0.327468  1
  O  O19  1  0.492213  0.414448  0.172532  1
  O  O20  1  0.492213  0.914448  0.327468  1
  O  O21  1  0.895464  0.183163  0.012456  1
  O  O22  1  0.007787  0.414448  0.672532  1
  O  O23  1  0.507787  0.585552  0.827468  1
  O  O24  1  0.743689  0.492796  0.732952  1
  O  O25  1  0.243690  0.507205  0.767048  1
  O  O26  1  0.756311  0.992795  0.267048  1
  O  O27  1  0.256311  0.007205  0.232952  1
  O  O28  1  0.256311  0.507205  0.267048  1
  O  O29  1  0.756311  0.492796  0.232952  1
  O  O30  1  0.243690  0.007205  0.732952  1
  O  O31  1  0.743689  0.992795  0.767048  1
  O  O32  1  0.899840  0.885553  0.623087  1
  O  O33  1  0.399841  0.114447  0.876913  1
  O  O34  1  0.600159  0.385553  0.376913  1
  O  O35  1  0.100159  0.614447  0.123087  1
  O  O36  1  0.100159  0.114447  0.376913  1
  O  O37  1  0.600159  0.885553  0.123087  1
  O  O38  1  0.399841  0.614447  0.623087  1
  O  O39  1  0.899840  0.385553  0.876913  1
  O  O40  1  0.894392  0.626140  0.984363  1
  O  O41  1  0.394392  0.373861  0.515637  1
  O  O42  1  0.605608  0.126139  0.015637  1
  O  O43  1  0.105609  0.873860  0.484363  1
  O  O44  1  0.105609  0.373861  0.015637  1
  O  O45  1  0.605608  0.626140  0.484363  1
  O  O46  1  0.394392  0.873860  0.984363  1
  O  O47  1  0.894392  0.126139  0.515637  1
  O  O48  1  0.795793  0.934449  0.957768  1
  O  O49  1  0.295793  0.065550  0.542232  1
  O  O50  1  0.704207  0.434449  0.042232  1
  O  O51  1  0.204206  0.565551  0.457768  1
  O  O52  1  0.204206  0.065550  0.042232  1
  O  O53  1  0.704207  0.934449  0.457768  1
  O  O54  1  0.295793  0.565551  0.957768  1
  O  O55  1  0.795793  0.434449  0.542232  1
  O  O56  1  0.895464  0.683164  0.487544  1
  O  O57  1  0.395464  0.316836  0.012456  1
  O  O58  1  0.604536  0.183163  0.512456  1
  O  O59  1  0.104536  0.816836  0.987544  1
  O  O60  1  0.104536  0.316836  0.512456  1
  O  O61  1  0.604536  0.683164  0.987544  1
  O  O62  1  0.395464  0.816836  0.487544  1
  O  O63  1  0.992214  0.085552  0.172532  1
  Mo  Mo64  1  0.001792  0.779672  0.556015  1
  Mo  Mo65  1  0.501792  0.220327  0.943985  1
  Mo  Mo66  1  0.498208  0.279673  0.443985  1
  Mo  Mo67  1  0.998208  0.720328  0.056015  1
  Mo  Mo68  1  0.998208  0.220327  0.443985  1
  Mo  Mo69  1  0.498208  0.779672  0.056015  1
  Mo  Mo70  1  0.501792  0.720328  0.556015  1
  Mo  Mo71  1  0.001792  0.279673  0.943985  1
  Mo  Mo72  1  0.833799  0.392311  0.656566  1
  Mo  Mo73  1  0.333799  0.607689  0.843433  1
  Mo  Mo74  1  0.666202  0.892311  0.343433  1
  Mo  Mo75  1  0.166201  0.107690  0.156567  1
  Mo  Mo76  1  0.833799  0.892311  0.843433  1
  Mo  Mo77  1  0.666202  0.392311  0.156567  1
  Mo  Mo78  1  0.333799  0.107690  0.656566  1
  Mo  Mo79  1  0.166201  0.607689  0.343433  1
  Th  Th80  1  0.719057  0.031837  0.608651  1
  Th  Th81  1  0.219058  0.968162  0.891349  1
  Th  Th82  1  0.780943  0.531837  0.391349  1
  Th  Th83  1  0.280942  0.468163  0.108651  1
  Th  Th84  1  0.280942  0.968162  0.391349  1
  Th  Th85  1  0.780943  0.031837  0.108651  1
  Th  Th86  1  0.219058  0.468163  0.608651  1
  Th  Th87  1  0.719057  0.531837  0.891349  1
