# generated using pymatgen
data_Tm2AlSi2
_symmetry_space_group_name_H-M   'P 1'
_cell_length_a   4.03374542
_cell_length_b   5.51938250
_cell_length_c   5.51938250
_cell_angle_alpha   62.37695128
_cell_angle_beta   68.56679097
_cell_angle_gamma   68.56679096
_symmetry_Int_Tables_number   1
_chemical_formula_structural   Tm2AlSi2
_chemical_formula_sum   'Tm2 Al1 Si2'
_cell_volume   98.44327596
_cell_formula_units_Z   1
loop_
 _symmetry_equiv_pos_site_id
 _symmetry_equiv_pos_as_xyz
  1  'x, y, z'
loop_
 _atom_site_type_symbol
 _atom_site_label
 _atom_site_symmetry_multiplicity
 _atom_site_fract_x
 _atom_site_fract_y
 _atom_site_fract_z
 _atom_site_occupancy
  Al  Al0  1  0.000000  0.000000  0.000000  1
  Si  Si1  1  0.500000  0.289546  0.710454  1
  Si  Si2  1  0.500000  0.710454  0.289546  1
  Tm  Tm3  1  0.788967  0.711033  0.711033  1
  Tm  Tm4  1  0.211033  0.288967  0.288967  1
