# generated using pymatgen
data_MoW(SeS)2
_symmetry_space_group_name_H-M   'P 1'
_cell_length_a   3.25397726
_cell_length_b   3.25395294
_cell_length_c   36.88467461
_cell_angle_alpha   89.99957424
_cell_angle_beta   89.99999081
_cell_angle_gamma   120.00025121
_symmetry_Int_Tables_number   1
_chemical_formula_structural   MoW(SeS)2
_chemical_formula_sum   'Mo2 W2 Se4 S4'
_cell_volume   338.22154582
_cell_formula_units_Z   2
loop_
 _symmetry_equiv_pos_site_id
 _symmetry_equiv_pos_as_xyz
  1  'x, y, z'
loop_
 _atom_site_type_symbol
 _atom_site_label
 _atom_site_symmetry_multiplicity
 _atom_site_fract_x
 _atom_site_fract_y
 _atom_site_fract_z
 _atom_site_occupancy
  Mo  Mo0  1  0.333309  0.666618  0.469663  1
  Mo  Mo1  1  0.666690  0.333380  0.281806  1
  W  W2  1  0.333309  0.666617  0.093919  1
  W  W3  1  0.666690  0.333381  0.657569  1
  Se  Se4  1  0.333351  0.666703  0.703900  1
  Se  Se5  1  0.666646  0.333292  0.423634  1
  Se  Se6  1  0.666647  0.333293  0.515649  1
  Se  Se7  1  0.333368  0.666737  0.611216  1
  S  S8  1  0.333352  0.666706  0.323681  1
  S  S9  1  0.666641  0.333281  0.051906  1
  S  S10  1  0.666644  0.333288  0.135921  1
  S  S11  1  0.333352  0.666705  0.239884  1
