# generated using pymatgen
data_Te2Mo2W(SeS)2
_symmetry_space_group_name_H-M   'P 1'
_cell_length_a   3.35201417
_cell_length_b   3.35204366
_cell_length_c   31.00676711
_cell_angle_alpha   89.99984305
_cell_angle_beta   90.00000000
_cell_angle_gamma   119.99970911
_symmetry_Int_Tables_number   1
_chemical_formula_structural   Te2Mo2W(SeS)2
_chemical_formula_sum   'Te2 Mo2 W1 Se2 S2'
_cell_volume   301.71986450
_cell_formula_units_Z   1
loop_
 _symmetry_equiv_pos_site_id
 _symmetry_equiv_pos_as_xyz
  1  'x, y, z'
loop_
 _atom_site_type_symbol
 _atom_site_label
 _atom_site_symmetry_multiplicity
 _atom_site_fract_x
 _atom_site_fract_y
 _atom_site_fract_z
 _atom_site_occupancy
  Te  Te0  1  0.666651  0.333301  0.516907  1
  Te  Te1  1  0.666645  0.333289  0.639795  1
  Mo  Mo2  1  0.333305  0.666610  0.115658  1
  Mo  Mo3  1  0.666691  0.333383  0.346926  1
  W  W4  1  0.333310  0.666621  0.578375  1
  Se  Se5  1  0.333351  0.666703  0.400654  1
  Se  Se6  1  0.333353  0.666707  0.293205  1
  S  S7  1  0.666648  0.333295  0.066775  1
  S  S8  1  0.666646  0.333292  0.164546  1
