# generated using pymatgen
data_ErCd2Cu
_symmetry_space_group_name_H-M   'P 1'
_cell_length_a   4.62766666
_cell_length_b   6.30990052
_cell_length_c   6.30990053
_cell_angle_alpha   113.09888842
_cell_angle_beta   90.00000000
_cell_angle_gamma   90.00000000
_symmetry_Int_Tables_number   1
_chemical_formula_structural   ErCd2Cu
_chemical_formula_sum   'Er2 Cd4 Cu2'
_cell_volume   169.47835607
_cell_formula_units_Z   2
loop_
 _symmetry_equiv_pos_site_id
 _symmetry_equiv_pos_as_xyz
  1  'x, y, z'
loop_
 _atom_site_type_symbol
 _atom_site_label
 _atom_site_symmetry_multiplicity
 _atom_site_fract_x
 _atom_site_fract_y
 _atom_site_fract_z
 _atom_site_occupancy
  Cu  Cu0  1  0.750000  0.679772  0.320228  1
  Cu  Cu1  1  0.250000  0.320228  0.679772  1
  Cd  Cd2  1  0.750000  0.196361  0.386959  1
  Cd  Cd3  1  0.250000  0.803639  0.613041  1
  Cd  Cd4  1  0.750000  0.613041  0.803639  1
  Cd  Cd5  1  0.250000  0.386959  0.196361  1
  Er  Er6  1  0.250000  0.859352  0.140648  1
  Er  Er7  1  0.750000  0.140648  0.859352  1
