# generated using pymatgen
data_SrNi2(PO4)2
_symmetry_space_group_name_H-M   'P 1'
_cell_length_a   5.51209342
_cell_length_b   6.88776023
_cell_length_c   9.26204259
_cell_angle_alpha   111.28777912
_cell_angle_beta   100.98888644
_cell_angle_gamma   98.11348985
_symmetry_Int_Tables_number   1
_chemical_formula_structural   SrNi2(PO4)2
_chemical_formula_sum   'Sr2 Ni4 P4 O16'
_cell_volume   313.02193115
_cell_formula_units_Z   2
loop_
 _symmetry_equiv_pos_site_id
 _symmetry_equiv_pos_as_xyz
  1  'x, y, z'
loop_
 _atom_site_type_symbol
 _atom_site_label
 _atom_site_symmetry_multiplicity
 _atom_site_fract_x
 _atom_site_fract_y
 _atom_site_fract_z
 _atom_site_occupancy
  O  O0  1  0.663160  0.453641  0.625531  1
  O  O1  1  0.336840  0.546359  0.374468  1
  O  O2  1  0.246772  0.009777  0.635584  1
  O  O3  1  0.753229  0.990223  0.364416  1
  O  O4  1  0.146498  0.482690  0.701813  1
  O  O5  1  0.853503  0.517310  0.298187  1
  O  O6  1  0.842917  0.200728  0.737114  1
  O  O7  1  0.157084  0.799272  0.262886  1
  O  O8  1  0.545041  0.880345  0.803135  1
  O  O9  1  0.454959  0.119655  0.196865  1
  O  O10  1  0.118699  0.404207  0.091372  1
  O  O11  1  0.881301  0.595793  0.908628  1
  O  O12  1  0.491986  0.744841  0.070407  1
  O  O13  1  0.121685  0.953637  0.869037  1
  O  O14  1  0.878315  0.046363  0.130963  1
  O  O15  1  0.508015  0.255159  0.929593  1
  P  P16  1  0.891670  0.428731  0.742147  1
  P  P17  1  0.108330  0.571269  0.257853  1
  P  P18  1  0.346581  0.026467  0.805726  1
  P  P19  1  0.653419  0.973533  0.194274  1
  Ni  Ni20  1  0.511762  0.603742  0.839538  1
  Ni  Ni21  1  0.141847  0.856245  0.061193  1
  Ni  Ni22  1  0.858153  0.143754  0.938806  1
  Ni  Ni23  1  0.488238  0.396259  0.160462  1
  Sr  Sr24  1  0.241083  0.199508  0.446858  1
  Sr  Sr25  1  0.758918  0.800491  0.553142  1
