# generated using pymatgen
data_Sr3GdRhO6
_symmetry_space_group_name_H-M   'P 1'
_cell_length_a   6.88334665
_cell_length_b   6.88334665
_cell_length_c   6.88334665
_cell_angle_alpha   91.94853168
_cell_angle_beta   91.94853168
_cell_angle_gamma   91.94853170
_symmetry_Int_Tables_number   1
_chemical_formula_structural   Sr3GdRhO6
_chemical_formula_sum   'Sr6 Gd2 Rh2 O12'
_cell_volume   325.55722669
_cell_formula_units_Z   2
loop_
 _symmetry_equiv_pos_site_id
 _symmetry_equiv_pos_as_xyz
  1  'x, y, z'
loop_
 _atom_site_type_symbol
 _atom_site_label
 _atom_site_symmetry_multiplicity
 _atom_site_fract_x
 _atom_site_fract_y
 _atom_site_fract_z
 _atom_site_occupancy
  O  O0  1  0.791763  0.587792  0.453686  1
  O  O1  1  0.587792  0.453686  0.791763  1
  O  O2  1  0.453686  0.791763  0.587792  1
  O  O3  1  0.046314  0.912208  0.708237  1
  O  O4  1  0.912208  0.708237  0.046314  1
  O  O5  1  0.708237  0.046314  0.912208  1
  O  O6  1  0.208237  0.412208  0.546314  1
  O  O7  1  0.412208  0.546314  0.208237  1
  O  O8  1  0.546314  0.208237  0.412208  1
  O  O9  1  0.953686  0.087792  0.291763  1
  O  O10  1  0.291763  0.953686  0.087792  1
  O  O11  1  0.087792  0.291763  0.953686  1
  Sr  Sr12  1  0.618901  0.881099  0.250000  1
  Sr  Sr13  1  0.250000  0.618901  0.881099  1
  Sr  Sr14  1  0.881099  0.250000  0.618901  1
  Sr  Sr15  1  0.381099  0.118901  0.750000  1
  Sr  Sr16  1  0.118901  0.750000  0.381099  1
  Sr  Sr17  1  0.750000  0.381099  0.118901  1
  Rh  Rh18  1  0.500000  0.500000  0.500000  1
  Rh  Rh19  1  0.000000  0.000000  0.000000  1
  Gd  Gd20  1  0.750000  0.750000  0.750000  1
  Gd  Gd21  1  0.250000  0.250000  0.250000  1
