# generated using pymatgen
data_EuBN2
_symmetry_space_group_name_H-M   'P 1'
_cell_length_a   7.02417900
_cell_length_b   7.33542626
_cell_length_c   7.33542638
_cell_angle_alpha   110.31473454
_cell_angle_beta   108.61393220
_cell_angle_gamma   108.61393251
_symmetry_Int_Tables_number   1
_chemical_formula_structural   EuBN2
_chemical_formula_sum   'Eu6 B6 N12'
_cell_volume   293.97491454
_cell_formula_units_Z   6
loop_
 _symmetry_equiv_pos_site_id
 _symmetry_equiv_pos_as_xyz
  1  'x, y, z'
loop_
 _atom_site_type_symbol
 _atom_site_label
 _atom_site_symmetry_multiplicity
 _atom_site_fract_x
 _atom_site_fract_y
 _atom_site_fract_z
 _atom_site_occupancy
  Eu  Eu0  1  0.300397  0.550397  0.100795  1
  Eu  Eu1  1  0.199603  0.899205  0.449603  1
  Eu  Eu2  1  0.750000  0.550397  0.449603  1
  Eu  Eu3  1  0.800397  0.100795  0.550397  1
  Eu  Eu4  1  0.250000  0.449603  0.550397  1
  Eu  Eu5  1  0.699603  0.449603  0.899205  1
  B  B6  1  0.628930  0.878930  0.757860  1
  B  B7  1  0.871070  0.242140  0.121070  1
  B  B8  1  0.750000  0.878930  0.121070  1
  B  B9  1  0.128930  0.757860  0.878930  1
  B  B10  1  0.250000  0.121070  0.878930  1
  B  B11  1  0.371070  0.121070  0.242140  1
  N  N12  1  0.873130  0.123130  0.246260  1
  N  N13  1  0.626870  0.753740  0.876870  1
  N  N14  1  0.750000  0.123130  0.876870  1
  N  N15  1  0.373130  0.246260  0.123130  1
  N  N16  1  0.250000  0.876870  0.123130  1
  N  N17  1  0.126870  0.876870  0.753740  1
  N  N18  1  0.507210  0.757210  0.514420  1
  N  N19  1  0.992790  0.485580  0.242790  1
  N  N20  1  0.750000  0.757210  0.242790  1
  N  N21  1  0.007210  0.514420  0.757210  1
  N  N22  1  0.250000  0.242790  0.757210  1
  N  N23  1  0.492790  0.242790  0.485580  1
