# generated using pymatgen
data_Li6Yb(BO3)3
_symmetry_space_group_name_H-M   'P 1'
_cell_length_a   6.67655919
_cell_length_b   7.28102821
_cell_length_c   16.62595428
_cell_angle_alpha   89.99982781
_cell_angle_beta   90.00010284
_cell_angle_gamma   104.67635399
_symmetry_Int_Tables_number   1
_chemical_formula_structural   Li6Yb(BO3)3
_chemical_formula_sum   'Li24 Yb4 B12 O36'
_cell_volume   781.85404957
_cell_formula_units_Z   4
loop_
 _symmetry_equiv_pos_site_id
 _symmetry_equiv_pos_as_xyz
  1  'x, y, z'
loop_
 _atom_site_type_symbol
 _atom_site_label
 _atom_site_symmetry_multiplicity
 _atom_site_fract_x
 _atom_site_fract_y
 _atom_site_fract_z
 _atom_site_occupancy
  Li  Li0  1  0.669942  0.545639  0.970605  1
  Li  Li1  1  0.830060  0.454361  0.470604  1
  Li  Li2  1  0.330058  0.454361  0.029395  1
  Li  Li3  1  0.169940  0.545639  0.529396  1
  Li  Li4  1  0.955247  0.431810  0.792637  1
  Li  Li5  1  0.544750  0.568184  0.292634  1
  Li  Li6  1  0.044753  0.568190  0.207363  1
  Li  Li7  1  0.455250  0.431816  0.707366  1
  Li  Li8  1  0.600966  0.139201  0.055534  1
  Li  Li9  1  0.899020  0.860783  0.555537  1
  Li  Li10  1  0.399034  0.860799  0.944466  1
  Li  Li11  1  0.100980  0.139217  0.444463  1
  Li  Li12  1  0.361161  0.722700  0.790941  1
  Li  Li13  1  0.138839  0.277306  0.290939  1
  Li  Li14  1  0.638839  0.277300  0.209059  1
  Li  Li15  1  0.861161  0.722694  0.709061  1
  Li  Li16  1  0.940358  0.296320  0.954011  1
  Li  Li17  1  0.559629  0.703668  0.454013  1
  Li  Li18  1  0.059642  0.703680  0.045989  1
  Li  Li19  1  0.440371  0.296332  0.545987  1
  Li  Li20  1  0.179334  0.076992  0.002334  1
  Li  Li21  1  0.320667  0.923001  0.502332  1
  Li  Li22  1  0.820666  0.923008  0.997666  1
  Li  Li23  1  0.679333  0.076999  0.497668  1
  B  B24  1  0.998509  0.287481  0.118640  1
  B  B25  1  0.501493  0.712520  0.618641  1
  B  B26  1  0.001491  0.712519  0.881360  1
  B  B27  1  0.498507  0.287480  0.381359  1
  B  B28  1  0.658476  0.078965  0.862990  1
  B  B29  1  0.841527  0.921034  0.362990  1
  B  B30  1  0.341524  0.921035  0.137010  1
  B  B31  1  0.158473  0.078966  0.637010  1
  B  B32  1  0.812304  0.440656  0.615031  1
  B  B33  1  0.687695  0.559343  0.115030  1
  B  B34  1  0.187696  0.559344  0.384969  1
  B  B35  1  0.312305  0.440657  0.884970  1
  O  O36  1  0.948228  0.129541  0.069124  1
  O  O37  1  0.551777  0.870457  0.569124  1
  O  O38  1  0.051772  0.870459  0.930876  1
  O  O39  1  0.448223  0.129543  0.430876  1
  O  O40  1  0.949757  0.262754  0.199509  1
  O  O41  1  0.550242  0.737246  0.699509  1
  O  O42  1  0.050243  0.737246  0.800491  1
  O  O43  1  0.449758  0.262754  0.300491  1
  O  O44  1  0.089859  0.464785  0.088813  1
  O  O45  1  0.410143  0.535217  0.588813  1
  O  O46  1  0.910141  0.535215  0.911187  1
  O  O47  1  0.589857  0.464783  0.411187  1
  O  O48  1  0.668901  0.079889  0.945840  1
  O  O49  1  0.831101  0.920110  0.445841  1
  O  O50  1  0.331099  0.920111  0.054160  1
  O  O51  1  0.168899  0.079890  0.554159  1
  O  O52  1  0.972353  0.996184  0.674025  1
  O  O53  1  0.527644  0.003814  0.174027  1
  O  O54  1  0.027647  0.003816  0.325975  1
  O  O55  1  0.472356  0.996186  0.825973  1
  O  O56  1  0.834222  0.155187  0.818610  1
  O  O57  1  0.665780  0.844811  0.318612  1
  O  O58  1  0.165778  0.844813  0.181390  1
  O  O59  1  0.334220  0.155189  0.681388  1
  O  O60  1  0.923652  0.604905  0.577599  1
  O  O61  1  0.576349  0.395093  0.077598  1
  O  O62  1  0.076348  0.395095  0.422401  1
  O  O63  1  0.423651  0.604907  0.922402  1
  O  O64  1  0.775518  0.428916  0.697008  1
  O  O65  1  0.724481  0.571084  0.197008  1
  O  O66  1  0.224482  0.571084  0.302992  1
  O  O67  1  0.275519  0.428916  0.802992  1
  O  O68  1  0.731524  0.281408  0.568393  1
  O  O69  1  0.768477  0.718595  0.068393  1
  O  O70  1  0.268476  0.718592  0.431607  1
  O  O71  1  0.231523  0.281405  0.931607  1
  Yb  Yb72  1  0.656191  0.081505  0.692483  1
  Yb  Yb73  1  0.843812  0.918497  0.192472  1
  Yb  Yb74  1  0.343809  0.918495  0.307517  1
  Yb  Yb75  1  0.156188  0.081503  0.807528  1
