# generated using pymatgen
data_Zn3SiNi2
_symmetry_space_group_name_H-M   'P 1'
_cell_length_a   7.58392262
_cell_length_b   7.58392262
_cell_length_c   7.58392262
_cell_angle_alpha   60.00000000
_cell_angle_beta   60.00000000
_cell_angle_gamma   60.00000002
_symmetry_Int_Tables_number   1
_chemical_formula_structural   Zn3SiNi2
_chemical_formula_sum   'Zn12 Si4 Ni8'
_cell_volume   308.43715019
_cell_formula_units_Z   4
loop_
 _symmetry_equiv_pos_site_id
 _symmetry_equiv_pos_as_xyz
  1  'x, y, z'
loop_
 _atom_site_type_symbol
 _atom_site_label
 _atom_site_symmetry_multiplicity
 _atom_site_fract_x
 _atom_site_fract_y
 _atom_site_fract_z
 _atom_site_occupancy
  Si  Si0  1  0.500000  0.000000  0.500000  1
  Si  Si1  1  0.500000  0.500000  0.000000  1
  Si  Si2  1  0.000000  0.500000  0.500000  1
  Si  Si3  1  0.500000  0.500000  0.500000  1
  Ni  Ni4  1  0.711252  0.711252  0.366243  1
  Ni  Ni5  1  0.288748  0.633757  0.288748  1
  Ni  Ni6  1  0.366243  0.711252  0.711252  1
  Ni  Ni7  1  0.288748  0.288748  0.288748  1
  Ni  Ni8  1  0.633757  0.288748  0.288748  1
  Ni  Ni9  1  0.288748  0.288748  0.633757  1
  Ni  Ni10  1  0.711252  0.366243  0.711252  1
  Ni  Ni11  1  0.711252  0.711252  0.711252  1
  Zn  Zn12  1  0.938267  0.311733  0.311733  1
  Zn  Zn13  1  0.311733  0.938267  0.311733  1
  Zn  Zn14  1  0.061733  0.688267  0.061733  1
  Zn  Zn15  1  0.061733  0.061733  0.688267  1
  Zn  Zn16  1  0.688267  0.688267  0.061733  1
  Zn  Zn17  1  0.688267  0.061733  0.688267  1
  Zn  Zn18  1  0.311733  0.938267  0.938267  1
  Zn  Zn19  1  0.061733  0.688267  0.688267  1
  Zn  Zn20  1  0.311733  0.311733  0.938267  1
  Zn  Zn21  1  0.938267  0.938267  0.311733  1
  Zn  Zn22  1  0.688267  0.061733  0.061733  1
  Zn  Zn23  1  0.938267  0.311733  0.938267  1
