# generated using pymatgen
data_Li5P(S2Cl)2
_symmetry_space_group_name_H-M   'P 1'
_cell_length_a   6.02392600
_cell_length_b   6.05015523
_cell_length_c   7.21209000
_cell_angle_alpha   90.00000000
_cell_angle_beta   90.00000000
_cell_angle_gamma   119.85669280
_symmetry_Int_Tables_number   1
_chemical_formula_structural   Li5P(S2Cl)2
_chemical_formula_sum   'Li5 P1 S4 Cl2'
_cell_volume   227.96241658
_cell_formula_units_Z   1
loop_
 _symmetry_equiv_pos_site_id
 _symmetry_equiv_pos_as_xyz
  1  'x, y, z'
loop_
 _atom_site_type_symbol
 _atom_site_label
 _atom_site_symmetry_multiplicity
 _atom_site_fract_x
 _atom_site_fract_y
 _atom_site_fract_z
 _atom_site_occupancy
  Li  Li0  1  0.302272  0.384944  0.754746  1
  Li  Li1  1  0.917328  0.615056  0.245254  1
  Li  Li2  1  0.302272  0.384944  0.245254  1
  Li  Li3  1  0.917328  0.615056  0.754746  1
  Li  Li4  1  0.624993  0.000000  0.500000  1
  P  P5  1  0.561186  0.000000  0.000000  1
  S  S6  1  0.921906  0.319540  0.000000  1
  S  S7  1  0.602366  0.680460  0.000000  1
  S  S8  1  0.362903  0.000000  0.766455  1
  S  S9  1  0.362903  0.000000  0.233545  1
  Cl  Cl10  1  0.682464  0.646572  0.500000  1
  Cl  Cl11  1  0.035892  0.353428  0.500000  1
