# generated using pymatgen
data_Ca(AlS2)2
_symmetry_space_group_name_H-M   'P 1'
_cell_length_a   11.75970595
_cell_length_b   11.75970595
_cell_length_c   11.85515447
_cell_angle_alpha   105.30574488
_cell_angle_beta   105.30574485
_cell_angle_gamma   117.88999067
_symmetry_Int_Tables_number   1
_chemical_formula_structural   Ca(AlS2)2
_chemical_formula_sum   'Ca8 Al16 S32'
_cell_volume   1244.94838880
_cell_formula_units_Z   8
loop_
 _symmetry_equiv_pos_site_id
 _symmetry_equiv_pos_as_xyz
  1  'x, y, z'
loop_
 _atom_site_type_symbol
 _atom_site_label
 _atom_site_symmetry_multiplicity
 _atom_site_fract_x
 _atom_site_fract_y
 _atom_site_fract_z
 _atom_site_occupancy
  Al  Al0  1  0.888637  0.865007  0.998879  1
  Al  Al1  1  0.866128  0.389758  0.501121  1
  Al  Al2  1  0.134993  0.111363  0.501121  1
  Al  Al3  1  0.610242  0.133872  0.998879  1
  Al  Al4  1  0.111363  0.134993  0.001121  1
  Al  Al5  1  0.133872  0.610242  0.498879  1
  Al  Al6  1  0.865007  0.888637  0.498879  1
  Al  Al7  1  0.389758  0.866128  0.001121  1
  Al  Al8  1  0.030892  0.638053  0.000292  1
  Al  Al9  1  0.637761  0.530600  0.499708  1
  Al  Al10  1  0.361947  0.969108  0.499708  1
  Al  Al11  1  0.469400  0.362239  0.000292  1
  Al  Al12  1  0.969108  0.361947  0.999708  1
  Al  Al13  1  0.362239  0.469400  0.500292  1
  Al  Al14  1  0.638053  0.030892  0.500292  1
  Al  Al15  1  0.530600  0.637761  0.999708  1
  S  S16  1  0.315060  0.156652  0.001834  1
  S  S17  1  0.154817  0.813226  0.498166  1
  S  S18  1  0.843348  0.684940  0.498166  1
  S  S19  1  0.186774  0.845183  0.001834  1
  S  S20  1  0.684940  0.843348  0.998166  1
  S  S21  1  0.845183  0.186774  0.501834  1
  S  S22  1  0.156652  0.315060  0.501834  1
  S  S23  1  0.813226  0.154817  0.998166  1
  S  S24  1  0.914577  0.415044  0.331988  1
  S  S25  1  0.083056  0.082589  0.168012  1
  S  S26  1  0.584956  0.085423  0.168012  1
  S  S27  1  0.917411  0.916944  0.331988  1
  S  S28  1  0.085423  0.584956  0.668012  1
  S  S29  1  0.916944  0.917411  0.831988  1
  S  S30  1  0.415044  0.914577  0.831988  1
  S  S31  1  0.082589  0.083056  0.668012  1
  S  S32  1  0.414508  0.414233  0.330801  1
  S  S33  1  0.083432  0.583707  0.169199  1
  S  S34  1  0.585767  0.585492  0.169199  1
  S  S35  1  0.416293  0.916568  0.330801  1
  S  S36  1  0.585492  0.585767  0.669199  1
  S  S37  1  0.916568  0.416293  0.830801  1
  S  S38  1  0.414233  0.414508  0.830801  1
  S  S39  1  0.583707  0.083432  0.669199  1
  S  S40  1  0.651044  0.340309  0.997970  1
  S  S41  1  0.342340  0.153075  0.502030  1
  S  S42  1  0.659691  0.348956  0.502030  1
  S  S43  1  0.846925  0.657660  0.997970  1
  S  S44  1  0.348956  0.659691  0.002030  1
  S  S45  1  0.657660  0.846925  0.497970  1
  S  S46  1  0.340309  0.651044  0.497970  1
  S  S47  1  0.153075  0.342340  0.002030  1
  Ca  Ca48  1  0.873198  0.623198  0.246396  1
  Ca  Ca49  1  0.376802  0.126802  0.253604  1
  Ca  Ca50  1  0.126802  0.376802  0.753604  1
  Ca  Ca51  1  0.623198  0.873198  0.746396  1
  Ca  Ca52  1  0.625000  0.375000  0.750000  1
  Ca  Ca53  1  0.375000  0.625000  0.250000  1
  Ca  Ca54  1  0.125000  0.875000  0.750000  1
  Ca  Ca55  1  0.875000  0.125000  0.250000  1
