# generated using pymatgen
data_BaTm2NiO5
_symmetry_space_group_name_H-M   'P 1'
_cell_length_a   3.77038422
_cell_length_b   5.74027907
_cell_length_c   6.60388842
_cell_angle_alpha   115.76070741
_cell_angle_beta   106.58676450
_cell_angle_gamma   89.99999999
_symmetry_Int_Tables_number   1
_chemical_formula_structural   BaTm2NiO5
_chemical_formula_sum   'Ba1 Tm2 Ni1 O5'
_cell_volume   122.08620709
_cell_formula_units_Z   1
loop_
 _symmetry_equiv_pos_site_id
 _symmetry_equiv_pos_as_xyz
  1  'x, y, z'
loop_
 _atom_site_type_symbol
 _atom_site_label
 _atom_site_symmetry_multiplicity
 _atom_site_fract_x
 _atom_site_fract_y
 _atom_site_fract_z
 _atom_site_occupancy
  O  O0  1  0.500001  1.000000  0.000001  1
  O  O1  1  0.151852  0.912393  0.303702  1
  O  O2  1  0.848150  0.087607  0.696299  1
  O  O3  1  0.848149  0.608693  0.696299  1
  O  O4  1  0.151850  0.391308  0.303700  1
  Ni  Ni5  1  0.000000  0.000000  0.000000  1
  Ba  Ba6  1  0.499999  0.500000  1.000000  1
  Tm  Tm7  1  0.296494  0.796494  0.592988  1
  Tm  Tm8  1  0.703505  0.203506  0.407013  1
