# generated using pymatgen
data_KBaNbS4
_symmetry_space_group_name_H-M   'P 1'
_cell_length_a   7.07453829
_cell_length_b   9.33424155
_cell_length_c   12.76918864
_cell_angle_alpha   90.00000000
_cell_angle_beta   90.00000000
_cell_angle_gamma   90.00000000
_symmetry_Int_Tables_number   1
_chemical_formula_structural   KBaNbS4
_chemical_formula_sum   'K4 Ba4 Nb4 S16'
_cell_volume   843.21910845
_cell_formula_units_Z   4
loop_
 _symmetry_equiv_pos_site_id
 _symmetry_equiv_pos_as_xyz
  1  'x, y, z'
loop_
 _atom_site_type_symbol
 _atom_site_label
 _atom_site_symmetry_multiplicity
 _atom_site_fract_x
 _atom_site_fract_y
 _atom_site_fract_z
 _atom_site_occupancy
  S  S0  1  0.250000  0.484182  0.082679  1
  S  S1  1  0.750000  0.515818  0.917321  1
  S  S2  1  0.250000  0.984182  0.417321  1
  S  S3  1  0.750000  0.015818  0.582679  1
  S  S4  1  0.009808  0.181047  0.841357  1
  S  S5  1  0.509808  0.818953  0.158643  1
  S  S6  1  0.490192  0.681047  0.658643  1
  S  S7  1  0.990192  0.318953  0.341357  1
  S  S8  1  0.990192  0.818953  0.158643  1
  S  S9  1  0.490192  0.181047  0.841357  1
  S  S10  1  0.509808  0.318953  0.341357  1
  S  S11  1  0.009808  0.681047  0.658643  1
  S  S12  1  0.750000  0.694167  0.405765  1
  S  S13  1  0.250000  0.305833  0.594235  1
  S  S14  1  0.750000  0.194167  0.094235  1
  S  S15  1  0.250000  0.805833  0.905765  1
  K  K16  1  0.250000  0.135583  0.074696  1
  K  K17  1  0.750000  0.864417  0.925304  1
  K  K18  1  0.250000  0.635583  0.425304  1
  K  K19  1  0.750000  0.364417  0.574696  1
  Nb  Nb20  1  0.250000  0.229252  0.423493  1
  Nb  Nb21  1  0.750000  0.270748  0.923493  1
  Nb  Nb22  1  0.750000  0.770748  0.576507  1
  Nb  Nb23  1  0.250000  0.729252  0.076507  1
  Ba  Ba24  1  0.750000  0.520513  0.176035  1
  Ba  Ba25  1  0.750000  0.020513  0.323965  1
  Ba  Ba26  1  0.250000  0.979487  0.676035  1
  Ba  Ba27  1  0.250000  0.479487  0.823965  1
