# generated using pymatgen
data_NaPr2IrO6
_symmetry_space_group_name_H-M   'P 1'
_cell_length_a   5.58127583
_cell_length_b   6.01083143
_cell_length_c   8.05752611
_cell_angle_alpha   90.00000000
_cell_angle_beta   90.82373735
_cell_angle_gamma   90.00000000
_symmetry_Int_Tables_number   1
_chemical_formula_structural   NaPr2IrO6
_chemical_formula_sum   'Na2 Pr4 Ir2 O12'
_cell_volume   270.28682184
_cell_formula_units_Z   2
loop_
 _symmetry_equiv_pos_site_id
 _symmetry_equiv_pos_as_xyz
  1  'x, y, z'
loop_
 _atom_site_type_symbol
 _atom_site_label
 _atom_site_symmetry_multiplicity
 _atom_site_fract_x
 _atom_site_fract_y
 _atom_site_fract_z
 _atom_site_occupancy
  O  O0  1  0.836235  0.719002  0.566400  1
  O  O1  1  0.663765  0.219002  0.933600  1
  O  O2  1  0.163765  0.280998  0.433600  1
  O  O3  1  0.336235  0.780998  0.066400  1
  O  O4  1  0.117959  0.047356  0.732469  1
  O  O5  1  0.382041  0.547356  0.767531  1
  O  O6  1  0.882041  0.952644  0.267531  1
  O  O7  1  0.617959  0.452644  0.232469  1
  O  O8  1  0.205390  0.325204  0.051735  1
  O  O9  1  0.294610  0.825204  0.448265  1
  O  O10  1  0.794610  0.674796  0.948265  1
  O  O11  1  0.705390  0.174796  0.551735  1
  Na  Na12  1  0.500000  0.500000  0.500000  1
  Na  Na13  1  0.000000  0.000000  0.000000  1
  Pr  Pr14  1  0.978898  0.426929  0.753224  1
  Pr  Pr15  1  0.478898  0.073071  0.253224  1
  Pr  Pr16  1  0.521102  0.926929  0.746776  1
  Pr  Pr17  1  0.021102  0.573071  0.246776  1
  Ir  Ir18  1  0.000000  0.000000  0.500000  1
  Ir  Ir19  1  0.500000  0.500000  0.000000  1
