# generated using pymatgen
data_BaYMn2O6
_symmetry_space_group_name_H-M   'P 1'
_cell_length_a   5.56233730
_cell_length_b   5.52575154
_cell_length_c   7.90961375
_cell_angle_alpha   90.74519580
_cell_angle_beta   90.00000000
_cell_angle_gamma   90.00000000
_symmetry_Int_Tables_number   1
_chemical_formula_structural   BaYMn2O6
_chemical_formula_sum   'Ba2 Y2 Mn4 O12'
_cell_volume   243.09006902
_cell_formula_units_Z   2
loop_
 _symmetry_equiv_pos_site_id
 _symmetry_equiv_pos_as_xyz
  1  'x, y, z'
loop_
 _atom_site_type_symbol
 _atom_site_label
 _atom_site_symmetry_multiplicity
 _atom_site_fract_x
 _atom_site_fract_y
 _atom_site_fract_z
 _atom_site_occupancy
  O  O0  1  0.517203  0.500000  0.500000  1
  O  O1  1  0.976076  0.999999  0.500000  1
  O  O2  1  0.207872  0.713359  0.238226  1
  O  O3  1  0.207872  0.286642  0.761775  1
  O  O4  1  0.285403  0.213383  0.238231  1
  O  O5  1  0.285403  0.786618  0.761768  1
  O  O6  1  0.711495  0.786899  0.201730  1
  O  O7  1  0.711495  0.213102  0.798268  1
  O  O8  1  0.056026  0.000000  0.000000  1
  O  O9  1  0.437326  0.499999  0.000000  1
  O  O10  1  0.781762  0.286866  0.201701  1
  O  O11  1  0.781762  0.713133  0.798299  1
  Mn  Mn12  1  0.498095  0.500948  0.242365  1
  Mn  Mn13  1  0.498095  0.499051  0.757634  1
  Mn  Mn14  1  0.995219  0.999041  0.757556  1
  Mn  Mn15  1  0.995219  0.000960  0.242444  1
  Y  Y16  1  0.479926  0.000000  0.000000  1
  Y  Y17  1  0.013426  0.499999  0.000000  1
  Ba  Ba18  1  0.000771  0.500000  0.500000  1
  Ba  Ba19  1  0.492555  0.999999  0.500000  1
