# generated using pymatgen
data_Na2Be4B4O11
_symmetry_space_group_name_H-M   'P 1'
_cell_length_a   8.90609583
_cell_length_b   15.36536025
_cell_length_c   12.86670616
_cell_angle_alpha   89.96464476
_cell_angle_beta   110.17089668
_cell_angle_gamma   89.98031901
_symmetry_Int_Tables_number   1
_chemical_formula_structural   Na2Be4B4O11
_chemical_formula_sum   'Na16 Be32 B32 O88'
_cell_volume   1652.75882402
_cell_formula_units_Z   8
loop_
 _symmetry_equiv_pos_site_id
 _symmetry_equiv_pos_as_xyz
  1  'x, y, z'
loop_
 _atom_site_type_symbol
 _atom_site_label
 _atom_site_symmetry_multiplicity
 _atom_site_fract_x
 _atom_site_fract_y
 _atom_site_fract_z
 _atom_site_occupancy
  Na  Na0  1  0.758079  0.896826  0.782304  1
  Na  Na1  1  0.607509  0.790449  0.270534  1
  Na  Na2  1  0.319464  0.288437  0.395023  1
  Na  Na3  1  0.756366  0.029262  0.311176  1
  Na  Na4  1  0.775506  0.432479  0.847594  1
  Na  Na5  1  0.172096  0.395240  0.900453  1
  Na  Na6  1  0.637531  0.653326  0.808430  1
  Na  Na7  1  0.283534  0.159527  0.858874  1
  Na  Na8  1  0.805256  0.489186  0.374882  1
  Na  Na9  1  0.126493  0.994337  0.304707  1
  Na  Na10  1  0.255099  0.754268  0.324821  1
  Na  Na11  1  0.668664  0.255992  0.343907  1
  Na  Na12  1  0.168441  0.532365  0.372948  1
  Na  Na13  1  0.653332  0.180977  0.846095  1
  Na  Na14  1  0.156391  0.930234  0.827655  1
  Na  Na15  1  0.268973  0.688504  0.820480  1
  Be  Be16  1  0.496918  0.304426  0.663534  1
  Be  Be17  1  0.254097  0.390108  0.159289  1
  Be  Be18  1  0.975486  0.132112  0.133854  1
  Be  Be19  1  0.987482  0.640610  0.141585  1
  Be  Be20  1  0.491968  0.130965  0.152169  1
  Be  Be21  1  0.004495  0.295906  0.660122  1
  Be  Be22  1  0.962856  0.631774  0.546273  1
  Be  Be23  1  0.754634  0.380057  0.155883  1
  Be  Be24  1  0.751733  0.555766  0.634007  1
  Be  Be25  1  0.449704  0.630195  0.531158  1
  Be  Be26  1  0.976950  0.803057  0.623410  1
  Be  Be27  1  0.262168  0.553747  0.644926  1
  Be  Be28  1  0.738618  0.887290  0.114837  1
  Be  Be29  1  0.481044  0.797395  0.619890  1
  Be  Be30  1  0.461059  0.299906  0.070304  1
  Be  Be31  1  0.473185  0.637368  0.124647  1
  Be  Be32  1  0.238175  0.045308  0.622201  1
  Be  Be33  1  0.935441  0.795856  0.022505  1
  Be  Be34  1  0.437030  0.805618  0.018323  1
  Be  Be35  1  0.946663  0.140897  0.538695  1
  Be  Be36  1  0.230807  0.884120  0.111676  1
  Be  Be37  1  0.958149  0.303023  0.055679  1
  Be  Be38  1  0.749657  0.047497  0.629868  1
  Be  Be39  1  0.462634  0.136870  0.556166  1
  Be  Be40  1  0.178428  0.547173  0.040164  1
  Be  Be41  1  0.184357  0.056216  0.033474  1
  Be  Be42  1  0.670531  0.054396  0.025946  1
  Be  Be43  1  0.193943  0.386368  0.557457  1
  Be  Be44  1  0.178305  0.881143  0.518160  1
  Be  Be45  1  0.675826  0.886747  0.513723  1
  Be  Be46  1  0.699403  0.383847  0.557374  1
  Be  Be47  1  0.693139  0.545506  0.047805  1
  B  B48  1  0.953713  0.085982  0.832860  1
  B  B49  1  0.470805  0.841568  0.818448  1
  B  B50  1  0.486183  0.431944  0.351994  1
  B  B51  1  0.965155  0.255135  0.853448  1
  B  B52  1  0.482134  0.468516  0.604810  1
  B  B53  1  0.431479  0.928870  0.322185  1
  B  B54  1  0.988820  0.466965  0.615448  1
  B  B55  1  0.449178  0.339900  0.862348  1
  B  B56  1  0.974134  0.175461  0.338989  1
  B  B57  1  0.962139  0.755099  0.825700  1
  B  B58  1  0.950374  0.676447  0.340892  1
  B  B59  1  0.970618  0.585211  0.839364  1
  B  B60  1  0.465502  0.509626  0.847573  1
  B  B61  1  0.934857  0.844890  0.321969  1
  B  B62  1  0.472385  0.468275  0.102452  1
  B  B63  1  0.465809  0.968231  0.085387  1
  B  B64  1  0.223389  0.217850  0.104523  1
  B  B65  1  0.980358  0.469456  0.116993  1
  B  B66  1  0.454553  0.099477  0.351700  1
  B  B67  1  0.727857  0.218161  0.606544  1
  B  B68  1  0.712958  0.718068  0.564098  1
  B  B69  1  0.474577  0.600099  0.328641  1
  B  B70  1  0.717419  0.218586  0.090819  1
  B  B71  1  0.986398  0.341537  0.355126  1
  B  B72  1  0.224250  0.218003  0.591666  1
  B  B73  1  0.205493  0.716703  0.064842  1
  B  B74  1  0.456742  0.010191  0.824371  1
  B  B75  1  0.707903  0.717381  0.072182  1
  B  B76  1  0.953443  0.968338  0.066258  1
  B  B77  1  0.465878  0.966227  0.580250  1
  B  B78  1  0.962418  0.968340  0.572495  1
  B  B79  1  0.216774  0.717078  0.574572  1
  O  O80  1  0.412605  0.290331  0.938798  1
  O  O81  1  0.571483  0.392929  0.627403  1
  O  O82  1  0.072961  0.389873  0.631983  1
  O  O83  1  0.932896  0.311805  0.925448  1
  O  O84  1  0.557612  0.390977  0.119561  1
  O  O85  1  0.617936  0.529293  0.915974  1
  O  O86  1  0.938609  0.618519  0.418241  1
  O  O87  1  0.375071  0.568516  0.771465  1
  O  O88  1  0.389999  0.817846  0.887777  1
  O  O89  1  0.396331  0.623244  0.399854  1
  O  O90  1  0.831267  0.898771  0.245336  1
  O  O91  1  0.493547  0.656035  0.251952  1
  O  O92  1  0.891086  0.153640  0.407390  1
  O  O93  1  0.063293  0.527887  0.915234  1
  O  O94  1  0.507713  0.784136  0.749736  1
  O  O95  1  0.881298  0.759990  0.332758  1
  O  O96  1  0.823869  0.562297  0.765417  1
  O  O97  1  0.082694  0.399737  0.429110  1
  O  O98  1  0.030853  0.654884  0.271268  1
  O  O99  1  0.879134  0.780409  0.892153  1
  O  O100  1  0.541966  0.889829  0.086051  1
  O  O101  1  0.053680  0.279039  0.790166  1
  O  O102  1  0.076099  0.217945  0.602646  1
  O  O103  1  0.057682  0.391134  0.119035  1
  O  O104  1  0.048573  0.257867  0.350772  1
  O  O105  1  0.590669  0.377597  0.428072  1
  O  O106  1  0.585729  0.217512  0.628969  1
  O  O107  1  0.302180  0.966617  0.557330  1
  O  O108  1  0.060139  0.546679  0.118007  1
  O  O109  1  0.899196  0.171012  0.841796  1
  O  O110  1  0.547397  0.546006  0.099492  1
  O  O111  1  0.801411  0.968990  0.558358  1
  O  O112  1  0.540205  0.515387  0.336241  1
  O  O113  1  0.335742  0.405426  0.289087  1
  O  O114  1  0.433349  0.153985  0.428743  1
  O  O115  1  0.400292  0.427691  0.853903  1
  O  O116  1  0.556828  0.043355  0.107009  1
  O  O117  1  0.081821  0.873524  0.388271  1
  O  O118  1  0.070549  0.216823  0.108015  1
  O  O119  1  0.031417  0.890956  0.063704  1
  O  O120  1  0.835122  0.363241  0.286746  1
  O  O121  1  0.065589  0.719236  0.088344  1
  O  O122  1  0.043162  0.044214  0.090885  1
  O  O123  1  0.545065  0.066904  0.903241  1
  O  O124  1  0.990063  0.811068  0.751369  1
  O  O125  1  0.317771  0.880150  0.243997  1
  O  O126  1  0.585572  0.217256  0.124815  1
  O  O127  1  0.576264  0.895067  0.384470  1
  O  O128  1  0.519608  0.306213  0.792025  1
  O  O129  1  0.549398  0.888685  0.586104  1
  O  O130  1  0.076240  0.718166  0.597883  1
  O  O131  1  0.102216  0.061462  0.902242  1
  O  O132  1  0.531406  0.125739  0.281741  1
  O  O133  1  0.986151  0.119493  0.260086  1
  O  O134  1  0.047195  0.891120  0.584839  1
  O  O135  1  0.390622  0.014416  0.341451  1
  O  O136  1  0.307729  0.032076  0.753597  1
  O  O137  1  0.321241  0.468291  0.590962  1
  O  O138  1  0.780897  0.795372  0.549025  1
  O  O139  1  0.823420  0.468920  0.113377  1
  O  O140  1  0.564699  0.716395  0.576824  1
  O  O141  1  0.788152  0.640097  0.076256  1
  O  O142  1  0.041094  0.045815  0.574434  1
  O  O143  1  0.552268  0.043008  0.599756  1
  O  O144  1  0.027162  0.670619  0.835863  1
  O  O145  1  0.552298  0.718642  0.072998  1
  O  O146  1  0.791941  0.969248  0.050231  1
  O  O147  1  0.276285  0.795102  0.053810  1
  O  O148  1  0.794225  0.141728  0.586252  1
  O  O149  1  0.521397  0.927891  0.816334  1
  O  O150  1  0.302894  0.969317  0.063630  1
  O  O151  1  0.778009  0.143261  0.061219  1
  O  O152  1  0.291706  0.638617  0.572480  1
  O  O153  1  0.794814  0.640692  0.571384  1
  O  O154  1  0.277356  0.638943  0.055752  1
  O  O155  1  0.824160  0.467911  0.590794  1
  O  O156  1  0.295388  0.141951  0.086879  1
  O  O157  1  0.792055  0.296441  0.086548  1
  O  O158  1  0.555361  0.545477  0.595320  1
  O  O159  1  0.066034  0.545384  0.616952  1
  O  O160  1  0.782231  0.795130  0.066378  1
  O  O161  1  0.285359  0.792617  0.554753  1
  O  O162  1  0.306971  0.295205  0.115502  1
  O  O163  1  0.309773  0.465861  0.086098  1
  O  O164  1  0.299700  0.140423  0.588324  1
  O  O165  1  0.853724  0.030712  0.757858  1
  O  O166  1  0.301352  0.296073  0.586462  1
  O  O167  1  0.804285  0.295655  0.600864  1
