# generated using pymatgen
data_TeMoWS3
_symmetry_space_group_name_H-M   'P 1'
_cell_length_a   3.27362920
_cell_length_b   3.27373309
_cell_length_c   37.23453826
_cell_angle_alpha   90.00002369
_cell_angle_beta   90.00000000
_cell_angle_gamma   119.99895025
_symmetry_Int_Tables_number   1
_chemical_formula_structural   TeMoWS3
_chemical_formula_sum   'Te2 Mo2 W2 S6'
_cell_volume   345.58425856
_cell_formula_units_Z   2
loop_
 _symmetry_equiv_pos_site_id
 _symmetry_equiv_pos_as_xyz
  1  'x, y, z'
loop_
 _atom_site_type_symbol
 _atom_site_label
 _atom_site_symmetry_multiplicity
 _atom_site_fract_x
 _atom_site_fract_y
 _atom_site_fract_z
 _atom_site_occupancy
  Te  Te0  1  0.333350  0.666701  0.333936  1
  Te  Te1  1  0.333375  0.666751  0.229655  1
  Mo  Mo2  1  0.333313  0.666625  0.093866  1
  Mo  Mo3  1  0.333292  0.666584  0.469721  1
  W  W4  1  0.666685  0.333371  0.281798  1
  W  W5  1  0.666688  0.333376  0.657534  1
  S  S6  1  0.333354  0.666708  0.699066  1
  S  S7  1  0.666651  0.333300  0.052549  1
  S  S8  1  0.666638  0.333276  0.428375  1
  S  S9  1  0.666650  0.333299  0.135223  1
  S  S10  1  0.666653  0.333304  0.511028  1
  S  S11  1  0.333351  0.666704  0.615996  1
