# generated using pymatgen
data_CsLaHgSe3
_symmetry_space_group_name_H-M   'P 1'
_cell_length_a   4.48917234
_cell_length_b   8.46324017
_cell_length_c   11.57093928
_cell_angle_alpha   90.00000000
_cell_angle_beta   90.00000000
_cell_angle_gamma   105.37978419
_symmetry_Int_Tables_number   1
_chemical_formula_structural   CsLaHgSe3
_chemical_formula_sum   'Cs2 La2 Hg2 Se6'
_cell_volume   423.87104368
_cell_formula_units_Z   2
loop_
 _symmetry_equiv_pos_site_id
 _symmetry_equiv_pos_as_xyz
  1  'x, y, z'
loop_
 _atom_site_type_symbol
 _atom_site_label
 _atom_site_symmetry_multiplicity
 _atom_site_fract_x
 _atom_site_fract_y
 _atom_site_fract_z
 _atom_site_occupancy
  Se  Se0  1  0.937452  0.874905  0.250000  1
  Se  Se1  1  0.062548  0.125095  0.750000  1
  Se  Se2  1  0.378877  0.757755  0.551511  1
  Se  Se3  1  0.378877  0.757755  0.948489  1
  Se  Se4  1  0.621123  0.242245  0.051511  1
  Se  Se5  1  0.621123  0.242245  0.448489  1
  Cs  Cs6  1  0.744559  0.489117  0.750000  1
  Cs  Cs7  1  0.255441  0.510883  0.250000  1
  La  La8  1  0.000000  0.000000  0.500000  1
  La  La9  1  0.000000  0.000000  0.000000  1
  Hg  Hg10  1  0.540827  0.081655  0.250000  1
  Hg  Hg11  1  0.459173  0.918345  0.750000  1
