# generated using pymatgen
data_KSm2CuS4
_symmetry_space_group_name_H-M   'P 1'
_cell_length_a   4.03038116
_cell_length_b   7.17603845
_cell_length_c   13.92419206
_cell_angle_alpha   90.00000000
_cell_angle_beta   90.00000000
_cell_angle_gamma   106.30927959
_symmetry_Int_Tables_number   1
_chemical_formula_structural   KSm2CuS4
_chemical_formula_sum   'K2 Sm4 Cu2 S8'
_cell_volume   386.51241447
_cell_formula_units_Z   2
loop_
 _symmetry_equiv_pos_site_id
 _symmetry_equiv_pos_as_xyz
  1  'x, y, z'
loop_
 _atom_site_type_symbol
 _atom_site_label
 _atom_site_symmetry_multiplicity
 _atom_site_fract_x
 _atom_site_fract_y
 _atom_site_fract_z
 _atom_site_occupancy
  S  S0  1  0.000000  0.000000  0.500000  1
  S  S1  1  0.000000  0.000000  0.000000  1
  S  S2  1  0.262790  0.525579  0.113673  1
  S  S3  1  0.737210  0.474421  0.886327  1
  S  S4  1  0.430522  0.861043  0.750000  1
  S  S5  1  0.262790  0.525579  0.386327  1
  S  S6  1  0.569478  0.138957  0.250000  1
  S  S7  1  0.737210  0.474421  0.613673  1
  K  K8  1  0.891653  0.783306  0.250000  1
  K  K9  1  0.108347  0.216694  0.750000  1
  Cu  Cu10  1  0.837833  0.675667  0.750000  1
  Cu  Cu11  1  0.162167  0.324333  0.250000  1
  Sm  Sm12  1  0.365527  0.731054  0.937188  1
  Sm  Sm13  1  0.634473  0.268946  0.437188  1
  Sm  Sm14  1  0.365527  0.731054  0.562812  1
  Sm  Sm15  1  0.634473  0.268946  0.062812  1
