# generated using pymatgen
data_MoW3(SeS)4
_symmetry_space_group_name_H-M   'P 1'
_cell_length_a   3.25326877
_cell_length_b   3.25317727
_cell_length_c   40.14898818
_cell_angle_alpha   89.99926135
_cell_angle_beta   90.00000000
_cell_angle_gamma   120.00093029
_symmetry_Int_Tables_number   1
_chemical_formula_structural   MoW3(SeS)4
_chemical_formula_sum   'Mo1 W3 Se4 S4'
_cell_volume   367.98391782
_cell_formula_units_Z   1
loop_
 _symmetry_equiv_pos_site_id
 _symmetry_equiv_pos_as_xyz
  1  'x, y, z'
loop_
 _atom_site_type_symbol
 _atom_site_label
 _atom_site_symmetry_multiplicity
 _atom_site_fract_x
 _atom_site_fract_y
 _atom_site_fract_z
 _atom_site_occupancy
  Mo  Mo0  1  0.333307  0.666615  0.093476  1
  W  W1  1  0.333308  0.666615  0.469591  1
  W  W2  1  0.666690  0.333381  0.281880  1
  W  W3  1  0.666696  0.333392  0.657950  1
  Se  Se4  1  0.333345  0.666692  0.324436  1
  Se  Se5  1  0.666653  0.333306  0.051211  1
  Se  Se6  1  0.666647  0.333293  0.135744  1
  Se  Se7  1  0.333352  0.666705  0.239351  1
  S  S8  1  0.333355  0.666711  0.696629  1
  S  S9  1  0.666651  0.333302  0.430955  1
  S  S10  1  0.666636  0.333271  0.508222  1
  S  S11  1  0.333359  0.666719  0.619302  1
