# generated using pymatgen
data_Te6Mo3WSe2
_symmetry_space_group_name_H-M   'P 1'
_cell_length_a   3.49832700
_cell_length_b   3.49831197
_cell_length_c   39.56459815
_cell_angle_alpha   90.00023368
_cell_angle_beta   90.00000000
_cell_angle_gamma   120.00014210
_symmetry_Int_Tables_number   1
_chemical_formula_structural   Te6Mo3WSe2
_chemical_formula_sum   'Te6 Mo3 W1 Se2'
_cell_volume   419.32978086
_cell_formula_units_Z   1
loop_
 _symmetry_equiv_pos_site_id
 _symmetry_equiv_pos_as_xyz
  1  'x, y, z'
loop_
 _atom_site_type_symbol
 _atom_site_label
 _atom_site_symmetry_multiplicity
 _atom_site_fract_x
 _atom_site_fract_y
 _atom_site_fract_z
 _atom_site_occupancy
  Te  Te0  1  0.333354  0.666708  0.703854  1
  Te  Te1  1  0.666643  0.333285  0.047616  1
  Te  Te2  1  0.666635  0.333270  0.423062  1
  Te  Te3  1  0.666649  0.333296  0.140247  1
  Te  Te4  1  0.666649  0.333297  0.516222  1
  Te  Te5  1  0.333353  0.666708  0.611237  1
  Mo  Mo6  1  0.333308  0.666617  0.093921  1
  Mo  Mo7  1  0.666689  0.333377  0.281796  1
  Mo  Mo8  1  0.666690  0.333380  0.657570  1
  W  W9  1  0.333311  0.666622  0.469650  1
  Se  Se10  1  0.333369  0.666739  0.322663  1
  Se  Se11  1  0.333350  0.666702  0.240912  1
