# generated using pymatgen
data_Y(PO3)3
_symmetry_space_group_name_H-M   'P 1'
_cell_length_a   14.32198302
_cell_length_b   20.31421598
_cell_length_c   10.25497245
_cell_angle_alpha   90.00000000
_cell_angle_beta   127.39641265
_cell_angle_gamma   90.00000000
_symmetry_Int_Tables_number   1
_chemical_formula_structural   Y(PO3)3
_chemical_formula_sum   'Y12 P36 O108'
_cell_volume   2370.31319607
_cell_formula_units_Z   12
loop_
 _symmetry_equiv_pos_site_id
 _symmetry_equiv_pos_as_xyz
  1  'x, y, z'
loop_
 _atom_site_type_symbol
 _atom_site_label
 _atom_site_symmetry_multiplicity
 _atom_site_fract_x
 _atom_site_fract_y
 _atom_site_fract_z
 _atom_site_occupancy
  Y  Y0  1  0.502541  0.176760  0.028466  1
  Y  Y1  1  0.497459  0.676760  0.471534  1
  Y  Y2  1  0.497459  0.823240  0.971534  1
  Y  Y3  1  0.502541  0.323240  0.528466  1
  Y  Y4  1  0.000028  0.654580  0.982387  1
  Y  Y5  1  -0.000028  0.154580  0.517613  1
  Y  Y6  1  -0.000028  0.345420  0.017613  1
  Y  Y7  1  0.000028  0.845420  0.482387  1
  Y  Y8  1  0.500000  0.000000  0.500000  1
  Y  Y9  1  0.500000  0.500000  0.000000  1
  Y  Y10  1  0.000000  0.000000  0.000000  1
  Y  Y11  1  0.000000  0.500000  0.500000  1
  P  P12  1  0.270247  0.551617  0.239431  1
  P  P13  1  0.729753  0.051617  0.260569  1
  P  P14  1  0.729753  0.448383  0.760569  1
  P  P15  1  0.270247  0.948383  0.739431  1
  P  P16  1  0.821541  0.541148  0.639037  1
  P  P17  1  0.178459  0.041148  0.860963  1
  P  P18  1  0.178459  0.458852  0.360963  1
  P  P19  1  0.821541  0.958852  0.139037  1
  P  P20  1  0.346320  0.375376  0.668726  1
  P  P21  1  0.653680  0.875376  0.831274  1
  P  P22  1  0.653680  0.624624  0.331274  1
  P  P23  1  0.346320  0.124624  0.168726  1
  P  P24  1  0.238507  0.273420  0.747256  1
  P  P25  1  0.761493  0.773420  0.752744  1
  P  P26  1  0.761493  0.726580  0.252744  1
  P  P27  1  0.238507  0.226580  0.247256  1
  P  P28  1  0.146477  0.117185  0.338818  1
  P  P29  1  0.853523  0.617185  0.161182  1
  P  P30  1  0.853523  0.882815  0.661182  1
  P  P31  1  0.146477  0.382815  0.838818  1
  P  P32  1  0.360348  0.065372  0.669085  1
  P  P33  1  0.639652  0.565372  0.830915  1
  P  P34  1  0.639652  0.934628  0.330915  1
  P  P35  1  0.360348  0.434628  0.169085  1
  P  P36  1  0.676372  0.208591  0.873907  1
  P  P37  1  0.323628  0.708591  0.626093  1
  P  P38  1  0.323628  0.791409  0.126093  1
  P  P39  1  0.676372  0.291409  0.373907  1
  P  P40  1  0.133662  0.778297  0.310190  1
  P  P41  1  0.866338  0.278297  0.189810  1
  P  P42  1  0.866338  0.221703  0.689810  1
  P  P43  1  0.133662  0.721703  0.810190  1
  P  P44  1  0.246512  0.888478  0.268135  1
  P  P45  1  0.753488  0.388478  0.231865  1
  P  P46  1  0.753488  0.111522  0.731865  1
  P  P47  1  0.246512  0.611522  0.768135  1
  O  O48  1  0.384624  0.587842  0.336107  1
  O  O49  1  0.615376  0.087842  0.163893  1
  O  O50  1  0.615376  0.412158  0.663893  1
  O  O51  1  0.384624  0.912158  0.836107  1
  O  O52  1  0.159583  0.589671  0.121803  1
  O  O53  1  0.840417  0.089671  0.378197  1
  O  O54  1  0.840417  0.410329  0.878197  1
  O  O55  1  0.159583  0.910329  0.621803  1
  O  O56  1  0.884619  0.513435  0.577115  1
  O  O57  1  0.115381  0.013435  0.922885  1
  O  O58  1  0.115381  0.486565  0.422885  1
  O  O59  1  0.884619  0.986565  0.077115  1
  O  O60  1  0.892319  0.572496  0.805212  1
  O  O61  1  0.107681  0.072496  0.694788  1
  O  O62  1  0.107681  0.427504  0.194788  1
  O  O63  1  0.892319  0.927504  0.305212  1
  O  O64  1  0.379960  0.425498  0.797834  1
  O  O65  1  0.620040  0.925498  0.702166  1
  O  O66  1  0.620040  0.574502  0.202166  1
  O  O67  1  0.379960  0.074502  0.297834  1
  O  O68  1  0.441360  0.335362  0.686444  1
  O  O69  1  0.558640  0.835362  0.813556  1
  O  O70  1  0.558640  0.664638  0.313556  1
  O  O71  1  0.441360  0.164638  0.186444  1
  O  O72  1  0.360774  0.257372  0.896899  1
  O  O73  1  0.639226  0.757372  0.603101  1
  O  O74  1  0.639226  0.742628  0.103101  1
  O  O75  1  0.360774  0.242628  0.396899  1
  O  O76  1  0.163044  0.217420  0.639326  1
  O  O77  1  0.836956  0.717420  0.860674  1
  O  O78  1  0.836956  0.782580  0.360674  1
  O  O79  1  0.163044  0.282580  0.139326  1
  O  O80  1  0.124591  0.067776  0.214450  1
  O  O81  1  0.875409  0.567776  0.285550  1
  O  O82  1  0.875409  0.932224  0.785550  1
  O  O83  1  0.124591  0.432224  0.714450  1
  O  O84  1  0.055356  0.121147  0.366373  1
  O  O85  1  0.944644  0.621147  0.133627  1
  O  O86  1  0.944644  0.878853  0.633627  1
  O  O87  1  0.055356  0.378853  0.866373  1
  O  O88  1  0.393033  0.104464  0.815302  1
  O  O89  1  0.606967  0.604464  0.684698  1
  O  O90  1  0.606967  0.895536  0.184698  1
  O  O91  1  0.393033  0.395536  0.315302  1
  O  O92  1  0.456664  0.040160  0.664070  1
  O  O93  1  0.543336  0.540160  0.835930  1
  O  O94  1  0.543336  0.959840  0.335930  1
  O  O95  1  0.456664  0.459840  0.164070  1
  O  O96  1  0.737385  0.485300  0.628240  1
  O  O97  1  0.262615  0.985300  0.871760  1
  O  O98  1  0.262615  0.514700  0.371760  1
  O  O99  1  0.737385  0.014700  0.128240  1
  O  O100  1  0.724015  0.593116  0.511072  1
  O  O101  1  0.275985  0.093116  0.988928  1
  O  O102  1  0.275985  0.406884  0.488928  1
  O  O103  1  0.724015  0.906884  0.011072  1
  O  O104  1  0.244411  0.327554  0.637796  1
  O  O105  1  0.755589  0.827554  0.862204  1
  O  O106  1  0.755589  0.672446  0.362204  1
  O  O107  1  0.244411  0.172446  0.137796  1
  O  O108  1  0.161936  0.189850  0.292549  1
  O  O109  1  0.838064  0.689850  0.207451  1
  O  O110  1  0.838064  0.810150  0.707451  1
  O  O111  1  0.161936  0.310150  0.792549  1
  O  O112  1  0.275466  0.108911  0.507939  1
  O  O113  1  0.724534  0.608911  0.992061  1
  O  O114  1  0.724534  0.891089  0.492061  1
  O  O115  1  0.275466  0.391089  0.007939  1
  O  O116  1  0.272337  0.493680  0.134435  1
  O  O117  1  0.727663  0.993680  0.365565  1
  O  O118  1  0.727663  0.506320  0.865565  1
  O  O119  1  0.272337  0.006320  0.634435  1
  O  O120  1  0.596859  0.193117  0.918612  1
  O  O121  1  0.403141  0.693117  0.581388  1
  O  O122  1  0.403141  0.806883  0.081388  1
  O  O123  1  0.596859  0.306883  0.418612  1
  O  O124  1  0.635163  0.256651  0.737942  1
  O  O125  1  0.364837  0.756651  0.762058  1
  O  O126  1  0.364837  0.743349  0.262058  1
  O  O127  1  0.635163  0.243349  0.237942  1
  O  O128  1  0.094639  0.740519  0.159288  1
  O  O129  1  0.905361  0.240519  0.340712  1
  O  O130  1  0.905361  0.259481  0.840712  1
  O  O131  1  0.094639  0.759481  0.659288  1
  O  O132  1  0.043152  0.814951  0.311329  1
  O  O133  1  0.956848  0.314951  0.188671  1
  O  O134  1  0.956848  0.185049  0.688671  1
  O  O135  1  0.043152  0.685049  0.811329  1
  O  O136  1  0.344500  0.932147  0.396162  1
  O  O137  1  0.655500  0.432147  0.103838  1
  O  O138  1  0.655500  0.067853  0.603838  1
  O  O139  1  0.344500  0.567853  0.896162  1
  O  O140  1  0.125011  0.916212  0.151697  1
  O  O141  1  0.874989  0.416212  0.348303  1
  O  O142  1  0.874989  0.083788  0.848303  1
  O  O143  1  0.125011  0.583788  0.651697  1
  O  O144  1  0.802844  0.229465  0.036027  1
  O  O145  1  0.197156  0.729465  0.463973  1
  O  O146  1  0.197156  0.770535  0.963973  1
  O  O147  1  0.802844  0.270535  0.536027  1
  O  O148  1  0.241627  0.826462  0.362173  1
  O  O149  1  0.758373  0.326462  0.137827  1
  O  O150  1  0.758373  0.173538  0.637827  1
  O  O151  1  0.241627  0.673538  0.862173  1
  O  O152  1  0.713353  0.140940  0.836649  1
  O  O153  1  0.286647  0.640940  0.663351  1
  O  O154  1  0.286647  0.859060  0.163351  1
  O  O155  1  0.713353  0.359060  0.336649  1
