# generated using pymatgen
data_Sr2BN2F
_symmetry_space_group_name_H-M   'P 1'
_cell_length_a   3.93708053
_cell_length_b   9.93011586
_cell_length_c   10.30454153
_cell_angle_alpha   90.00000000
_cell_angle_beta   90.00000000
_cell_angle_gamma   90.00000000
_symmetry_Int_Tables_number   1
_chemical_formula_structural   Sr2BN2F
_chemical_formula_sum   'Sr8 B4 N8 F4'
_cell_volume   402.86291201
_cell_formula_units_Z   4
loop_
 _symmetry_equiv_pos_site_id
 _symmetry_equiv_pos_as_xyz
  1  'x, y, z'
loop_
 _atom_site_type_symbol
 _atom_site_label
 _atom_site_symmetry_multiplicity
 _atom_site_fract_x
 _atom_site_fract_y
 _atom_site_fract_z
 _atom_site_occupancy
  B  B0  1  0.250000  0.729315  0.672997  1
  B  B1  1  0.750000  0.270685  0.327003  1
  B  B2  1  0.250000  0.229315  0.827003  1
  B  B3  1  0.750000  0.770685  0.172997  1
  N  N4  1  0.250000  0.648212  0.566817  1
  N  N5  1  0.750000  0.351788  0.433183  1
  N  N6  1  0.250000  0.148212  0.933183  1
  N  N7  1  0.750000  0.183743  0.227862  1
  N  N8  1  0.250000  0.316257  0.727862  1
  N  N9  1  0.750000  0.683743  0.272138  1
  N  N10  1  0.250000  0.816257  0.772138  1
  N  N11  1  0.750000  0.851788  0.066818  1
  F  F12  1  0.750000  0.545588  0.898240  1
  F  F13  1  0.750000  0.045588  0.601760  1
  F  F14  1  0.250000  0.454412  0.101760  1
  F  F15  1  0.250000  0.954412  0.398240  1
  Sr  Sr16  1  0.250000  0.677418  0.979436  1
  Sr  Sr17  1  0.750000  0.822582  0.479436  1
  Sr  Sr18  1  0.250000  0.177418  0.520564  1
  Sr  Sr19  1  0.750000  0.322582  0.020564  1
  Sr  Sr20  1  0.250000  0.527577  0.338873  1
  Sr  Sr21  1  0.750000  0.472423  0.661127  1
  Sr  Sr22  1  0.250000  0.027577  0.161127  1
  Sr  Sr23  1  0.750000  0.972423  0.838873  1
