# generated using pymatgen
data_La5Si3
_symmetry_space_group_name_H-M   'P 1'
_cell_length_a   8.01844380
_cell_length_b   8.01844380
_cell_length_c   8.95909690
_cell_angle_alpha   116.58358547
_cell_angle_beta   116.58358547
_cell_angle_gamma   90.00000000
_symmetry_Int_Tables_number   1
_chemical_formula_structural   La5Si3
_chemical_formula_sum   'La10 Si6'
_cell_volume   445.99767568
_cell_formula_units_Z   2
loop_
 _symmetry_equiv_pos_site_id
 _symmetry_equiv_pos_as_xyz
  1  'x, y, z'
loop_
 _atom_site_type_symbol
 _atom_site_label
 _atom_site_symmetry_multiplicity
 _atom_site_fract_x
 _atom_site_fract_y
 _atom_site_fract_z
 _atom_site_occupancy
  Si  Si0  1  0.612928  0.112928  0.000000  1
  Si  Si1  1  0.887072  0.612928  0.000000  1
  Si  Si2  1  0.112928  0.387072  0.000000  1
  Si  Si3  1  0.387072  0.887072  0.000000  1
  Si  Si4  1  0.750000  0.750000  0.500000  1
  Si  Si5  1  0.250000  0.250000  0.500000  1
  La  La6  1  0.174030  0.031491  0.705521  1
  La  La7  1  0.031491  0.531491  0.705521  1
  La  La8  1  0.674030  0.174030  0.705521  1
  La  La9  1  0.968509  0.468509  0.294479  1
  La  La10  1  0.531491  0.674030  0.705521  1
  La  La11  1  0.825970  0.968509  0.294479  1
  La  La12  1  0.468509  0.325970  0.294479  1
  La  La13  1  0.325970  0.825970  0.294479  1
  La  La14  1  0.500000  0.500000  0.000000  1
  La  La15  1  0.000000  0.000000  0.000000  1
