# generated using pymatgen
data_Pr4Si2S3O7
_symmetry_space_group_name_H-M   'P 1'
_cell_length_a   11.16533173
_cell_length_b   11.16533172
_cell_length_c   11.16533172
_cell_angle_alpha   100.13816787
_cell_angle_beta   114.32982579
_cell_angle_gamma   114.32982572
_symmetry_Int_Tables_number   1
_chemical_formula_structural   Pr4Si2S3O7
_chemical_formula_sum   'Pr16 Si8 S12 O28'
_cell_volume   1050.68662316
_cell_formula_units_Z   4
loop_
 _symmetry_equiv_pos_site_id
 _symmetry_equiv_pos_as_xyz
  1  'x, y, z'
loop_
 _atom_site_type_symbol
 _atom_site_label
 _atom_site_symmetry_multiplicity
 _atom_site_fract_x
 _atom_site_fract_y
 _atom_site_fract_z
 _atom_site_occupancy
  O  O0  1  0.250000  0.395763  0.145763  1
  O  O1  1  0.750000  0.145763  0.395763  1
  O  O2  1  0.750000  0.604237  0.854237  1
  O  O3  1  0.250000  0.854237  0.604237  1
  O  O4  1  0.023843  0.825300  0.349143  1
  O  O5  1  0.476157  0.825300  0.801457  1
  O  O6  1  0.476157  0.650857  0.174700  1
  O  O7  1  0.976157  0.801457  0.825300  1
  O  O8  1  0.523843  0.349143  0.825300  1
  O  O9  1  0.523843  0.174700  0.198543  1
  O  O10  1  0.976157  0.174700  0.650857  1
  O  O11  1  0.023843  0.198543  0.174700  1
  O  O12  1  0.772034  0.925269  0.434358  1
  O  O13  1  0.727966  0.162323  0.153234  1
  O  O14  1  0.727966  0.565642  0.074731  1
  O  O15  1  0.990911  0.153234  0.925269  1
  O  O16  1  0.509089  0.434358  0.162323  1
  O  O17  1  0.509089  0.074731  0.846766  1
  O  O18  1  0.990911  0.837677  0.565642  1
  O  O19  1  0.772034  0.846766  0.837677  1
  O  O20  1  0.227965  0.074731  0.565642  1
  O  O21  1  0.272035  0.837677  0.846766  1
  O  O22  1  0.272035  0.434358  0.925269  1
  O  O23  1  0.009089  0.846766  0.074731  1
  O  O24  1  0.490911  0.565642  0.837677  1
  O  O25  1  0.490911  0.925269  0.153234  1
  O  O26  1  0.009089  0.162323  0.434358  1
  O  O27  1  0.227965  0.153234  0.162323  1
  Si  Si28  1  0.374017  0.902282  0.776299  1
  Si  Si29  1  0.125983  0.902282  0.528265  1
  Si  Si30  1  0.125983  0.223701  0.097718  1
  Si  Si31  1  0.625983  0.528265  0.902282  1
  Si  Si32  1  0.874017  0.776299  0.902282  1
  Si  Si33  1  0.874017  0.097718  0.471735  1
  Si  Si34  1  0.625983  0.097718  0.223701  1
  Si  Si35  1  0.374017  0.471735  0.097718  1
  S  S36  1  0.250000  0.125000  0.875000  1
  S  S37  1  0.750000  0.875000  0.125000  1
  S  S38  1  0.750000  0.375000  0.625000  1
  S  S39  1  0.250000  0.625000  0.375000  1
  S  S40  1  0.850974  0.500000  0.350974  1
  S  S41  1  0.850974  0.350974  0.000000  1
  S  S42  1  0.649026  0.649026  0.500000  1
  S  S43  1  0.649026  0.000000  0.649026  1
  S  S44  1  0.149026  0.500000  0.649026  1
  S  S45  1  0.149026  0.649026  0.000000  1
  S  S46  1  0.350974  0.350974  0.500000  1
  S  S47  1  0.350974  0.000000  0.350974  1
  Pr  Pr48  1  0.092647  0.046323  0.296323  1
  Pr  Pr49  1  0.250000  0.296323  0.703677  1
  Pr  Pr50  1  0.250000  0.953677  0.046323  1
  Pr  Pr51  1  0.407353  0.703677  0.953677  1
  Pr  Pr52  1  0.907353  0.953677  0.703677  1
  Pr  Pr53  1  0.750000  0.703677  0.296323  1
  Pr  Pr54  1  0.750000  0.046323  0.953677  1
  Pr  Pr55  1  0.592647  0.296323  0.046323  1
  Pr  Pr56  1  0.013009  0.656674  0.169683  1
  Pr  Pr57  1  0.486991  0.656674  0.643666  1
  Pr  Pr58  1  0.486991  0.830317  0.343326  1
  Pr  Pr59  1  0.986991  0.643666  0.656674  1
  Pr  Pr60  1  0.513009  0.169683  0.656674  1
  Pr  Pr61  1  0.513009  0.343326  0.356334  1
  Pr  Pr62  1  0.986991  0.343326  0.830317  1
  Pr  Pr63  1  0.013009  0.356334  0.343326  1
