# generated using pymatgen
data_Sr3DyRhO6
_symmetry_space_group_name_H-M   'P 1'
_cell_length_a   6.86007872
_cell_length_b   6.86007872
_cell_length_c   6.86007871
_cell_angle_alpha   92.14819831
_cell_angle_beta   92.14819829
_cell_angle_gamma   92.14819833
_symmetry_Int_Tables_number   1
_chemical_formula_structural   Sr3DyRhO6
_chemical_formula_sum   'Sr6 Dy2 Rh2 O12'
_cell_volume   322.14178852
_cell_formula_units_Z   2
loop_
 _symmetry_equiv_pos_site_id
 _symmetry_equiv_pos_as_xyz
  1  'x, y, z'
loop_
 _atom_site_type_symbol
 _atom_site_label
 _atom_site_symmetry_multiplicity
 _atom_site_fract_x
 _atom_site_fract_y
 _atom_site_fract_z
 _atom_site_occupancy
  O  O0  1  0.792141  0.590462  0.456369  1
  O  O1  1  0.590462  0.456369  0.792141  1
  O  O2  1  0.456369  0.792141  0.590462  1
  O  O3  1  0.043631  0.909538  0.707859  1
  O  O4  1  0.909538  0.707859  0.043631  1
  O  O5  1  0.707859  0.043631  0.909538  1
  O  O6  1  0.207859  0.409538  0.543631  1
  O  O7  1  0.409538  0.543631  0.207859  1
  O  O8  1  0.543631  0.207859  0.409538  1
  O  O9  1  0.956369  0.090462  0.292141  1
  O  O10  1  0.292141  0.956369  0.090462  1
  O  O11  1  0.090462  0.292141  0.956369  1
  Sr  Sr12  1  0.618744  0.881256  0.250000  1
  Sr  Sr13  1  0.250000  0.618744  0.881256  1
  Sr  Sr14  1  0.881256  0.250000  0.618744  1
  Sr  Sr15  1  0.381256  0.118744  0.750000  1
  Sr  Sr16  1  0.118744  0.750000  0.381256  1
  Sr  Sr17  1  0.750000  0.381256  0.118744  1
  Rh  Rh18  1  0.500000  0.500000  0.500000  1
  Rh  Rh19  1  0.000000  0.000000  0.000000  1
  Dy  Dy20  1  0.750000  0.750000  0.750000  1
  Dy  Dy21  1  0.250000  0.250000  0.250000  1
