# generated using pymatgen
data_Ho2Sb5
_symmetry_space_group_name_H-M   'P 1'
_cell_length_a   4.22632885
_cell_length_b   13.16906581
_cell_length_c   14.64216472
_cell_angle_alpha   102.05661305
_cell_angle_beta   90.00000000
_cell_angle_gamma   90.00000000
_symmetry_Int_Tables_number   1
_chemical_formula_structural   Ho2Sb5
_chemical_formula_sum   'Ho8 Sb20'
_cell_volume   796.95996026
_cell_formula_units_Z   4
loop_
 _symmetry_equiv_pos_site_id
 _symmetry_equiv_pos_as_xyz
  1  'x, y, z'
loop_
 _atom_site_type_symbol
 _atom_site_label
 _atom_site_symmetry_multiplicity
 _atom_site_fract_x
 _atom_site_fract_y
 _atom_site_fract_z
 _atom_site_occupancy
  Sb  Sb0  1  0.250000  0.858224  0.779246  1
  Sb  Sb1  1  0.750000  0.141776  0.220754  1
  Sb  Sb2  1  0.250000  0.856660  0.482171  1
  Sb  Sb3  1  0.750000  0.143340  0.517829  1
  Sb  Sb4  1  0.250000  0.847593  0.171683  1
  Sb  Sb5  1  0.750000  0.152407  0.828317  1
  Sb  Sb6  1  0.250000  0.580184  0.975270  1
  Sb  Sb7  1  0.750000  0.419816  0.024730  1
  Sb  Sb8  1  0.750000  0.969682  0.908291  1
  Sb  Sb9  1  0.250000  0.030318  0.091709  1
  Sb  Sb10  1  0.750000  0.861599  0.322293  1
  Sb  Sb11  1  0.250000  0.138401  0.677707  1
  Sb  Sb12  1  0.750000  0.721443  0.937659  1
  Sb  Sb13  1  0.250000  0.278557  0.062341  1
  Sb  Sb14  1  0.750000  0.715577  0.653315  1
  Sb  Sb15  1  0.250000  0.284423  0.346685  1
  Sb  Sb16  1  0.750000  0.424526  0.734451  1
  Sb  Sb17  1  0.250000  0.575474  0.265549  1
  Sb  Sb18  1  0.750000  0.425593  0.449327  1
  Sb  Sb19  1  0.250000  0.574407  0.550673  1
  Ho  Ho20  1  0.250000  0.606665  0.770230  1
  Ho  Ho21  1  0.750000  0.393335  0.229770  1
  Ho  Ho22  1  0.250000  0.337837  0.855014  1
  Ho  Ho23  1  0.750000  0.662163  0.144986  1
  Ho  Ho24  1  0.250000  0.330861  0.577661  1
  Ho  Ho25  1  0.750000  0.669139  0.422339  1
  Ho  Ho26  1  0.250000  0.047069  0.361540  1
  Ho  Ho27  1  0.750000  0.952931  0.638459  1
