# generated using pymatgen
data_PrCuS2
_symmetry_space_group_name_H-M   'P 1'
_cell_length_a   6.54688669
_cell_length_b   6.92018926
_cell_length_c   7.25073705
_cell_angle_alpha   90.00000000
_cell_angle_beta   90.00000000
_cell_angle_gamma   97.59680999
_symmetry_Int_Tables_number   1
_chemical_formula_structural   PrCuS2
_chemical_formula_sum   'Pr4 Cu4 S8'
_cell_volume   325.61640719
_cell_formula_units_Z   4
loop_
 _symmetry_equiv_pos_site_id
 _symmetry_equiv_pos_as_xyz
  1  'x, y, z'
loop_
 _atom_site_type_symbol
 _atom_site_label
 _atom_site_symmetry_multiplicity
 _atom_site_fract_x
 _atom_site_fract_y
 _atom_site_fract_z
 _atom_site_occupancy
  S  S0  1  0.912999  0.001193  0.725797  1
  S  S1  1  0.087001  0.498807  0.225797  1
  S  S2  1  0.087001  0.998807  0.274203  1
  S  S3  1  0.912999  0.501193  0.774203  1
  S  S4  1  0.589211  0.776912  0.114678  1
  S  S5  1  0.589211  0.276912  0.385322  1
  S  S6  1  0.410789  0.223088  0.885322  1
  S  S7  1  0.410789  0.723088  0.614678  1
  Cu  Cu8  1  0.573114  0.048059  0.664728  1
  Cu  Cu9  1  0.426886  0.951941  0.335272  1
  Cu  Cu10  1  0.426886  0.451941  0.164728  1
  Cu  Cu11  1  0.573114  0.548059  0.835272  1
  Pr  Pr12  1  0.190492  0.799777  0.949318  1
  Pr  Pr13  1  0.809508  0.700223  0.449318  1
  Pr  Pr14  1  0.809508  0.200223  0.050682  1
  Pr  Pr15  1  0.190492  0.299777  0.550682  1
