# generated using pymatgen
data_Ti2VS4
_symmetry_space_group_name_H-M   'P 1'
_cell_length_a   3.35787561
_cell_length_b   6.01060864
_cell_length_c   6.71552019
_cell_angle_alpha   115.92261814
_cell_angle_beta   104.47802117
_cell_angle_gamma   90.00000000
_symmetry_Int_Tables_number   1
_chemical_formula_structural   Ti2VS4
_chemical_formula_sum   'Ti2 V1 S4'
_cell_volume   117.09692670
_cell_formula_units_Z   1
loop_
 _symmetry_equiv_pos_site_id
 _symmetry_equiv_pos_as_xyz
  1  'x, y, z'
loop_
 _atom_site_type_symbol
 _atom_site_label
 _atom_site_symmetry_multiplicity
 _atom_site_fract_x
 _atom_site_fract_y
 _atom_site_fract_z
 _atom_site_occupancy
  Ti  Ti0  1  0.255277  0.280597  0.510554  1
  Ti  Ti1  1  0.744723  0.719403  0.489446  1
  V  V2  1  0.000000  -0.000000  0.000000  1
  S  S3  1  0.116306  0.444584  0.232611  1
  S  S4  1  0.883694  0.555416  0.767389  1
  S  S5  1  0.371556  0.034528  0.743113  1
  S  S6  1  0.628444  0.965472  0.256887  1
