# generated using pymatgen
data_Rb2Li14Pr3O14
_symmetry_space_group_name_H-M   'P 1'
_cell_length_a   7.49512499
_cell_length_b   8.37932030
_cell_length_c   8.86049263
_cell_angle_alpha   118.21928115
_cell_angle_beta   115.02109621
_cell_angle_gamma   90.00000001
_symmetry_Int_Tables_number   1
_chemical_formula_structural   Rb2Li14Pr3O14
_chemical_formula_sum   'Rb2 Li14 Pr3 O14'
_cell_volume   430.15436660
_cell_formula_units_Z   1
loop_
 _symmetry_equiv_pos_site_id
 _symmetry_equiv_pos_as_xyz
  1  'x, y, z'
loop_
 _atom_site_type_symbol
 _atom_site_label
 _atom_site_symmetry_multiplicity
 _atom_site_fract_x
 _atom_site_fract_y
 _atom_site_fract_z
 _atom_site_occupancy
  Li  Li0  1  0.145249  0.713036  0.734504  1
  Li  Li1  1  0.854751  0.978532  0.265496  1
  Li  Li2  1  0.589254  0.021468  0.734504  1
  Li  Li3  1  0.410746  0.286964  0.265496  1
  Li  Li4  1  0.145249  0.021468  0.734504  1
  Li  Li5  1  0.500000  0.158676  0.000000  1
  Li  Li6  1  0.500000  0.841324  0.000000  1
  Li  Li7  1  0.768581  0.414257  0.537163  1
  Li  Li8  1  0.231419  0.585743  0.462837  1
  Li  Li9  1  0.231419  0.877094  0.462837  1
  Li  Li10  1  0.768581  0.122906  0.537163  1
  Li  Li11  1  0.589254  0.713036  0.734504  1
  Li  Li12  1  0.854751  0.286964  0.265496  1
  Li  Li13  1  0.410746  0.978532  0.265496  1
  O  O14  1  0.867776  0.058043  0.735551  1
  O  O15  1  0.624143  0.401664  0.248287  1
  O  O16  1  0.624143  0.846623  0.248287  1
  O  O17  1  0.375857  0.598336  0.751713  1
  O  O18  1  0.375857  0.153377  0.751713  1
  O  O19  1  0.063997  0.758939  0.517878  1
  O  O20  1  0.546119  0.241061  0.482122  1
  O  O21  1  0.936003  0.241061  0.482122  1
  O  O22  1  0.453881  0.758939  0.517878  1
  O  O23  1  0.693823  0.000000  0.000000  1
  O  O24  1  0.306177  0.000000  0.000000  1
  O  O25  1  0.867776  0.677508  0.735551  1
  O  O26  1  0.132224  0.322492  0.264449  1
  O  O27  1  0.132224  0.941957  0.264449  1
  Rb  Rb28  1  0.762244  0.500000  0.000000  1
  Rb  Rb29  1  0.237756  0.500000  0.000000  1
  Pr  Pr30  1  0.000000  0.000000  0.000000  1
  Pr  Pr31  1  0.272091  0.272091  0.544181  1
  Pr  Pr32  1  0.727909  0.727909  0.455819  1
