# generated using pymatgen
data_Ba2CuTeO6
_symmetry_space_group_name_H-M   'P 1'
_cell_length_a   5.64836962
_cell_length_b   5.64836962
_cell_length_c   5.99000374
_cell_angle_alpha   118.13060296
_cell_angle_beta   118.13060295
_cell_angle_gamma   90.00000001
_symmetry_Int_Tables_number   1
_chemical_formula_structural   Ba2CuTeO6
_chemical_formula_sum   'Ba2 Cu1 Te1 O6'
_cell_volume   142.42270194
_cell_formula_units_Z   1
loop_
 _symmetry_equiv_pos_site_id
 _symmetry_equiv_pos_as_xyz
  1  'x, y, z'
loop_
 _atom_site_type_symbol
 _atom_site_label
 _atom_site_symmetry_multiplicity
 _atom_site_fract_x
 _atom_site_fract_y
 _atom_site_fract_z
 _atom_site_occupancy
  O  O0  1  0.740934  0.757897  0.000000  1
  O  O1  1  0.242103  0.740934  0.000000  1
  O  O2  1  0.757897  0.259066  0.000000  1
  O  O3  1  0.259066  0.242103  0.000000  1
  O  O4  1  0.282617  0.282617  0.565234  1
  O  O5  1  0.717383  0.717383  0.434766  1
  Cu  Cu6  1  0.000000  0.000000  0.000000  1
  Te  Te7  1  0.500000  0.500000  0.000000  1
  Ba  Ba8  1  0.750000  0.250000  0.500000  1
  Ba  Ba9  1  0.250000  0.750000  0.500000  1
