# generated using pymatgen
data_KYbSe2
_symmetry_space_group_name_H-M   'P 1'
_cell_length_a   8.01138330
_cell_length_b   8.01138330
_cell_length_c   8.01138330
_cell_angle_alpha   31.25664726
_cell_angle_beta   31.25664730
_cell_angle_gamma   31.25664727
_symmetry_Int_Tables_number   1
_chemical_formula_structural   KYbSe2
_chemical_formula_sum   'K1 Yb1 Se2'
_cell_volume   122.85573223
_cell_formula_units_Z   1
loop_
 _symmetry_equiv_pos_site_id
 _symmetry_equiv_pos_as_xyz
  1  'x, y, z'
loop_
 _atom_site_type_symbol
 _atom_site_label
 _atom_site_symmetry_multiplicity
 _atom_site_fract_x
 _atom_site_fract_y
 _atom_site_fract_z
 _atom_site_occupancy
  K  K0  1  0.500000  0.500000  0.500000  1
  Se  Se1  1  0.264941  0.264941  0.264941  1
  Se  Se2  1  0.735059  0.735059  0.735059  1
  Yb  Yb3  1  0.000000  0.000000  0.000000  1
