# generated using pymatgen
data_RbLa(MoO4)2
_symmetry_space_group_name_H-M   'P 1'
_cell_length_a   6.49589774
_cell_length_b   6.49589774
_cell_length_c   9.81151330
_cell_angle_alpha   90.00000000
_cell_angle_beta   90.00000000
_cell_angle_gamma   90.00000000
_symmetry_Int_Tables_number   1
_chemical_formula_structural   RbLa(MoO4)2
_chemical_formula_sum   'Rb2 La2 Mo4 O16'
_cell_volume   414.01336012
_cell_formula_units_Z   2
loop_
 _symmetry_equiv_pos_site_id
 _symmetry_equiv_pos_as_xyz
  1  'x, y, z'
loop_
 _atom_site_type_symbol
 _atom_site_label
 _atom_site_symmetry_multiplicity
 _atom_site_fract_x
 _atom_site_fract_y
 _atom_site_fract_z
 _atom_site_occupancy
  O  O0  1  0.056171  0.859475  0.890746  1
  O  O1  1  0.443829  0.640525  0.890746  1
  O  O2  1  0.859475  0.056171  0.609254  1
  O  O3  1  0.859475  0.443829  0.890746  1
  O  O4  1  0.640525  0.056171  0.890746  1
  O  O5  1  0.443829  0.859475  0.609254  1
  O  O6  1  0.056171  0.640525  0.609254  1
  O  O7  1  0.640525  0.443829  0.609254  1
  O  O8  1  0.359475  0.556171  0.390746  1
  O  O9  1  0.943829  0.359475  0.390746  1
  O  O10  1  0.556171  0.140525  0.390746  1
  O  O11  1  0.359475  0.943829  0.109254  1
  O  O12  1  0.140525  0.556171  0.109254  1
  O  O13  1  0.140525  0.943829  0.390746  1
  O  O14  1  0.556171  0.359475  0.109254  1
  O  O15  1  0.943829  0.140525  0.109254  1
  Rb  Rb16  1  0.250000  0.250000  0.750000  1
  Rb  Rb17  1  0.750000  0.750000  0.250000  1
  Mo  Mo18  1  0.250000  0.750000  0.000000  1
  Mo  Mo19  1  0.250000  0.750000  0.500000  1
  Mo  Mo20  1  0.750000  0.250000  0.000000  1
  Mo  Mo21  1  0.750000  0.250000  0.500000  1
  La  La22  1  0.250000  0.250000  0.250000  1
  La  La23  1  0.750000  0.750000  0.750000  1
