# generated using pymatgen
data_Tl2B4O7
_symmetry_space_group_name_H-M   'P 1'
_cell_length_a   6.85497962
_cell_length_b   13.61006647
_cell_length_c   13.60919798
_cell_angle_alpha   119.28223145
_cell_angle_beta   91.70175297
_cell_angle_gamma   91.65792300
_symmetry_Int_Tables_number   1
_chemical_formula_structural   Tl2B4O7
_chemical_formula_sum   'Tl12 B24 O42'
_cell_volume   1105.58898699
_cell_formula_units_Z   6
loop_
 _symmetry_equiv_pos_site_id
 _symmetry_equiv_pos_as_xyz
  1  'x, y, z'
loop_
 _atom_site_type_symbol
 _atom_site_label
 _atom_site_symmetry_multiplicity
 _atom_site_fract_x
 _atom_site_fract_y
 _atom_site_fract_z
 _atom_site_occupancy
  B  B0  1  0.043557  0.214220  0.283511  1
  B  B1  1  0.956443  0.785780  0.716489  1
  B  B2  1  0.169037  0.206146  0.459540  1
  B  B3  1  0.830963  0.793854  0.540460  1
  B  B4  1  0.247859  0.298376  0.187105  1
  B  B5  1  0.752141  0.701624  0.812895  1
  B  B6  1  0.262582  0.020040  0.308213  1
  B  B7  1  0.737418  0.979960  0.691787  1
  B  B8  1  0.593000  0.508431  0.778225  1
  B  B9  1  0.407000  0.491569  0.221775  1
  B  B10  1  0.353925  0.363387  0.625430  1
  B  B11  1  0.646075  0.636613  0.374570  1
  B  B12  1  0.907789  0.169846  0.763532  1
  B  B13  1  0.092211  0.830154  0.236468  1
  B  B14  1  0.833993  0.089509  0.889900  1
  B  B15  1  0.166007  0.910491  0.110100  1
  B  B16  1  0.089588  0.256795  0.661280  1
  B  B17  1  0.910412  0.743205  0.338720  1
  B  B18  1  0.784003  0.341209  0.764575  1
  B  B19  1  0.215997  0.658791  0.235425  1
  B  B20  1  0.913280  0.195466  0.102396  1
  B  B21  1  0.086720  0.804534  0.897604  1
  B  B22  1  0.597328  0.323298  0.143933  1
  B  B23  1  0.402672  0.676702  0.856067  1
  O  O24  1  0.946810  0.160001  0.866892  1
  O  O25  1  0.053190  0.839999  0.133108  1
  O  O26  1  0.275468  0.328278  0.695794  1
  O  O27  1  0.724532  0.671722  0.304206  1
  O  O28  1  0.822729  0.058957  0.670152  1
  O  O29  1  0.177271  0.941043  0.329848  1
  O  O30  1  0.509227  0.441353  0.658573  1
  O  O31  1  0.490773  0.558647  0.341427  1
  O  O32  1  0.198105  0.283263  0.285034  1
  O  O33  1  0.801895  0.716737  0.714966  1
  O  O34  1  0.837260  0.095583  0.993830  1
  O  O35  1  0.162740  0.904417  0.006170  1
  O  O36  1  0.079010  0.177816  0.539123  1
  O  O37  1  0.920990  0.822184  0.460877  1
  O  O38  1  0.086493  0.198953  0.727740  1
  O  O39  1  0.913507  0.801047  0.272260  1
  O  O40  1  0.759785  0.580922  0.780725  1
  O  O41  1  0.240215  0.419078  0.219275  1
  O  O42  1  0.112828  0.228620  0.090067  1
  O  O43  1  0.887172  0.771380  0.909933  1
  O  O44  1  0.273344  0.318813  0.516611  1
  O  O45  1  0.726656  0.681187  0.483389  1
  O  O46  1  0.452011  0.259025  0.157656  1
  O  O47  1  0.547989  0.740975  0.842344  1
  O  O48  1  0.923830  0.338014  0.692901  1
  O  O49  1  0.076170  0.661986  0.307099  1
  O  O50  1  0.761308  0.257181  0.792619  1
  O  O51  1  0.238692  0.742819  0.207381  1
  O  O52  1  0.660095  0.429065  0.815886  1
  O  O53  1  0.339905  0.570935  0.184114  1
  O  O54  1  0.906047  0.166343  0.193467  1
  O  O55  1  0.093953  0.833657  0.806533  1
  O  O56  1  0.787243  0.291777  0.126072  1
  O  O57  1  0.212757  0.708223  0.873928  1
  O  O58  1  0.285320  0.996914  0.196750  1
  O  O59  1  0.714680  0.003086  0.803250  1
  O  O60  1  0.559433  0.424313  0.148307  1
  O  O61  1  0.440567  0.575687  0.851693  1
  O  O62  1  0.326783  0.123903  0.395261  1
  O  O63  1  0.673217  0.876097  0.604739  1
  O  O64  1  0.018620  0.195164  0.373062  1
  O  O65  1  0.981380  0.804836  0.626938  1
  Tl  Tl66  1  0.875374  0.454131  0.583740  1
  Tl  Tl67  1  0.124626  0.545869  0.416260  1
  Tl  Tl68  1  0.780358  0.019785  0.442170  1
  Tl  Tl69  1  0.219642  0.980215  0.557830  1
  Tl  Tl70  1  0.395375  0.329301  0.879769  1
  Tl  Tl71  1  0.604625  0.670699  0.120231  1
  Tl  Tl72  1  0.297200  0.057126  0.942222  1
  Tl  Tl73  1  0.702800  0.942874  0.057778  1
  Tl  Tl74  1  0.550849  0.263753  0.360604  1
  Tl  Tl75  1  0.449151  0.736247  0.639396  1
  Tl  Tl76  1  0.982465  0.399310  0.053573  1
  Tl  Tl77  1  0.017535  0.600690  0.946427  1
