# generated using pymatgen
data_Tb3Al5O12
_symmetry_space_group_name_H-M   'P 1'
_cell_length_a   10.51600549
_cell_length_b   10.51600549
_cell_length_c   10.51600550
_cell_angle_alpha   109.47122066
_cell_angle_beta   109.47122066
_cell_angle_gamma   109.47122061
_symmetry_Int_Tables_number   1
_chemical_formula_structural   Tb3Al5O12
_chemical_formula_sum   'Tb12 Al20 O48'
_cell_volume   895.22153824
_cell_formula_units_Z   4
loop_
 _symmetry_equiv_pos_site_id
 _symmetry_equiv_pos_as_xyz
  1  'x, y, z'
loop_
 _atom_site_type_symbol
 _atom_site_label
 _atom_site_symmetry_multiplicity
 _atom_site_fract_x
 _atom_site_fract_y
 _atom_site_fract_z
 _atom_site_occupancy
  O  O0  1  0.980595  0.679588  0.098780  1
  O  O1  1  0.820412  0.801008  0.419192  1
  O  O2  1  0.401220  0.080808  0.881815  1
  O  O3  1  0.519405  0.618185  0.698992  1
  O  O4  1  0.519405  0.401220  0.820412  1
  O  O5  1  0.618185  0.698992  0.519405  1
  O  O6  1  0.080808  0.698992  0.679588  1
  O  O7  1  0.698992  0.519405  0.618185  1
  O  O8  1  0.419192  0.098780  0.618185  1
  O  O9  1  0.801008  0.881815  0.980595  1
  O  O10  1  0.881815  0.980595  0.801008  1
  O  O11  1  0.820412  0.519405  0.401220  1
  O  O12  1  0.698992  0.679588  0.080808  1
  O  O13  1  0.618185  0.419192  0.098780  1
  O  O14  1  0.401220  0.820412  0.519405  1
  O  O15  1  0.679588  0.080808  0.698992  1
  O  O16  1  0.098780  0.618185  0.419192  1
  O  O17  1  0.419192  0.820412  0.801008  1
  O  O18  1  0.080808  0.881815  0.401220  1
  O  O19  1  0.580808  0.901220  0.381815  1
  O  O20  1  0.881815  0.401220  0.080808  1
  O  O21  1  0.098780  0.980595  0.679588  1
  O  O22  1  0.801008  0.419192  0.820412  1
  O  O23  1  0.980595  0.801008  0.881815  1
  O  O24  1  0.019405  0.320412  0.901220  1
  O  O25  1  0.179588  0.198992  0.580808  1
  O  O26  1  0.598780  0.919192  0.118185  1
  O  O27  1  0.480595  0.381815  0.301008  1
  O  O28  1  0.480595  0.598780  0.179588  1
  O  O29  1  0.381815  0.301008  0.480595  1
  O  O30  1  0.919192  0.301008  0.320412  1
  O  O31  1  0.301008  0.480595  0.381815  1
  O  O32  1  0.019405  0.198992  0.118185  1
  O  O33  1  0.198992  0.580808  0.179588  1
  O  O34  1  0.901220  0.019405  0.320412  1
  O  O35  1  0.320412  0.901220  0.019405  1
  O  O36  1  0.118185  0.598780  0.919192  1
  O  O37  1  0.919192  0.118185  0.598780  1
  O  O38  1  0.580808  0.179588  0.198992  1
  O  O39  1  0.901220  0.381815  0.580808  1
  O  O40  1  0.320412  0.919192  0.301008  1
  O  O41  1  0.598780  0.179588  0.480595  1
  O  O42  1  0.381815  0.580808  0.901220  1
  O  O43  1  0.301008  0.320412  0.919192  1
  O  O44  1  0.179588  0.480595  0.598780  1
  O  O45  1  0.118185  0.019405  0.198992  1
  O  O46  1  0.198992  0.118185  0.019405  1
  O  O47  1  0.679588  0.098780  0.980595  1
  Al  Al48  1  0.250000  0.125000  0.875000  1
  Al  Al49  1  0.750000  0.875000  0.125000  1
  Al  Al50  1  0.375000  0.250000  0.625000  1
  Al  Al51  1  0.625000  0.375000  0.250000  1
  Al  Al52  1  0.125000  0.750000  0.875000  1
  Al  Al53  1  0.875000  0.125000  0.750000  1
  Al  Al54  1  0.750000  0.375000  0.625000  1
  Al  Al55  1  0.375000  0.625000  0.750000  1
  Al  Al56  1  0.125000  0.875000  0.250000  1
  Al  Al57  1  0.875000  0.250000  0.125000  1
  Al  Al58  1  0.625000  0.750000  0.375000  1
  Al  Al59  1  0.250000  0.625000  0.375000  1
  Al  Al60  1  0.500000  0.500000  0.500000  1
  Al  Al61  1  0.500000  0.500000  0.000000  1
  Al  Al62  1  0.500000  0.000000  0.500000  1
  Al  Al63  1  0.000000  0.500000  0.500000  1
  Al  Al64  1  0.500000  0.000000  0.000000  1
  Al  Al65  1  0.000000  0.000000  0.500000  1
  Al  Al66  1  0.000000  0.500000  0.000000  1
  Al  Al67  1  0.000000  0.000000  0.000000  1
  Tb  Tb68  1  0.250000  0.875000  0.625000  1
  Tb  Tb69  1  0.875000  0.625000  0.250000  1
  Tb  Tb70  1  0.625000  0.875000  0.750000  1
  Tb  Tb71  1  0.875000  0.750000  0.625000  1
  Tb  Tb72  1  0.625000  0.250000  0.875000  1
  Tb  Tb73  1  0.750000  0.625000  0.875000  1
  Tb  Tb74  1  0.750000  0.125000  0.375000  1
  Tb  Tb75  1  0.125000  0.375000  0.750000  1
  Tb  Tb76  1  0.375000  0.125000  0.250000  1
  Tb  Tb77  1  0.125000  0.250000  0.375000  1
  Tb  Tb78  1  0.375000  0.750000  0.125000  1
  Tb  Tb79  1  0.250000  0.375000  0.125000  1
