# generated using pymatgen
data_Lu4Zn5Ge6
_symmetry_space_group_name_H-M   'P 1'
_cell_length_a   4.21340472
_cell_length_b   9.41885501
_cell_length_c   15.13830241
_cell_angle_alpha   90.00000000
_cell_angle_beta   90.00000000
_cell_angle_gamma   102.92460095
_symmetry_Int_Tables_number   1
_chemical_formula_structural   Lu4Zn5Ge6
_chemical_formula_sum   'Lu8 Zn10 Ge12'
_cell_volume   585.54994824
_cell_formula_units_Z   2
loop_
 _symmetry_equiv_pos_site_id
 _symmetry_equiv_pos_as_xyz
  1  'x, y, z'
loop_
 _atom_site_type_symbol
 _atom_site_label
 _atom_site_symmetry_multiplicity
 _atom_site_fract_x
 _atom_site_fract_y
 _atom_site_fract_z
 _atom_site_occupancy
  Zn  Zn0  1  0.434615  0.869231  0.313989  1
  Zn  Zn1  1  0.565385  0.130769  0.813989  1
  Zn  Zn2  1  0.151046  0.302093  0.373531  1
  Zn  Zn3  1  0.848954  0.697907  0.873531  1
  Zn  Zn4  1  0.651084  0.302168  0.519082  1
  Zn  Zn5  1  0.348916  0.697832  0.019082  1
  Zn  Zn6  1  0.301099  0.602198  0.376510  1
  Zn  Zn7  1  0.698901  0.397802  0.876510  1
  Zn  Zn8  1  0.344604  0.689208  0.726855  1
  Zn  Zn9  1  0.655396  0.310792  0.226855  1
  Ge  Ge10  1  0.770401  0.540802  0.733652  1
  Ge  Ge11  1  0.430371  0.860742  0.591091  1
  Ge  Ge12  1  0.775446  0.550892  0.016241  1
  Ge  Ge13  1  0.224554  0.449108  0.516241  1
  Ge  Ge14  1  0.439619  0.879237  0.145815  1
  Ge  Ge15  1  0.560381  0.120763  0.645815  1
  Ge  Ge16  1  0.434368  0.868735  0.871629  1
  Ge  Ge17  1  0.565632  0.131265  0.371629  1
  Ge  Ge18  1  0.111725  0.223449  0.884270  1
  Ge  Ge19  1  0.888275  0.776551  0.384270  1
  Ge  Ge20  1  0.569629  0.139258  0.091091  1
  Ge  Ge21  1  0.229599  0.459198  0.233652  1
  Lu  Lu22  1  0.967566  0.935133  0.736442  1
  Lu  Lu23  1  0.032434  0.064867  0.236442  1
  Lu  Lu24  1  0.166523  0.333047  0.697182  1
  Lu  Lu25  1  0.833477  0.666953  0.197182  1
  Lu  Lu26  1  0.825483  0.650966  0.556646  1
  Lu  Lu27  1  0.174517  0.349034  0.056646  1
  Lu  Lu28  1  0.017959  0.035918  0.501584  1
  Lu  Lu29  1  0.982041  0.964082  0.001584  1
