# generated using pymatgen
data_MoWSeS3
_symmetry_space_group_name_H-M   'P 1'
_cell_length_a   3.21991259
_cell_length_b   3.21987865
_cell_length_c   36.35952598
_cell_angle_alpha   90.00009944
_cell_angle_beta   90.00000000
_cell_angle_gamma   120.00034861
_symmetry_Int_Tables_number   1
_chemical_formula_structural   MoWSeS3
_chemical_formula_sum   'Mo2 W2 Se2 S6'
_cell_volume   326.46069811
_cell_formula_units_Z   2
loop_
 _symmetry_equiv_pos_site_id
 _symmetry_equiv_pos_as_xyz
  1  'x, y, z'
loop_
 _atom_site_type_symbol
 _atom_site_label
 _atom_site_symmetry_multiplicity
 _atom_site_fract_x
 _atom_site_fract_y
 _atom_site_fract_z
 _atom_site_occupancy
  Mo  Mo0  1  0.333307  0.666614  0.093911  1
  Mo  Mo1  1  0.333311  0.666623  0.469655  1
  W  W2  1  0.666689  0.333379  0.281814  1
  W  W3  1  0.666689  0.333379  0.657535  1
  Se  Se4  1  0.666641  0.333282  0.046845  1
  Se  Se5  1  0.666642  0.333284  0.140970  1
  S  S6  1  0.333358  0.666717  0.324758  1
  S  S7  1  0.333355  0.666711  0.700513  1
  S  S8  1  0.666646  0.333292  0.426869  1
  S  S9  1  0.666646  0.333292  0.512460  1
  S  S10  1  0.333354  0.666709  0.238852  1
  S  S11  1  0.333360  0.666720  0.614567  1
