# generated using pymatgen
data_Te2Mo2W(SeS)2
_symmetry_space_group_name_H-M   'P 1'
_cell_length_a   3.34646437
_cell_length_b   3.34645749
_cell_length_c   30.96961144
_cell_angle_alpha   89.99974133
_cell_angle_beta   90.00000000
_cell_angle_gamma   120.00006787
_symmetry_Int_Tables_number   1
_chemical_formula_structural   Te2Mo2W(SeS)2
_chemical_formula_sum   'Te2 Mo2 W1 Se2 S2'
_cell_volume   300.35689743
_cell_formula_units_Z   1
loop_
 _symmetry_equiv_pos_site_id
 _symmetry_equiv_pos_as_xyz
  1  'x, y, z'
loop_
 _atom_site_type_symbol
 _atom_site_label
 _atom_site_symmetry_multiplicity
 _atom_site_fract_x
 _atom_site_fract_y
 _atom_site_fract_z
 _atom_site_occupancy
  Te  Te0  1  0.666642  0.333284  0.054473  1
  Te  Te1  1  0.666647  0.333294  0.176794  1
  Mo  Mo2  1  0.333313  0.666625  0.115602  1
  Mo  Mo3  1  0.666689  0.333378  0.347032  1
  W  W4  1  0.333311  0.666622  0.578309  1
  Se  Se5  1  0.333352  0.666705  0.400783  1
  Se  Se6  1  0.333352  0.666704  0.293226  1
  S  S7  1  0.666649  0.333297  0.529149  1
  S  S8  1  0.666647  0.333292  0.627473  1
