# generated using pymatgen
data_Te2Mo3W(Se2S)2
_symmetry_space_group_name_H-M   'P 1'
_cell_length_a   3.34426312
_cell_length_b   3.34426182
_cell_length_c   38.02238044
_cell_angle_alpha   90.00000918
_cell_angle_beta   90.00000000
_cell_angle_gamma   120.00001284
_symmetry_Int_Tables_number   1
_chemical_formula_structural   Te2Mo3W(Se2S)2
_chemical_formula_sum   'Te2 Mo3 W1 Se4 S2'
_cell_volume   368.27360149
_cell_formula_units_Z   1
loop_
 _symmetry_equiv_pos_site_id
 _symmetry_equiv_pos_as_xyz
  1  'x, y, z'
loop_
 _atom_site_type_symbol
 _atom_site_label
 _atom_site_symmetry_multiplicity
 _atom_site_fract_x
 _atom_site_fract_y
 _atom_site_fract_z
 _atom_site_occupancy
  Te  Te0  1  0.333351  0.666704  0.707457  1
  Te  Te1  1  0.333358  0.666716  0.607612  1
  Mo  Mo2  1  0.333311  0.666623  0.093896  1
  Mo  Mo3  1  0.333305  0.666610  0.469650  1
  Mo  Mo4  1  0.666690  0.333379  0.657560  1
  W  W5  1  0.666687  0.333373  0.281802  1
  Se  Se6  1  0.333352  0.666705  0.325870  1
  Se  Se7  1  0.666648  0.333296  0.050080  1
  Se  Se8  1  0.666649  0.333297  0.137745  1
  Se  Se9  1  0.333348  0.666697  0.237756  1
  S  S10  1  0.666650  0.333298  0.429782  1
  S  S11  1  0.666651  0.333301  0.509539  1
