# generated using pymatgen
data_Si(CO)2
_symmetry_space_group_name_H-M   'P 1'
_cell_length_a   2.90401138
_cell_length_b   7.43782876
_cell_length_c   7.43782978
_cell_angle_alpha   118.50804635
_cell_angle_beta   101.22279649
_cell_angle_gamma   101.22284939
_symmetry_Int_Tables_number   1
_chemical_formula_structural   Si(CO)2
_chemical_formula_sum   'Si2 C4 O4'
_cell_volume   130.54395701
_cell_formula_units_Z   2
loop_
 _symmetry_equiv_pos_site_id
 _symmetry_equiv_pos_as_xyz
  1  'x, y, z'
loop_
 _atom_site_type_symbol
 _atom_site_label
 _atom_site_symmetry_multiplicity
 _atom_site_fract_x
 _atom_site_fract_y
 _atom_site_fract_z
 _atom_site_occupancy
  Si  Si0  1  0.500000  0.377070  0.622930  1
  Si  Si1  1  0.500000  0.622930  0.377070  1
  C  C2  1  1.000000  0.083137  0.916863  1
  C  C3  1  0.144229  0.143342  0.143341  1
  C  C4  1  0.000000  0.916862  0.083138  1
  C  C5  1  0.855770  0.856657  0.856657  1
  O  O6  1  0.663905  0.665173  0.665174  1
  O  O7  1  0.000000  0.819757  0.180244  1
  O  O8  1  1.000000  0.180244  0.819756  1
  O  O9  1  0.336097  0.334828  0.334828  1
