# generated using pymatgen
data_Li3GaSiO5
_symmetry_space_group_name_H-M   'P 1'
_cell_length_a   4.92147660
_cell_length_b   5.45423991
_cell_length_c   15.80235880
_cell_angle_alpha   90.00000000
_cell_angle_beta   90.00000000
_cell_angle_gamma   90.00000000
_symmetry_Int_Tables_number   1
_chemical_formula_structural   Li3GaSiO5
_chemical_formula_sum   'Li12 Ga4 Si4 O20'
_cell_volume   424.18135965
_cell_formula_units_Z   4
loop_
 _symmetry_equiv_pos_site_id
 _symmetry_equiv_pos_as_xyz
  1  'x, y, z'
loop_
 _atom_site_type_symbol
 _atom_site_label
 _atom_site_symmetry_multiplicity
 _atom_site_fract_x
 _atom_site_fract_y
 _atom_site_fract_z
 _atom_site_occupancy
  Li  Li0  1  0.500250  0.333551  0.407193  1
  Li  Li1  1  0.000250  0.666449  0.592807  1
  Li  Li2  1  0.000250  0.166449  0.907193  1
  Li  Li3  1  0.500250  0.833551  0.092807  1
  Li  Li4  1  0.503435  0.834517  0.504797  1
  Li  Li5  1  0.003435  0.165483  0.495203  1
  Li  Li6  1  0.003435  0.665483  0.004797  1
  Li  Li7  1  0.503435  0.334517  0.995203  1
  Li  Li8  1  0.500766  0.824230  0.695388  1
  Li  Li9  1  0.000766  0.175770  0.304612  1
  Li  Li10  1  0.000766  0.675770  0.195388  1
  Li  Li11  1  0.500766  0.324230  0.804612  1
  O  O12  1  0.594745  0.156854  0.296383  1
  O  O13  1  0.163059  0.817469  0.894364  1
  O  O14  1  0.163059  0.317469  0.605636  1
  O  O15  1  0.663059  0.182531  0.105636  1
  O  O16  1  0.102917  0.315743  0.014867  1
  O  O17  1  0.602917  0.684257  0.985133  1
  O  O18  1  0.602917  0.184257  0.514867  1
  O  O19  1  0.102917  0.815743  0.485133  1
  O  O20  1  0.100482  0.881693  0.101446  1
  O  O21  1  0.600482  0.118307  0.898554  1
  O  O22  1  0.600482  0.618307  0.601446  1
  O  O23  1  0.100482  0.381693  0.398554  1
  O  O24  1  0.117559  0.311669  0.186744  1
  O  O25  1  0.617559  0.688331  0.813256  1
  O  O26  1  0.617559  0.188331  0.686744  1
  O  O27  1  0.117559  0.811669  0.313256  1
  O  O28  1  0.094745  0.343146  0.796383  1
  O  O29  1  0.594745  0.656854  0.203617  1
  O  O30  1  0.663059  0.682531  0.394364  1
  O  O31  1  0.094745  0.843146  0.703617  1
  Si  Si32  1  0.004691  0.666357  0.402005  1
  Si  Si33  1  0.504691  0.333643  0.597995  1
  Si  Si34  1  0.504691  0.833643  0.902005  1
  Si  Si35  1  0.004691  0.166357  0.097995  1
  Ga  Ga36  1  0.499097  0.829043  0.300672  1
  Ga  Ga37  1  0.999097  0.170957  0.699328  1
  Ga  Ga38  1  0.999097  0.670957  0.800672  1
  Ga  Ga39  1  0.499097  0.329043  0.199328  1
