# generated using pymatgen
data_Al2Re3B
_symmetry_space_group_name_H-M   'P 1'
_cell_length_a   7.60617049
_cell_length_b   7.60617049
_cell_length_c   7.60617049
_cell_angle_alpha   59.99999997
_cell_angle_beta   59.99999997
_cell_angle_gamma   59.99999998
_symmetry_Int_Tables_number   1
_chemical_formula_structural   Al2Re3B
_chemical_formula_sum   'Al8 Re12 B4'
_cell_volume   311.15957493
_cell_formula_units_Z   4
loop_
 _symmetry_equiv_pos_site_id
 _symmetry_equiv_pos_as_xyz
  1  'x, y, z'
loop_
 _atom_site_type_symbol
 _atom_site_label
 _atom_site_symmetry_multiplicity
 _atom_site_fract_x
 _atom_site_fract_y
 _atom_site_fract_z
 _atom_site_occupancy
  B  B0  1  0.500000  0.000000  0.500000  1
  B  B1  1  0.500000  0.500000  0.000000  1
  B  B2  1  0.000000  0.500000  0.500000  1
  B  B3  1  0.500000  0.500000  0.500000  1
  Al  Al4  1  0.710863  0.710863  0.367412  1
  Al  Al5  1  0.289137  0.632588  0.289137  1
  Al  Al6  1  0.367412  0.710863  0.710863  1
  Al  Al7  1  0.289137  0.289137  0.289137  1
  Al  Al8  1  0.632588  0.289137  0.289137  1
  Al  Al9  1  0.289137  0.289137  0.632588  1
  Al  Al10  1  0.710863  0.367412  0.710863  1
  Al  Al11  1  0.710863  0.710863  0.710863  1
  Re  Re12  1  0.933241  0.316759  0.316759  1
  Re  Re13  1  0.316759  0.933241  0.316759  1
  Re  Re14  1  0.066759  0.683241  0.066759  1
  Re  Re15  1  0.066759  0.066759  0.683241  1
  Re  Re16  1  0.683241  0.683241  0.066759  1
  Re  Re17  1  0.683241  0.066759  0.683241  1
  Re  Re18  1  0.316759  0.933241  0.933241  1
  Re  Re19  1  0.066759  0.683241  0.683241  1
  Re  Re20  1  0.316759  0.316759  0.933241  1
  Re  Re21  1  0.933241  0.933241  0.316759  1
  Re  Re22  1  0.683241  0.066759  0.066759  1
  Re  Re23  1  0.933241  0.316759  0.933241  1
