# generated using pymatgen
data_CsPr(PO3)4
_symmetry_space_group_name_H-M   'P 1'
_cell_length_a   7.26237382
_cell_length_b   8.93772240
_cell_length_c   9.35403386
_cell_angle_alpha   90.00000000
_cell_angle_beta   90.00000000
_cell_angle_gamma   99.49414532
_symmetry_Int_Tables_number   1
_chemical_formula_structural   CsPr(PO3)4
_chemical_formula_sum   'Cs2 Pr2 P8 O24'
_cell_volume   598.84512197
_cell_formula_units_Z   2
loop_
 _symmetry_equiv_pos_site_id
 _symmetry_equiv_pos_as_xyz
  1  'x, y, z'
loop_
 _atom_site_type_symbol
 _atom_site_label
 _atom_site_symmetry_multiplicity
 _atom_site_fract_x
 _atom_site_fract_y
 _atom_site_fract_z
 _atom_site_occupancy
  O  O0  1  0.847856  0.594344  0.248586  1
  O  O1  1  0.152144  0.405656  0.748586  1
  O  O2  1  0.212866  0.362217  0.482343  1
  O  O3  1  0.787134  0.637783  0.982343  1
  O  O4  1  0.274764  0.612085  0.338950  1
  O  O5  1  0.725236  0.387915  0.838950  1
  O  O6  1  0.542009  0.491469  0.441029  1
  O  O7  1  0.457991  0.508531  0.941029  1
  O  O8  1  0.508854  0.816582  0.465747  1
  O  O9  1  0.491146  0.183418  0.965747  1
  O  O10  1  0.046261  0.799649  0.097064  1
  O  O11  1  0.953739  0.200351  0.597064  1
  O  O12  1  0.073781  0.091623  0.826553  1
  O  O13  1  0.926219  0.908377  0.326553  1
  O  O14  1  0.141673  0.075793  0.148055  1
  O  O15  1  0.858327  0.924207  0.648055  1
  O  O16  1  0.926771  0.472102  0.551271  1
  O  O17  1  0.073229  0.527898  0.051271  1
  O  O18  1  0.724836  0.112756  0.793986  1
  O  O19  1  0.275164  0.887244  0.293986  1
  O  O20  1  0.337773  0.366828  0.234482  1
  O  O21  1  0.662227  0.633172  0.734482  1
  O  O22  1  0.843076  0.230398  0.032869  1
  O  O23  1  0.156924  0.769602  0.532869  1
  P  P24  1  0.645028  0.543062  0.869907  1
  P  P25  1  0.354972  0.456938  0.369907  1
  P  P26  1  0.061501  0.375539  0.605429  1
  P  P27  1  0.938499  0.624461  0.105429  1
  P  P28  1  0.307680  0.773265  0.422486  1
  P  P29  1  0.692320  0.226735  0.922486  1
  P  P30  1  0.084178  0.927761  0.220950  1
  P  P31  1  0.915822  0.072239  0.720950  1
  Cs  Cs32  1  0.669876  0.172663  0.330920  1
  Cs  Cs33  1  0.330124  0.827337  0.830920  1
  Pr  Pr34  1  0.799657  0.697762  0.496135  1
  Pr  Pr35  1  0.200343  0.302238  0.996135  1
