# generated using pymatgen
data_Te4Mo3W(SeS)2
_symmetry_space_group_name_H-M   'P 1'
_cell_length_a   3.40068394
_cell_length_b   3.40067968
_cell_length_c   38.83999112
_cell_angle_alpha   90.00059135
_cell_angle_beta   90.00000000
_cell_angle_gamma   120.00004147
_symmetry_Int_Tables_number   1
_chemical_formula_structural   Te4Mo3W(SeS)2
_chemical_formula_sum   'Te4 Mo3 W1 Se2 S2'
_cell_volume   388.99280512
_cell_formula_units_Z   1
loop_
 _symmetry_equiv_pos_site_id
 _symmetry_equiv_pos_as_xyz
  1  'x, y, z'
loop_
 _atom_site_type_symbol
 _atom_site_label
 _atom_site_symmetry_multiplicity
 _atom_site_fract_x
 _atom_site_fract_y
 _atom_site_fract_z
 _atom_site_occupancy
  Te  Te0  1  0.333367  0.666736  0.330152  1
  Te  Te1  1  0.666650  0.333299  0.421524  1
  Te  Te2  1  0.666646  0.333291  0.517986  1
  Te  Te3  1  0.333352  0.666704  0.233166  1
  Mo  Mo4  1  0.333309  0.666618  0.093936  1
  Mo  Mo5  1  0.333313  0.666625  0.469767  1
  Mo  Mo6  1  0.666682  0.333364  0.657569  1
  W  W7  1  0.666690  0.333380  0.281630  1
  Se  Se8  1  0.333352  0.666706  0.700012  1
  Se  Se9  1  0.333349  0.666700  0.615092  1
  S  S10  1  0.666644  0.333286  0.055287  1
  S  S11  1  0.666646  0.333292  0.132625  1
