# generated using pymatgen
data_Nb5Ga13
_symmetry_space_group_name_H-M   'P 1'
_cell_length_a   3.80573297
_cell_length_b   3.79071793
_cell_length_c   20.48964570
_cell_angle_alpha   90.00000000
_cell_angle_beta   95.32871835
_cell_angle_gamma   90.00000000
_symmetry_Int_Tables_number   1
_chemical_formula_structural   Nb5Ga13
_chemical_formula_sum   'Nb5 Ga13'
_cell_volume   294.31558589
_cell_formula_units_Z   1
loop_
 _symmetry_equiv_pos_site_id
 _symmetry_equiv_pos_as_xyz
  1  'x, y, z'
loop_
 _atom_site_type_symbol
 _atom_site_label
 _atom_site_symmetry_multiplicity
 _atom_site_fract_x
 _atom_site_fract_y
 _atom_site_fract_z
 _atom_site_occupancy
  Ga  Ga0  1  0.445142  0.500000  0.890285  1
  Ga  Ga1  1  0.554858  0.500000  0.109715  1
  Ga  Ga2  1  0.335656  0.500000  0.671312  1
  Ga  Ga3  1  0.664344  0.500000  0.328688  1
  Ga  Ga4  1  0.228179  0.500000  0.456357  1
  Ga  Ga5  1  0.000000  0.500000  0.000000  1
  Ga  Ga6  1  0.945389  0.000000  0.890779  1
  Ga  Ga7  1  0.054611  0.000000  0.109221  1
  Ga  Ga8  1  0.835045  0.000000  0.670090  1
  Ga  Ga9  1  0.164955  0.000000  0.329910  1
  Ga  Ga10  1  0.611893  0.000000  0.223786  1
  Ga  Ga11  1  0.388107  0.000000  0.776214  1
  Ga  Ga12  1  0.771821  0.500000  0.543643  1
  Nb  Nb13  1  0.107979  0.500000  0.215959  1
  Nb  Nb14  1  0.892021  0.500000  0.784041  1
  Nb  Nb15  1  0.283915  0.000000  0.567831  1
  Nb  Nb16  1  0.716085  0.000000  0.432169  1
  Nb  Nb17  1  0.500000  0.000000  0.000000  1
