# generated using pymatgen
data_Ca(GaS2)2
_symmetry_space_group_name_H-M   'P 1'
_cell_length_a   11.83970082
_cell_length_b   11.83970082
_cell_length_c   11.88680356
_cell_angle_alpha   105.40625470
_cell_angle_beta   105.40625470
_cell_angle_gamma   117.81145461
_symmetry_Int_Tables_number   1
_chemical_formula_structural   Ca(GaS2)2
_chemical_formula_sum   'Ca8 Ga16 S32'
_cell_volume   1263.85603656
_cell_formula_units_Z   8
loop_
 _symmetry_equiv_pos_site_id
 _symmetry_equiv_pos_as_xyz
  1  'x, y, z'
loop_
 _atom_site_type_symbol
 _atom_site_label
 _atom_site_symmetry_multiplicity
 _atom_site_fract_x
 _atom_site_fract_y
 _atom_site_fract_z
 _atom_site_occupancy
  S  S0  1  0.813765  0.150402  0.997326  1
  S  S1  1  0.153076  0.316439  0.502674  1
  S  S2  1  0.849598  0.186235  0.502674  1
  S  S3  1  0.683561  0.846924  0.997326  1
  S  S4  1  0.186235  0.849598  0.002674  1
  S  S5  1  0.846924  0.683561  0.497326  1
  S  S6  1  0.150402  0.813765  0.497326  1
  S  S7  1  0.316439  0.153076  0.002674  1
  S  S8  1  0.157307  0.345678  0.002500  1
  S  S9  1  0.343179  0.654807  0.497500  1
  S  S10  1  0.654322  0.842693  0.497500  1
  S  S11  1  0.345193  0.656821  0.002500  1
  S  S12  1  0.842693  0.654322  0.997500  1
  S  S13  1  0.656821  0.345193  0.502500  1
  S  S14  1  0.345678  0.157307  0.502500  1
  S  S15  1  0.654807  0.343179  0.997500  1
  S  S16  1  0.584136  0.083795  0.671003  1
  S  S17  1  0.412792  0.413132  0.828997  1
  S  S18  1  0.916205  0.415864  0.828997  1
  S  S19  1  0.586868  0.587208  0.671003  1
  S  S20  1  0.415864  0.916205  0.328997  1
  S  S21  1  0.587208  0.586868  0.171003  1
  S  S22  1  0.083795  0.584136  0.171003  1
  S  S23  1  0.413132  0.412792  0.328997  1
  S  S24  1  0.913440  0.413563  0.329995  1
  S  S25  1  0.083568  0.083445  0.170005  1
  S  S26  1  0.586437  0.086560  0.170005  1
  S  S27  1  0.916555  0.916432  0.329995  1
  S  S28  1  0.086560  0.586437  0.670005  1
  S  S29  1  0.916432  0.916555  0.829995  1
  S  S30  1  0.413563  0.913440  0.829995  1
  S  S31  1  0.083445  0.083568  0.670005  1
  Ca  Ca32  1  0.875000  0.125000  0.250000  1
  Ca  Ca33  1  0.125000  0.875000  0.750000  1
  Ca  Ca34  1  0.375000  0.625000  0.250000  1
  Ca  Ca35  1  0.625000  0.375000  0.750000  1
  Ca  Ca36  1  0.622812  0.872812  0.745625  1
  Ca  Ca37  1  0.127188  0.377188  0.754375  1
  Ca  Ca38  1  0.377188  0.127188  0.254375  1
  Ca  Ca39  1  0.872812  0.622812  0.245625  1
  Ga  Ga40  1  0.531949  0.640391  0.999501  1
  Ga  Ga41  1  0.640890  0.032448  0.500499  1
  Ga  Ga42  1  0.359609  0.468051  0.500499  1
  Ga  Ga43  1  0.967552  0.359110  0.999501  1
  Ga  Ga44  1  0.468051  0.359609  0.000499  1
  Ga  Ga45  1  0.359110  0.967552  0.499501  1
  Ga  Ga46  1  0.640391  0.531949  0.499501  1
  Ga  Ga47  1  0.032448  0.640890  0.000499  1
  Ga  Ga48  1  0.388461  0.864294  0.001296  1
  Ga  Ga49  1  0.862998  0.887165  0.498704  1
  Ga  Ga50  1  0.135706  0.611539  0.498704  1
  Ga  Ga51  1  0.112835  0.137002  0.001296  1
  Ga  Ga52  1  0.611539  0.135706  0.998704  1
  Ga  Ga53  1  0.137002  0.112835  0.501296  1
  Ga  Ga54  1  0.864294  0.388461  0.501296  1
  Ga  Ga55  1  0.887165  0.862998  0.998704  1
