# generated using pymatgen
data_La4MnS6O
_symmetry_space_group_name_H-M   'P 1'
_cell_length_a   9.53258314
_cell_length_b   9.53258314
_cell_length_c   6.85797954
_cell_angle_alpha   90.00000000
_cell_angle_beta   90.00000000
_cell_angle_gamma   120.00000001
_symmetry_Int_Tables_number   1
_chemical_formula_structural   La4MnS6O
_chemical_formula_sum   'La8 Mn2 S12 O2'
_cell_volume   539.69453468
_cell_formula_units_Z   2
loop_
 _symmetry_equiv_pos_site_id
 _symmetry_equiv_pos_as_xyz
  1  'x, y, z'
loop_
 _atom_site_type_symbol
 _atom_site_label
 _atom_site_symmetry_multiplicity
 _atom_site_fract_x
 _atom_site_fract_y
 _atom_site_fract_z
 _atom_site_occupancy
  O  O0  1  0.333333  0.666667  0.560212  1
  O  O1  1  0.666667  0.333334  0.060212  1
  S  S2  1  0.875754  0.124246  0.780953  1
  S  S3  1  0.468915  0.937829  0.959388  1
  S  S4  1  0.062171  0.531085  0.959388  1
  S  S5  1  0.531086  0.468914  0.459388  1
  S  S6  1  0.531085  0.062171  0.459388  1
  S  S7  1  0.751508  0.875754  0.280953  1
  S  S8  1  0.124246  0.248492  0.280953  1
  S  S9  1  0.875754  0.751508  0.780953  1
  S  S10  1  0.468914  0.531085  0.959388  1
  S  S11  1  0.937828  0.468914  0.459388  1
  S  S12  1  0.248492  0.124246  0.780953  1
  S  S13  1  0.124247  0.875754  0.280953  1
  Mn  Mn14  1  0.000000  0.000000  0.504551  1
  Mn  Mn15  1  0.000000  0.000000  0.004551  1
  La  La16  1  0.395641  0.197820  0.182842  1
  La  La17  1  0.333333  0.666667  0.213159  1
  La  La18  1  0.197821  0.802180  0.682841  1
  La  La19  1  0.666667  0.333334  0.713159  1
  La  La20  1  0.802179  0.604358  0.182842  1
  La  La21  1  0.197820  0.395641  0.682841  1
  La  La22  1  0.604359  0.802180  0.682841  1
  La  La23  1  0.802179  0.197820  0.182842  1
