# generated using pymatgen
data_MgSiO3
_symmetry_space_group_name_H-M   'P 1'
_cell_length_a   18.74787590
_cell_length_b   8.95803865
_cell_length_c   5.18770865
_cell_angle_alpha   90.00040673
_cell_angle_beta   84.06906283
_cell_angle_gamma   90.00031516
_symmetry_Int_Tables_number   1
_chemical_formula_structural   MgSiO3
_chemical_formula_sum   'Mg16 Si16 O48'
_cell_volume   866.58193220
_cell_formula_units_Z   16
loop_
 _symmetry_equiv_pos_site_id
 _symmetry_equiv_pos_as_xyz
  1  'x, y, z'
loop_
 _atom_site_type_symbol
 _atom_site_label
 _atom_site_symmetry_multiplicity
 _atom_site_fract_x
 _atom_site_fract_y
 _atom_site_fract_z
 _atom_site_occupancy
  Mg  Mg0  1  0.000000  0.598201  0.749999  1
  Mg  Mg1  1  -0.000000  0.401799  0.250001  1
  Mg  Mg2  1  -0.000001  0.761230  0.250001  1
  Mg  Mg3  1  0.000001  0.238770  0.749999  1
  Mg  Mg4  1  0.250854  0.098858  0.605973  1
  Mg  Mg5  1  0.749146  0.098853  0.894024  1
  Mg  Mg6  1  0.749146  0.901142  0.394027  1
  Mg  Mg7  1  0.250854  0.901147  0.105976  1
  Mg  Mg8  1  0.253718  0.738592  0.608780  1
  Mg  Mg9  1  0.746277  0.738590  0.891225  1
  Mg  Mg10  1  0.746282  0.261408  0.391220  1
  Mg  Mg11  1  0.253723  0.261410  0.108775  1
  Mg  Mg12  1  0.500001  0.401937  0.250000  1
  Mg  Mg13  1  0.499999  0.598063  0.750000  1
  Mg  Mg14  1  0.500001  0.762198  0.250003  1
  Mg  Mg15  1  0.499999  0.237802  0.749997  1
  Si  Si16  1  0.894510  0.090706  0.497784  1
  Si  Si17  1  0.105491  0.090712  0.002217  1
  Si  Si18  1  0.105490  0.909294  0.502216  1
  Si  Si19  1  0.894509  0.909288  -0.002217  1
  Si  Si20  1  0.852163  0.590924  0.462629  1
  Si  Si21  1  0.147836  0.590931  0.037373  1
  Si  Si22  1  0.147837  0.409076  0.537371  1
  Si  Si23  1  0.852164  0.409069  0.962627  1
  Si  Si24  1  0.399812  0.089084  0.213681  1
  Si  Si25  1  0.600189  0.089083  0.286320  1
  Si  Si26  1  0.600188  0.910916  0.786319  1
  Si  Si27  1  0.399811  0.910917  0.713680  1
  Si  Si28  1  0.352024  0.410917  0.642283  1
  Si  Si29  1  0.647976  0.410912  0.857715  1
  Si  Si30  1  0.647976  0.589083  0.357717  1
  Si  Si31  1  0.352024  0.589088  0.142285  1
  O  O32  1  0.806856  0.092114  0.533023  1
  O  O33  1  0.193146  0.092119  0.966978  1
  O  O34  1  0.193144  0.907886  0.466977  1
  O  O35  1  0.806854  0.907881  0.033022  1
  O  O36  1  0.938716  0.242979  0.449091  1
  O  O37  1  0.061286  0.242985  0.050910  1
  O  O38  1  0.061284  0.757021  0.550909  1
  O  O39  1  0.938714  0.757015  0.949090  1
  O  O40  1  0.922474  0.961531  0.280828  1
  O  O41  1  0.077526  0.961538  0.219172  1
  O  O42  1  0.077526  0.038469  0.719172  1
  O  O43  1  0.922474  0.038462  0.780828  1
  O  O44  1  0.939913  0.592415  0.437531  1
  O  O45  1  0.060086  0.592419  0.062469  1
  O  O46  1  0.060087  0.407585  0.562469  1
  O  O47  1  0.939914  0.407581  0.937531  1
  O  O48  1  0.810855  0.742357  0.558491  1
  O  O49  1  0.189143  0.742365  0.941513  1
  O  O50  1  0.189145  0.257643  0.441509  1
  O  O51  1  0.810857  0.257635  0.058487  1
  O  O52  1  0.824056  0.460287  0.681406  1
  O  O53  1  0.175945  0.460297  0.818591  1
  O  O54  1  0.175944  0.539713  0.318594  1
  O  O55  1  0.824055  0.539703  0.181409  1
  O  O56  1  0.312099  0.090881  0.249275  1
  O  O57  1  0.687902  0.090879  0.250726  1
  O  O58  1  0.687901  0.909119  0.750725  1
  O  O59  1  0.312098  0.909121  0.749274  1
  O  O60  1  0.440114  0.236213  0.095357  1
  O  O61  1  0.559887  0.236213  0.404642  1
  O  O62  1  0.559886  0.763787  0.904643  1
  O  O63  1  0.440113  0.763787  0.595358  1
  O  O64  1  0.426233  0.050914  0.507527  1
  O  O65  1  0.573766  0.050913  0.992475  1
  O  O66  1  0.573767  0.949086  0.492473  1
  O  O67  1  0.426234  0.949087  0.007525  1
  O  O68  1  0.439973  0.408744  0.608576  1
  O  O69  1  0.560028  0.408741  0.891422  1
  O  O70  1  0.560027  0.591256  0.391424  1
  O  O71  1  0.439972  0.591259  0.108578  1
  O  O72  1  0.311037  0.264608  0.759824  1
  O  O73  1  0.688964  0.264605  0.740172  1
  O  O74  1  0.688963  0.735392  0.240176  1
  O  O75  1  0.311036  0.735395  0.259828  1
  O  O76  1  0.325809  0.448522  0.347855  1
  O  O77  1  0.674191  0.448520  0.152143  1
  O  O78  1  0.674191  0.551478  0.652145  1
  O  O79  1  0.325809  0.551481  0.847857  1
