# generated using pymatgen
data_Te2MoWS2
_symmetry_space_group_name_H-M   'P 1'
_cell_length_a   3.35580244
_cell_length_b   3.35574242
_cell_length_c   38.30585906
_cell_angle_alpha   89.99997300
_cell_angle_beta   90.00000000
_cell_angle_gamma   120.00059164
_symmetry_Int_Tables_number   1
_chemical_formula_structural   Te2MoWS2
_chemical_formula_sum   'Te4 Mo2 W2 S4'
_cell_volume   373.57538486
_cell_formula_units_Z   2
loop_
 _symmetry_equiv_pos_site_id
 _symmetry_equiv_pos_as_xyz
  1  'x, y, z'
loop_
 _atom_site_type_symbol
 _atom_site_label
 _atom_site_symmetry_multiplicity
 _atom_site_fract_x
 _atom_site_fract_y
 _atom_site_fract_z
 _atom_site_occupancy
  Te  Te0  1  0.666632  0.333262  0.044608  1
  Te  Te1  1  0.666648  0.333294  0.420361  1
  Te  Te2  1  0.666648  0.333295  0.143238  1
  Te  Te3  1  0.666648  0.333294  0.518995  1
  Mo  Mo4  1  0.333308  0.666616  0.093891  1
  Mo  Mo5  1  0.333311  0.666622  0.469647  1
  W  W6  1  0.666713  0.333427  0.281777  1
  W  W7  1  0.666690  0.333380  0.657542  1
  S  S8  1  0.333348  0.666697  0.321427  1
  S  S9  1  0.333357  0.666715  0.697194  1
  S  S10  1  0.333343  0.666688  0.242172  1
  S  S11  1  0.333355  0.666711  0.617896  1
