# generated using pymatgen
data_Rb3P6N11
_symmetry_space_group_name_H-M   'P 1'
_cell_length_a   10.61422676
_cell_length_b   10.61422676
_cell_length_c   10.61422676
_cell_angle_alpha   90.00000000
_cell_angle_beta   90.00000000
_cell_angle_gamma   90.00000000
_symmetry_Int_Tables_number   1
_chemical_formula_structural   Rb3P6N11
_chemical_formula_sum   'Rb12 P24 N44'
_cell_volume   1195.81799548
_cell_formula_units_Z   4
loop_
 _symmetry_equiv_pos_site_id
 _symmetry_equiv_pos_as_xyz
  1  'x, y, z'
loop_
 _atom_site_type_symbol
 _atom_site_label
 _atom_site_symmetry_multiplicity
 _atom_site_fract_x
 _atom_site_fract_y
 _atom_site_fract_z
 _atom_site_occupancy
  N  N0  1  0.551809  0.551809  0.551809  1
  N  N1  1  0.801809  0.698191  0.301809  1
  N  N2  1  0.698191  0.301809  0.801809  1
  N  N3  1  0.301809  0.801809  0.698191  1
  N  N4  1  0.051809  0.948191  0.448191  1
  N  N5  1  0.948191  0.448191  0.051809  1
  N  N6  1  0.448191  0.051809  0.948191  1
  N  N7  1  0.198191  0.198191  0.198191  1
  N  N8  1  0.625000  0.309425  0.559425  1
  N  N9  1  0.690575  0.059425  0.875000  1
  N  N10  1  0.559425  0.625000  0.309425  1
  N  N11  1  0.940575  0.375000  0.809425  1
  N  N12  1  0.309425  0.559425  0.625000  1
  N  N13  1  0.440575  0.125000  0.190575  1
  N  N14  1  0.059425  0.875000  0.690575  1
  N  N15  1  0.809425  0.940575  0.375000  1
  N  N16  1  0.190575  0.440575  0.125000  1
  N  N17  1  0.875000  0.690575  0.059425  1
  N  N18  1  0.375000  0.809425  0.940575  1
  N  N19  1  0.277028  0.010932  0.345212  1
  N  N20  1  0.125000  0.190575  0.440575  1
  N  N21  1  0.239068  0.027028  0.595212  1
  N  N22  1  0.472972  0.404788  0.739068  1
  N  N23  1  0.527028  0.904788  0.760932  1
  N  N24  1  0.404788  0.739068  0.472972  1
  N  N25  1  0.095212  0.260932  0.972972  1
  N  N26  1  0.489068  0.654788  0.777028  1
  N  N27  1  0.989068  0.845212  0.222972  1
  N  N28  1  0.510932  0.154788  0.722972  1
  N  N29  1  0.845212  0.222972  0.989068  1
  N  N30  1  0.722972  0.510932  0.154788  1
  N  N31  1  0.222972  0.989068  0.845212  1
  N  N32  1  0.654788  0.777028  0.489068  1
  N  N33  1  0.777028  0.489068  0.654788  1
  N  N34  1  0.154788  0.722972  0.510932  1
  N  N35  1  0.345212  0.277028  0.010932  1
  N  N36  1  0.010932  0.345212  0.277028  1
  N  N37  1  0.260932  0.972972  0.095212  1
  N  N38  1  0.760932  0.527028  0.904788  1
  N  N39  1  0.027028  0.595212  0.239068  1
  N  N40  1  0.972972  0.095212  0.260932  1
  N  N41  1  0.904788  0.760932  0.527028  1
  N  N42  1  0.595212  0.239068  0.027028  1
  N  N43  1  0.739068  0.472972  0.404788  1
  P  P44  1  0.679628  0.452994  0.541974  1
  P  P45  1  0.179628  0.047006  0.458026  1
  P  P46  1  0.452994  0.541974  0.679628  1
  P  P47  1  0.547006  0.041974  0.820372  1
  P  P48  1  0.541974  0.679628  0.452994  1
  P  P49  1  0.958026  0.320372  0.952994  1
  P  P50  1  0.429628  0.791974  0.797006  1
  P  P51  1  0.929628  0.708026  0.202994  1
  P  P52  1  0.570372  0.291974  0.702994  1
  P  P53  1  0.708026  0.202994  0.929628  1
  P  P54  1  0.702994  0.570372  0.291974  1
  P  P55  1  0.202994  0.929628  0.708026  1
  P  P56  1  0.791974  0.797006  0.429628  1
  P  P57  1  0.797006  0.429628  0.791974  1
  P  P58  1  0.291974  0.702994  0.570372  1
  P  P59  1  0.208026  0.297006  0.070372  1
  P  P60  1  0.297006  0.070372  0.208026  1
  P  P61  1  0.458026  0.179628  0.047006  1
  P  P62  1  0.041974  0.820372  0.547006  1
  P  P63  1  0.952994  0.958026  0.320372  1
  P  P64  1  0.047006  0.458026  0.179628  1
  P  P65  1  0.820372  0.547006  0.041974  1
  P  P66  1  0.320372  0.952994  0.958026  1
  P  P67  1  0.070372  0.208026  0.297006  1
  Rb  Rb68  1  0.989175  0.989175  0.989175  1
  Rb  Rb69  1  0.239175  0.260825  0.739175  1
  Rb  Rb70  1  0.260825  0.739175  0.239175  1
  Rb  Rb71  1  0.739175  0.239175  0.260825  1
  Rb  Rb72  1  0.489175  0.510825  0.010825  1
  Rb  Rb73  1  0.510825  0.010825  0.489175  1
  Rb  Rb74  1  0.010825  0.489175  0.510825  1
  Rb  Rb75  1  0.760825  0.760825  0.760825  1
  Rb  Rb76  1  0.875000  0.125000  0.625000  1
  Rb  Rb77  1  0.125000  0.625000  0.875000  1
  Rb  Rb78  1  0.625000  0.875000  0.125000  1
  Rb  Rb79  1  0.375000  0.375000  0.375000  1
