# generated using pymatgen
data_Gd2SiTeO4
_symmetry_space_group_name_H-M   'P 1'
_cell_length_a   6.23913265
_cell_length_b   7.11513007
_cell_length_c   11.20458827
_cell_angle_alpha   90.00000000
_cell_angle_beta   90.00000000
_cell_angle_gamma   90.00000000
_symmetry_Int_Tables_number   1
_chemical_formula_structural   Gd2SiTeO4
_chemical_formula_sum   'Gd8 Si4 Te4 O16'
_cell_volume   497.39677527
_cell_formula_units_Z   4
loop_
 _symmetry_equiv_pos_site_id
 _symmetry_equiv_pos_as_xyz
  1  'x, y, z'
loop_
 _atom_site_type_symbol
 _atom_site_label
 _atom_site_symmetry_multiplicity
 _atom_site_fract_x
 _atom_site_fract_y
 _atom_site_fract_z
 _atom_site_occupancy
  O  O0  1  0.273119  0.072766  0.466503  1
  O  O1  1  0.273119  0.427234  0.533497  1
  O  O2  1  0.726881  0.572766  0.033497  1
  O  O3  1  0.726881  0.927234  0.966503  1
  O  O4  1  0.726881  0.927234  0.533497  1
  O  O5  1  0.726881  0.572766  0.466503  1
  O  O6  1  0.273119  0.427234  0.966503  1
  O  O7  1  0.273119  0.072766  0.033497  1
  O  O8  1  0.049976  0.764954  0.383286  1
  O  O9  1  0.049976  0.764954  0.116714  1
  O  O10  1  0.950024  0.264954  0.116714  1
  O  O11  1  0.950024  0.235046  0.883286  1
  O  O12  1  0.950024  0.235046  0.616714  1
  O  O13  1  0.950024  0.264954  0.383286  1
  O  O14  1  0.049976  0.735046  0.883286  1
  O  O15  1  0.049976  0.735046  0.616714  1
  Si  Si16  1  0.114843  0.250000  0.000000  1
  Si  Si17  1  0.885157  0.750000  0.000000  1
  Si  Si18  1  0.885157  0.750000  0.500000  1
  Si  Si19  1  0.114843  0.250000  0.500000  1
  Te  Te20  1  0.591346  0.592303  0.750000  1
  Te  Te21  1  0.591346  0.907697  0.250000  1
  Te  Te22  1  0.408654  0.092303  0.750000  1
  Te  Te23  1  0.408654  0.407697  0.250000  1
  Gd  Gd24  1  0.387894  0.750000  0.500000  1
  Gd  Gd25  1  0.387894  0.750000  0.000000  1
  Gd  Gd26  1  0.612106  0.250000  0.500000  1
  Gd  Gd27  1  0.612106  0.250000  0.000000  1
  Gd  Gd28  1  0.888797  0.966698  0.750000  1
  Gd  Gd29  1  0.888797  0.533302  0.250000  1
  Gd  Gd30  1  0.111203  0.466698  0.750000  1
  Gd  Gd31  1  0.111203  0.033302  0.250000  1
