# generated using pymatgen
data_Y6Mn23
_symmetry_space_group_name_H-M   'P 1'
_cell_length_a   8.53142928
_cell_length_b   8.53142928
_cell_length_c   8.53142928
_cell_angle_alpha   60.00000001
_cell_angle_beta   60.00000001
_cell_angle_gamma   59.99999999
_symmetry_Int_Tables_number   1
_chemical_formula_structural   Y6Mn23
_chemical_formula_sum   'Y6 Mn23'
_cell_volume   439.08680652
_cell_formula_units_Z   1
loop_
 _symmetry_equiv_pos_site_id
 _symmetry_equiv_pos_as_xyz
  1  'x, y, z'
loop_
 _atom_site_type_symbol
 _atom_site_label
 _atom_site_symmetry_multiplicity
 _atom_site_fract_x
 _atom_site_fract_y
 _atom_site_fract_z
 _atom_site_occupancy
  Mn  Mn0  1  0.500000  0.500000  0.500000  1
  Mn  Mn1  1  0.500000  0.000000  0.000000  1
  Mn  Mn2  1  0.000000  0.000000  0.500000  1
  Mn  Mn3  1  0.500000  0.500000  0.000000  1
  Mn  Mn4  1  0.000000  0.500000  0.500000  1
  Mn  Mn5  1  0.000000  0.500000  0.000000  1
  Mn  Mn6  1  0.500000  0.000000  0.500000  1
  Mn  Mn7  1  0.376916  0.376916  0.376916  1
  Mn  Mn8  1  0.623084  0.623084  0.130747  1
  Mn  Mn9  1  0.130747  0.623084  0.623084  1
  Mn  Mn10  1  0.623084  0.130747  0.623084  1
  Mn  Mn11  1  0.869253  0.376916  0.376916  1
  Mn  Mn12  1  0.376916  0.869253  0.376916  1
  Mn  Mn13  1  0.376916  0.376916  0.869253  1
  Mn  Mn14  1  0.623084  0.623084  0.623084  1
  Mn  Mn15  1  0.178136  0.178136  0.178136  1
  Mn  Mn16  1  0.821864  0.821864  0.534407  1
  Mn  Mn17  1  0.534407  0.821864  0.821864  1
  Mn  Mn18  1  0.821864  0.534407  0.821864  1
  Mn  Mn19  1  0.465593  0.178136  0.178136  1
  Mn  Mn20  1  0.178136  0.465593  0.178136  1
  Mn  Mn21  1  0.178136  0.178136  0.465593  1
  Mn  Mn22  1  0.821864  0.821864  0.821864  1
  Y  Y23  1  0.795994  0.204006  0.204006  1
  Y  Y24  1  0.795994  0.795994  0.204006  1
  Y  Y25  1  0.204006  0.204006  0.795994  1
  Y  Y26  1  0.795994  0.204006  0.795994  1
  Y  Y27  1  0.204006  0.795994  0.204006  1
  Y  Y28  1  0.204006  0.795994  0.795994  1
