# generated using pymatgen
data_AgWS4N
_symmetry_space_group_name_H-M   'P 1'
_cell_length_a   5.90333385
_cell_length_b   6.43548836
_cell_length_c   6.43548836
_cell_angle_alpha   77.85630825
_cell_angle_beta   62.69966885
_cell_angle_gamma   62.69966885
_symmetry_Int_Tables_number   1
_chemical_formula_structural   AgWS4N
_chemical_formula_sum   'Ag1 W1 S4 N1'
_cell_volume   193.05774698
_cell_formula_units_Z   1
loop_
 _symmetry_equiv_pos_site_id
 _symmetry_equiv_pos_as_xyz
  1  'x, y, z'
loop_
 _atom_site_type_symbol
 _atom_site_label
 _atom_site_symmetry_multiplicity
 _atom_site_fract_x
 _atom_site_fract_y
 _atom_site_fract_z
 _atom_site_occupancy
  Ag  Ag0  1  0.500000  0.000000  0.000000  1
  W  W1  1  0.000000  0.000000  0.000000  1
  S  S2  1  0.405847  0.922971  0.687641  1
  S  S3  1  0.016459  0.077029  0.312359  1
  S  S4  1  0.906512  0.687641  0.077029  1
  S  S5  1  0.671182  0.312359  0.922971  1
  N  N6  1  0.250000  0.500000  0.500000  1
