# generated using pymatgen
data_TeMoWSe2S
_symmetry_space_group_name_H-M   'P 1'
_cell_length_a   3.34658085
_cell_length_b   3.34655911
_cell_length_c   38.10739707
_cell_angle_alpha   89.99982885
_cell_angle_beta   90.00000000
_cell_angle_gamma   120.00021496
_symmetry_Int_Tables_number   1
_chemical_formula_structural   TeMoWSe2S
_chemical_formula_sum   'Te2 Mo2 W2 Se4 S2'
_cell_volume   369.60581777
_cell_formula_units_Z   2
loop_
 _symmetry_equiv_pos_site_id
 _symmetry_equiv_pos_as_xyz
  1  'x, y, z'
loop_
 _atom_site_type_symbol
 _atom_site_label
 _atom_site_symmetry_multiplicity
 _atom_site_fract_x
 _atom_site_fract_y
 _atom_site_fract_z
 _atom_site_occupancy
  Te  Te0  1  0.333353  0.666706  0.707620  1
  Te  Te1  1  0.333353  0.666706  0.607508  1
  Mo  Mo2  1  0.333327  0.666654  0.093934  1
  Mo  Mo3  1  0.333314  0.666628  0.469617  1
  W  W4  1  0.666691  0.333382  0.281794  1
  W  W5  1  0.666693  0.333386  0.657579  1
  Se  Se6  1  0.333351  0.666704  0.325751  1
  Se  Se7  1  0.666646  0.333291  0.425892  1
  Se  Se8  1  0.666648  0.333295  0.513372  1
  Se  Se9  1  0.333351  0.666703  0.237818  1
  S  S10  1  0.666641  0.333280  0.054136  1
  S  S11  1  0.666632  0.333263  0.133727  1
