# generated using pymatgen
data_Tb3Co29(Si2B5)2
_symmetry_space_group_name_H-M   'P 1'
_cell_length_a   7.81753912
_cell_length_b   11.12523199
_cell_length_c   11.12523199
_cell_angle_alpha   90.00000000
_cell_angle_beta   90.00000000
_cell_angle_gamma   90.00000000
_symmetry_Int_Tables_number   1
_chemical_formula_structural   Tb3Co29(Si2B5)2
_chemical_formula_sum   'Tb6 Co58 Si8 B20'
_cell_volume   967.58296797
_cell_formula_units_Z   2
loop_
 _symmetry_equiv_pos_site_id
 _symmetry_equiv_pos_as_xyz
  1  'x, y, z'
loop_
 _atom_site_type_symbol
 _atom_site_label
 _atom_site_symmetry_multiplicity
 _atom_site_fract_x
 _atom_site_fract_y
 _atom_site_fract_z
 _atom_site_occupancy
  B  B0  1  0.518135  0.935900  0.935900  1
  B  B1  1  0.518135  0.564100  0.564100  1
  B  B2  1  0.518135  0.935900  0.564100  1
  B  B3  1  0.518135  0.564100  0.935900  1
  B  B4  1  0.481865  0.435900  0.435900  1
  B  B5  1  0.481865  0.064100  0.435900  1
  B  B6  1  0.263253  0.006090  0.750000  1
  B  B7  1  0.263253  0.493910  0.750000  1
  B  B8  1  0.263253  0.750000  0.493910  1
  B  B9  1  0.263253  0.750000  0.006090  1
  B  B10  1  0.736747  0.250000  0.506090  1
  B  B11  1  0.736747  0.993910  0.250000  1
  B  B12  1  0.736747  0.506090  0.250000  1
  B  B13  1  0.736747  0.250000  0.993910  1
  B  B14  1  0.148596  0.750000  0.750000  1
  B  B15  1  0.851404  0.250000  0.250000  1
  B  B16  1  0.892737  0.750000  0.750000  1
  B  B17  1  0.107263  0.250000  0.250000  1
  B  B18  1  0.481865  0.435900  0.064100  1
  B  B19  1  0.481865  0.064100  0.064100  1
  Si  Si20  1  0.824643  0.432225  0.750000  1
  Si  Si21  1  0.175357  0.250000  0.567775  1
  Si  Si22  1  0.175357  0.932225  0.250000  1
  Si  Si23  1  0.175357  0.567775  0.250000  1
  Si  Si24  1  0.175357  0.250000  0.932225  1
  Si  Si25  1  0.824643  0.750000  0.432225  1
  Si  Si26  1  0.824643  0.750000  0.067775  1
  Si  Si27  1  0.824643  0.067775  0.750000  1
  Co  Co28  1  0.336549  0.424354  0.588454  1
  Co  Co29  1  0.526158  0.750000  0.522462  1
  Co  Co30  1  0.526158  0.522462  0.750000  1
  Co  Co31  1  0.526158  0.977538  0.750000  1
  Co  Co32  1  0.970675  0.250000  0.085377  1
  Co  Co33  1  0.970675  0.414623  0.250000  1
  Co  Co34  1  0.970675  0.085377  0.250000  1
  Co  Co35  1  0.970675  0.250000  0.414623  1
  Co  Co36  1  0.029325  0.750000  0.914623  1
  Co  Co37  1  0.029325  0.750000  0.585377  1
  Co  Co38  1  0.029325  0.585377  0.750000  1
  Co  Co39  1  0.029325  0.914623  0.750000  1
  Co  Co40  1  0.249564  0.134597  0.134597  1
  Co  Co41  1  0.249564  0.365403  0.134597  1
  Co  Co42  1  0.249564  0.134597  0.365403  1
  Co  Co43  1  0.249564  0.365403  0.365403  1
  Co  Co44  1  0.750436  0.634597  0.865403  1
  Co  Co45  1  0.750436  0.865403  0.634597  1
  Co  Co46  1  0.750436  0.634597  0.634597  1
  Co  Co47  1  0.750436  0.865403  0.865403  1
  Co  Co48  1  0.698510  0.140019  0.140019  1
  Co  Co49  1  0.698510  0.359981  0.140019  1
  Co  Co50  1  0.698510  0.140019  0.359981  1
  Co  Co51  1  0.698510  0.359981  0.359981  1
  Co  Co52  1  0.301490  0.640019  0.859981  1
  Co  Co53  1  0.301490  0.859981  0.640019  1
  Co  Co54  1  0.301490  0.640019  0.640019  1
  Co  Co55  1  0.301490  0.859981  0.859981  1
  Co  Co56  1  0.336549  0.075646  0.588454  1
  Co  Co57  1  0.336549  0.911546  0.075646  1
  Co  Co58  1  0.336549  0.588454  0.424354  1
  Co  Co59  1  0.336549  0.424354  0.911546  1
  Co  Co60  1  0.663451  0.575646  0.411546  1
  Co  Co61  1  0.663451  0.924354  0.088454  1
  Co  Co62  1  0.663451  0.088454  0.575646  1
  Co  Co63  1  0.888665  0.250000  0.860142  1
  Co  Co64  1  0.663451  0.924354  0.411546  1
  Co  Co65  1  0.663451  0.088454  0.924354  1
  Co  Co66  1  0.663451  0.411546  0.575646  1
  Co  Co67  1  0.663451  0.575646  0.088454  1
  Co  Co68  1  0.526158  0.750000  0.977538  1
  Co  Co69  1  0.888665  0.639858  0.250000  1
  Co  Co70  1  0.336549  0.911546  0.424354  1
  Co  Co71  1  0.336549  0.588454  0.075646  1
  Co  Co72  1  0.888665  0.860142  0.250000  1
  Co  Co73  1  0.888665  0.250000  0.639858  1
  Co  Co74  1  0.533345  0.750000  0.750000  1
  Co  Co75  1  0.466655  0.250000  0.250000  1
  Co  Co76  1  0.111335  0.750000  0.360142  1
  Co  Co77  1  0.473842  0.250000  0.477538  1
  Co  Co78  1  0.473842  0.022462  0.250000  1
  Co  Co79  1  0.473842  0.477538  0.250000  1
  Co  Co80  1  0.473842  0.250000  0.022462  1
  Co  Co81  1  0.111335  0.360142  0.750000  1
  Co  Co82  1  0.111335  0.139858  0.750000  1
  Co  Co83  1  0.111335  0.750000  0.139858  1
  Co  Co84  1  0.663451  0.411546  0.924354  1
  Co  Co85  1  0.336549  0.075646  0.911546  1
  Tb  Tb86  1  0.000000  0.500000  0.500000  1
  Tb  Tb87  1  0.000000  0.000000  0.500000  1
  Tb  Tb88  1  0.000000  0.500000  0.000000  1
  Tb  Tb89  1  0.000000  0.000000  0.000000  1
  Tb  Tb90  1  0.500000  0.750000  0.250000  1
  Tb  Tb91  1  0.500000  0.250000  0.750000  1
