# generated using pymatgen
data_Al17(Re2Si)2
_symmetry_space_group_name_H-M   'P 1'
_cell_length_a   12.93086401
_cell_length_b   12.93086401
_cell_length_c   12.93086401
_cell_angle_alpha   90.00000000
_cell_angle_beta   90.00000000
_cell_angle_gamma   90.00000000
_symmetry_Int_Tables_number   1
_chemical_formula_structural   Al17(Re2Si)2
_chemical_formula_sum   'Al102 Si12 Re24'
_cell_volume   2162.13413423
_cell_formula_units_Z   6
loop_
 _symmetry_equiv_pos_site_id
 _symmetry_equiv_pos_as_xyz
  1  'x, y, z'
loop_
 _atom_site_type_symbol
 _atom_site_label
 _atom_site_symmetry_multiplicity
 _atom_site_fract_x
 _atom_site_fract_y
 _atom_site_fract_z
 _atom_site_occupancy
  Al  Al0  1  0.164502  0.102077  0.000000  1
  Al  Al1  1  0.000000  0.164502  0.102077  1
  Al  Al2  1  0.102077  0.000000  0.164502  1
  Al  Al3  1  0.897923  0.000000  0.164502  1
  Al  Al4  1  0.000000  0.835498  0.897923  1
  Al  Al5  1  0.897923  0.000000  0.835498  1
  Al  Al6  1  0.000000  0.835498  0.102077  1
  Al  Al7  1  0.000000  0.164502  0.897923  1
  Al  Al8  1  0.102077  0.000000  0.835498  1
  Al  Al9  1  0.164502  0.897923  0.000000  1
  Al  Al10  1  0.835498  0.102077  0.000000  1
  Al  Al11  1  0.835498  0.897923  0.000000  1
  Al  Al12  1  0.332113  0.398382  0.500000  1
  Al  Al13  1  0.500000  0.332113  0.398382  1
  Al  Al14  1  0.398382  0.500000  0.332113  1
  Al  Al15  1  0.601618  0.500000  0.332113  1
  Al  Al16  1  0.500000  0.667887  0.601618  1
  Al  Al17  1  0.601618  0.500000  0.667887  1
  Al  Al18  1  0.500000  0.667887  0.398382  1
  Al  Al19  1  0.500000  0.332113  0.601618  1
  Al  Al20  1  0.398382  0.500000  0.667887  1
  Al  Al21  1  0.332113  0.601618  0.500000  1
  Al  Al22  1  0.667887  0.398382  0.500000  1
  Al  Al23  1  0.667887  0.601618  0.500000  1
  Al  Al24  1  0.366261  0.000000  0.000000  1
  Al  Al25  1  0.000000  0.366261  0.000000  1
  Al  Al26  1  0.000000  0.000000  0.366261  1
  Al  Al27  1  0.000000  0.633739  0.000000  1
  Al  Al28  1  0.000000  0.000000  0.633739  1
  Al  Al29  1  0.633739  0.000000  0.000000  1
  Al  Al30  1  0.111180  0.500000  0.500000  1
  Al  Al31  1  0.500000  0.111180  0.500000  1
  Al  Al32  1  0.500000  0.500000  0.111180  1
  Al  Al33  1  0.500000  0.888820  0.500000  1
  Al  Al34  1  0.500000  0.500000  0.888820  1
  Al  Al35  1  0.888820  0.500000  0.500000  1
  Al  Al36  1  0.120548  0.186753  0.304387  1
  Al  Al37  1  0.304387  0.120548  0.186753  1
  Al  Al38  1  0.186753  0.304387  0.120548  1
  Al  Al39  1  0.813247  0.695613  0.120548  1
  Al  Al40  1  0.304387  0.879452  0.813247  1
  Al  Al41  1  0.813247  0.304387  0.879452  1
  Al  Al42  1  0.695613  0.879452  0.186753  1
  Al  Al43  1  0.695613  0.120548  0.813247  1
  Al  Al44  1  0.186753  0.695613  0.879452  1
  Al  Al45  1  0.120548  0.813247  0.695613  1
  Al  Al46  1  0.879452  0.186753  0.695613  1
  Al  Al47  1  0.879452  0.813247  0.304387  1
  Al  Al48  1  0.879452  0.813247  0.695613  1
  Al  Al49  1  0.695613  0.879452  0.813247  1
  Al  Al50  1  0.813247  0.695613  0.879452  1
  Al  Al51  1  0.186753  0.304387  0.879452  1
  Al  Al52  1  0.695613  0.120548  0.186753  1
  Al  Al53  1  0.186753  0.695613  0.120548  1
  Al  Al54  1  0.304387  0.120548  0.813247  1
  Al  Al55  1  0.304387  0.879452  0.186753  1
  Al  Al56  1  0.813247  0.304387  0.120548  1
  Al  Al57  1  0.879452  0.186753  0.304387  1
  Al  Al58  1  0.120548  0.813247  0.304387  1
  Al  Al59  1  0.120548  0.186753  0.695613  1
  Al  Al60  1  0.391185  0.313952  0.191995  1
  Al  Al61  1  0.191995  0.391185  0.313952  1
  Al  Al62  1  0.313952  0.191995  0.391185  1
  Al  Al63  1  0.686048  0.808005  0.391185  1
  Al  Al64  1  0.191995  0.608815  0.686048  1
  Al  Al65  1  0.686048  0.191995  0.608815  1
  Al  Al66  1  0.808005  0.608815  0.313952  1
  Al  Al67  1  0.808005  0.391185  0.686048  1
  Al  Al68  1  0.313952  0.808005  0.608815  1
  Al  Al69  1  0.391185  0.686048  0.808005  1
  Al  Al70  1  0.608815  0.313952  0.808005  1
  Al  Al71  1  0.608815  0.686048  0.191995  1
  Al  Al72  1  0.608815  0.686048  0.808005  1
  Al  Al73  1  0.808005  0.608815  0.686048  1
  Al  Al74  1  0.686048  0.808005  0.608815  1
  Al  Al75  1  0.313952  0.191995  0.608815  1
  Al  Al76  1  0.808005  0.391185  0.313952  1
  Al  Al77  1  0.313952  0.808005  0.391185  1
  Al  Al78  1  0.191995  0.391185  0.686048  1
  Al  Al79  1  0.191995  0.608815  0.313952  1
  Al  Al80  1  0.686048  0.191995  0.391185  1
  Al  Al81  1  0.608815  0.313952  0.191995  1
  Al  Al82  1  0.391185  0.686048  0.191995  1
  Al  Al83  1  0.391185  0.313952  0.808005  1
  Al  Al84  1  0.871296  0.895420  0.500000  1
  Al  Al85  1  0.871296  0.104580  0.500000  1
  Al  Al86  1  0.128704  0.895420  0.500000  1
  Al  Al87  1  0.104580  0.500000  0.871296  1
  Al  Al88  1  0.500000  0.128704  0.895420  1
  Al  Al89  1  0.500000  0.871296  0.104580  1
  Al  Al90  1  0.895420  0.500000  0.871296  1
  Al  Al91  1  0.500000  0.871296  0.895420  1
  Al  Al92  1  0.895420  0.500000  0.128704  1
  Al  Al93  1  0.104580  0.500000  0.128704  1
  Al  Al94  1  0.500000  0.128704  0.104580  1
  Al  Al95  1  0.128704  0.104580  0.500000  1
  Al  Al96  1  0.687316  0.000000  0.500000  1
  Al  Al97  1  0.000000  0.500000  0.687316  1
  Al  Al98  1  0.500000  0.687316  0.000000  1
  Al  Al99  1  0.000000  0.500000  0.312684  1
  Al  Al100  1  0.500000  0.312684  0.000000  1
  Al  Al101  1  0.312684  0.000000  0.500000  1
  Si  Si102  1  0.000000  0.681028  0.402679  1
  Si  Si103  1  0.681028  0.597321  0.000000  1
  Si  Si104  1  0.681028  0.402679  0.000000  1
  Si  Si105  1  0.318972  0.597321  0.000000  1
  Si  Si106  1  0.402679  0.000000  0.681028  1
  Si  Si107  1  0.000000  0.318972  0.597321  1
  Si  Si108  1  0.597321  0.000000  0.681028  1
  Si  Si109  1  0.000000  0.681028  0.597321  1
  Si  Si110  1  0.597321  0.000000  0.318972  1
  Si  Si111  1  0.402679  0.000000  0.318972  1
  Si  Si112  1  0.000000  0.318972  0.402679  1
  Si  Si113  1  0.318972  0.402679  0.000000  1
  Re  Re114  1  0.165510  0.299639  0.500000  1
  Re  Re115  1  0.500000  0.165510  0.299639  1
  Re  Re116  1  0.299639  0.500000  0.165510  1
  Re  Re117  1  0.700361  0.500000  0.165510  1
  Re  Re118  1  0.500000  0.834490  0.700361  1
  Re  Re119  1  0.700361  0.500000  0.834490  1
  Re  Re120  1  0.500000  0.834490  0.299639  1
  Re  Re121  1  0.834490  0.700361  0.500000  1
  Re  Re122  1  0.834490  0.299639  0.500000  1
  Re  Re123  1  0.165510  0.700361  0.500000  1
  Re  Re124  1  0.299639  0.500000  0.834490  1
  Re  Re125  1  0.500000  0.165510  0.700361  1
  Re  Re126  1  0.673557  0.791408  0.000000  1
  Re  Re127  1  0.673557  0.208592  0.000000  1
  Re  Re128  1  0.326443  0.791408  0.000000  1
  Re  Re129  1  0.208592  0.000000  0.673557  1
  Re  Re130  1  0.000000  0.326443  0.791408  1
  Re  Re131  1  0.000000  0.673557  0.208592  1
  Re  Re132  1  0.791408  0.000000  0.673557  1
  Re  Re133  1  0.000000  0.673557  0.791408  1
  Re  Re134  1  0.791408  0.000000  0.326443  1
  Re  Re135  1  0.208592  0.000000  0.326443  1
  Re  Re136  1  0.000000  0.326443  0.208592  1
  Re  Re137  1  0.326443  0.208592  0.000000  1
