# generated using pymatgen
data_SrMgP3N5O2
_symmetry_space_group_name_H-M   'P 1'
_cell_length_a   7.02225099
_cell_length_b   6.66258809
_cell_length_c   14.14207060
_cell_angle_alpha   90.00000000
_cell_angle_beta   118.70996324
_cell_angle_gamma   90.00000000
_symmetry_Int_Tables_number   1
_chemical_formula_structural   SrMgP3N5O2
_chemical_formula_sum   'Sr4 Mg4 P12 N20 O8'
_cell_volume   580.31383808
_cell_formula_units_Z   4
loop_
 _symmetry_equiv_pos_site_id
 _symmetry_equiv_pos_as_xyz
  1  'x, y, z'
loop_
 _atom_site_type_symbol
 _atom_site_label
 _atom_site_symmetry_multiplicity
 _atom_site_fract_x
 _atom_site_fract_y
 _atom_site_fract_z
 _atom_site_occupancy
  Sr  Sr0  1  0.483376  0.254755  0.609028  1
  Sr  Sr1  1  0.516624  0.754755  0.890972  1
  Sr  Sr2  1  0.516624  0.745245  0.390972  1
  Sr  Sr3  1  0.483376  0.245245  0.109028  1
  Mg  Mg4  1  0.019939  0.493936  0.884758  1
  Mg  Mg5  1  0.980061  0.993936  0.615242  1
  Mg  Mg6  1  0.980061  0.506064  0.115242  1
  Mg  Mg7  1  0.019939  0.006064  0.384758  1
  P  P8  1  0.062748  0.983883  0.880631  1
  P  P9  1  0.937252  0.483883  0.619369  1
  P  P10  1  0.937252  0.016117  0.119369  1
  P  P11  1  0.062748  0.516117  0.380631  1
  P  P12  1  0.259709  0.723962  0.588633  1
  P  P13  1  0.740291  0.223962  0.911367  1
  P  P14  1  0.740291  0.276038  0.411367  1
  P  P15  1  0.259709  0.776038  0.088633  1
  P  P16  1  0.274713  0.242206  0.790641  1
  P  P17  1  0.725287  0.742206  0.709359  1
  P  P18  1  0.725287  0.757794  0.209359  1
  P  P19  1  0.274713  0.257794  0.290641  1
  N  N20  1  0.056799  0.689367  0.612796  1
  N  N21  1  0.943201  0.189367  0.887204  1
  N  N22  1  0.943201  0.310633  0.387204  1
  N  N23  1  0.056799  0.810633  0.112796  1
  N  N24  1  0.106524  0.294305  0.662914  1
  N  N25  1  0.893476  0.794305  0.837086  1
  N  N26  1  0.893476  0.705695  0.337086  1
  N  N27  1  0.106524  0.205695  0.162914  1
  N  N28  1  0.178113  0.025497  0.805435  1
  N  N29  1  0.821887  0.525497  0.694565  1
  N  N30  1  0.821887  0.974503  0.194565  1
  N  N31  1  0.178113  0.474503  0.305435  1
  N  N32  1  0.512084  0.201851  0.799741  1
  N  N33  1  0.487916  0.701851  0.700259  1
  N  N34  1  0.487916  0.798149  0.200259  1
  N  N35  1  0.512084  0.298149  0.299741  1
  N  N36  1  0.732042  0.420992  0.501928  1
  N  N37  1  0.267958  0.920992  0.998072  1
  N  N38  1  0.267958  0.579008  0.498072  1
  N  N39  1  0.732042  0.079008  0.001928  1
  O  O40  1  0.220722  0.949445  0.549430  1
  O  O41  1  0.779278  0.449445  0.950570  1
  O  O42  1  0.779278  0.050555  0.450570  1
  O  O43  1  0.220722  0.550555  0.049430  1
  O  O44  1  0.286164  0.411902  0.869686  1
  O  O45  1  0.713836  0.911902  0.630314  1
  O  O46  1  0.713836  0.588098  0.130314  1
  O  O47  1  0.286164  0.088098  0.369686  1
