# generated using pymatgen
data_Sm3Ti3(SeO4)2
_symmetry_space_group_name_H-M   'P 1'
_cell_length_a   3.90281005
_cell_length_b   9.87437402
_cell_length_c   13.53819469
_cell_angle_alpha   111.25365247
_cell_angle_beta   90.00000000
_cell_angle_gamma   90.00000000
_symmetry_Int_Tables_number   1
_chemical_formula_structural   Sm3Ti3(SeO4)2
_chemical_formula_sum   'Sm6 Ti6 Se4 O16'
_cell_volume   486.24657505
_cell_formula_units_Z   2
loop_
 _symmetry_equiv_pos_site_id
 _symmetry_equiv_pos_as_xyz
  1  'x, y, z'
loop_
 _atom_site_type_symbol
 _atom_site_label
 _atom_site_symmetry_multiplicity
 _atom_site_fract_x
 _atom_site_fract_y
 _atom_site_fract_z
 _atom_site_occupancy
  O  O0  1  0.250000  0.609805  0.529409  1
  O  O1  1  0.750000  0.390195  0.470591  1
  O  O2  1  0.750000  0.822104  0.571541  1
  O  O3  1  0.250000  0.177896  0.428459  1
  O  O4  1  0.250000  0.749728  0.390851  1
  O  O5  1  0.750000  0.250272  0.609149  1
  O  O6  1  0.250000  0.878783  0.251160  1
  O  O7  1  0.750000  0.121217  0.748840  1
  O  O8  1  0.250000  0.558878  0.083797  1
  O  O9  1  0.750000  0.441122  0.916203  1
  O  O10  1  0.250000  0.358561  0.762337  1
  O  O11  1  0.250000  0.994503  0.574237  1
  O  O12  1  0.250000  0.879110  0.746753  1
  O  O13  1  0.750000  0.120890  0.253247  1
  O  O14  1  0.750000  0.641439  0.237663  1
  O  O15  1  0.750000  0.005497  0.425763  1
  Ti  Ti16  1  0.250000  0.809004  0.603842  1
  Ti  Ti17  1  0.750000  0.313897  0.769636  1
  Ti  Ti18  1  0.250000  0.955143  0.412252  1
  Ti  Ti19  1  0.750000  0.044857  0.587748  1
  Ti  Ti20  1  0.750000  0.190996  0.396158  1
  Ti  Ti21  1  0.250000  0.686103  0.230364  1
  Se  Se22  1  0.250000  0.390140  0.253536  1
  Se  Se23  1  0.750000  0.609860  0.746464  1
  Se  Se24  1  0.250000  0.163637  0.984050  1
  Se  Se25  1  0.750000  0.836363  0.015950  1
  Sm  Sm26  1  0.250000  0.582503  0.914368  1
  Sm  Sm27  1  0.750000  0.417497  0.085632  1
  Sm  Sm28  1  0.750000  0.591314  0.410967  1
  Sm  Sm29  1  0.250000  0.408686  0.589033  1
  Sm  Sm30  1  0.250000  0.047797  0.160055  1
  Sm  Sm31  1  0.750000  0.952203  0.839945  1
