# generated using pymatgen
data_Sc3Al3C2O5
_symmetry_space_group_name_H-M   'P 1'
_cell_length_a   3.27648565
_cell_length_b   3.27650417
_cell_length_c   31.81193429
_cell_angle_alpha   89.99913625
_cell_angle_beta   90.00118325
_cell_angle_gamma   120.00459853
_symmetry_Int_Tables_number   1
_chemical_formula_structural   Sc3Al3C2O5
_chemical_formula_sum   'Sc6 Al6 C4 O10'
_cell_volume   295.74647561
_cell_formula_units_Z   2
loop_
 _symmetry_equiv_pos_site_id
 _symmetry_equiv_pos_as_xyz
  1  'x, y, z'
loop_
 _atom_site_type_symbol
 _atom_site_label
 _atom_site_symmetry_multiplicity
 _atom_site_fract_x
 _atom_site_fract_y
 _atom_site_fract_z
 _atom_site_occupancy
  Sc  Sc0  1  0.333310  0.666587  0.659079  1
  Sc  Sc1  1  0.666604  0.333344  0.159069  1
  Sc  Sc2  1  0.666607  0.333378  0.340928  1
  Sc  Sc3  1  0.333379  0.666610  0.840928  1
  Sc  Sc4  1  0.999955  0.000021  0.500000  1
  Sc  Sc5  1  0.000032  -0.000001  0.999995  1
  Al  Al6  1  0.000011  0.000013  0.750012  1
  Al  Al7  1  0.000026  0.000026  0.249991  1
  Al  Al8  1  0.333298  0.666823  0.431455  1
  Al  Al9  1  0.666697  0.333365  0.931453  1
  Al  Al10  1  0.666617  0.333249  0.568548  1
  Al  Al11  1  0.333387  0.666637  0.068534  1
  C  C12  1  0.666622  0.333483  0.454143  1
  C  C13  1  0.333380  0.666682  0.954138  1
  C  C14  1  0.333282  0.666577  0.545861  1
  C  C15  1  0.666693  0.333308  0.045851  1
  O  O16  1  0.333288  0.666692  0.373008  1
  O  O17  1  0.666696  0.333290  0.873007  1
  O  O18  1  0.666654  0.333294  0.626999  1
  O  O19  1  0.333292  0.666672  0.126984  1
  O  O20  1  0.333313  0.666685  0.750020  1
  O  O21  1  0.666690  0.333297  0.249986  1
  O  O22  1  0.000047  0.999960  0.809086  1
  O  O23  1  0.999943  0.000018  0.309072  1
  O  O24  1  0.999944  0.000009  0.190917  1
  O  O25  1  0.000011  0.999959  0.690935  1
