# generated using pymatgen
data_CaAl2SiO6
_symmetry_space_group_name_H-M   'P 1'
_cell_length_a   9.73356987
_cell_length_b   8.73929397
_cell_length_c   5.33814564
_cell_angle_alpha   89.35771756
_cell_angle_beta   106.39272059
_cell_angle_gamma   89.96428555
_symmetry_Int_Tables_number   1
_chemical_formula_structural   CaAl2SiO6
_chemical_formula_sum   'Ca4 Al8 Si4 O24'
_cell_volume   435.59737290
_cell_formula_units_Z   4
loop_
 _symmetry_equiv_pos_site_id
 _symmetry_equiv_pos_as_xyz
  1  'x, y, z'
loop_
 _atom_site_type_symbol
 _atom_site_label
 _atom_site_symmetry_multiplicity
 _atom_site_fract_x
 _atom_site_fract_y
 _atom_site_fract_z
 _atom_site_occupancy
  Ca  Ca0  1  -0.000242  0.309020  0.255684  1
  Ca  Ca1  1  0.497750  0.811676  0.252030  1
  Ca  Ca2  1  0.999822  0.687705  0.746741  1
  Ca  Ca3  1  0.501556  0.191192  0.746279  1
  Al  Al4  1  0.284134  0.100531  0.207824  1
  Al  Al5  1  0.786868  0.597923  0.212388  1
  Al  Al6  1  0.715275  0.094808  0.287152  1
  Al  Al7  1  0.214500  0.404047  0.789575  1
  Al  Al8  1  0.000651  0.910700  0.254113  1
  Al  Al9  1  0.504665  0.405747  0.238119  1
  Al  Al10  1  0.998954  0.093276  0.748459  1
  Al  Al11  1  0.496853  0.591029  0.757917  1
  Si  Si12  1  0.209627  0.598799  0.286764  1
  Si  Si13  1  0.708617  0.901521  0.785295  1
  Si  Si14  1  0.291634  0.905795  0.717386  1
  Si  Si15  1  0.788695  0.403759  0.713485  1
  O  O16  1  0.094659  0.077283  0.113449  1
  O  O17  1  0.371867  0.272156  0.310462  1
  O  O18  1  0.355866  0.015545  0.973240  1
  O  O19  1  0.597914  0.585835  0.124867  1
  O  O20  1  0.877060  0.766679  0.319531  1
  O  O21  1  0.853241  0.511775  0.971627  1
  O  O22  1  0.903329  0.077645  0.386850  1
  O  O23  1  0.633222  0.268013  0.177177  1
  O  O24  1  0.643286  0.011303  0.525123  1
  O  O25  1  0.388213  0.590111  0.384998  1
  O  O26  1  0.137359  0.765797  0.188773  1
  O  O27  1  0.142956  0.525852  0.511351  1
  O  O28  1  0.886808  0.913319  0.870175  1
  O  O29  1  0.634985  0.734773  0.697781  1
  O  O30  1  0.646041  0.972913  0.013367  1
  O  O31  1  0.401700  0.421923  0.871267  1
  O  O32  1  0.128399  0.232479  0.690320  1
  O  O33  1  0.147779  0.488500  0.030509  1
  O  O34  1  0.114219  0.913049  0.630289  1
  O  O35  1  0.364322  0.739064  0.812515  1
  O  O36  1  0.353568  0.978198  0.486850  1
  O  O37  1  0.610852  0.421648  0.618159  1
  O  O38  1  0.856236  0.233770  0.802397  1
  O  O39  1  0.856759  0.474840  0.489711  1
