# generated using pymatgen
data_CsMgPO4
_symmetry_space_group_name_H-M   'P 1'
_cell_length_a   5.59356784
_cell_length_b   9.06120151
_cell_length_c   9.89958613
_cell_angle_alpha   90.00000000
_cell_angle_beta   90.00000000
_cell_angle_gamma   90.00000000
_symmetry_Int_Tables_number   1
_chemical_formula_structural   CsMgPO4
_chemical_formula_sum   'Cs4 Mg4 P4 O16'
_cell_volume   501.75503227
_cell_formula_units_Z   4
loop_
 _symmetry_equiv_pos_site_id
 _symmetry_equiv_pos_as_xyz
  1  'x, y, z'
loop_
 _atom_site_type_symbol
 _atom_site_label
 _atom_site_symmetry_multiplicity
 _atom_site_fract_x
 _atom_site_fract_y
 _atom_site_fract_z
 _atom_site_occupancy
  O  O0  1  0.250000  0.535436  0.085184  1
  O  O1  1  0.750000  0.464564  0.914816  1
  O  O2  1  0.250000  0.035436  0.414816  1
  O  O3  1  0.750000  0.964564  0.585184  1
  O  O4  1  0.975523  0.235217  0.989552  1
  O  O5  1  0.475523  0.764783  0.010448  1
  O  O6  1  0.524477  0.735217  0.510448  1
  O  O7  1  0.024477  0.264783  0.489552  1
  O  O8  1  0.024477  0.764783  0.010448  1
  O  O9  1  0.524477  0.235217  0.989552  1
  O  O10  1  0.475523  0.264783  0.489552  1
  O  O11  1  0.975523  0.735217  0.510448  1
  O  O12  1  0.750000  0.736190  0.731525  1
  O  O13  1  0.250000  0.263810  0.268475  1
  O  O14  1  0.750000  0.236190  0.768475  1
  O  O15  1  0.250000  0.763810  0.231525  1
  Mg  Mg16  1  0.250000  0.323220  0.081271  1
  Mg  Mg17  1  0.750000  0.676780  0.918729  1
  Mg  Mg18  1  0.750000  0.176780  0.581271  1
  Mg  Mg19  1  0.250000  0.823220  0.418729  1
  P  P20  1  0.250000  0.705453  0.084964  1
  P  P21  1  0.250000  0.205453  0.415036  1
  P  P22  1  0.750000  0.294547  0.915036  1
  P  P23  1  0.750000  0.794547  0.584964  1
  Cs  Cs24  1  0.250000  0.998125  0.804513  1
  Cs  Cs25  1  0.750000  0.001875  0.195487  1
  Cs  Cs26  1  0.250000  0.498125  0.695487  1
  Cs  Cs27  1  0.750000  0.501875  0.304513  1
