# generated using pymatgen
data_Ba3PrRu2O9
_symmetry_space_group_name_H-M   'P 1'
_cell_length_a   6.01601392
_cell_length_b   6.01601392
_cell_length_c   15.02181368
_cell_angle_alpha   90.00000000
_cell_angle_beta   90.00000000
_cell_angle_gamma   119.99999997
_symmetry_Int_Tables_number   1
_chemical_formula_structural   Ba3PrRu2O9
_chemical_formula_sum   'Ba6 Pr2 Ru4 O18'
_cell_volume   470.83709131
_cell_formula_units_Z   2
loop_
 _symmetry_equiv_pos_site_id
 _symmetry_equiv_pos_as_xyz
  1  'x, y, z'
loop_
 _atom_site_type_symbol
 _atom_site_label
 _atom_site_symmetry_multiplicity
 _atom_site_fract_x
 _atom_site_fract_y
 _atom_site_fract_z
 _atom_site_occupancy
  O  O0  1  0.178303  0.821697  0.093968  1
  O  O1  1  0.178303  0.356606  0.093968  1
  O  O2  1  0.643394  0.821697  0.093968  1
  O  O3  1  0.356606  0.178303  0.593968  1
  O  O4  1  0.821697  0.643394  0.906032  1
  O  O5  1  0.821697  0.178303  0.593968  1
  O  O6  1  0.821697  0.643394  0.593968  1
  O  O7  1  0.178303  0.821697  0.406032  1
  O  O8  1  0.643394  0.821697  0.406032  1
  O  O9  1  0.356606  0.178303  0.906032  1
  O  O10  1  0.821697  0.178303  0.906032  1
  O  O11  1  0.178303  0.356606  0.406032  1
  O  O12  1  0.491225  0.982450  0.250000  1
  O  O13  1  0.508775  0.491225  0.750000  1
  O  O14  1  0.982450  0.491225  0.750000  1
  O  O15  1  0.017550  0.508775  0.250000  1
  O  O16  1  0.491225  0.508775  0.250000  1
  O  O17  1  0.508775  0.017550  0.750000  1
  Ru  Ru18  1  0.333333  0.666667  0.333093  1
  Ru  Ru19  1  0.666667  0.333333  0.833093  1
  Ru  Ru20  1  0.666667  0.333333  0.666907  1
  Ru  Ru21  1  0.333333  0.666667  0.166907  1
  Ba  Ba22  1  0.333333  0.666667  0.605532  1
  Ba  Ba23  1  0.000000  0.000000  0.250000  1
  Ba  Ba24  1  0.666667  0.333333  0.394468  1
  Ba  Ba25  1  0.666667  0.333333  0.105532  1
  Ba  Ba26  1  0.333333  0.666667  0.894468  1
  Ba  Ba27  1  0.000000  0.000000  0.750000  1
  Pr  Pr28  1  0.000000  0.000000  0.500000  1
  Pr  Pr29  1  0.000000  0.000000  0.000000  1
