# generated using pymatgen
data_Na3GeTe3
_symmetry_space_group_name_H-M   'P 1'
_cell_length_a   9.02435944
_cell_length_b   9.07031112
_cell_length_c   13.07218957
_cell_angle_alpha   90.00000000
_cell_angle_beta   90.00000000
_cell_angle_gamma   120.97794981
_symmetry_Int_Tables_number   1
_chemical_formula_structural   Na3GeTe3
_chemical_formula_sum   'Na12 Ge4 Te12'
_cell_volume   917.38763852
_cell_formula_units_Z   4
loop_
 _symmetry_equiv_pos_site_id
 _symmetry_equiv_pos_as_xyz
  1  'x, y, z'
loop_
 _atom_site_type_symbol
 _atom_site_label
 _atom_site_symmetry_multiplicity
 _atom_site_fract_x
 _atom_site_fract_y
 _atom_site_fract_z
 _atom_site_occupancy
  Na  Na0  1  0.006009  0.482761  0.652465  1
  Na  Na1  1  0.993991  0.017239  0.152465  1
  Na  Na2  1  0.993991  0.517239  0.347535  1
  Na  Na3  1  0.006009  0.982761  0.847535  1
  Na  Na4  1  0.770343  0.299588  0.057277  1
  Na  Na5  1  0.229657  0.200412  0.557277  1
  Na  Na6  1  0.229657  0.700412  0.942723  1
  Na  Na7  1  0.770343  0.799588  0.442723  1
  Na  Na8  1  0.528296  0.258648  0.769088  1
  Na  Na9  1  0.471704  0.241352  0.269088  1
  Na  Na10  1  0.471704  0.741352  0.230912  1
  Na  Na11  1  0.528296  0.758648  0.730912  1
  Ge  Ge12  1  0.653639  0.618741  0.010005  1
  Ge  Ge13  1  0.346361  0.881259  0.510005  1
  Ge  Ge14  1  0.346361  0.381259  0.989995  1
  Ge  Ge15  1  0.653639  0.118741  0.489995  1
  Te  Te16  1  0.751223  0.616028  0.198319  1
  Te  Te17  1  0.248777  0.883972  0.698319  1
  Te  Te18  1  0.248777  0.383972  0.801681  1
  Te  Te19  1  0.751223  0.116028  0.301681  1
  Te  Te20  1  0.657727  0.903035  0.971268  1
  Te  Te21  1  0.342273  0.596965  0.471268  1
  Te  Te22  1  0.342273  0.096965  0.028732  1
  Te  Te23  1  0.657727  0.403035  0.528732  1
  Te  Te24  1  0.842296  0.573608  0.876263  1
  Te  Te25  1  0.157704  0.926392  0.376263  1
  Te  Te26  1  0.157704  0.426392  0.123737  1
  Te  Te27  1  0.842296  0.073608  0.623737  1
