# generated using pymatgen
data_K2YF5
_symmetry_space_group_name_H-M   'P 1'
_cell_length_a   6.71001315
_cell_length_b   7.34664006
_cell_length_c   10.99937028
_cell_angle_alpha   90.00000000
_cell_angle_beta   90.00000000
_cell_angle_gamma   90.00000000
_symmetry_Int_Tables_number   1
_chemical_formula_structural   K2YF5
_chemical_formula_sum   'K8 Y4 F20'
_cell_volume   542.22552281
_cell_formula_units_Z   4
loop_
 _symmetry_equiv_pos_site_id
 _symmetry_equiv_pos_as_xyz
  1  'x, y, z'
loop_
 _atom_site_type_symbol
 _atom_site_label
 _atom_site_symmetry_multiplicity
 _atom_site_fract_x
 _atom_site_fract_y
 _atom_site_fract_z
 _atom_site_occupancy
  F  F0  1  0.852984  0.787121  0.075138  1
  F  F1  1  0.147016  0.287121  0.924862  1
  F  F2  1  0.647016  0.787121  0.575138  1
  F  F3  1  0.352984  0.287121  0.424862  1
  F  F4  1  0.853196  0.217111  0.075205  1
  F  F5  1  0.146804  0.717111  0.924795  1
  F  F6  1  0.646804  0.217111  0.575205  1
  F  F7  1  0.353196  0.717111  0.424795  1
  F  F8  1  0.626790  0.002239  0.333455  1
  F  F9  1  0.373210  0.502239  0.666545  1
  F  F10  1  0.873210  0.002239  0.833455  1
  F  F11  1  0.126790  0.502239  0.166545  1
  F  F12  1  0.106594  0.002096  0.486657  1
  F  F13  1  0.893406  0.502096  0.513343  1
  F  F14  1  0.393406  0.002096  0.986657  1
  F  F15  1  0.606594  0.502096  0.013343  1
  F  F16  1  0.160284  0.001835  0.191080  1
  F  F17  1  0.839716  0.501835  0.808920  1
  F  F18  1  0.339716  0.001835  0.691080  1
  F  F19  1  0.660284  0.501835  0.308920  1
  K  K20  1  0.967558  0.754790  0.328876  1
  K  K21  1  0.032442  0.254790  0.671124  1
  K  K22  1  0.532442  0.754790  0.828876  1
  K  K23  1  0.467558  0.254790  0.171124  1
  K  K24  1  0.967463  0.249132  0.328714  1
  K  K25  1  0.032537  0.749132  0.671286  1
  K  K26  1  0.532537  0.249132  0.828714  1
  K  K27  1  0.467463  0.749132  0.171286  1
  Y  Y28  1  0.935786  0.502076  0.002538  1
  Y  Y29  1  0.064214  0.002076  0.997462  1
  Y  Y30  1  0.564214  0.502076  0.502538  1
  Y  Y31  1  0.435786  0.002076  0.497462  1
