# generated using pymatgen
data_K3La(PS4)2
_symmetry_space_group_name_H-M   'P 1'
_cell_length_a   9.29248374
_cell_length_b   9.71115907
_cell_length_c   17.38061244
_cell_angle_alpha   90.00000000
_cell_angle_beta   90.00000000
_cell_angle_gamma   89.40541915
_symmetry_Int_Tables_number   1
_chemical_formula_structural   K3La(PS4)2
_chemical_formula_sum   'K12 La4 P8 S32'
_cell_volume   1568.35570471
_cell_formula_units_Z   4
loop_
 _symmetry_equiv_pos_site_id
 _symmetry_equiv_pos_as_xyz
  1  'x, y, z'
loop_
 _atom_site_type_symbol
 _atom_site_label
 _atom_site_symmetry_multiplicity
 _atom_site_fract_x
 _atom_site_fract_y
 _atom_site_fract_z
 _atom_site_occupancy
  P  P0  1  0.004048  0.742878  0.601322  1
  P  P1  1  0.995952  0.757122  0.101322  1
  P  P2  1  0.995952  0.257122  0.398678  1
  P  P3  1  0.004048  0.242878  0.898678  1
  P  P4  1  0.476117  0.719419  0.401041  1
  P  P5  1  0.523883  0.780581  0.901041  1
  P  P6  1  0.523883  0.280581  0.598959  1
  P  P7  1  0.476117  0.219419  0.098959  1
  S  S8  1  0.664627  0.406799  0.655931  1
  S  S9  1  0.335373  0.093201  0.155931  1
  S  S10  1  0.335373  0.593201  0.344069  1
  S  S11  1  0.664627  0.906799  0.844069  1
  S  S12  1  0.436731  0.919230  0.374768  1
  S  S13  1  0.563269  0.580770  0.874768  1
  S  S14  1  0.563269  0.080770  0.625232  1
  S  S15  1  0.436731  0.419230  0.125232  1
  S  S16  1  0.036273  0.035362  0.875311  1
  S  S17  1  0.963727  0.464638  0.375311  1
  S  S18  1  0.963727  0.964638  0.124689  1
  S  S19  1  0.036273  0.535362  0.624689  1
  S  S20  1  0.951390  0.748787  0.984846  1
  S  S21  1  0.048610  0.751213  0.484846  1
  S  S22  1  0.048610  0.251213  0.015154  1
  S  S23  1  0.951390  0.248787  0.515154  1
  S  S24  1  0.461660  0.180505  0.981492  1
  S  S25  1  0.538340  0.319495  0.481492  1
  S  S26  1  0.538340  0.819495  0.018508  1
  S  S27  1  0.461660  0.680505  0.518508  1
  S  S28  1  0.683809  0.168655  0.130099  1
  S  S29  1  0.316191  0.331345  0.630099  1
  S  S30  1  0.316191  0.831345  0.869901  1
  S  S31  1  0.683809  0.668655  0.369901  1
  S  S32  1  0.787611  0.276158  0.884909  1
  S  S33  1  0.212389  0.223842  0.384909  1
  S  S34  1  0.212389  0.723842  0.115091  1
  S  S35  1  0.787611  0.776158  0.615091  1
  S  S36  1  0.120891  0.363247  0.828227  1
  S  S37  1  0.879109  0.136753  0.328227  1
  S  S38  1  0.879109  0.636753  0.171773  1
  S  S39  1  0.120891  0.863247  0.671773  1
  K  K40  1  0.731258  0.988053  0.471556  1
  K  K41  1  0.268742  0.511947  0.971556  1
  K  K42  1  0.268742  0.011947  0.528444  1
  K  K43  1  0.731258  0.488053  0.028444  1
  K  K44  1  0.621256  0.871888  0.213989  1
  K  K45  1  0.378744  0.628112  0.713989  1
  K  K46  1  0.378744  0.128112  0.786011  1
  K  K47  1  0.621256  0.371888  0.286011  1
  K  K48  1  0.871232  0.117907  0.707710  1
  K  K49  1  0.128768  0.382093  0.207710  1
  K  K50  1  0.128768  0.882093  0.292290  1
  K  K51  1  0.871232  0.617907  0.792290  1
  La  La52  1  0.772806  0.527271  0.513239  1
  La  La53  1  0.227194  0.972729  0.013239  1
  La  La54  1  0.227194  0.472729  0.486761  1
  La  La55  1  0.772806  0.027271  0.986761  1
