# generated using pymatgen
data_ZnSiN2
_symmetry_space_group_name_H-M   'P 1'
_cell_length_a   5.29118784
_cell_length_b   6.31269615
_cell_length_c   5.06873454
_cell_angle_alpha   90.00000000
_cell_angle_beta   90.00000000
_cell_angle_gamma   90.00000000
_symmetry_Int_Tables_number   1
_chemical_formula_structural   ZnSiN2
_chemical_formula_sum   'Zn4 Si4 N8'
_cell_volume   169.30415334
_cell_formula_units_Z   4
loop_
 _symmetry_equiv_pos_site_id
 _symmetry_equiv_pos_as_xyz
  1  'x, y, z'
loop_
 _atom_site_type_symbol
 _atom_site_label
 _atom_site_symmetry_multiplicity
 _atom_site_fract_x
 _atom_site_fract_y
 _atom_site_fract_z
 _atom_site_occupancy
  Zn  Zn0  1  0.916974  0.375937  0.994462  1
  Zn  Zn1  1  0.083026  0.624063  0.494462  1
  Zn  Zn2  1  0.583026  0.875937  0.494462  1
  Zn  Zn3  1  0.416974  0.124063  0.994462  1
  Si  Si4  1  0.571974  0.374925  0.493875  1
  Si  Si5  1  0.428026  0.625075  0.993875  1
  Si  Si6  1  0.928026  0.874925  0.993875  1
  Si  Si7  1  0.071974  0.125075  0.493875  1
  N  N8  1  0.555731  0.401751  0.148651  1
  N  N9  1  0.444269  0.598249  0.648651  1
  N  N10  1  0.944269  0.901751  0.648651  1
  N  N11  1  0.055731  0.098249  0.148651  1
  N  N12  1  0.609037  0.847141  0.089012  1
  N  N13  1  0.390963  0.152859  0.589012  1
  N  N14  1  0.890963  0.347141  0.589012  1
  N  N15  1  0.109037  0.652859  0.089012  1
