# generated using pymatgen
data_BaSm2NiO5
_symmetry_space_group_name_H-M   'P 1'
_cell_length_a   3.83947272
_cell_length_b   5.92142213
_cell_length_c   6.82485927
_cell_angle_alpha   115.70977227
_cell_angle_beta   106.33696345
_cell_angle_gamma   89.99999999
_symmetry_Int_Tables_number   1
_chemical_formula_structural   BaSm2NiO5
_chemical_formula_sum   'Ba1 Sm2 Ni1 O5'
_cell_volume   132.81584410
_cell_formula_units_Z   1
loop_
 _symmetry_equiv_pos_site_id
 _symmetry_equiv_pos_as_xyz
  1  'x, y, z'
loop_
 _atom_site_type_symbol
 _atom_site_label
 _atom_site_symmetry_multiplicity
 _atom_site_fract_x
 _atom_site_fract_y
 _atom_site_fract_z
 _atom_site_occupancy
  O  O0  1  0.000000  0.500000  1.000000  1
  O  O1  1  0.353207  0.594316  0.706416  1
  O  O2  1  0.646792  0.405686  0.293585  1
  O  O3  1  0.646792  0.887900  0.293585  1
  O  O4  1  0.353209  0.112101  0.706416  1
  Ni  Ni5  1  0.499999  0.500000  1.000000  1
  Ba  Ba6  1  0.000000  0.000000  0.000000  1
  Sm  Sm7  1  0.797267  0.297268  0.594534  1
  Sm  Sm8  1  0.202734  0.702733  0.405467  1
