# generated using pymatgen
data_K2GaP2
_symmetry_space_group_name_H-M   'P 1'
_cell_length_a   8.75215641
_cell_length_b   10.32195088
_cell_length_c   14.10197575
_cell_angle_alpha   90.00000000
_cell_angle_beta   90.00000000
_cell_angle_gamma   109.51351128
_symmetry_Int_Tables_number   1
_chemical_formula_structural   K2GaP2
_chemical_formula_sum   'K16 Ga8 P16'
_cell_volume   1200.79008540
_cell_formula_units_Z   8
loop_
 _symmetry_equiv_pos_site_id
 _symmetry_equiv_pos_as_xyz
  1  'x, y, z'
loop_
 _atom_site_type_symbol
 _atom_site_label
 _atom_site_symmetry_multiplicity
 _atom_site_fract_x
 _atom_site_fract_y
 _atom_site_fract_z
 _atom_site_occupancy
  P  P0  1  0.486869  0.221831  0.464166  1
  P  P1  1  0.416140  0.782748  0.680980  1
  P  P2  1  0.083860  0.717252  0.180980  1
  P  P3  1  0.166154  0.275278  0.286041  1
  P  P4  1  0.333846  0.224722  0.786041  1
  P  P5  1  0.833846  0.724722  0.713959  1
  P  P6  1  0.666154  0.775278  0.213959  1
  P  P7  1  0.951716  0.742515  0.444556  1
  P  P8  1  0.548284  0.757485  0.944556  1
  P  P9  1  0.048284  0.257485  0.555444  1
  P  P10  1  0.583860  0.217252  0.319020  1
  P  P11  1  0.451716  0.242515  0.055444  1
  P  P12  1  0.986869  0.721831  0.035834  1
  P  P13  1  0.513131  0.778169  0.535834  1
  P  P14  1  0.013131  0.278169  0.964166  1
  P  P15  1  0.916140  0.282748  0.819020  1
  K  K16  1  0.556274  0.067978  0.882947  1
  K  K17  1  0.056274  0.567978  0.617053  1
  K  K18  1  0.443726  0.932022  0.117053  1
  K  K19  1  0.814634  0.026144  0.386012  1
  K  K20  1  0.525823  0.538219  0.371316  1
  K  K21  1  0.185366  0.973856  0.613988  1
  K  K22  1  0.314634  0.526144  0.113988  1
  K  K23  1  0.822820  0.401517  0.130615  1
  K  K24  1  0.677180  0.098483  0.630615  1
  K  K25  1  0.177180  0.598483  0.869385  1
  K  K26  1  0.322820  0.901517  0.369385  1
  K  K27  1  0.025823  0.038219  0.128684  1
  K  K28  1  0.474177  0.461780  0.628684  1
  K  K29  1  0.974177  0.961781  0.871316  1
  K  K30  1  0.943726  0.432022  0.382947  1
  K  K31  1  0.685366  0.473856  0.886012  1
  Ga  Ga32  1  0.235143  0.243055  0.441643  1
  Ga  Ga33  1  0.264857  0.256945  0.941643  1
  Ga  Ga34  1  0.764857  0.756945  0.558357  1
  Ga  Ga35  1  0.391647  0.245499  0.216949  1
  Ga  Ga36  1  0.108353  0.254501  0.716949  1
  Ga  Ga37  1  0.608353  0.754501  0.783051  1
  Ga  Ga38  1  0.891647  0.745499  0.283051  1
  Ga  Ga39  1  0.735143  0.743055  0.058357  1
