# generated using pymatgen
data_MoW2(SeS2)2
_symmetry_space_group_name_H-M   'P 1'
_cell_length_a   3.23292279
_cell_length_b   3.23288341
_cell_length_c   29.68301961
_cell_angle_alpha   90.00015712
_cell_angle_beta   90.00000000
_cell_angle_gamma   120.00040289
_symmetry_Int_Tables_number   1
_chemical_formula_structural   MoW2(SeS2)2
_chemical_formula_sum   'Mo1 W2 Se2 S4'
_cell_volume   268.67194680
_cell_formula_units_Z   1
loop_
 _symmetry_equiv_pos_site_id
 _symmetry_equiv_pos_as_xyz
  1  'x, y, z'
loop_
 _atom_site_type_symbol
 _atom_site_label
 _atom_site_symmetry_multiplicity
 _atom_site_fract_x
 _atom_site_fract_y
 _atom_site_fract_z
 _atom_site_occupancy
  Mo  Mo0  1  0.333310  0.666620  0.115638  1
  W  W1  1  0.333310  0.666620  0.578346  1
  W  W2  1  0.666689  0.333377  0.346990  1
  Se  Se3  1  0.333352  0.666706  0.404782  1
  Se  Se4  1  0.333365  0.666731  0.289144  1
  S  S5  1  0.666642  0.333284  0.063340  1
  S  S6  1  0.666641  0.333282  0.525874  1
  S  S7  1  0.666645  0.333290  0.167931  1
  S  S8  1  0.666646  0.333290  0.630796  1
