# generated using pymatgen
data_Cr2NiO4
_symmetry_space_group_name_H-M   'P 1'
_cell_length_a   5.86999840
_cell_length_b   5.86999840
_cell_length_c   6.03101142
_cell_angle_alpha   119.12071398
_cell_angle_beta   119.12071393
_cell_angle_gamma   90.00000003
_symmetry_Int_Tables_number   1
_chemical_formula_structural   Cr2NiO4
_chemical_formula_sum   'Cr4 Ni2 O8'
_cell_volume   150.76473707
_cell_formula_units_Z   2
loop_
 _symmetry_equiv_pos_site_id
 _symmetry_equiv_pos_as_xyz
  1  'x, y, z'
loop_
 _atom_site_type_symbol
 _atom_site_label
 _atom_site_symmetry_multiplicity
 _atom_site_fract_x
 _atom_site_fract_y
 _atom_site_fract_z
 _atom_site_occupancy
  O  O0  1  0.231212  0.745015  0.462424  1
  O  O1  1  0.782591  0.768788  0.037576  1
  O  O2  1  0.254985  0.768788  0.037576  1
  O  O3  1  0.768788  0.254985  0.537576  1
  O  O4  1  0.768788  0.782591  0.537576  1
  O  O5  1  0.217409  0.231212  0.962424  1
  O  O6  1  0.231212  0.217409  0.462424  1
  O  O7  1  0.745015  0.231212  0.962424  1
  Cr  Cr8  1  0.000000  0.500000  0.000000  1
  Cr  Cr9  1  0.000000  0.000000  0.500000  1
  Cr  Cr10  1  0.500000  0.000000  0.500000  1
  Cr  Cr11  1  0.000000  0.000000  0.000000  1
  Ni  Ni12  1  0.625000  0.375000  0.250000  1
  Ni  Ni13  1  0.375000  0.625000  0.750000  1
