# generated using pymatgen
data_Nd4Si2S3O7
_symmetry_space_group_name_H-M   'P 1'
_cell_length_a   11.09115524
_cell_length_b   11.09115524
_cell_length_c   11.09115525
_cell_angle_alpha   100.25725775
_cell_angle_beta   114.26552578
_cell_angle_gamma   114.26552578
_symmetry_Int_Tables_number   1
_chemical_formula_structural   Nd4Si2S3O7
_chemical_formula_sum   'Nd16 Si8 S12 O28'
_cell_volume   1030.39484880
_cell_formula_units_Z   4
loop_
 _symmetry_equiv_pos_site_id
 _symmetry_equiv_pos_as_xyz
  1  'x, y, z'
loop_
 _atom_site_type_symbol
 _atom_site_label
 _atom_site_symmetry_multiplicity
 _atom_site_fract_x
 _atom_site_fract_y
 _atom_site_fract_z
 _atom_site_occupancy
  O  O0  1  0.250000  0.396451  0.146451  1
  O  O1  1  0.750000  0.146451  0.396451  1
  O  O2  1  0.750000  0.603549  0.853549  1
  O  O3  1  0.250000  0.853549  0.603549  1
  O  O4  1  0.022633  0.825347  0.347980  1
  O  O5  1  0.477367  0.825347  0.802713  1
  O  O6  1  0.477367  0.652020  0.174653  1
  O  O7  1  0.977367  0.802713  0.825347  1
  O  O8  1  0.522633  0.347980  0.825347  1
  O  O9  1  0.522633  0.174653  0.197287  1
  O  O10  1  0.977367  0.174653  0.652020  1
  O  O11  1  0.022633  0.197287  0.174653  1
  O  O12  1  0.771319  0.924079  0.434163  1
  O  O13  1  0.728681  0.162844  0.152759  1
  O  O14  1  0.728681  0.565837  0.075921  1
  O  O15  1  0.989915  0.152759  0.924079  1
  O  O16  1  0.510085  0.434163  0.162844  1
  O  O17  1  0.510085  0.075921  0.847241  1
  O  O18  1  0.989915  0.837156  0.565837  1
  O  O19  1  0.771319  0.847241  0.837156  1
  O  O20  1  0.228681  0.075921  0.565837  1
  O  O21  1  0.271319  0.837156  0.847241  1
  O  O22  1  0.271319  0.434163  0.924079  1
  O  O23  1  0.010085  0.847241  0.075921  1
  O  O24  1  0.489915  0.565837  0.837156  1
  O  O25  1  0.489915  0.924079  0.152759  1
  O  O26  1  0.010085  0.162844  0.434163  1
  O  O27  1  0.228681  0.152759  0.162844  1
  Si  Si28  1  0.374242  0.902505  0.776747  1
  Si  Si29  1  0.125758  0.902505  0.528263  1
  Si  Si30  1  0.125758  0.223253  0.097495  1
  Si  Si31  1  0.625758  0.528263  0.902505  1
  Si  Si32  1  0.874242  0.776747  0.902505  1
  Si  Si33  1  0.874242  0.097495  0.471737  1
  Si  Si34  1  0.625758  0.097495  0.223253  1
  Si  Si35  1  0.374242  0.471737  0.097495  1
  S  S36  1  0.250000  0.125000  0.875000  1
  S  S37  1  0.750000  0.875000  0.125000  1
  S  S38  1  0.750000  0.375000  0.625000  1
  S  S39  1  0.250000  0.625000  0.375000  1
  S  S40  1  0.851434  0.500000  0.351434  1
  S  S41  1  0.851434  0.351434  0.000000  1
  S  S42  1  0.648566  0.648566  0.500000  1
  S  S43  1  0.648566  0.000000  0.648566  1
  S  S44  1  0.148566  0.500000  0.648566  1
  S  S45  1  0.148566  0.648566  0.000000  1
  S  S46  1  0.351434  0.351434  0.500000  1
  S  S47  1  0.351434  0.000000  0.351434  1
  Nd  Nd48  1  0.092954  0.046477  0.296477  1
  Nd  Nd49  1  0.250000  0.296477  0.703523  1
  Nd  Nd50  1  0.250000  0.953523  0.046477  1
  Nd  Nd51  1  0.407046  0.703523  0.953523  1
  Nd  Nd52  1  0.907046  0.953523  0.703523  1
  Nd  Nd53  1  0.750000  0.703523  0.296477  1
  Nd  Nd54  1  0.750000  0.046477  0.953523  1
  Nd  Nd55  1  0.592954  0.296477  0.046477  1
  Nd  Nd56  1  0.013248  0.656890  0.170139  1
  Nd  Nd57  1  0.486752  0.656890  0.643642  1
  Nd  Nd58  1  0.486752  0.829861  0.343110  1
  Nd  Nd59  1  0.986752  0.643642  0.656890  1
  Nd  Nd60  1  0.513248  0.170139  0.656890  1
  Nd  Nd61  1  0.513248  0.343110  0.356358  1
  Nd  Nd62  1  0.986752  0.343110  0.829861  1
  Nd  Nd63  1  0.013248  0.356358  0.343110  1
