# generated using pymatgen
data_Sr4TiP4
_symmetry_space_group_name_H-M   'P 1'
_cell_length_a   12.65158144
_cell_length_b   12.65158144
_cell_length_c   12.65158144
_cell_angle_alpha   90.00000000
_cell_angle_beta   90.00000000
_cell_angle_gamma   90.00000000
_symmetry_Int_Tables_number   1
_chemical_formula_structural   Sr4TiP4
_chemical_formula_sum   'Sr32 Ti8 P32'
_cell_volume   2025.04391786
_cell_formula_units_Z   8
loop_
 _symmetry_equiv_pos_site_id
 _symmetry_equiv_pos_as_xyz
  1  'x, y, z'
loop_
 _atom_site_type_symbol
 _atom_site_label
 _atom_site_symmetry_multiplicity
 _atom_site_fract_x
 _atom_site_fract_y
 _atom_site_fract_z
 _atom_site_occupancy
  P  P0  1  0.891245  0.891245  0.891245  1
  P  P1  1  0.608755  0.391245  0.608755  1
  P  P2  1  0.391245  0.608755  0.608755  1
  P  P3  1  0.608755  0.608755  0.391245  1
  P  P4  1  0.891245  0.108755  0.108755  1
  P  P5  1  0.108755  0.108755  0.891245  1
  P  P6  1  0.108755  0.891245  0.108755  1
  P  P7  1  0.391245  0.391245  0.391245  1
  P  P8  1  0.645735  0.892544  0.614787  1
  P  P9  1  0.645735  0.107456  0.385213  1
  P  P10  1  0.892544  0.614787  0.645735  1
  P  P11  1  0.107456  0.614787  0.354265  1
  P  P12  1  0.614787  0.645735  0.892544  1
  P  P13  1  0.385213  0.354265  0.892544  1
  P  P14  1  0.854265  0.885213  0.392544  1
  P  P15  1  0.854265  0.114787  0.607456  1
  P  P16  1  0.145735  0.885213  0.607456  1
  P  P17  1  0.114787  0.607456  0.854265  1
  P  P18  1  0.607456  0.145735  0.885213  1
  P  P19  1  0.607456  0.854265  0.114787  1
  P  P20  1  0.885213  0.392544  0.854265  1
  P  P21  1  0.392544  0.854265  0.885213  1
  P  P22  1  0.885213  0.607456  0.145735  1
  P  P23  1  0.114787  0.392544  0.145735  1
  P  P24  1  0.392544  0.145735  0.114787  1
  P  P25  1  0.385213  0.645735  0.107456  1
  P  P26  1  0.614787  0.354265  0.107456  1
  P  P27  1  0.892544  0.385213  0.354265  1
  P  P28  1  0.107456  0.385213  0.645735  1
  P  P29  1  0.354265  0.107456  0.614787  1
  P  P30  1  0.354265  0.892544  0.385213  1
  P  P31  1  0.145735  0.114787  0.392544  1
  Ti  Ti32  1  0.500000  0.500000  0.500000  1
  Ti  Ti33  1  0.000000  0.000000  0.000000  1
  Ti  Ti34  1  0.750000  0.000000  0.500000  1
  Ti  Ti35  1  0.500000  0.750000  0.000000  1
  Ti  Ti36  1  0.500000  0.250000  0.000000  1
  Ti  Ti37  1  0.000000  0.500000  0.250000  1
  Ti  Ti38  1  0.000000  0.500000  0.750000  1
  Ti  Ti39  1  0.250000  0.000000  0.500000  1
  Sr  Sr40  1  0.148395  0.148395  0.148395  1
  Sr  Sr41  1  0.351605  0.648395  0.351605  1
  Sr  Sr42  1  0.648395  0.351605  0.351605  1
  Sr  Sr43  1  0.351605  0.351605  0.648395  1
  Sr  Sr44  1  0.148395  0.851605  0.851605  1
  Sr  Sr45  1  0.851605  0.851605  0.148395  1
  Sr  Sr46  1  0.851605  0.148395  0.851605  1
  Sr  Sr47  1  0.648395  0.648395  0.648395  1
  Sr  Sr48  1  0.906317  0.862564  0.648082  1
  Sr  Sr49  1  0.906317  0.137436  0.351918  1
  Sr  Sr50  1  0.862564  0.648082  0.906317  1
  Sr  Sr51  1  0.137436  0.648082  0.093683  1
  Sr  Sr52  1  0.648082  0.906317  0.862564  1
  Sr  Sr53  1  0.351918  0.093683  0.862564  1
  Sr  Sr54  1  0.593683  0.851918  0.362564  1
  Sr  Sr55  1  0.593683  0.148082  0.637436  1
  Sr  Sr56  1  0.406317  0.851918  0.637436  1
  Sr  Sr57  1  0.148082  0.637436  0.593683  1
  Sr  Sr58  1  0.637436  0.406317  0.851918  1
  Sr  Sr59  1  0.637436  0.593683  0.148082  1
  Sr  Sr60  1  0.851918  0.362564  0.593683  1
  Sr  Sr61  1  0.362564  0.593683  0.851918  1
  Sr  Sr62  1  0.851918  0.637436  0.406317  1
  Sr  Sr63  1  0.148082  0.362564  0.406317  1
  Sr  Sr64  1  0.362564  0.406317  0.148082  1
  Sr  Sr65  1  0.351918  0.906317  0.137436  1
  Sr  Sr66  1  0.648082  0.093683  0.137436  1
  Sr  Sr67  1  0.862564  0.351918  0.093683  1
  Sr  Sr68  1  0.137436  0.351918  0.906317  1
  Sr  Sr69  1  0.093683  0.137436  0.648082  1
  Sr  Sr70  1  0.093683  0.862564  0.351918  1
  Sr  Sr71  1  0.406317  0.148082  0.362564  1
