# generated using pymatgen
data_Sm(BO2)3
_symmetry_space_group_name_H-M   'P 1'
_cell_length_a   6.35967330
_cell_length_b   6.38482964
_cell_length_c   6.38482964
_cell_angle_alpha   79.17922293
_cell_angle_beta   62.56023297
_cell_angle_gamma   62.56023298
_symmetry_Int_Tables_number   1
_chemical_formula_structural   Sm(BO2)3
_chemical_formula_sum   'Sm2 B6 O12'
_cell_volume   204.10509880
_cell_formula_units_Z   2
loop_
 _symmetry_equiv_pos_site_id
 _symmetry_equiv_pos_as_xyz
  1  'x, y, z'
loop_
 _atom_site_type_symbol
 _atom_site_label
 _atom_site_symmetry_multiplicity
 _atom_site_fract_x
 _atom_site_fract_y
 _atom_site_fract_z
 _atom_site_occupancy
  B  B0  1  0.912222  0.661267  0.292563  1
  B  B1  1  0.587778  0.207437  0.838733  1
  B  B2  1  0.750000  0.777459  0.722541  1
  B  B3  1  0.250000  0.222541  0.277459  1
  B  B4  1  0.087778  0.338733  0.707437  1
  B  B5  1  0.412222  0.792563  0.161267  1
  O  O6  1  0.708436  0.782535  0.509312  1
  O  O7  1  0.994415  0.583440  0.713695  1
  O  O8  1  0.505585  0.786305  0.916560  1
  O  O9  1  0.005585  0.416560  0.286305  1
  O  O10  1  0.493302  0.613404  0.294005  1
  O  O11  1  0.006698  0.205995  0.886596  1
  O  O12  1  0.506698  0.386596  0.705995  1
  O  O13  1  0.993302  0.794005  0.113404  1
  O  O14  1  0.291564  0.217465  0.490688  1
  O  O15  1  0.208436  0.009312  0.282535  1
  O  O16  1  0.494415  0.213695  0.083440  1
  O  O17  1  0.791564  0.990688  0.717465  1
  Sm  Sm18  1  0.750000  0.203696  0.296304  1
  Sm  Sm19  1  0.250000  0.796304  0.703696  1
