# generated using pymatgen
data_YbAl3(BO3)4
_symmetry_space_group_name_H-M   'P 1'
_cell_length_a   5.92428573
_cell_length_b   5.92428572
_cell_length_c   5.92428572
_cell_angle_alpha   103.94222580
_cell_angle_beta   103.94222577
_cell_angle_gamma   103.94222585
_symmetry_Int_Tables_number   1
_chemical_formula_structural   YbAl3(BO3)4
_chemical_formula_sum   'Yb1 Al3 B4 O12'
_cell_volume   185.72582773
_cell_formula_units_Z   1
loop_
 _symmetry_equiv_pos_site_id
 _symmetry_equiv_pos_as_xyz
  1  'x, y, z'
loop_
 _atom_site_type_symbol
 _atom_site_label
 _atom_site_symmetry_multiplicity
 _atom_site_fract_x
 _atom_site_fract_y
 _atom_site_fract_z
 _atom_site_occupancy
  B  B0  1  0.941432  0.500000  0.058568  1
  B  B1  1  0.500000  0.058568  0.941432  1
  B  B2  1  0.058568  0.941432  0.500000  1
  B  B3  1  0.500000  0.500000  0.500000  1
  O  O4  1  0.648164  0.351836  0.500000  1
  O  O5  1  0.500000  0.909259  0.090741  1
  O  O6  1  0.090741  0.500000  0.909259  1
  O  O7  1  0.909259  0.090741  0.500000  1
  O  O8  1  0.028905  0.773894  0.623193  1
  O  O9  1  0.623193  0.028905  0.773894  1
  O  O10  1  0.773894  0.623193  0.028905  1
  O  O11  1  0.226106  0.971095  0.376807  1
  O  O12  1  0.376807  0.226106  0.971095  1
  O  O13  1  0.971095  0.376807  0.226106  1
  O  O14  1  0.500000  0.648164  0.351836  1
  O  O15  1  0.351836  0.500000  0.648164  1
  Al  Al16  1  0.556925  0.000000  0.443075  1
  Al  Al17  1  0.000000  0.443075  0.556925  1
  Al  Al18  1  0.443075  0.556925  0.000000  1
  Yb  Yb19  1  0.000000  0.000000  0.000000  1
