# generated using pymatgen
data_Ag2TeO3
_symmetry_space_group_name_H-M   'P 1'
_cell_length_a   4.97532790
_cell_length_b   7.28447716
_cell_length_c   10.77338433
_cell_angle_alpha   90.00000000
_cell_angle_beta   90.00000000
_cell_angle_gamma   91.36401133
_symmetry_Int_Tables_number   1
_chemical_formula_structural   Ag2TeO3
_chemical_formula_sum   'Ag8 Te4 O12'
_cell_volume   390.34549168
_cell_formula_units_Z   4
loop_
 _symmetry_equiv_pos_site_id
 _symmetry_equiv_pos_as_xyz
  1  'x, y, z'
loop_
 _atom_site_type_symbol
 _atom_site_label
 _atom_site_symmetry_multiplicity
 _atom_site_fract_x
 _atom_site_fract_y
 _atom_site_fract_z
 _atom_site_occupancy
  O  O0  1  0.639210  0.620024  0.386306  1
  O  O1  1  0.360790  0.879976  0.886306  1
  O  O2  1  0.360790  0.379976  0.613694  1
  O  O3  1  0.639210  0.120024  0.113694  1
  O  O4  1  0.752196  0.678233  0.021881  1
  O  O5  1  0.247804  0.821767  0.521881  1
  O  O6  1  0.247804  0.321767  0.978119  1
  O  O7  1  0.752196  0.178233  0.478119  1
  O  O8  1  0.218828  0.791584  0.256895  1
  O  O9  1  0.218828  0.291584  0.243105  1
  O  O10  1  0.781172  0.208416  0.743105  1
  O  O11  1  0.781172  0.708416  0.756895  1
  Ag  Ag12  1  0.748471  0.387185  0.926513  1
  Ag  Ag13  1  0.248107  0.633893  0.738853  1
  Ag  Ag14  1  0.248107  0.133893  0.761147  1
  Ag  Ag15  1  0.751893  0.366107  0.261147  1
  Ag  Ag16  1  0.251529  0.612815  0.073487  1
  Ag  Ag17  1  0.748471  0.887185  0.573487  1
  Ag  Ag18  1  0.251529  0.112815  0.426513  1
  Ag  Ag19  1  0.751893  0.866107  0.238853  1
  Te  Te20  1  0.255150  0.633954  0.398299  1
  Te  Te21  1  0.744850  0.866046  0.898299  1
  Te  Te22  1  0.744850  0.366046  0.601701  1
  Te  Te23  1  0.255150  0.133954  0.101701  1
