# generated using pymatgen
data_Y2Si2O7
_symmetry_space_group_name_H-M   'P 1'
_cell_length_a   5.08783189
_cell_length_b   8.23861722
_cell_length_c   13.81445203
_cell_angle_alpha   90.00000000
_cell_angle_beta   90.00000000
_cell_angle_gamma   90.00000000
_symmetry_Int_Tables_number   1
_chemical_formula_structural   Y2Si2O7
_chemical_formula_sum   'Y8 Si8 O28'
_cell_volume   579.05623341
_cell_formula_units_Z   4
loop_
 _symmetry_equiv_pos_site_id
 _symmetry_equiv_pos_as_xyz
  1  'x, y, z'
loop_
 _atom_site_type_symbol
 _atom_site_label
 _atom_site_symmetry_multiplicity
 _atom_site_fract_x
 _atom_site_fract_y
 _atom_site_fract_z
 _atom_site_occupancy
  Y  Y0  1  0.660496  0.490563  0.125649  1
  Y  Y1  1  0.160496  0.990563  0.374351  1
  Y  Y2  1  0.339504  0.509437  0.874351  1
  Y  Y3  1  0.839504  0.490563  0.625649  1
  Y  Y4  1  0.339504  0.990563  0.874351  1
  Y  Y5  1  0.660496  0.009437  0.125649  1
  Y  Y6  1  0.160496  0.509437  0.374351  1
  Y  Y7  1  0.839504  0.009437  0.625649  1
  Si  Si8  1  0.374220  0.750000  0.540689  1
  Si  Si9  1  0.876295  0.750000  0.819186  1
  Si  Si10  1  0.125780  0.750000  0.040689  1
  Si  Si11  1  0.625780  0.250000  0.459311  1
  Si  Si12  1  0.623705  0.750000  0.319186  1
  Si  Si13  1  0.123705  0.250000  0.180814  1
  Si  Si14  1  0.376295  0.250000  0.680814  1
  Si  Si15  1  0.874220  0.250000  0.959311  1
  O  O16  1  0.986453  0.585754  0.767579  1
  O  O17  1  0.434852  0.250000  0.154714  1
  O  O18  1  0.293360  0.581773  0.047372  1
  O  O19  1  0.206640  0.918227  0.547372  1
  O  O20  1  0.293360  0.918227  0.047372  1
  O  O21  1  0.934852  0.750000  0.345286  1
  O  O22  1  0.793360  0.418227  0.452628  1
  O  O23  1  0.486453  0.414247  0.732421  1
  O  O24  1  0.439169  0.750000  0.420366  1
  O  O25  1  0.350251  0.250000  0.398984  1
  O  O26  1  0.565148  0.750000  0.845286  1
  O  O27  1  0.206640  0.581773  0.547372  1
  O  O28  1  0.060831  0.750000  0.920366  1
  O  O29  1  0.513547  0.585754  0.267579  1
  O  O30  1  0.850251  0.750000  0.101016  1
  O  O31  1  0.486453  0.085753  0.732421  1
  O  O32  1  0.513547  0.914246  0.267579  1
  O  O33  1  0.065148  0.250000  0.654714  1
  O  O34  1  0.793360  0.081773  0.452628  1
  O  O35  1  0.939169  0.250000  0.079634  1
  O  O36  1  0.013547  0.085753  0.232421  1
  O  O37  1  0.706640  0.081773  0.952628  1
  O  O38  1  0.560831  0.250000  0.579634  1
  O  O39  1  0.986453  0.914246  0.767579  1
  O  O40  1  0.013547  0.414247  0.232421  1
  O  O41  1  0.149749  0.250000  0.898984  1
  O  O42  1  0.649749  0.750000  0.601016  1
  O  O43  1  0.706640  0.418227  0.952628  1
