# generated using pymatgen
data_SmTiGe
_symmetry_space_group_name_H-M   'P 1'
_cell_length_a   4.10361375
_cell_length_b   4.10361375
_cell_length_c   8.42802474
_cell_angle_alpha   104.09028181
_cell_angle_beta   104.09028178
_cell_angle_gamma   89.99999998
_symmetry_Int_Tables_number   1
_chemical_formula_structural   SmTiGe
_chemical_formula_sum   'Sm2 Ti2 Ge2'
_cell_volume   133.24808369
_cell_formula_units_Z   2
loop_
 _symmetry_equiv_pos_site_id
 _symmetry_equiv_pos_as_xyz
  1  'x, y, z'
loop_
 _atom_site_type_symbol
 _atom_site_label
 _atom_site_symmetry_multiplicity
 _atom_site_fract_x
 _atom_site_fract_y
 _atom_site_fract_z
 _atom_site_occupancy
  Ti  Ti0  1  0.000000  0.500000  0.000000  1
  Ti  Ti1  1  0.500000  0.000000  0.000000  1
  Ge  Ge2  1  0.118501  0.118501  0.237002  1
  Ge  Ge3  1  0.881499  0.881499  0.762998  1
  Sm  Sm4  1  0.673888  0.673888  0.347777  1
  Sm  Sm5  1  0.326112  0.326112  0.652223  1
