# generated using pymatgen
data_Te3MoWSe
_symmetry_space_group_name_H-M   'P 1'
_cell_length_a   3.49655089
_cell_length_b   3.49652665
_cell_length_c   39.63504952
_cell_angle_alpha   90.00006629
_cell_angle_beta   90.00000000
_cell_angle_gamma   120.00022923
_symmetry_Int_Tables_number   1
_chemical_formula_structural   Te3MoWSe
_chemical_formula_sum   'Te6 Mo2 W2 Se2'
_cell_volume   419.64855301
_cell_formula_units_Z   2
loop_
 _symmetry_equiv_pos_site_id
 _symmetry_equiv_pos_as_xyz
  1  'x, y, z'
loop_
 _atom_site_type_symbol
 _atom_site_label
 _atom_site_symmetry_multiplicity
 _atom_site_fract_x
 _atom_site_fract_y
 _atom_site_fract_z
 _atom_site_occupancy
  Te  Te0  1  0.333356  0.666712  0.704064  1
  Te  Te1  1  0.666644  0.333287  0.047683  1
  Te  Te2  1  0.666648  0.333296  0.423416  1
  Te  Te3  1  0.666649  0.333296  0.140172  1
  Te  Te4  1  0.666636  0.333270  0.515895  1
  Te  Te5  1  0.333355  0.666710  0.611008  1
  Mo  Mo6  1  0.333309  0.666618  0.093921  1
  Mo  Mo7  1  0.333309  0.666617  0.469644  1
  W  W8  1  0.666688  0.333376  0.281797  1
  W  W9  1  0.666691  0.333381  0.657552  1
  Se  Se10  1  0.333359  0.666718  0.322761  1
  Se  Se11  1  0.333358  0.666717  0.240835  1
