# generated using pymatgen
data_Zr63S128
_symmetry_space_group_name_H-M   'P 1'
_cell_length_a   14.72567753
_cell_length_b   14.72080732
_cell_length_c   25.19371286
_cell_angle_alpha   90.11013962
_cell_angle_beta   89.95540350
_cell_angle_gamma   120.03246314
_symmetry_Int_Tables_number   1
_chemical_formula_structural   Zr63S128
_chemical_formula_sum   'Zr63 S128'
_cell_volume   4728.10104708
_cell_formula_units_Z   1
loop_
 _symmetry_equiv_pos_site_id
 _symmetry_equiv_pos_as_xyz
  1  'x, y, z'
loop_
 _atom_site_type_symbol
 _atom_site_label
 _atom_site_symmetry_multiplicity
 _atom_site_fract_x
 _atom_site_fract_y
 _atom_site_fract_z
 _atom_site_occupancy
  Zr  Zr0  1  0.999925  0.999938  0.000789  1
  Zr  Zr1  1  0.000001  1.000002  0.750000  1
  Zr  Zr2  1  0.999990  0.000054  0.499208  1
  Zr  Zr3  1  0.996803  -0.000046  0.250035  1
  Zr  Zr4  1  0.999929  0.249990  0.000793  1
  Zr  Zr5  1  0.000001  0.250003  0.749997  1
  Zr  Zr6  1  0.999986  0.249936  0.499203  1
  Zr  Zr7  1  0.996750  0.246766  0.250017  1
  Zr  Zr8  1  0.999984  0.499984  0.000375  1
  Zr  Zr9  1  -0.000003  0.500003  0.749963  1
  Zr  Zr10  1  0.999995  0.499982  0.498938  1
  Zr  Zr11  1  0.999609  0.499253  0.250562  1
  Zr  Zr12  1  0.999984  0.750006  0.000374  1
  Zr  Zr13  1  -0.000003  0.750004  0.749963  1
  Zr  Zr14  1  0.999990  0.750013  0.498939  1
  Zr  Zr15  1  0.999614  0.750351  0.250552  1
  Zr  Zr16  1  0.750041  0.750058  0.000797  1
  Zr  Zr17  1  0.749997  0.749997  0.750001  1
  Zr  Zr18  1  0.749958  0.750010  0.499204  1
  Zr  Zr19  1  0.750028  0.753265  0.250018  1
  Zr  Zr20  1  0.749990  0.999994  0.001110  1
  Zr  Zr21  1  0.750000  1.000000  0.750000  1
  Zr  Zr22  1  0.750011  0.000005  0.498891  1
  Zr  Zr23  1  0.750042  0.249990  0.000796  1
  Zr  Zr24  1  0.750003  0.250003  0.749999  1
  Zr  Zr25  1  0.749959  0.249941  0.499202  1
  Zr  Zr26  1  0.749971  0.246735  0.249982  1
  Zr  Zr27  1  0.750032  0.500025  0.000552  1
  Zr  Zr28  1  0.750000  0.500000  0.750000  1
  Zr  Zr29  1  0.749968  0.499976  0.499448  1
  Zr  Zr30  1  0.750000  0.500000  0.250000  1
  Zr  Zr31  1  0.500005  0.500018  0.001061  1
  Zr  Zr32  1  0.500003  0.499998  0.750037  1
  Zr  Zr33  1  0.500015  0.500016  0.499625  1
  Zr  Zr34  1  0.500391  0.500747  0.249438  1
  Zr  Zr35  1  0.500014  0.750063  0.000796  1
  Zr  Zr36  1  0.499999  0.749997  0.750002  1
  Zr  Zr37  1  0.500072  0.750011  0.499207  1
  Zr  Zr38  1  0.503249  0.753234  0.249984  1
  Zr  Zr39  1  0.500009  0.999946  0.000792  1
  Zr  Zr40  1  0.499998  -0.000002  0.750000  1
  Zr  Zr41  1  0.500074  0.000062  0.499210  1
  Zr  Zr42  1  0.503197  1.000045  0.249966  1
  Zr  Zr43  1  0.500009  0.249987  0.001061  1
  Zr  Zr44  1  0.500004  0.249996  0.750037  1
  Zr  Zr45  1  0.500015  0.249994  0.499626  1
  Zr  Zr46  1  0.500385  0.249648  0.249448  1
  Zr  Zr47  1  0.249977  0.249994  0.001055  1
  Zr  Zr48  1  0.250001  0.249997  0.750037  1
  Zr  Zr49  1  0.249983  0.249988  0.499627  1
  Zr  Zr50  1  0.249293  0.249644  0.249444  1
  Zr  Zr51  1  0.249984  0.500027  0.000554  1
  Zr  Zr52  1  0.250000  0.500000  0.750000  1
  Zr  Zr53  1  0.250016  0.499972  0.499446  1
  Zr  Zr54  1  0.250001  0.500001  0.250000  1
  Zr  Zr55  1  0.250018  0.750012  0.000372  1
  Zr  Zr56  1  0.249999  0.750003  0.749963  1
  Zr  Zr57  1  0.250022  0.750006  0.498945  1
  Zr  Zr58  1  0.250707  0.750355  0.250556  1
  Zr  Zr59  1  0.249975  0.999955  0.000550  1
  Zr  Zr60  1  0.250000  1.000000  0.750000  1
  Zr  Zr61  1  0.250024  0.000045  0.499450  1
  Zr  Zr62  1  0.250000  0.000000  0.250000  1
  S  S63  1  0.916464  0.083155  0.942870  1
  S  S64  1  0.916658  0.083256  0.692030  1
  S  S65  1  0.916835  0.083339  0.441165  1
  S  S66  1  0.921631  0.085810  0.193057  1
  S  S67  1  0.916488  0.332921  0.942618  1
  S  S68  1  0.916644  0.333237  0.692018  1
  S  S69  1  0.916497  0.332919  0.441130  1
  S  S70  1  0.917559  0.335071  0.191598  1
  S  S71  1  0.916494  0.583177  0.942384  1
  S  S72  1  0.916632  0.583243  0.692007  1
  S  S73  1  0.916301  0.583093  0.441222  1
  S  S74  1  0.916871  0.583364  0.192203  1
  S  S75  1  0.916482  0.833432  0.942610  1
  S  S76  1  0.916646  0.833269  0.692019  1
  S  S77  1  0.916496  0.833436  0.441129  1
  S  S78  1  0.917585  0.832343  0.191591  1
  S  S79  1  0.666766  0.833459  0.942871  1
  S  S80  1  0.666659  0.833256  0.692031  1
  S  S81  1  0.666594  0.833092  0.441165  1
  S  S82  1  0.664138  0.828370  0.193124  1
  S  S83  1  0.666749  0.083159  0.942867  1
  S  S84  1  0.666659  0.083256  0.692031  1
  S  S85  1  0.666578  0.083345  0.441171  1
  S  S86  1  0.664109  0.085774  0.193128  1
  S  S87  1  0.666377  0.332960  0.942791  1
  S  S88  1  0.666634  0.333247  0.692043  1
  S  S89  1  0.666381  0.333251  0.441531  1
  S  S90  1  0.666388  0.333935  0.191642  1
  S  S91  1  0.666365  0.583282  0.942791  1
  S  S92  1  0.666635  0.583247  0.692042  1
  S  S93  1  0.666382  0.582982  0.441529  1
  S  S94  1  0.666397  0.582314  0.191626  1
  S  S95  1  0.416976  0.583294  0.942790  1
  S  S96  1  0.416674  0.583246  0.692046  1
  S  S97  1  0.416667  0.582987  0.441532  1
  S  S98  1  0.415991  0.582299  0.191625  1
  S  S99  1  0.416997  0.833434  0.942612  1
  S  S100  1  0.416684  0.833268  0.692021  1
  S  S101  1  0.417002  0.833427  0.441127  1
  S  S102  1  0.414820  0.832349  0.191598  1
  S  S103  1  0.416966  0.083535  0.942784  1
  S  S104  1  0.416669  0.083278  0.692043  1
  S  S105  1  0.416679  0.083554  0.441533  1
  S  S106  1  0.415970  0.083530  0.191635  1
  S  S107  1  0.416656  0.333263  0.943056  1
  S  S108  1  0.416662  0.333252  0.692078  1
  S  S109  1  0.416676  0.333268  0.441720  1
  S  S110  1  0.416688  0.333276  0.191624  1
  S  S111  1  0.166621  0.332957  0.942791  1
  S  S112  1  0.166673  0.333244  0.692045  1
  S  S113  1  0.166935  0.333245  0.441530  1
  S  S114  1  0.167646  0.333949  0.191633  1
  S  S115  1  0.166739  0.583172  0.942387  1
  S  S116  1  0.166669  0.583243  0.692008  1
  S  S117  1  0.166857  0.583088  0.441227  1
  S  S118  1  0.166533  0.583360  0.192203  1
  S  S119  1  0.166739  0.833427  0.942384  1
  S  S120  1  0.166671  0.833282  0.692008  1
  S  S121  1  0.166847  0.833643  0.441229  1
  S  S122  1  0.166538  0.833036  0.192204  1
  S  S123  1  0.166624  0.083544  0.942788  1
  S  S124  1  0.166670  0.083279  0.692043  1
  S  S125  1  0.166947  0.083552  0.441530  1
  S  S126  1  0.167646  0.083534  0.191625  1
  S  S127  1  0.833340  0.916744  0.807969  1
  S  S128  1  0.833251  0.916841  0.557133  1
  S  S129  1  0.835890  0.914228  0.306872  1
  S  S130  1  0.833421  0.916656  0.058829  1
  S  S131  1  0.833341  0.166744  0.807969  1
  S  S132  1  0.833231  0.166531  0.557129  1
  S  S133  1  0.835862  0.171631  0.306876  1
  S  S134  1  0.833412  0.166911  0.058835  1
  S  S135  1  0.833365  0.416753  0.807958  1
  S  S136  1  0.833635  0.416717  0.557209  1
  S  S137  1  0.833601  0.417686  0.308374  1
  S  S138  1  0.833619  0.417018  0.058471  1
  S  S139  1  0.833365  0.666753  0.807957  1
  S  S140  1  0.833624  0.667040  0.557209  1
  S  S141  1  0.833611  0.666065  0.308358  1
  S  S142  1  0.833622  0.666751  0.058470  1
  S  S143  1  0.583357  0.666764  0.807982  1
  S  S144  1  0.583511  0.667080  0.557382  1
  S  S145  1  0.582440  0.664929  0.308401  1
  S  S146  1  0.583506  0.667081  0.058867  1
  S  S147  1  0.583341  0.916744  0.807970  1
  S  S148  1  0.583534  0.916844  0.557130  1
  S  S149  1  0.578368  0.914190  0.306943  1
  S  S150  1  0.583166  0.916662  0.058836  1
  S  S151  1  0.583354  0.166731  0.807981  1
  S  S152  1  0.583519  0.166568  0.557390  1
  S  S153  1  0.582415  0.167657  0.308409  1
  S  S154  1  0.583504  0.166564  0.058871  1
  S  S155  1  0.583368  0.416757  0.807993  1
  S  S156  1  0.583505  0.416823  0.557616  1
  S  S157  1  0.583128  0.416636  0.307797  1
  S  S158  1  0.583699  0.416907  0.058778  1
  S  S159  1  0.333329  0.416756  0.807991  1
  S  S160  1  0.333261  0.416828  0.557613  1
  S  S161  1  0.333467  0.416641  0.307797  1
  S  S162  1  0.333141  0.416913  0.058773  1
  S  S163  1  0.333327  0.666756  0.807955  1
  S  S164  1  0.333379  0.667044  0.557209  1
  S  S165  1  0.332357  0.666056  0.308370  1
  S  S166  1  0.333064  0.666755  0.058470  1
  S  S167  1  0.333330  0.916721  0.807957  1
  S  S168  1  0.333376  0.916456  0.557212  1
  S  S169  1  0.332354  0.916466  0.308375  1
  S  S170  1  0.333053  0.916447  0.058470  1
  S  S171  1  0.333329  0.166718  0.807992  1
  S  S172  1  0.333262  0.166573  0.557616  1
  S  S173  1  0.333462  0.166964  0.307796  1
  S  S174  1  0.333154  0.166357  0.058771  1
  S  S175  1  0.083315  0.166732  0.807979  1
  S  S176  1  0.083010  0.166566  0.557388  1
  S  S177  1  0.085180  0.167651  0.308402  1
  S  S178  1  0.082999  0.166573  0.058873  1
  S  S179  1  0.083326  0.416754  0.807954  1
  S  S180  1  0.083022  0.416705  0.557209  1
  S  S181  1  0.084009  0.417702  0.308375  1
  S  S182  1  0.083332  0.417011  0.058468  1
  S  S183  1  0.083339  0.666749  0.807922  1
  S  S184  1  0.083344  0.666737  0.556943  1
  S  S185  1  0.083312  0.666724  0.308376  1
  S  S186  1  0.083325  0.666733  0.058279  1
  S  S187  1  0.083330  0.916722  0.807957  1
  S  S188  1  0.083034  0.916464  0.557216  1
  S  S189  1  0.084029  0.916471  0.308365  1
  S  S190  1  0.083321  0.916446  0.058467  1
