# generated using pymatgen
data_Ba4SiAs4
_symmetry_space_group_name_H-M   'P 1'
_cell_length_a   13.48884375
_cell_length_b   13.48884375
_cell_length_c   13.48884375
_cell_angle_alpha   90.00000000
_cell_angle_beta   90.00000000
_cell_angle_gamma   90.00000000
_symmetry_Int_Tables_number   1
_chemical_formula_structural   Ba4SiAs4
_chemical_formula_sum   'Ba32 Si8 As32'
_cell_volume   2454.28035963
_cell_formula_units_Z   8
loop_
 _symmetry_equiv_pos_site_id
 _symmetry_equiv_pos_as_xyz
  1  'x, y, z'
loop_
 _atom_site_type_symbol
 _atom_site_label
 _atom_site_symmetry_multiplicity
 _atom_site_fract_x
 _atom_site_fract_y
 _atom_site_fract_z
 _atom_site_occupancy
  Si  Si0  1  0.000000  0.000000  0.000000  1
  Si  Si1  1  0.750000  0.000000  0.500000  1
  Si  Si2  1  0.500000  0.750000  0.000000  1
  Si  Si3  1  0.500000  0.250000  0.000000  1
  Si  Si4  1  0.000000  0.500000  0.250000  1
  Si  Si5  1  0.000000  0.500000  0.750000  1
  Si  Si6  1  0.250000  0.000000  0.500000  1
  Si  Si7  1  0.500000  0.500000  0.500000  1
  As  As8  1  0.602807  0.847999  0.111903  1
  As  As9  1  0.652001  0.102807  0.388097  1
  As  As10  1  0.897193  0.611903  0.652001  1
  As  As11  1  0.102807  0.611903  0.347999  1
  As  As12  1  0.611903  0.652001  0.897193  1
  As  As13  1  0.388097  0.347999  0.897193  1
  As  As14  1  0.847999  0.888097  0.397193  1
  As  As15  1  0.847999  0.111903  0.602807  1
  As  As16  1  0.152001  0.888097  0.602807  1
  As  As17  1  0.396087  0.396087  0.396087  1
  As  As18  1  0.602807  0.152001  0.888097  1
  As  As19  1  0.652001  0.897193  0.611903  1
  As  As20  1  0.888097  0.397193  0.847999  1
  As  As21  1  0.397193  0.847999  0.888097  1
  As  As22  1  0.888097  0.602807  0.152001  1
  As  As23  1  0.111903  0.397193  0.152001  1
  As  As24  1  0.397193  0.152001  0.111903  1
  As  As25  1  0.388097  0.652001  0.102807  1
  As  As26  1  0.611903  0.347999  0.102807  1
  As  As27  1  0.897193  0.388097  0.347999  1
  As  As28  1  0.102807  0.388097  0.652001  1
  As  As29  1  0.347999  0.102807  0.611903  1
  As  As30  1  0.347999  0.897193  0.388097  1
  As  As31  1  0.152001  0.111903  0.397193  1
  As  As32  1  0.103913  0.896087  0.103913  1
  As  As33  1  0.103913  0.103913  0.896087  1
  As  As34  1  0.896087  0.103913  0.103913  1
  As  As35  1  0.603913  0.603913  0.396087  1
  As  As36  1  0.396087  0.603913  0.603913  1
  As  As37  1  0.603913  0.396087  0.603913  1
  As  As38  1  0.896087  0.896087  0.896087  1
  As  As39  1  0.111903  0.602807  0.847999  1
  Ba  Ba40  1  0.144414  0.144414  0.144414  1
  Ba  Ba41  1  0.355586  0.644414  0.355586  1
  Ba  Ba42  1  0.644414  0.355586  0.355586  1
  Ba  Ba43  1  0.355586  0.355586  0.644414  1
  Ba  Ba44  1  0.144414  0.855586  0.855586  1
  Ba  Ba45  1  0.855586  0.855586  0.144414  1
  Ba  Ba46  1  0.855586  0.144414  0.855586  1
  Ba  Ba47  1  0.644414  0.644414  0.644414  1
  Ba  Ba48  1  0.904501  0.868354  0.644346  1
  Ba  Ba49  1  0.904501  0.131646  0.355654  1
  Ba  Ba50  1  0.868354  0.644346  0.904501  1
  Ba  Ba51  1  0.131646  0.644346  0.095499  1
  Ba  Ba52  1  0.644346  0.904501  0.868354  1
  Ba  Ba53  1  0.355654  0.095499  0.868354  1
  Ba  Ba54  1  0.595499  0.855654  0.368354  1
  Ba  Ba55  1  0.595499  0.144346  0.631646  1
  Ba  Ba56  1  0.404501  0.855654  0.631646  1
  Ba  Ba57  1  0.144346  0.631646  0.595499  1
  Ba  Ba58  1  0.631646  0.404501  0.855654  1
  Ba  Ba59  1  0.631646  0.595499  0.144346  1
  Ba  Ba60  1  0.855654  0.368354  0.595499  1
  Ba  Ba61  1  0.368354  0.595499  0.855654  1
  Ba  Ba62  1  0.855654  0.631646  0.404501  1
  Ba  Ba63  1  0.144346  0.368354  0.404501  1
  Ba  Ba64  1  0.368354  0.404501  0.144346  1
  Ba  Ba65  1  0.355654  0.904501  0.131646  1
  Ba  Ba66  1  0.644346  0.095499  0.131646  1
  Ba  Ba67  1  0.868354  0.355654  0.095499  1
  Ba  Ba68  1  0.131646  0.355654  0.904501  1
  Ba  Ba69  1  0.095499  0.131646  0.644346  1
  Ba  Ba70  1  0.095499  0.868354  0.355654  1
  Ba  Ba71  1  0.404501  0.144346  0.368354  1
