# generated using pymatgen
data_Na3Rh(NO2)6
_symmetry_space_group_name_H-M   'P 1'
_cell_length_a   6.86764377
_cell_length_b   6.86764378
_cell_length_c   6.86764378
_cell_angle_alpha   72.30368274
_cell_angle_beta   72.30368272
_cell_angle_gamma   72.30368269
_symmetry_Int_Tables_number   1
_chemical_formula_structural   Na3Rh(NO2)6
_chemical_formula_sum   'Na3 Rh1 N6 O12'
_cell_volume   285.88114480
_cell_formula_units_Z   1
loop_
 _symmetry_equiv_pos_site_id
 _symmetry_equiv_pos_as_xyz
  1  'x, y, z'
loop_
 _atom_site_type_symbol
 _atom_site_label
 _atom_site_symmetry_multiplicity
 _atom_site_fract_x
 _atom_site_fract_y
 _atom_site_fract_z
 _atom_site_occupancy
  N  N0  1  0.798373  0.174679  0.798373  1
  N  N1  1  0.798373  0.798373  0.174679  1
  N  N2  1  0.174679  0.798373  0.798373  1
  N  N3  1  0.825321  0.201627  0.201627  1
  N  N4  1  0.201627  0.825321  0.201627  1
  N  N5  1  0.201627  0.201627  0.825321  1
  O  O6  1  0.911544  0.282158  0.282158  1
  O  O7  1  0.088456  0.717842  0.717842  1
  O  O8  1  0.717842  0.717842  0.088456  1
  O  O9  1  0.717842  0.088456  0.717842  1
  O  O10  1  0.241644  0.628667  0.241644  1
  O  O11  1  0.241644  0.241644  0.628667  1
  O  O12  1  0.628667  0.241644  0.241644  1
  O  O13  1  0.371333  0.758356  0.758356  1
  O  O14  1  0.758356  0.371333  0.758356  1
  O  O15  1  0.758356  0.758356  0.371333  1
  O  O16  1  0.282158  0.911544  0.282158  1
  O  O17  1  0.282158  0.282158  0.911544  1
  Na  Na18  1  0.734763  0.734763  0.734763  1
  Na  Na19  1  0.265237  0.265237  0.265237  1
  Na  Na20  1  0.500000  0.500000  0.500000  1
  Rh  Rh21  1  0.000000  0.000000  0.000000  1
