# generated using pymatgen
data_Te4Mo3W(SeS)2
_symmetry_space_group_name_H-M   'P 1'
_cell_length_a   3.39906523
_cell_length_b   3.39913018
_cell_length_c   38.70797784
_cell_angle_alpha   89.99990025
_cell_angle_beta   90.00002759
_cell_angle_gamma   120.00011039
_symmetry_Int_Tables_number   1
_chemical_formula_structural   Te4Mo3W(SeS)2
_chemical_formula_sum   'Te4 Mo3 W1 Se2 S2'
_cell_volume   387.30930290
_cell_formula_units_Z   1
loop_
 _symmetry_equiv_pos_site_id
 _symmetry_equiv_pos_as_xyz
  1  'x, y, z'
loop_
 _atom_site_type_symbol
 _atom_site_label
 _atom_site_symmetry_multiplicity
 _atom_site_fract_x
 _atom_site_fract_y
 _atom_site_fract_z
 _atom_site_occupancy
  Te  Te0  1  0.333352  0.666703  0.330425  1
  Te  Te1  1  0.333351  0.666703  0.705896  1
  Te  Te2  1  0.333352  0.666705  0.233123  1
  Te  Te3  1  0.333356  0.666712  0.609167  1
  Mo  Mo4  1  0.333308  0.666622  0.093935  1
  Mo  Mo5  1  0.333308  0.666614  0.469670  1
  Mo  Mo6  1  0.666687  0.333377  0.657549  1
  W  W7  1  0.666688  0.333379  0.281792  1
  Se  Se8  1  0.666647  0.333295  0.427064  1
  Se  Se9  1  0.666644  0.333289  0.512255  1
  S  S10  1  0.666654  0.333302  0.055117  1
  S  S11  1  0.666653  0.333300  0.132756  1
