# generated using pymatgen
data_Co(TePd)2
_symmetry_space_group_name_H-M   'P 1'
_cell_length_a   5.25405348
_cell_length_b   6.33001824
_cell_length_c   6.95201262
_cell_angle_alpha   117.08199623
_cell_angle_beta   112.20242856
_cell_angle_gamma   89.99999995
_symmetry_Int_Tables_number   1
_chemical_formula_structural   Co(TePd)2
_chemical_formula_sum   'Co2 Te4 Pd4'
_cell_volume   186.40035815
_cell_formula_units_Z   2
loop_
 _symmetry_equiv_pos_site_id
 _symmetry_equiv_pos_as_xyz
  1  'x, y, z'
loop_
 _atom_site_type_symbol
 _atom_site_label
 _atom_site_symmetry_multiplicity
 _atom_site_fract_x
 _atom_site_fract_y
 _atom_site_fract_z
 _atom_site_occupancy
  Co  Co0  1  0.750000  0.000000  0.000000  1
  Co  Co1  1  0.250000  0.000000  0.000000  1
  Pd  Pd2  1  0.605901  0.473396  0.211802  1
  Pd  Pd3  1  0.894099  0.261594  0.788198  1
  Pd  Pd4  1  0.105901  0.738406  0.211802  1
  Pd  Pd5  1  0.394099  0.526604  0.788198  1
  Te  Te6  1  0.356051  0.070987  0.712103  1
  Te  Te7  1  0.643949  0.929013  0.287897  1
  Te  Te8  1  0.143949  0.358884  0.287897  1
  Te  Te9  1  0.856051  0.641116  0.712103  1
