# generated using pymatgen
data_KCr4O8
_symmetry_space_group_name_H-M   'P 1'
_cell_length_a   3.00387630
_cell_length_b   7.19531260
_cell_length_c   7.19531261
_cell_angle_alpha   87.50273346
_cell_angle_beta   77.95156964
_cell_angle_gamma   77.95156961
_symmetry_Int_Tables_number   1
_chemical_formula_structural   KCr4O8
_chemical_formula_sum   'K1 Cr4 O8'
_cell_volume   148.74205737
_cell_formula_units_Z   1
loop_
 _symmetry_equiv_pos_site_id
 _symmetry_equiv_pos_as_xyz
  1  'x, y, z'
loop_
 _atom_site_type_symbol
 _atom_site_label
 _atom_site_symmetry_multiplicity
 _atom_site_fract_x
 _atom_site_fract_y
 _atom_site_fract_z
 _atom_site_occupancy
  O  O0  1  0.460840  0.376422  0.701896  1
  O  O1  1  0.162738  0.298104  0.376422  1
  O  O2  1  0.837262  0.701896  0.623579  1
  O  O3  1  0.539160  0.623578  0.298103  1
  O  O4  1  0.845446  0.951910  0.357200  1
  O  O5  1  0.154553  0.048090  0.642800  1
  O  O6  1  0.202644  0.642801  0.951910  1
  O  O7  1  0.797355  0.357199  0.048089  1
  K  K8  1  0.500002  0.000000  1.000000  1
  Cr  Cr9  1  0.835816  0.511959  0.816413  1
  Cr  Cr10  1  0.164188  0.488041  0.183587  1
  Cr  Cr11  1  0.347774  0.816413  0.488040  1
  Cr  Cr12  1  0.652226  0.183587  0.511959  1
