# generated using pymatgen
data_K2NpO4
_symmetry_space_group_name_H-M   'P 1'
_cell_length_a   4.33860083
_cell_length_b   4.33860083
_cell_length_c   7.37230605
_cell_angle_alpha   107.11256429
_cell_angle_beta   107.11256429
_cell_angle_gamma   90.00000000
_symmetry_Int_Tables_number   1
_chemical_formula_structural   K2NpO4
_chemical_formula_sum   'K2 Np1 O4'
_cell_volume   126.18621213
_cell_formula_units_Z   1
loop_
 _symmetry_equiv_pos_site_id
 _symmetry_equiv_pos_as_xyz
  1  'x, y, z'
loop_
 _atom_site_type_symbol
 _atom_site_label
 _atom_site_symmetry_multiplicity
 _atom_site_fract_x
 _atom_site_fract_y
 _atom_site_fract_z
 _atom_site_occupancy
  K  K0  1  0.350219  0.350219  0.700438  1
  K  K1  1  0.649781  0.649781  0.299562  1
  Np  Np2  1  0.000000  0.000000  0.000000  1
  O  O3  1  0.143864  0.143864  0.287728  1
  O  O4  1  0.856136  0.856136  0.712272  1
  O  O5  1  0.000000  0.500000  0.000000  1
  O  O6  1  0.500000  0.000000  0.000000  1
