# generated using pymatgen
data_LaPO4
_symmetry_space_group_name_H-M   'P 1'
_cell_length_a   6.05286150
_cell_length_b   6.05286150
_cell_length_c   6.05286150
_cell_angle_alpha   105.94203552
_cell_angle_beta   105.94203552
_cell_angle_gamma   116.78671268
_symmetry_Int_Tables_number   1
_chemical_formula_structural   LaPO4
_chemical_formula_sum   'La2 P2 O8'
_cell_volume   168.59801185
_cell_formula_units_Z   2
loop_
 _symmetry_equiv_pos_site_id
 _symmetry_equiv_pos_as_xyz
  1  'x, y, z'
loop_
 _atom_site_type_symbol
 _atom_site_label
 _atom_site_symmetry_multiplicity
 _atom_site_fract_x
 _atom_site_fract_y
 _atom_site_fract_z
 _atom_site_occupancy
  La  La0  1  0.125000  0.375000  0.250000  1
  La  La1  1  0.875000  0.625000  0.750000  1
  P  P2  1  0.375000  0.125000  0.750000  1
  P  P3  1  0.625000  0.875000  0.250000  1
  O  O4  1  0.357250  0.275841  0.581410  1
  O  O5  1  0.775841  0.194431  0.418590  1
  O  O6  1  0.775841  0.857250  0.081410  1
  O  O7  1  0.694431  0.275841  0.918590  1
  O  O8  1  0.642750  0.724159  0.418590  1
  O  O9  1  0.224159  0.805569  0.581410  1
  O  O10  1  0.224159  0.142750  0.918590  1
  O  O11  1  0.305569  0.724159  0.081410  1
