# generated using pymatgen
data_KAg3S2
_symmetry_space_group_name_H-M   'P 1'
_cell_length_a   9.43664945
_cell_length_b   9.43664945
_cell_length_c   9.43664945
_cell_angle_alpha   60.00000002
_cell_angle_beta   60.00000003
_cell_angle_gamma   60.00000001
_symmetry_Int_Tables_number   1
_chemical_formula_structural   KAg3S2
_chemical_formula_sum   'K4 Ag12 S8'
_cell_volume   594.20796501
_cell_formula_units_Z   4
loop_
 _symmetry_equiv_pos_site_id
 _symmetry_equiv_pos_as_xyz
  1  'x, y, z'
loop_
 _atom_site_type_symbol
 _atom_site_label
 _atom_site_symmetry_multiplicity
 _atom_site_fract_x
 _atom_site_fract_y
 _atom_site_fract_z
 _atom_site_occupancy
  S  S0  1  0.746220  0.746220  0.261340  1
  S  S1  1  0.253780  0.253780  0.253780  1
  S  S2  1  0.253780  0.738660  0.253780  1
  S  S3  1  0.738660  0.253780  0.253780  1
  S  S4  1  0.261340  0.746220  0.746220  1
  S  S5  1  0.253780  0.253780  0.738660  1
  S  S6  1  0.746220  0.746220  0.746220  1
  S  S7  1  0.746220  0.261340  0.746220  1
  K  K8  1  0.500000  0.500000  0.500000  1
  K  K9  1  0.500000  0.500000  0.000000  1
  K  K10  1  0.000000  0.500000  0.500000  1
  K  K11  1  0.500000  0.000000  0.500000  1
  Ag  Ag12  1  0.964721  0.285279  0.285279  1
  Ag  Ag13  1  0.714721  0.035279  0.035279  1
  Ag  Ag14  1  0.285279  0.964721  0.285279  1
  Ag  Ag15  1  0.285279  0.285279  0.964721  1
  Ag  Ag16  1  0.964721  0.964721  0.285279  1
  Ag  Ag17  1  0.964721  0.285279  0.964721  1
  Ag  Ag18  1  0.714721  0.035279  0.714721  1
  Ag  Ag19  1  0.035279  0.714721  0.035279  1
  Ag  Ag20  1  0.035279  0.714721  0.714721  1
  Ag  Ag21  1  0.714721  0.714721  0.035279  1
  Ag  Ag22  1  0.035279  0.035279  0.714721  1
  Ag  Ag23  1  0.285279  0.964721  0.964721  1
