# generated using pymatgen
data_Eu3AlO5
_symmetry_space_group_name_H-M   'P 1'
_cell_length_a   6.70554402
_cell_length_b   7.31131516
_cell_length_c   6.70554402
_cell_angle_alpha   117.29506658
_cell_angle_beta   90.00000000
_cell_angle_gamma   117.29506658
_symmetry_Int_Tables_number   1
_chemical_formula_structural   Eu3AlO5
_chemical_formula_sum   'Eu6 Al2 O10'
_cell_volume   250.24237727
_cell_formula_units_Z   2
loop_
 _symmetry_equiv_pos_site_id
 _symmetry_equiv_pos_as_xyz
  1  'x, y, z'
loop_
 _atom_site_type_symbol
 _atom_site_label
 _atom_site_symmetry_multiplicity
 _atom_site_fract_x
 _atom_site_fract_y
 _atom_site_fract_z
 _atom_site_occupancy
  Eu  Eu0  1  0.250000  0.500000  0.250000  1
  Eu  Eu1  1  0.750000  0.500000  0.750000  1
  Eu  Eu2  1  0.178233  0.000000  0.321767  1
  Eu  Eu3  1  0.821767  -0.000000  0.678233  1
  Eu  Eu4  1  0.321767  -0.000000  0.821767  1
  Eu  Eu5  1  0.678233  0.000000  0.178233  1
  Al  Al6  1  0.750000  0.500000  0.250000  1
  Al  Al7  1  0.250000  0.500000  0.750000  1
  O  O8  1  0.500000  -0.000000  0.500000  1
  O  O9  1  -0.000000  -0.000000  0.000000  1
  O  O10  1  0.792546  0.297738  0.005193  1
  O  O11  1  0.505193  0.297738  0.292546  1
  O  O12  1  0.005193  0.297738  0.505193  1
  O  O13  1  0.292546  0.297738  0.792546  1
  O  O14  1  0.207454  0.702262  0.994807  1
  O  O15  1  0.494807  0.702262  0.707454  1
  O  O16  1  0.994807  0.702262  0.494807  1
  O  O17  1  0.707454  0.702262  0.207454  1
