# generated using pymatgen
data_Nb2CuS4
_symmetry_space_group_name_H-M   'P 1'
_cell_length_a   3.60422423
_cell_length_b   3.60422423
_cell_length_c   12.75523974
_cell_angle_alpha   90.00000000
_cell_angle_beta   90.00000000
_cell_angle_gamma   119.99999952
_symmetry_Int_Tables_number   1
_chemical_formula_structural   Nb2CuS4
_chemical_formula_sum   'Nb2 Cu1 S4'
_cell_volume   143.49701413
_cell_formula_units_Z   1
loop_
 _symmetry_equiv_pos_site_id
 _symmetry_equiv_pos_as_xyz
  1  'x, y, z'
loop_
 _atom_site_type_symbol
 _atom_site_label
 _atom_site_symmetry_multiplicity
 _atom_site_fract_x
 _atom_site_fract_y
 _atom_site_fract_z
 _atom_site_occupancy
  Nb  Nb0  1  0.666667  0.333333  0.718910  1
  Nb  Nb1  1  0.333333  0.666667  0.281090  1
  Cu  Cu2  1  -0.000000  -0.000000  -0.000000  1
  S  S3  1  0.666667  0.333333  0.898368  1
  S  S4  1  0.333333  0.666667  0.101632  1
  S  S5  1  0.666667  0.333333  0.375953  1
  S  S6  1  0.333333  0.666667  0.624047  1
