# generated using pymatgen
data_TeW2SeS2
_symmetry_space_group_name_H-M   'P 1'
_cell_length_a   3.30644481
_cell_length_b   3.30645692
_cell_length_c   37.62900118
_cell_angle_alpha   90.00016026
_cell_angle_beta   90.00000000
_cell_angle_gamma   119.99987896
_symmetry_Int_Tables_number   1
_chemical_formula_structural   TeW2SeS2
_chemical_formula_sum   'Te2 W4 Se2 S4'
_cell_volume   356.26897015
_cell_formula_units_Z   2
loop_
 _symmetry_equiv_pos_site_id
 _symmetry_equiv_pos_as_xyz
  1  'x, y, z'
loop_
 _atom_site_type_symbol
 _atom_site_label
 _atom_site_symmetry_multiplicity
 _atom_site_fract_x
 _atom_site_fract_y
 _atom_site_fract_z
 _atom_site_occupancy
  Te  Te0  1  0.333353  0.666707  0.708629  1
  Te  Te1  1  0.333353  0.666708  0.606463  1
  W  W2  1  0.333310  0.666621  0.093932  1
  W  W3  1  0.333310  0.666620  0.469640  1
  W  W4  1  0.666693  0.333385  0.281808  1
  W  W5  1  0.666690  0.333381  0.657555  1
  Se  Se6  1  0.666647  0.333293  0.049098  1
  Se  Se7  1  0.666639  0.333277  0.138747  1
  S  S8  1  0.333356  0.666713  0.322547  1
  S  S9  1  0.666645  0.333288  0.428891  1
  S  S10  1  0.666648  0.333294  0.510394  1
  S  S11  1  0.333356  0.666712  0.241045  1
