# generated using pymatgen
data_MoW3(SeS3)2
_symmetry_space_group_name_H-M   'P 1'
_cell_length_a   3.21963623
_cell_length_b   3.21960201
_cell_length_c   36.38964622
_cell_angle_alpha   89.99983725
_cell_angle_beta   90.00000000
_cell_angle_gamma   120.00035154
_symmetry_Int_Tables_number   1
_chemical_formula_structural   MoW3(SeS3)2
_chemical_formula_sum   'Mo1 W3 Se2 S6'
_cell_volume   326.67501651
_cell_formula_units_Z   1
loop_
 _symmetry_equiv_pos_site_id
 _symmetry_equiv_pos_as_xyz
  1  'x, y, z'
loop_
 _atom_site_type_symbol
 _atom_site_label
 _atom_site_symmetry_multiplicity
 _atom_site_fract_x
 _atom_site_fract_y
 _atom_site_fract_z
 _atom_site_occupancy
  Mo  Mo0  1  0.333309  0.666619  0.093911  1
  W  W1  1  0.333308  0.666615  0.469651  1
  W  W2  1  0.666688  0.333377  0.281809  1
  W  W3  1  0.666692  0.333385  0.657540  1
  Se  Se4  1  0.666647  0.333293  0.046890  1
  Se  Se5  1  0.666645  0.333290  0.140930  1
  S  S6  1  0.333357  0.666715  0.324743  1
  S  S7  1  0.333355  0.666711  0.700501  1
  S  S8  1  0.666643  0.333285  0.426716  1
  S  S9  1  0.666641  0.333281  0.512608  1
  S  S10  1  0.333353  0.666708  0.238867  1
  S  S11  1  0.333361  0.666722  0.614581  1
