# generated using pymatgen
data_Te2W2SeS
_symmetry_space_group_name_H-M   'P 1'
_cell_length_a   3.39626536
_cell_length_b   3.39626649
_cell_length_c   38.82675175
_cell_angle_alpha   90.00020095
_cell_angle_beta   90.00000000
_cell_angle_gamma   119.99998903
_symmetry_Int_Tables_number   1
_chemical_formula_structural   Te2W2SeS
_chemical_formula_sum   'Te4 W4 Se2 S2'
_cell_volume   387.85117705
_cell_formula_units_Z   2
loop_
 _symmetry_equiv_pos_site_id
 _symmetry_equiv_pos_as_xyz
  1  'x, y, z'
loop_
 _atom_site_type_symbol
 _atom_site_label
 _atom_site_symmetry_multiplicity
 _atom_site_fract_x
 _atom_site_fract_y
 _atom_site_fract_z
 _atom_site_occupancy
  Te  Te0  1  0.333359  0.666719  0.330297  1
  Te  Te1  1  0.333357  0.666715  0.706007  1
  Te  Te2  1  0.333364  0.666728  0.233341  1
  Te  Te3  1  0.333353  0.666708  0.609045  1
  W  W4  1  0.333305  0.666609  0.093895  1
  W  W5  1  0.333308  0.666615  0.469664  1
  W  W6  1  0.666693  0.333385  0.281797  1
  W  W7  1  0.666687  0.333375  0.657552  1
  Se  Se8  1  0.666642  0.333283  0.051321  1
  Se  Se9  1  0.666645  0.333290  0.136500  1
  S  S10  1  0.666644  0.333287  0.430846  1
  S  S11  1  0.666644  0.333286  0.508484  1
