# generated using pymatgen
data_Te6MoW3S2
_symmetry_space_group_name_H-M   'P 1'
_cell_length_a   3.45736977
_cell_length_b   3.45738348
_cell_length_c   39.42829136
_cell_angle_alpha   90.00033162
_cell_angle_beta   90.00000000
_cell_angle_gamma   119.99986891
_symmetry_Int_Tables_number   1
_chemical_formula_structural   Te6MoW3S2
_chemical_formula_sum   'Te6 Mo1 W3 S2'
_cell_volume   408.16197762
_cell_formula_units_Z   1
loop_
 _symmetry_equiv_pos_site_id
 _symmetry_equiv_pos_as_xyz
  1  'x, y, z'
loop_
 _atom_site_type_symbol
 _atom_site_label
 _atom_site_symmetry_multiplicity
 _atom_site_fract_x
 _atom_site_fract_y
 _atom_site_fract_z
 _atom_site_occupancy
  Te  Te0  1  0.333359  0.666719  0.328890  1
  Te  Te1  1  0.333350  0.666701  0.704702  1
  Te  Te2  1  0.666649  0.333298  0.422522  1
  Te  Te3  1  0.666652  0.333302  0.516780  1
  Te  Te4  1  0.333349  0.666700  0.234585  1
  Te  Te5  1  0.333350  0.666702  0.610424  1
  Mo  Mo6  1  0.333309  0.666617  0.093955  1
  W  W7  1  0.333312  0.666625  0.469669  1
  W  W8  1  0.666689  0.333378  0.281757  1
  W  W9  1  0.666686  0.333372  0.657582  1
  S  S10  1  0.666645  0.333289  0.056128  1
  S  S11  1  0.666649  0.333297  0.131755  1
