# generated using pymatgen
data_Te6MoW3S2
_symmetry_space_group_name_H-M   'P 1'
_cell_length_a   3.45512319
_cell_length_b   3.45509578
_cell_length_c   39.44108543
_cell_angle_alpha   89.99985976
_cell_angle_beta   89.99999928
_cell_angle_gamma   120.00027603
_symmetry_Int_Tables_number   1
_chemical_formula_structural   Te6MoW3S2
_chemical_formula_sum   'Te6 Mo1 W3 S2'
_cell_volume   407.75745465
_cell_formula_units_Z   1
loop_
 _symmetry_equiv_pos_site_id
 _symmetry_equiv_pos_as_xyz
  1  'x, y, z'
loop_
 _atom_site_type_symbol
 _atom_site_label
 _atom_site_symmetry_multiplicity
 _atom_site_fract_x
 _atom_site_fract_y
 _atom_site_fract_z
 _atom_site_occupancy
  Te  Te0  1  0.333357  0.666715  0.328654  1
  Te  Te1  1  0.333357  0.666715  0.704794  1
  Te  Te2  1  0.666643  0.333285  0.422475  1
  Te  Te3  1  0.666650  0.333299  0.516809  1
  Te  Te4  1  0.333351  0.666702  0.234766  1
  Te  Te5  1  0.333352  0.666704  0.610433  1
  Mo  Mo6  1  0.666688  0.333376  0.281699  1
  W  W7  1  0.333313  0.666625  0.093937  1
  W  W8  1  0.333314  0.666627  0.469654  1
  W  W9  1  0.666687  0.333375  0.657632  1
  S  S10  1  0.666647  0.333294  0.056199  1
  S  S11  1  0.666642  0.333283  0.131695  1
