# generated using pymatgen
data_MoW(SeS)2
_symmetry_space_group_name_H-M   'P 1'
_cell_length_a   3.25739905
_cell_length_b   3.25741816
_cell_length_c   23.01774244
_cell_angle_alpha   90.00023122
_cell_angle_beta   90.00000275
_cell_angle_gamma   119.99978552
_symmetry_Int_Tables_number   1
_chemical_formula_structural   MoW(SeS)2
_chemical_formula_sum   'Mo1 W1 Se2 S2'
_cell_volume   211.51383248
_cell_formula_units_Z   1
loop_
 _symmetry_equiv_pos_site_id
 _symmetry_equiv_pos_as_xyz
  1  'x, y, z'
loop_
 _atom_site_type_symbol
 _atom_site_label
 _atom_site_symmetry_multiplicity
 _atom_site_fract_x
 _atom_site_fract_y
 _atom_site_fract_z
 _atom_site_occupancy
  Mo  Mo0  1  0.666689  0.333379  0.451435  1
  W  W1  1  0.333307  0.666613  0.150446  1
  Se  Se2  1  0.666648  0.333295  0.076242  1
  Se  Se3  1  0.666651  0.333301  0.224615  1
  S  S4  1  0.333354  0.666707  0.518477  1
  S  S5  1  0.333351  0.666703  0.384388  1
