# generated using pymatgen
data_Ba5Sb4
_symmetry_space_group_name_H-M   'P 1'
_cell_length_a   9.15558212
_cell_length_b   9.19744124
_cell_length_c   18.02274993
_cell_angle_alpha   90.00000000
_cell_angle_beta   90.00000000
_cell_angle_gamma   90.00000000
_symmetry_Int_Tables_number   1
_chemical_formula_structural   Ba5Sb4
_chemical_formula_sum   'Ba20 Sb16'
_cell_volume   1517.65843868
_cell_formula_units_Z   4
loop_
 _symmetry_equiv_pos_site_id
 _symmetry_equiv_pos_as_xyz
  1  'x, y, z'
loop_
 _atom_site_type_symbol
 _atom_site_label
 _atom_site_symmetry_multiplicity
 _atom_site_fract_x
 _atom_site_fract_y
 _atom_site_fract_z
 _atom_site_occupancy
  Sb  Sb0  1  0.747441  0.996081  0.948065  1
  Sb  Sb1  1  0.247441  0.503919  0.551935  1
  Sb  Sb2  1  0.752559  0.496081  0.051935  1
  Sb  Sb3  1  0.252559  0.003919  0.448065  1
  Sb  Sb4  1  0.252559  0.003919  0.051935  1
  Sb  Sb5  1  0.752559  0.496081  0.448065  1
  Sb  Sb6  1  0.247441  0.503919  0.948065  1
  Sb  Sb7  1  0.747441  0.996081  0.551935  1
  Sb  Sb8  1  0.367252  0.389770  0.250000  1
  Sb  Sb9  1  0.867252  0.110230  0.250000  1
  Sb  Sb10  1  0.132748  0.889770  0.750000  1
  Sb  Sb11  1  0.632748  0.610230  0.750000  1
  Sb  Sb12  1  0.140922  0.615673  0.250000  1
  Sb  Sb13  1  0.640922  0.884327  0.250000  1
  Sb  Sb14  1  0.359078  0.115673  0.750000  1
  Sb  Sb15  1  0.859078  0.384327  0.750000  1
  Ba  Ba16  1  0.423502  0.666092  0.396765  1
  Ba  Ba17  1  0.923502  0.833908  0.103235  1
  Ba  Ba18  1  0.076498  0.166092  0.603235  1
  Ba  Ba19  1  0.576498  0.333908  0.896765  1
  Ba  Ba20  1  0.423502  0.666092  0.103235  1
  Ba  Ba21  1  0.923502  0.833908  0.396765  1
  Ba  Ba22  1  0.076498  0.166092  0.896765  1
  Ba  Ba23  1  0.576498  0.333908  0.603235  1
  Ba  Ba24  1  0.413449  0.837857  0.604594  1
  Ba  Ba25  1  0.913449  0.662143  0.895406  1
  Ba  Ba26  1  0.086551  0.337857  0.395406  1
  Ba  Ba27  1  0.586551  0.162143  0.104594  1
  Ba  Ba28  1  0.586551  0.162143  0.395406  1
  Ba  Ba29  1  0.086551  0.337857  0.104594  1
  Ba  Ba30  1  0.913449  0.662143  0.604594  1
  Ba  Ba31  1  0.413449  0.837857  0.895406  1
  Ba  Ba32  1  0.253810  0.001458  0.250000  1
  Ba  Ba33  1  0.753810  0.498542  0.250000  1
  Ba  Ba34  1  0.246190  0.501458  0.750000  1
  Ba  Ba35  1  0.746190  0.998542  0.750000  1
