# generated using pymatgen
data_VAg2(PO4)2
_symmetry_space_group_name_H-M   'P 1'
_cell_length_a   6.36037459
_cell_length_b   7.79557747
_cell_length_c   14.09545561
_cell_angle_alpha   90.00000000
_cell_angle_beta   90.00000000
_cell_angle_gamma   99.65350456
_symmetry_Int_Tables_number   1
_chemical_formula_structural   VAg2(PO4)2
_chemical_formula_sum   'V4 Ag8 P8 O32'
_cell_volume   688.99565603
_cell_formula_units_Z   4
loop_
 _symmetry_equiv_pos_site_id
 _symmetry_equiv_pos_as_xyz
  1  'x, y, z'
loop_
 _atom_site_type_symbol
 _atom_site_label
 _atom_site_symmetry_multiplicity
 _atom_site_fract_x
 _atom_site_fract_y
 _atom_site_fract_z
 _atom_site_occupancy
  O  O0  1  0.957861  0.284627  0.778452  1
  O  O1  1  0.542139  0.715373  0.278452  1
  O  O2  1  0.042139  0.715373  0.221548  1
  O  O3  1  0.457861  0.284627  0.721548  1
  O  O4  1  0.186222  0.226093  0.914662  1
  O  O5  1  0.313778  0.773907  0.414662  1
  O  O6  1  0.813778  0.773907  0.085338  1
  O  O7  1  0.686222  0.226093  0.585338  1
  O  O8  1  0.468430  0.283581  0.042509  1
  O  O9  1  0.031570  0.716419  0.542509  1
  O  O10  1  0.531570  0.716419  0.957491  1
  O  O11  1  0.968430  0.283581  0.457491  1
  O  O12  1  0.740636  0.020842  0.981600  1
  O  O13  1  0.759364  0.979158  0.481600  1
  O  O14  1  0.259364  0.979158  0.018400  1
  O  O15  1  0.240636  0.020842  0.518400  1
  O  O16  1  0.081491  0.221723  0.089165  1
  O  O17  1  0.418509  0.778277  0.589165  1
  O  O18  1  0.918509  0.778277  0.910835  1
  O  O19  1  0.581491  0.221723  0.410835  1
  O  O20  1  0.354409  0.364568  0.554116  1
  O  O21  1  0.145591  0.635432  0.054116  1
  O  O22  1  0.645591  0.635432  0.445884  1
  O  O23  1  0.854409  0.364568  0.945884  1
  O  O24  1  0.314469  0.463307  0.362685  1
  O  O25  1  0.185531  0.536693  0.862685  1
  O  O26  1  0.685531  0.536693  0.637315  1
  O  O27  1  0.814469  0.463307  0.137315  1
  O  O28  1  0.180235  0.104444  0.328510  1
  O  O29  1  0.319765  0.895556  0.828511  1
  O  O30  1  0.819765  0.895556  0.671489  1
  O  O31  1  0.680235  0.104444  0.171489  1
  P  P32  1  0.751111  0.826834  0.979397  1
  P  P33  1  0.748889  0.173166  0.479397  1
  P  P34  1  0.251111  0.826834  0.520603  1
  P  P35  1  0.248889  0.173166  0.020603  1
  P  P36  1  0.536228  0.361150  0.625167  1
  P  P37  1  0.963772  0.638850  0.125167  1
  P  P38  1  0.463772  0.638850  0.374833  1
  P  P39  1  0.036228  0.361150  0.874833  1
  V  V40  1  0.765558  0.224426  0.075059  1
  V  V41  1  0.734442  0.775574  0.575059  1
  V  V42  1  0.265558  0.224426  0.424941  1
  V  V43  1  0.234442  0.775574  0.924941  1
  Ag  Ag44  1  0.151135  0.045228  0.713551  1
  Ag  Ag45  1  0.348865  0.954772  0.213551  1
  Ag  Ag46  1  0.848865  0.954772  0.286449  1
  Ag  Ag47  1  0.651135  0.045228  0.786449  1
  Ag  Ag48  1  0.924526  0.530818  0.353011  1
  Ag  Ag49  1  0.575474  0.469182  0.853011  1
  Ag  Ag50  1  0.075474  0.469182  0.646989  1
  Ag  Ag51  1  0.424526  0.530818  0.146989  1
