# generated using pymatgen
data_VP2O7
_symmetry_space_group_name_H-M   'P 1'
_cell_length_a   4.32741229
_cell_length_b   8.08287046
_cell_length_c   8.32481847
_cell_angle_alpha   74.05416044
_cell_angle_beta   74.93525970
_cell_angle_gamma   74.47312665
_symmetry_Int_Tables_number   1
_chemical_formula_structural   VP2O7
_chemical_formula_sum   'V2 P4 O14'
_cell_volume   264.24781416
_cell_formula_units_Z   2
loop_
 _symmetry_equiv_pos_site_id
 _symmetry_equiv_pos_as_xyz
  1  'x, y, z'
loop_
 _atom_site_type_symbol
 _atom_site_label
 _atom_site_symmetry_multiplicity
 _atom_site_fract_x
 _atom_site_fract_y
 _atom_site_fract_z
 _atom_site_occupancy
  O  O0  1  0.888117  0.250000  0.750000  1
  O  O1  1  0.111882  0.750000  0.250000  1
  O  O2  1  0.490635  0.228168  0.511057  1
  O  O3  1  0.229860  0.271832  0.988943  1
  O  O4  1  0.509367  0.771832  0.488943  1
  O  O5  1  0.770141  0.728169  0.011056  1
  O  O6  1  0.444343  0.991378  0.822912  1
  O  O7  1  0.258633  0.508621  0.677089  1
  O  O8  1  0.555656  0.008621  0.177089  1
  O  O9  1  0.741366  0.491379  0.322911  1
  O  O10  1  0.014445  0.174805  0.306443  1
  O  O11  1  0.985556  0.825195  0.693558  1
  O  O12  1  0.495692  0.325195  0.193557  1
  O  O13  1  0.504309  0.674805  0.806442  1
  P  P14  1  0.675351  0.314054  0.343820  1
  P  P15  1  0.333226  0.185946  0.156181  1
  P  P16  1  0.324648  0.685945  0.656181  1
  P  P17  1  0.666775  0.814056  0.843819  1
  V  V18  1  0.265164  0.250000  0.750000  1
  V  V19  1  0.734837  0.750000  0.250000  1
