# generated using pymatgen
data_Pr(BO2)3
_symmetry_space_group_name_H-M   'P 1'
_cell_length_a   6.45087059
_cell_length_b   6.45087059
_cell_length_c   6.48565209
_cell_angle_alpha   62.29989651
_cell_angle_beta   62.29989649
_cell_angle_gamma   78.95061443
_symmetry_Int_Tables_number   1
_chemical_formula_structural   Pr(BO2)3
_chemical_formula_sum   'Pr2 B6 O12'
_cell_volume   211.47126651
_cell_formula_units_Z   2
loop_
 _symmetry_equiv_pos_site_id
 _symmetry_equiv_pos_as_xyz
  1  'x, y, z'
loop_
 _atom_site_type_symbol
 _atom_site_label
 _atom_site_symmetry_multiplicity
 _atom_site_fract_x
 _atom_site_fract_y
 _atom_site_fract_z
 _atom_site_occupancy
  B  B0  1  0.277451  0.722549  0.750000  1
  B  B1  1  0.841208  0.705252  0.083807  1
  B  B2  1  0.294748  0.158792  0.416193  1
  B  B3  1  0.722549  0.277451  0.250000  1
  B  B4  1  0.705252  0.841208  0.583807  1
  B  B5  1  0.158792  0.294748  0.916193  1
  O  O6  1  0.710446  0.883674  0.002922  1
  O  O7  1  0.116326  0.289554  0.497078  1
  O  O8  1  0.719154  0.490671  0.287267  1
  O  O9  1  0.509329  0.280846  0.212733  1
  O  O10  1  0.280846  0.509329  0.712733  1
  O  O11  1  0.490671  0.719154  0.787267  1
  O  O12  1  0.711514  0.083994  0.491611  1
  O  O13  1  0.916006  0.288486  0.008389  1
  O  O14  1  0.288486  0.916006  0.508389  1
  O  O15  1  0.083994  0.711514  0.991611  1
  O  O16  1  0.883674  0.710446  0.502922  1
  O  O17  1  0.289554  0.116326  0.997078  1
  Pr  Pr18  1  0.299038  0.700962  0.250000  1
  Pr  Pr19  1  0.700962  0.299038  0.750000  1
