# generated using pymatgen
data_BaSnS2
_symmetry_space_group_name_H-M   'P 1'
_cell_length_a   6.18913891
_cell_length_b   6.35582843
_cell_length_c   12.51821250
_cell_angle_alpha   90.00000000
_cell_angle_beta   90.00000000
_cell_angle_gamma   94.72465241
_symmetry_Int_Tables_number   1
_chemical_formula_structural   BaSnS2
_chemical_formula_sum   'Ba4 Sn4 S8'
_cell_volume   490.75698159
_cell_formula_units_Z   4
loop_
 _symmetry_equiv_pos_site_id
 _symmetry_equiv_pos_as_xyz
  1  'x, y, z'
loop_
 _atom_site_type_symbol
 _atom_site_label
 _atom_site_symmetry_multiplicity
 _atom_site_fract_x
 _atom_site_fract_y
 _atom_site_fract_z
 _atom_site_occupancy
  S  S0  1  0.447590  0.127305  0.837013  1
  S  S1  1  0.552410  0.372695  0.337013  1
  S  S2  1  0.552410  0.872695  0.162987  1
  S  S3  1  0.447590  0.627305  0.662987  1
  S  S4  1  0.894427  0.238391  0.623128  1
  S  S5  1  0.894427  0.738391  0.876872  1
  S  S6  1  0.105573  0.761609  0.376872  1
  S  S7  1  0.105573  0.261609  0.123128  1
  Sn  Sn8  1  0.475654  0.719453  0.867553  1
  Sn  Sn9  1  0.524346  0.280547  0.132447  1
  Sn  Sn10  1  0.524346  0.780547  0.367553  1
  Sn  Sn11  1  0.475654  0.219453  0.632447  1
  Ba  Ba12  1  0.953950  0.242170  0.876734  1
  Ba  Ba13  1  0.046050  0.257830  0.376734  1
  Ba  Ba14  1  0.046050  0.757830  0.123266  1
  Ba  Ba15  1  0.953950  0.742170  0.623266  1
