# generated using pymatgen
data_TbGeAu
_symmetry_space_group_name_H-M   'P 1'
_cell_length_a   4.48480030
_cell_length_b   4.48461963
_cell_length_c   7.38158853
_cell_angle_alpha   90.00000000
_cell_angle_beta   90.00000000
_cell_angle_gamma   120.00133268
_symmetry_Int_Tables_number   1
_chemical_formula_structural   TbGeAu
_chemical_formula_sum   'Tb2 Ge2 Au2'
_cell_volume   128.57109873
_cell_formula_units_Z   2
loop_
 _symmetry_equiv_pos_site_id
 _symmetry_equiv_pos_as_xyz
  1  'x, y, z'
loop_
 _atom_site_type_symbol
 _atom_site_label
 _atom_site_symmetry_multiplicity
 _atom_site_fract_x
 _atom_site_fract_y
 _atom_site_fract_z
 _atom_site_occupancy
  Tb  Tb0  1  0.000019  0.000037  0.750057  1
  Tb  Tb1  1  0.999981  0.999963  0.250057  1
  Ge  Ge2  1  0.666686  0.333372  0.955915  1
  Ge  Ge3  1  0.333314  0.666628  0.455915  1
  Au  Au4  1  0.666680  0.333360  0.534028  1
  Au  Au5  1  0.333320  0.666640  0.034028  1
