# generated using pymatgen
data_TbCu2
_symmetry_space_group_name_H-M   'P 1'
_cell_length_a   4.28618989
_cell_length_b   5.45656915
_cell_length_c   5.45656915
_cell_angle_alpha   77.16319312
_cell_angle_beta   66.87396600
_cell_angle_gamma   66.87396592
_symmetry_Int_Tables_number   1
_chemical_formula_structural   TbCu2
_chemical_formula_sum   'Tb2 Cu4'
_cell_volume   107.58320173
_cell_formula_units_Z   2
loop_
 _symmetry_equiv_pos_site_id
 _symmetry_equiv_pos_as_xyz
  1  'x, y, z'
loop_
 _atom_site_type_symbol
 _atom_site_label
 _atom_site_symmetry_multiplicity
 _atom_site_fract_x
 _atom_site_fract_y
 _atom_site_fract_z
 _atom_site_occupancy
  Cu  Cu0  1  0.835309  0.715020  0.614361  1
  Cu  Cu1  1  0.164691  0.284980  0.385639  1
  Cu  Cu2  1  0.835309  0.114361  0.215020  1
  Cu  Cu3  1  0.164691  0.885639  0.784980  1
  Tb  Tb4  1  0.543377  0.706623  0.206623  1
  Tb  Tb5  1  0.456623  0.293377  0.793377  1
