# generated using pymatgen
data_K2BaCo(NO2)6
_symmetry_space_group_name_H-M   'P 1'
_cell_length_a   7.55761642
_cell_length_b   7.55761642
_cell_length_c   7.73518569
_cell_angle_alpha   119.35980097
_cell_angle_beta   119.35980096
_cell_angle_gamma   89.79235928
_symmetry_Int_Tables_number   1
_chemical_formula_structural   K2BaCo(NO2)6
_chemical_formula_sum   'K2 Ba1 Co1 N6 O12'
_cell_volume   318.89002596
_cell_formula_units_Z   1
loop_
 _symmetry_equiv_pos_site_id
 _symmetry_equiv_pos_as_xyz
  1  'x, y, z'
loop_
 _atom_site_type_symbol
 _atom_site_label
 _atom_site_symmetry_multiplicity
 _atom_site_fract_x
 _atom_site_fract_y
 _atom_site_fract_z
 _atom_site_occupancy
  N  N0  1  0.183805  0.816195  0.000000  1
  N  N1  1  0.816196  0.183806  0.000001  1
  N  N2  1  0.198585  0.198586  0.397171  1
  N  N3  1  0.801415  0.801415  0.602829  1
  N  N4  1  0.183476  0.183477  0.999999  1
  N  N5  1  0.816523  0.816523  0.000000  1
  O  O6  1  0.658456  0.148133  0.806588  1
  O  O7  1  0.851868  0.341545  0.193413  1
  O  O8  1  0.148133  0.658456  0.806588  1
  O  O9  1  0.341544  0.851868  0.193412  1
  O  O10  1  0.345959  0.143579  0.000001  1
  O  O11  1  0.640929  0.640930  0.483238  1
  O  O12  1  0.856422  0.654041  0.000000  1
  O  O13  1  0.654042  0.856422  0.000000  1
  O  O14  1  0.842309  0.842309  0.483238  1
  O  O15  1  0.359070  0.359070  0.516762  1
  O  O16  1  0.157691  0.157692  0.516762  1
  O  O17  1  0.143578  0.345958  0.000000  1
  K  K18  1  0.249999  0.749999  0.500000  1
  K  K19  1  0.750000  0.250000  0.500000  1
  Co  Co20  1  0.000000  0.000000  0.000000  1
  Ba  Ba21  1  0.500000  0.500000  0.000000  1
