# generated using pymatgen
data_Te3MoWSe
_symmetry_space_group_name_H-M   'P 1'
_cell_length_a   3.49659036
_cell_length_b   3.49656450
_cell_length_c   39.63029489
_cell_angle_alpha   89.99988025
_cell_angle_beta   90.00000000
_cell_angle_gamma   120.00024463
_symmetry_Int_Tables_number   1
_chemical_formula_structural   Te3MoWSe
_chemical_formula_sum   'Te6 Mo2 W2 Se2'
_cell_volume   419.60742563
_cell_formula_units_Z   2
loop_
 _symmetry_equiv_pos_site_id
 _symmetry_equiv_pos_as_xyz
  1  'x, y, z'
loop_
 _atom_site_type_symbol
 _atom_site_label
 _atom_site_symmetry_multiplicity
 _atom_site_fract_x
 _atom_site_fract_y
 _atom_site_fract_z
 _atom_site_occupancy
  Te  Te0  1  0.333356  0.666712  0.703780  1
  Te  Te1  1  0.666642  0.333283  0.047680  1
  Te  Te2  1  0.666647  0.333294  0.423127  1
  Te  Te3  1  0.666649  0.333297  0.140178  1
  Te  Te4  1  0.666652  0.333303  0.516186  1
  Te  Te5  1  0.333351  0.666702  0.611285  1
  Mo  Mo6  1  0.333307  0.666614  0.093922  1
  Mo  Mo7  1  0.666689  0.333378  0.657553  1
  W  W8  1  0.333310  0.666619  0.469642  1
  W  W9  1  0.666686  0.333372  0.281798  1
  Se  Se10  1  0.333354  0.666709  0.322763  1
  Se  Se11  1  0.333358  0.666717  0.240835  1
