# generated using pymatgen
data_Ca2ZnGe2O7
_symmetry_space_group_name_H-M   'P 1'
_cell_length_a   5.22891172
_cell_length_b   8.06421844
_cell_length_c   8.06421844
_cell_angle_alpha   90.00000000
_cell_angle_beta   90.00000000
_cell_angle_gamma   90.00000000
_symmetry_Int_Tables_number   1
_chemical_formula_structural   Ca2ZnGe2O7
_chemical_formula_sum   'Ca4 Zn2 Ge4 O14'
_cell_volume   340.04459501
_cell_formula_units_Z   2
loop_
 _symmetry_equiv_pos_site_id
 _symmetry_equiv_pos_as_xyz
  1  'x, y, z'
loop_
 _atom_site_type_symbol
 _atom_site_label
 _atom_site_symmetry_multiplicity
 _atom_site_fract_x
 _atom_site_fract_y
 _atom_site_fract_z
 _atom_site_occupancy
  O  O0  1  0.774363  0.673500  0.587163  1
  O  O1  1  0.774363  0.326500  0.412837  1
  O  O2  1  0.225637  0.412837  0.673500  1
  O  O3  1  0.225637  0.587163  0.326500  1
  O  O4  1  0.774363  0.912837  0.826500  1
  O  O5  1  0.225637  0.826500  0.087163  1
  O  O6  1  0.225637  0.173500  0.912837  1
  O  O7  1  0.774363  0.087163  0.173500  1
  O  O8  1  0.275332  0.860035  0.639965  1
  O  O9  1  0.724668  0.639965  0.139965  1
  O  O10  1  0.204222  0.500000  0.000000  1
  O  O11  1  0.795778  0.000000  0.500000  1
  O  O12  1  0.275332  0.139965  0.360035  1
  O  O13  1  0.724668  0.360035  0.860035  1
  Ca  Ca14  1  0.508649  0.332893  0.167107  1
  Ca  Ca15  1  0.491351  0.167107  0.667107  1
  Ca  Ca16  1  0.491351  0.832893  0.332893  1
  Ca  Ca17  1  0.508649  0.667107  0.832893  1
  Zn  Zn18  1  0.000000  0.500000  0.500000  1
  Zn  Zn19  1  0.000000  0.000000  0.000000  1
  Ge  Ge20  1  0.943254  0.144889  0.355111  1
  Ge  Ge21  1  0.056746  0.355111  0.855111  1
  Ge  Ge22  1  0.056746  0.644889  0.144889  1
  Ge  Ge23  1  0.943254  0.855111  0.644889  1
