# generated using pymatgen
data_SrLuCuS3
_symmetry_space_group_name_H-M   'P 1'
_cell_length_a   3.89972394
_cell_length_b   6.79769911
_cell_length_c   10.03607176
_cell_angle_alpha   90.00000000
_cell_angle_beta   90.00000000
_cell_angle_gamma   106.66895329
_symmetry_Int_Tables_number   1
_chemical_formula_structural   SrLuCuS3
_chemical_formula_sum   'Sr2 Lu2 Cu2 S6'
_cell_volume   254.86789079
_cell_formula_units_Z   2
loop_
 _symmetry_equiv_pos_site_id
 _symmetry_equiv_pos_as_xyz
  1  'x, y, z'
loop_
 _atom_site_type_symbol
 _atom_site_label
 _atom_site_symmetry_multiplicity
 _atom_site_fract_x
 _atom_site_fract_y
 _atom_site_fract_z
 _atom_site_occupancy
  S  S0  1  0.924669  0.849338  0.750000  1
  S  S1  1  0.075331  0.150662  0.250000  1
  S  S2  1  0.365239  0.730477  0.064419  1
  S  S3  1  0.365239  0.730477  0.435581  1
  S  S4  1  0.634761  0.269523  0.564419  1
  S  S5  1  0.634761  0.269523  0.935581  1
  Cu  Cu6  1  0.472040  0.944079  0.250000  1
  Cu  Cu7  1  0.527960  0.055921  0.750000  1
  Sr  Sr8  1  0.251103  0.502207  0.750000  1
  Sr  Sr9  1  0.748897  0.497793  0.250000  1
  Lu  Lu10  1  0.000000  0.000000  0.000000  1
  Lu  Lu11  1  0.000000  0.000000  0.500000  1
