# generated using pymatgen
data_Na2MgAlF7
_symmetry_space_group_name_H-M   'P 1'
_cell_length_a   7.14812653
_cell_length_b   7.22855416
_cell_length_c   7.22855416
_cell_angle_alpha   61.89339381
_cell_angle_beta   60.36738016
_cell_angle_gamma   60.36738018
_symmetry_Int_Tables_number   1
_chemical_formula_structural   Na2MgAlF7
_chemical_formula_sum   'Na4 Mg2 Al2 F14'
_cell_volume   269.19775365
_cell_formula_units_Z   2
loop_
 _symmetry_equiv_pos_site_id
 _symmetry_equiv_pos_as_xyz
  1  'x, y, z'
loop_
 _atom_site_type_symbol
 _atom_site_label
 _atom_site_symmetry_multiplicity
 _atom_site_fract_x
 _atom_site_fract_y
 _atom_site_fract_z
 _atom_site_occupancy
  F  F0  1  0.207720  0.317913  0.455936  1
  F  F1  1  0.981569  0.682087  0.544064  1
  F  F2  1  0.707720  0.955936  0.817913  1
  F  F3  1  0.481569  0.044064  0.182087  1
  F  F4  1  0.837184  0.317859  0.458507  1
  F  F5  1  0.613550  0.682141  0.541493  1
  F  F6  1  0.337184  0.958507  0.817859  1
  F  F7  1  0.113550  0.041493  0.182141  1
  F  F8  1  0.158868  0.886270  0.613730  1
  F  F9  1  0.658868  0.113730  0.386270  1
  F  F10  1  0.324339  0.306871  0.866421  1
  F  F11  1  0.497631  0.693129  0.133579  1
  F  F12  1  0.824339  0.366421  0.806871  1
  F  F13  1  0.997631  0.633579  0.193129  1
  Na  Na14  1  0.414477  0.472503  0.027497  1
  Na  Na15  1  0.914477  0.527497  0.972503  1
  Na  Na16  1  0.920073  1.000000  0.000000  1
  Na  Na17  1  0.420073  0.500000  0.500000  1
  Mg  Mg18  1  0.909677  0.001996  0.498004  1
  Mg  Mg19  1  0.409677  0.998004  0.501996  1
  Al  Al20  1  0.409811  0.000000  1.000000  1
  Al  Al21  1  0.909811  0.500000  0.500000  1
