# generated using pymatgen
data_Ba4GeAs4
_symmetry_space_group_name_H-M   'P 1'
_cell_length_a   13.57006441
_cell_length_b   13.57006441
_cell_length_c   13.57006441
_cell_angle_alpha   90.00000000
_cell_angle_beta   90.00000000
_cell_angle_gamma   90.00000000
_symmetry_Int_Tables_number   1
_chemical_formula_structural   Ba4GeAs4
_chemical_formula_sum   'Ba32 Ge8 As32'
_cell_volume   2498.88187549
_cell_formula_units_Z   8
loop_
 _symmetry_equiv_pos_site_id
 _symmetry_equiv_pos_as_xyz
  1  'x, y, z'
loop_
 _atom_site_type_symbol
 _atom_site_label
 _atom_site_symmetry_multiplicity
 _atom_site_fract_x
 _atom_site_fract_y
 _atom_site_fract_z
 _atom_site_occupancy
  Ge  Ge0  1  0.000000  0.000000  0.000000  1
  Ge  Ge1  1  0.750000  0.000000  0.500000  1
  Ge  Ge2  1  0.500000  0.750000  0.000000  1
  Ge  Ge3  1  0.500000  0.250000  0.000000  1
  Ge  Ge4  1  0.000000  0.500000  0.250000  1
  Ge  Ge5  1  0.000000  0.500000  0.750000  1
  Ge  Ge6  1  0.250000  0.000000  0.500000  1
  Ge  Ge7  1  0.500000  0.500000  0.500000  1
  As  As8  1  0.605486  0.850917  0.115040  1
  As  As9  1  0.649083  0.105486  0.384960  1
  As  As10  1  0.894514  0.615040  0.649083  1
  As  As11  1  0.105486  0.615040  0.350917  1
  As  As12  1  0.615040  0.649083  0.894514  1
  As  As13  1  0.384960  0.350917  0.894514  1
  As  As14  1  0.850917  0.884960  0.394514  1
  As  As15  1  0.850917  0.115040  0.605486  1
  As  As16  1  0.149083  0.884960  0.605486  1
  As  As17  1  0.393242  0.393242  0.393242  1
  As  As18  1  0.605486  0.149083  0.884960  1
  As  As19  1  0.649083  0.894514  0.615040  1
  As  As20  1  0.884960  0.394514  0.850917  1
  As  As21  1  0.394514  0.850917  0.884960  1
  As  As22  1  0.884960  0.605486  0.149083  1
  As  As23  1  0.115040  0.394514  0.149083  1
  As  As24  1  0.394514  0.149083  0.115040  1
  As  As25  1  0.384960  0.649083  0.105486  1
  As  As26  1  0.615040  0.350917  0.105486  1
  As  As27  1  0.894514  0.384960  0.350917  1
  As  As28  1  0.105486  0.384960  0.649083  1
  As  As29  1  0.350917  0.105486  0.615040  1
  As  As30  1  0.350917  0.894514  0.384960  1
  As  As31  1  0.149083  0.115040  0.394514  1
  As  As32  1  0.106758  0.893242  0.106758  1
  As  As33  1  0.106758  0.106758  0.893242  1
  As  As34  1  0.893242  0.106758  0.106758  1
  As  As35  1  0.606758  0.606758  0.393242  1
  As  As36  1  0.393242  0.606758  0.606758  1
  As  As37  1  0.606758  0.393242  0.606758  1
  As  As38  1  0.893242  0.893242  0.893242  1
  As  As39  1  0.115040  0.605486  0.850917  1
  Ba  Ba40  1  0.143374  0.143374  0.143374  1
  Ba  Ba41  1  0.356626  0.643374  0.356626  1
  Ba  Ba42  1  0.643374  0.356626  0.356626  1
  Ba  Ba43  1  0.356626  0.356626  0.643374  1
  Ba  Ba44  1  0.143374  0.856626  0.856626  1
  Ba  Ba45  1  0.856626  0.856626  0.143374  1
  Ba  Ba46  1  0.856626  0.143374  0.856626  1
  Ba  Ba47  1  0.643374  0.643374  0.643374  1
  Ba  Ba48  1  0.902743  0.868894  0.643403  1
  Ba  Ba49  1  0.902743  0.131106  0.356597  1
  Ba  Ba50  1  0.868894  0.643403  0.902743  1
  Ba  Ba51  1  0.131106  0.643403  0.097257  1
  Ba  Ba52  1  0.643403  0.902743  0.868894  1
  Ba  Ba53  1  0.356597  0.097257  0.868894  1
  Ba  Ba54  1  0.597257  0.856597  0.368894  1
  Ba  Ba55  1  0.597257  0.143403  0.631106  1
  Ba  Ba56  1  0.402743  0.856597  0.631106  1
  Ba  Ba57  1  0.143403  0.631106  0.597257  1
  Ba  Ba58  1  0.631106  0.402743  0.856597  1
  Ba  Ba59  1  0.631106  0.597257  0.143403  1
  Ba  Ba60  1  0.856597  0.368894  0.597257  1
  Ba  Ba61  1  0.368894  0.597257  0.856597  1
  Ba  Ba62  1  0.856597  0.631106  0.402743  1
  Ba  Ba63  1  0.143403  0.368894  0.402743  1
  Ba  Ba64  1  0.368894  0.402743  0.143403  1
  Ba  Ba65  1  0.356597  0.902743  0.131106  1
  Ba  Ba66  1  0.643403  0.097257  0.131106  1
  Ba  Ba67  1  0.868894  0.356597  0.097257  1
  Ba  Ba68  1  0.131106  0.356597  0.902743  1
  Ba  Ba69  1  0.097257  0.131106  0.643403  1
  Ba  Ba70  1  0.097257  0.868894  0.356597  1
  Ba  Ba71  1  0.402743  0.143403  0.368894  1
