# generated using pymatgen
data_Mo2W(Se2S)2
_symmetry_space_group_name_H-M   'P 1'
_cell_length_a   3.27857219
_cell_length_b   3.27858821
_cell_length_c   30.17307511
_cell_angle_alpha   90.00011508
_cell_angle_beta   89.99999478
_cell_angle_gamma   119.99983004
_symmetry_Int_Tables_number   1
_chemical_formula_structural   Mo2W(Se2S)2
_chemical_formula_sum   'Mo2 W1 Se4 S2'
_cell_volume   280.88113584
_cell_formula_units_Z   1
loop_
 _symmetry_equiv_pos_site_id
 _symmetry_equiv_pos_as_xyz
  1  'x, y, z'
loop_
 _atom_site_type_symbol
 _atom_site_label
 _atom_site_symmetry_multiplicity
 _atom_site_fract_x
 _atom_site_fract_y
 _atom_site_fract_z
 _atom_site_occupancy
  Mo  Mo0  1  0.333305  0.666610  0.115636  1
  Mo  Mo1  1  0.666690  0.333381  0.346987  1
  W  W2  1  0.333309  0.666617  0.578334  1
  Se  Se3  1  0.666650  0.333300  0.059700  1
  Se  Se4  1  0.666652  0.333303  0.522055  1
  Se  Se5  1  0.666641  0.333282  0.171587  1
  Se  Se6  1  0.666649  0.333297  0.634590  1
  S  S7  1  0.333351  0.666702  0.397867  1
  S  S8  1  0.333354  0.666709  0.296084  1
