# generated using pymatgen
data_K3NaCr2O8
_symmetry_space_group_name_H-M   'P 1'
_cell_length_a   5.95651926
_cell_length_b   5.95651926
_cell_length_c   15.29991012
_cell_angle_alpha   89.91259055
_cell_angle_beta   89.91259054
_cell_angle_gamma   59.85367249
_symmetry_Int_Tables_number   1
_chemical_formula_structural   K3NaCr2O8
_chemical_formula_sum   'K6 Na2 Cr4 O16'
_cell_volume   469.42010312
_cell_formula_units_Z   2
loop_
 _symmetry_equiv_pos_site_id
 _symmetry_equiv_pos_as_xyz
  1  'x, y, z'
loop_
 _atom_site_type_symbol
 _atom_site_label
 _atom_site_symmetry_multiplicity
 _atom_site_fract_x
 _atom_site_fract_y
 _atom_site_fract_z
 _atom_site_occupancy
  O  O0  1  0.153054  0.220258  0.406560  1
  O  O1  1  0.779741  0.846945  0.093440  1
  O  O2  1  0.846945  0.779742  0.593440  1
  O  O3  1  0.220259  0.153055  0.906560  1
  O  O4  1  0.153815  0.674033  0.383323  1
  O  O5  1  0.325967  0.846185  0.116677  1
  O  O6  1  0.846185  0.325967  0.616677  1
  O  O7  1  0.674033  0.153815  0.883323  1
  O  O8  1  0.604351  0.226285  0.418914  1
  O  O9  1  0.773716  0.395649  0.081086  1
  O  O10  1  0.395649  0.773715  0.581086  1
  O  O11  1  0.226286  0.604351  0.918915  1
  O  O12  1  0.286970  0.377763  0.760904  1
  O  O13  1  0.622238  0.713029  0.739096  1
  O  O14  1  0.377762  0.286971  0.260905  1
  O  O15  1  0.713030  0.622237  0.239095  1
  Na  Na16  1  0.000001  0.999999  0.500000  1
  Na  Na17  1  0.000000  0.000000  0.000000  1
  K  K18  1  0.054456  0.945544  0.750000  1
  K  K19  1  0.945544  0.054456  0.250000  1
  K  K20  1  0.310194  0.349020  0.089164  1
  K  K21  1  0.650980  0.689806  0.410836  1
  K  K22  1  0.349019  0.310196  0.589164  1
  K  K23  1  0.689806  0.650980  0.910836  1
  Cr  Cr24  1  0.320328  0.353702  0.365898  1
  Cr  Cr25  1  0.646298  0.679671  0.134102  1
  Cr  Cr26  1  0.679672  0.646298  0.634102  1
  Cr  Cr27  1  0.353702  0.320329  0.865899  1
