# generated using pymatgen
data_Cr2CoTe4
_symmetry_space_group_name_H-M   'P 1'
_cell_length_a   4.01125350
_cell_length_b   6.88403775
_cell_length_c   6.94890186
_cell_angle_alpha   118.80770474
_cell_angle_beta   106.77565424
_cell_angle_gamma   90.00000000
_symmetry_Int_Tables_number   1
_chemical_formula_structural   Cr2CoTe4
_chemical_formula_sum   'Cr2 Co1 Te4'
_cell_volume   158.75405151
_cell_formula_units_Z   1
loop_
 _symmetry_equiv_pos_site_id
 _symmetry_equiv_pos_as_xyz
  1  'x, y, z'
loop_
 _atom_site_type_symbol
 _atom_site_label
 _atom_site_symmetry_multiplicity
 _atom_site_fract_x
 _atom_site_fract_y
 _atom_site_fract_z
 _atom_site_occupancy
  Cr  Cr0  1  0.257463  0.275978  0.514927  1
  Cr  Cr1  1  0.742537  0.724022  0.485073  1
  Co  Co2  1  0.000000  0.000000  0.000000  1
  Te  Te3  1  0.114405  0.446107  0.228809  1
  Te  Te4  1  0.885595  0.553893  0.771191  1
  Te  Te5  1  0.372998  0.030052  0.745996  1
  Te  Te6  1  0.627002  0.969948  0.254004  1
