# generated using pymatgen
data_K3YF6
_symmetry_space_group_name_H-M   'P 1'
_cell_length_a   6.40695357
_cell_length_b   6.65463810
_cell_length_c   9.16373742
_cell_angle_alpha   90.00000000
_cell_angle_beta   90.82123210
_cell_angle_gamma   90.00000000
_symmetry_Int_Tables_number   1
_chemical_formula_structural   K3YF6
_chemical_formula_sum   'K6 Y2 F12'
_cell_volume   390.66458506
_cell_formula_units_Z   2
loop_
 _symmetry_equiv_pos_site_id
 _symmetry_equiv_pos_as_xyz
  1  'x, y, z'
loop_
 _atom_site_type_symbol
 _atom_site_label
 _atom_site_symmetry_multiplicity
 _atom_site_fract_x
 _atom_site_fract_y
 _atom_site_fract_z
 _atom_site_occupancy
  F  F0  1  0.883457  0.937413  0.777226  1
  F  F1  1  0.616543  0.437413  0.722774  1
  F  F2  1  0.116543  0.062587  0.222774  1
  F  F3  1  0.383457  0.562587  0.277226  1
  F  F4  1  0.830911  0.730824  0.074778  1
  F  F5  1  0.669089  0.230824  0.425222  1
  F  F6  1  0.169089  0.269176  0.925222  1
  F  F7  1  0.330911  0.769176  0.574778  1
  F  F8  1  0.220688  0.323315  0.549520  1
  F  F9  1  0.279312  0.823315  0.950480  1
  F  F10  1  0.779312  0.676685  0.450480  1
  F  F11  1  0.720688  0.176685  0.049520  1
  K  K12  1  0.515997  0.948914  0.243265  1
  K  K13  1  0.984003  0.448914  0.256735  1
  K  K14  1  0.484003  0.051086  0.756735  1
  K  K15  1  0.015997  0.551086  0.743265  1
  K  K16  1  0.000000  0.000000  0.500000  1
  K  K17  1  0.500000  0.500000  0.000000  1
  Y  Y18  1  0.500000  0.500000  0.500000  1
  Y  Y19  1  0.000000  0.000000  0.000000  1
