# generated using pymatgen
data_KP2WO8
_symmetry_space_group_name_H-M   'P 1'
_cell_length_a   5.16968711
_cell_length_b   11.79568035
_cell_length_c   12.03318499
_cell_angle_alpha   90.00000000
_cell_angle_beta   90.00000000
_cell_angle_gamma   91.25410420
_symmetry_Int_Tables_number   1
_chemical_formula_structural   KP2WO8
_chemical_formula_sum   'K4 P8 W4 O32'
_cell_volume   733.60757071
_cell_formula_units_Z   4
loop_
 _symmetry_equiv_pos_site_id
 _symmetry_equiv_pos_as_xyz
  1  'x, y, z'
loop_
 _atom_site_type_symbol
 _atom_site_label
 _atom_site_symmetry_multiplicity
 _atom_site_fract_x
 _atom_site_fract_y
 _atom_site_fract_z
 _atom_site_occupancy
  O  O0  1  0.775605  0.412994  0.911244  1
  O  O1  1  0.724395  0.087006  0.411244  1
  O  O2  1  0.224394  0.587007  0.088757  1
  O  O3  1  0.275606  0.912993  0.588756  1
  O  O4  1  0.776511  0.211219  0.825540  1
  O  O5  1  0.723490  0.288782  0.325541  1
  O  O6  1  0.223488  0.788781  0.174460  1
  O  O7  1  0.276511  0.711218  0.674459  1
  O  O8  1  0.302269  0.515208  0.608971  1
  O  O9  1  0.197730  0.984792  0.108970  1
  O  O10  1  0.697730  0.484792  0.391029  1
  O  O11  1  0.802271  0.015208  0.891030  1
  O  O12  1  0.039157  0.356197  0.472495  1
  O  O13  1  0.460843  0.143803  0.972495  1
  O  O14  1  0.960844  0.643803  0.527505  1
  O  O15  1  0.539156  0.856197  0.027506  1
  O  O16  1  0.693208  0.687024  0.871861  1
  O  O17  1  0.806792  0.812976  0.371861  1
  O  O18  1  0.306791  0.312976  0.128139  1
  O  O19  1  0.193209  0.187024  0.628139  1
  O  O20  1  0.955904  0.855668  0.738415  1
  O  O21  1  0.544096  0.644332  0.238415  1
  O  O22  1  0.044097  0.144332  0.261585  1
  O  O23  1  0.455905  0.355668  0.761585  1
  O  O24  1  0.571486  0.323453  0.523826  1
  O  O25  1  0.070369  0.622208  0.286756  1
  O  O26  1  0.570370  0.122208  0.213244  1
  O  O27  1  0.929630  0.377793  0.713244  1
  O  O28  1  0.071487  0.823453  0.976174  1
  O  O29  1  0.428513  0.676547  0.476174  1
  O  O30  1  0.928514  0.176547  0.023826  1
  O  O31  1  0.429631  0.877792  0.786756  1
  P  P32  1  0.742616  0.132569  0.934492  1
  P  P33  1  0.242617  0.632569  0.565508  1
  P  P34  1  0.257383  0.867431  0.065508  1
  P  P35  1  0.757384  0.367431  0.434492  1
  P  P36  1  0.736063  0.347514  0.806400  1
  P  P37  1  0.763937  0.152486  0.306400  1
  P  P38  1  0.263938  0.652486  0.193600  1
  P  P39  1  0.236064  0.847514  0.693600  1
  K  K40  1  0.735265  0.050250  0.627141  1
  K  K41  1  0.235264  0.550250  0.872858  1
  K  K42  1  0.264736  0.949750  0.372859  1
  K  K43  1  0.764735  0.449750  0.127142  1
  W  W44  1  0.242213  0.334468  0.618453  1
  W  W45  1  0.257786  0.165532  0.118452  1
  W  W46  1  0.757786  0.665532  0.381547  1
  W  W47  1  0.742215  0.834468  0.881548  1
