# generated using pymatgen
data_SrSi6
_symmetry_space_group_name_H-M   'P 1'
_cell_length_a   4.46511302
_cell_length_b   5.63154207
_cell_length_c   11.76598534
_cell_angle_alpha   90.00000000
_cell_angle_beta   90.00000000
_cell_angle_gamma   113.35568019
_symmetry_Int_Tables_number   1
_chemical_formula_structural   SrSi6
_chemical_formula_sum   'Sr2 Si12'
_cell_volume   271.61884181
_cell_formula_units_Z   2
loop_
 _symmetry_equiv_pos_site_id
 _symmetry_equiv_pos_as_xyz
  1  'x, y, z'
loop_
 _atom_site_type_symbol
 _atom_site_label
 _atom_site_symmetry_multiplicity
 _atom_site_fract_x
 _atom_site_fract_y
 _atom_site_fract_z
 _atom_site_occupancy
  Si  Si0  1  0.022586  0.045171  0.100874  1
  Si  Si1  1  0.977414  0.954829  0.899126  1
  Si  Si2  1  0.246125  0.492250  0.461754  1
  Si  Si3  1  0.753875  0.507750  0.538246  1
  Si  Si4  1  0.753875  0.507750  0.961754  1
  Si  Si5  1  0.246125  0.492250  0.038246  1
  Si  Si6  1  0.559512  0.119025  0.648004  1
  Si  Si7  1  0.440488  0.880975  0.351996  1
  Si  Si8  1  0.440488  0.880975  0.148004  1
  Si  Si9  1  0.559512  0.119025  0.851996  1
  Si  Si10  1  0.022586  0.045171  0.399126  1
  Si  Si11  1  0.977414  0.954829  0.600874  1
  Sr  Sr12  1  0.724561  0.449122  0.250000  1
  Sr  Sr13  1  0.275439  0.550878  0.750000  1
