# generated using pymatgen
data_Te4Mo2WSe2
_symmetry_space_group_name_H-M   'P 1'
_cell_length_a   3.47766698
_cell_length_b   3.47766776
_cell_length_c   31.96466956
_cell_angle_alpha   89.99996468
_cell_angle_beta   90.00000000
_cell_angle_gamma   119.99999259
_symmetry_Int_Tables_number   1
_chemical_formula_structural   Te4Mo2WSe2
_chemical_formula_sum   'Te4 Mo2 W1 Se2'
_cell_volume   334.79345882
_cell_formula_units_Z   1
loop_
 _symmetry_equiv_pos_site_id
 _symmetry_equiv_pos_as_xyz
  1  'x, y, z'
loop_
 _atom_site_type_symbol
 _atom_site_label
 _atom_site_symmetry_multiplicity
 _atom_site_fract_x
 _atom_site_fract_y
 _atom_site_fract_z
 _atom_site_occupancy
  Te  Te0  1  0.333353  0.666708  0.404468  1
  Te  Te1  1  0.666648  0.333294  0.520521  1
  Te  Te2  1  0.666643  0.333285  0.636150  1
  Te  Te3  1  0.333350  0.666700  0.289448  1
  Mo  Mo4  1  0.333313  0.666626  0.115642  1
  Mo  Mo5  1  0.666686  0.333372  0.346929  1
  W  W6  1  0.333312  0.666624  0.578366  1
  Se  Se7  1  0.666646  0.333292  0.064919  1
  Se  Se8  1  0.666650  0.333298  0.166398  1
