# generated using pymatgen
data_TbGaPd
_symmetry_space_group_name_H-M   'P 1'
_cell_length_a   4.49109304
_cell_length_b   6.97792837
_cell_length_c   7.68074963
_cell_angle_alpha   90.00000000
_cell_angle_beta   90.00000000
_cell_angle_gamma   90.00000000
_symmetry_Int_Tables_number   1
_chemical_formula_structural   TbGaPd
_chemical_formula_sum   'Tb4 Ga4 Pd4'
_cell_volume   240.70336842
_cell_formula_units_Z   4
loop_
 _symmetry_equiv_pos_site_id
 _symmetry_equiv_pos_as_xyz
  1  'x, y, z'
loop_
 _atom_site_type_symbol
 _atom_site_label
 _atom_site_symmetry_multiplicity
 _atom_site_fract_x
 _atom_site_fract_y
 _atom_site_fract_z
 _atom_site_occupancy
  Ga  Ga0  1  0.250000  0.824442  0.075993  1
  Ga  Ga1  1  0.750000  0.175558  0.924007  1
  Ga  Ga2  1  0.250000  0.324442  0.424007  1
  Ga  Ga3  1  0.750000  0.675558  0.575993  1
  Pd  Pd4  1  0.750000  0.780910  0.903623  1
  Pd  Pd5  1  0.250000  0.219090  0.096377  1
  Pd  Pd6  1  0.750000  0.280910  0.596377  1
  Pd  Pd7  1  0.250000  0.719090  0.403623  1
  Tb  Tb8  1  0.250000  0.482705  0.801837  1
  Tb  Tb9  1  0.750000  0.517295  0.198163  1
  Tb  Tb10  1  0.250000  0.982705  0.698163  1
  Tb  Tb11  1  0.750000  0.017295  0.301837  1
