# generated using pymatgen
data_Ba4Si20Au3
_symmetry_space_group_name_H-M   'P 1'
_cell_length_a   10.51268721
_cell_length_b   10.51268721
_cell_length_c   10.51268721
_cell_angle_alpha   90.00000000
_cell_angle_beta   90.00000000
_cell_angle_gamma   90.00000000
_symmetry_Int_Tables_number   1
_chemical_formula_structural   Ba4Si20Au3
_chemical_formula_sum   'Ba8 Si40 Au6'
_cell_volume   1161.82636716
_cell_formula_units_Z   2
loop_
 _symmetry_equiv_pos_site_id
 _symmetry_equiv_pos_as_xyz
  1  'x, y, z'
loop_
 _atom_site_type_symbol
 _atom_site_label
 _atom_site_symmetry_multiplicity
 _atom_site_fract_x
 _atom_site_fract_y
 _atom_site_fract_z
 _atom_site_occupancy
  Si  Si0  1  0.500000  0.383284  0.195788  1
  Si  Si1  1  0.500000  0.616716  0.804212  1
  Si  Si2  1  0.383284  0.195788  0.500000  1
  Si  Si3  1  0.616716  0.195788  0.500000  1
  Si  Si4  1  0.195788  0.500000  0.383284  1
  Si  Si5  1  0.804212  0.500000  0.383284  1
  Si  Si6  1  0.000000  0.695788  0.116716  1
  Si  Si7  1  0.000000  0.304212  0.883284  1
  Si  Si8  1  0.000000  0.695788  0.883284  1
  Si  Si9  1  0.304212  0.883284  0.000000  1
  Si  Si10  1  0.883284  0.000000  0.695788  1
  Si  Si11  1  0.883284  0.000000  0.304212  1
  Si  Si12  1  0.695788  0.116716  0.000000  1
  Si  Si13  1  0.116716  0.000000  0.695788  1
  Si  Si14  1  0.183702  0.183702  0.183702  1
  Si  Si15  1  0.683702  0.316298  0.683702  1
  Si  Si16  1  0.683702  0.683702  0.316298  1
  Si  Si17  1  0.316298  0.683702  0.683702  1
  Si  Si18  1  0.816298  0.816298  0.183702  1
  Si  Si19  1  0.183702  0.816298  0.816298  1
  Si  Si20  1  0.816298  0.183702  0.816298  1
  Si  Si21  1  0.316298  0.316298  0.316298  1
  Si  Si22  1  0.816298  0.816298  0.816298  1
  Si  Si23  1  0.316298  0.683702  0.316298  1
  Si  Si24  1  0.316298  0.316298  0.683702  1
  Si  Si25  1  0.683702  0.316298  0.316298  1
  Si  Si26  1  0.183702  0.183702  0.816298  1
  Si  Si27  1  0.816298  0.183702  0.183702  1
  Si  Si28  1  0.183702  0.816298  0.183702  1
  Si  Si29  1  0.683702  0.683702  0.683702  1
  Si  Si30  1  0.000000  0.304212  0.116716  1
  Si  Si31  1  0.500000  0.383284  0.804212  1
  Si  Si32  1  0.500000  0.616716  0.195788  1
  Si  Si33  1  0.616716  0.804212  0.500000  1
  Si  Si34  1  0.383284  0.804212  0.500000  1
  Si  Si35  1  0.195788  0.500000  0.616716  1
  Si  Si36  1  0.804212  0.500000  0.616716  1
  Si  Si37  1  0.116716  0.000000  0.304212  1
  Si  Si38  1  0.304212  0.116716  0.000000  1
  Si  Si39  1  0.695788  0.883284  0.000000  1
  Ba  Ba40  1  0.000000  0.000000  0.000000  1
  Ba  Ba41  1  0.500000  0.500000  0.500000  1
  Ba  Ba42  1  0.250000  0.500000  0.000000  1
  Ba  Ba43  1  0.750000  0.500000  0.000000  1
  Ba  Ba44  1  0.500000  0.000000  0.250000  1
  Ba  Ba45  1  0.500000  0.000000  0.750000  1
  Ba  Ba46  1  0.000000  0.250000  0.500000  1
  Ba  Ba47  1  0.000000  0.750000  0.500000  1
  Au  Au48  1  0.250000  0.000000  0.500000  1
  Au  Au49  1  0.750000  0.000000  0.500000  1
  Au  Au50  1  0.000000  0.500000  0.250000  1
  Au  Au51  1  0.000000  0.500000  0.750000  1
  Au  Au52  1  0.500000  0.750000  0.000000  1
  Au  Au53  1  0.500000  0.250000  0.000000  1
