# generated using pymatgen
data_TeMoWSe3
_symmetry_space_group_name_H-M   'P 1'
_cell_length_a   3.38326791
_cell_length_b   3.38327910
_cell_length_c   38.49132920
_cell_angle_alpha   89.99961197
_cell_angle_beta   90.00000000
_cell_angle_gamma   119.99989066
_symmetry_Int_Tables_number   1
_chemical_formula_structural   TeMoWSe3
_chemical_formula_sum   'Te2 Mo2 W2 Se6'
_cell_volume   381.56473957
_cell_formula_units_Z   2
loop_
 _symmetry_equiv_pos_site_id
 _symmetry_equiv_pos_as_xyz
  1  'x, y, z'
loop_
 _atom_site_type_symbol
 _atom_site_label
 _atom_site_symmetry_multiplicity
 _atom_site_fract_x
 _atom_site_fract_y
 _atom_site_fract_z
 _atom_site_occupancy
  Te  Te0  1  0.333354  0.666709  0.330895  1
  Te  Te1  1  0.333353  0.666706  0.232727  1
  Mo  Mo2  1  0.333309  0.666618  0.093881  1
  Mo  Mo3  1  0.333310  0.666620  0.469668  1
  W  W4  1  0.666691  0.333382  0.281779  1
  W  W5  1  0.666692  0.333384  0.657531  1
  Se  Se6  1  0.333354  0.666710  0.700671  1
  Se  Se7  1  0.666650  0.333299  0.050938  1
  Se  Se8  1  0.666642  0.333284  0.426709  1
  Se  Se9  1  0.666650  0.333300  0.136904  1
  Se  Se10  1  0.666640  0.333280  0.512666  1
  Se  Se11  1  0.333354  0.666709  0.614380  1
