# generated using pymatgen
data_Cd5(S2Cl)2
_symmetry_space_group_name_H-M   'P 1'
_cell_length_a   10.19004504
_cell_length_b   6.73381221
_cell_length_c   14.23453466
_cell_angle_alpha   90.00030846
_cell_angle_beta   134.38415170
_cell_angle_gamma   70.70507536
_symmetry_Int_Tables_number   1
_chemical_formula_structural   Cd5(S2Cl)2
_chemical_formula_sum   'Cd10 S8 Cl4'
_cell_volume   618.95446871
_cell_formula_units_Z   2
loop_
 _symmetry_equiv_pos_site_id
 _symmetry_equiv_pos_as_xyz
  1  'x, y, z'
loop_
 _atom_site_type_symbol
 _atom_site_label
 _atom_site_symmetry_multiplicity
 _atom_site_fract_x
 _atom_site_fract_y
 _atom_site_fract_z
 _atom_site_occupancy
  Cd  Cd0  1  0.000086  0.000546  0.750770  1
  Cd  Cd1  1  0.999919  0.999461  0.249224  1
  Cd  Cd2  1  0.594217  0.703404  0.047531  1
  Cd  Cd3  1  0.405766  0.297003  0.452931  1
  Cd  Cd4  1  0.405787  0.296614  0.952468  1
  Cd  Cd5  1  0.594234  0.702973  0.547066  1
  Cd  Cd6  1  0.197192  0.206781  0.598201  1
  Cd  Cd7  1  0.802802  0.793233  0.401797  1
  Cd  Cd8  1  0.801877  0.405571  0.901278  1
  Cd  Cd9  1  0.198116  0.594426  0.098720  1
  S  S10  1  0.284157  0.055478  0.478371  1
  S  S11  1  0.716159  0.944623  0.194878  1
  S  S12  1  0.714966  0.340888  0.021008  1
  S  S13  1  0.284569  0.659575  0.305395  1
  S  S14  1  0.715849  0.944499  0.521637  1
  S  S15  1  0.283841  0.055392  0.805123  1
  S  S16  1  0.285031  0.659123  0.978994  1
  S  S17  1  0.715433  0.340411  0.694608  1
  Cl  Cl18  1  0.789328  0.798214  0.894239  1
  Cl  Cl19  1  0.210678  0.201775  0.105770  1
  Cl  Cl20  1  0.211335  0.586109  0.605925  1
  Cl  Cl21  1  0.788660  0.413903  0.394065  1
