# generated using pymatgen
data_KLu(WO4)2
_symmetry_space_group_name_H-M   'P 1'
_cell_length_a   7.60414702
_cell_length_b   7.60414702
_cell_length_c   7.41870975
_cell_angle_alpha   61.77139462
_cell_angle_beta   61.77139462
_cell_angle_gamma   87.16348014
_symmetry_Int_Tables_number   1
_chemical_formula_structural   KLu(WO4)2
_chemical_formula_sum   'K2 Lu2 W4 O16'
_cell_volume   324.50649184
_cell_formula_units_Z   2
loop_
 _symmetry_equiv_pos_site_id
 _symmetry_equiv_pos_as_xyz
  1  'x, y, z'
loop_
 _atom_site_type_symbol
 _atom_site_label
 _atom_site_symmetry_multiplicity
 _atom_site_fract_x
 _atom_site_fract_y
 _atom_site_fract_z
 _atom_site_occupancy
  O  O0  1  0.760457  0.963467  0.197065  1
  O  O1  1  0.036533  0.239543  0.302935  1
  O  O2  1  0.239543  0.036533  0.802935  1
  O  O3  1  0.963467  0.760457  0.697065  1
  O  O4  1  0.622631  0.754469  0.058205  1
  O  O5  1  0.245531  0.377369  0.441795  1
  O  O6  1  0.377369  0.245531  0.941795  1
  O  O7  1  0.754469  0.622631  0.558205  1
  O  O8  1  0.625823  0.400122  0.042263  1
  O  O9  1  0.599878  0.374177  0.457737  1
  O  O10  1  0.374177  0.599878  0.957737  1
  O  O11  1  0.400122  0.625823  0.542263  1
  O  O12  1  0.651348  0.951324  0.613500  1
  O  O13  1  0.048676  0.348652  0.886500  1
  O  O14  1  0.348652  0.048676  0.386500  1
  O  O15  1  0.951324  0.651348  0.113500  1
  K  K16  1  0.209834  0.790166  0.250000  1
  K  K17  1  0.790166  0.209834  0.750000  1
  Lu  Lu18  1  0.776780  0.223220  0.250000  1
  Lu  Lu19  1  0.223220  0.776780  0.750000  1
  W  W20  1  0.701137  0.692976  0.289585  1
  W  W21  1  0.307024  0.298863  0.210415  1
  W  W22  1  0.298863  0.307024  0.710415  1
  W  W23  1  0.692976  0.701137  0.789585  1
