# generated using pymatgen
data_Sc2(SeO4)3
_symmetry_space_group_name_H-M   'P 1'
_cell_length_a   9.06942034
_cell_length_b   9.33662606
_cell_length_c   12.72767439
_cell_angle_alpha   90.00000000
_cell_angle_beta   90.77956881
_cell_angle_gamma   90.00000000
_symmetry_Int_Tables_number   1
_chemical_formula_structural   Sc2(SeO4)3
_chemical_formula_sum   'Sc8 Se12 O48'
_cell_volume   1077.65153458
_cell_formula_units_Z   4
loop_
 _symmetry_equiv_pos_site_id
 _symmetry_equiv_pos_as_xyz
  1  'x, y, z'
loop_
 _atom_site_type_symbol
 _atom_site_label
 _atom_site_symmetry_multiplicity
 _atom_site_fract_x
 _atom_site_fract_y
 _atom_site_fract_z
 _atom_site_occupancy
  O  O0  1  0.406073  0.374477  0.423573  1
  O  O1  1  0.093927  0.874477  0.076427  1
  O  O2  1  0.593927  0.625523  0.576427  1
  O  O3  1  0.906073  0.125523  0.923573  1
  O  O4  1  0.940506  0.631825  0.066455  1
  O  O5  1  0.559494  0.131825  0.433545  1
  O  O6  1  0.059494  0.368175  0.933545  1
  O  O7  1  0.440506  0.868175  0.566455  1
  O  O8  1  0.819744  0.332917  0.057026  1
  O  O9  1  0.680256  0.832917  0.442974  1
  O  O10  1  0.180256  0.667083  0.942974  1
  O  O11  1  0.319744  0.167083  0.557026  1
  O  O12  1  0.069763  0.185521  0.102768  1
  O  O13  1  0.430237  0.685521  0.397232  1
  O  O14  1  0.930237  0.814479  0.897232  1
  O  O15  1  0.569763  0.314479  0.602768  1
  O  O16  1  0.639148  0.000301  0.241118  1
  O  O17  1  0.778265  0.427514  0.454754  1
  O  O18  1  0.221735  0.572486  0.545246  1
  O  O19  1  0.278265  0.072486  0.954754  1
  O  O20  1  0.070373  0.082176  0.678243  1
  O  O21  1  0.429627  0.582176  0.821757  1
  O  O22  1  0.929627  0.917824  0.321757  1
  O  O23  1  0.570373  0.417824  0.178243  1
  O  O24  1  0.859202  0.083893  0.524869  1
  O  O25  1  0.640798  0.583893  0.975131  1
  O  O26  1  0.140798  0.916107  0.475131  1
  O  O27  1  0.359202  0.416107  0.024869  1
  O  O28  1  0.873399  0.294845  0.671953  1
  O  O29  1  0.626601  0.794845  0.828047  1
  O  O30  1  0.126601  0.705155  0.328047  1
  O  O31  1  0.373399  0.205155  0.171953  1
  O  O32  1  0.715602  0.522085  0.774995  1
  O  O33  1  0.784398  0.022085  0.725005  1
  O  O34  1  0.284398  0.477915  0.225005  1
  O  O35  1  0.215602  0.977915  0.274995  1
  O  O36  1  0.934138  0.604797  0.605897  1
  O  O37  1  0.565862  0.104797  0.894103  1
  O  O38  1  0.065862  0.395203  0.394103  1
  O  O39  1  0.434138  0.895203  0.105897  1
  O  O40  1  0.149520  0.780989  0.682745  1
  O  O41  1  0.350480  0.280989  0.817255  1
  O  O42  1  0.850480  0.219011  0.317255  1
  O  O43  1  0.649520  0.719011  0.182745  1
  O  O44  1  0.139148  0.499699  0.741118  1
  O  O45  1  0.360852  0.999699  0.758882  1
  O  O46  1  0.860852  0.500301  0.258882  1
  O  O47  1  0.721735  0.927514  0.045246  1
  Sc  Sc48  1  0.252710  0.532569  0.385290  1
  Sc  Sc49  1  0.247290  0.032569  0.114710  1
  Sc  Sc50  1  0.747290  0.467431  0.614710  1
  Sc  Sc51  1  0.752710  0.967431  0.885290  1
  Sc  Sc52  1  0.751106  0.033169  0.383736  1
  Sc  Sc53  1  0.748894  0.533169  0.116264  1
  Sc  Sc54  1  0.248894  0.966831  0.616264  1
  Sc  Sc55  1  0.251106  0.466831  0.883736  1
  Se  Se56  1  0.965179  0.252366  0.005707  1
  Se  Se57  1  0.534821  0.752366  0.494293  1
  Se  Se58  1  0.034821  0.747634  0.994293  1
  Se  Se59  1  0.465179  0.247634  0.505707  1
  Se  Se60  1  0.610634  0.884859  0.143784  1
  Se  Se61  1  0.889366  0.384859  0.356216  1
  Se  Se62  1  0.389366  0.115141  0.856216  1
  Se  Se63  1  0.110634  0.615141  0.643784  1
  Se  Se64  1  0.395355  0.379917  0.150384  1
  Se  Se65  1  0.104645  0.879917  0.349616  1
  Se  Se66  1  0.604645  0.620083  0.849616  1
  Se  Se67  1  0.895355  0.120083  0.650384  1
