# generated using pymatgen
data_LiYbF4
_symmetry_space_group_name_H-M   'P 1'
_cell_length_a   5.46597709
_cell_length_b   5.46597710
_cell_length_c   6.22243932
_cell_angle_alpha   116.05380441
_cell_angle_beta   116.05380435
_cell_angle_gamma   89.99999996
_symmetry_Int_Tables_number   1
_chemical_formula_structural   LiYbF4
_chemical_formula_sum   'Li2 Yb2 F8'
_cell_volume   145.69487124
_cell_formula_units_Z   2
loop_
 _symmetry_equiv_pos_site_id
 _symmetry_equiv_pos_as_xyz
  1  'x, y, z'
loop_
 _atom_site_type_symbol
 _atom_site_label
 _atom_site_symmetry_multiplicity
 _atom_site_fract_x
 _atom_site_fract_y
 _atom_site_fract_z
 _atom_site_occupancy
  Li  Li0  1  0.125000  0.375000  0.250000  1
  Li  Li1  1  0.875000  0.625000  0.750000  1
  F  F2  1  0.691421  0.891439  0.915711  1
  F  F3  1  0.775710  0.475728  0.084289  1
  F  F4  1  0.391439  0.724290  0.415711  1
  F  F5  1  0.024272  0.191421  0.415711  1
  F  F6  1  0.224290  0.524272  0.915711  1
  F  F7  1  0.975728  0.808579  0.584289  1
  F  F8  1  0.308579  0.108561  0.084289  1
  F  F9  1  0.608561  0.275710  0.584289  1
  Yb  Yb10  1  0.625000  0.875000  0.250000  1
  Yb  Yb11  1  0.375000  0.125000  0.750000  1
