# generated using pymatgen
data_Tb3Fe5O12
_symmetry_space_group_name_H-M   'P 1'
_cell_length_a   10.77841709
_cell_length_b   10.77841772
_cell_length_c   10.77841761
_cell_angle_alpha   109.47122043
_cell_angle_beta   109.47122162
_cell_angle_gamma   109.47122112
_symmetry_Int_Tables_number   1
_chemical_formula_structural   Tb3Fe5O12
_chemical_formula_sum   'Tb12 Fe20 O48'
_cell_volume   963.92469043
_cell_formula_units_Z   4
loop_
 _symmetry_equiv_pos_site_id
 _symmetry_equiv_pos_as_xyz
  1  'x, y, z'
loop_
 _atom_site_type_symbol
 _atom_site_label
 _atom_site_symmetry_multiplicity
 _atom_site_fract_x
 _atom_site_fract_y
 _atom_site_fract_z
 _atom_site_occupancy
  Tb  Tb0  1  0.750000  0.625000  0.875000  1
  Tb  Tb1  1  0.375000  0.750000  0.125000  1
  Tb  Tb2  1  0.875000  0.625000  0.250000  1
  Tb  Tb3  1  0.375000  0.125000  0.250000  1
  Tb  Tb4  1  0.125000  0.250000  0.375000  1
  Tb  Tb5  1  0.625000  0.875000  0.750000  1
  Tb  Tb6  1  0.250000  0.875000  0.625000  1
  Tb  Tb7  1  0.750000  0.125000  0.375000  1
  Tb  Tb8  1  0.250000  0.375000  0.125000  1
  Tb  Tb9  1  0.625000  0.250000  0.875000  1
  Tb  Tb10  1  0.875000  0.750000  0.625000  1
  Tb  Tb11  1  0.125000  0.375000  0.750000  1
  Fe  Fe12  1  0.125000  0.875000  0.250000  1
  Fe  Fe13  1  0.125000  0.750000  0.875000  1
  Fe  Fe14  1  0.875000  0.125000  0.750000  1
  Fe  Fe15  1  0.500000  0.000000  0.500000  1
  Fe  Fe16  1  0.000000  0.000000  0.500000  1
  Fe  Fe17  1  0.500000  0.500000  0.500000  1
  Fe  Fe18  1  0.000000  0.000000  0.000000  1
  Fe  Fe19  1  0.750000  0.375000  0.625000  1
  Fe  Fe20  1  0.375000  0.625000  0.750000  1
  Fe  Fe21  1  0.250000  0.625000  0.375000  1
  Fe  Fe22  1  0.000000  0.500000  0.500000  1
  Fe  Fe23  1  0.625000  0.750000  0.375000  1
  Fe  Fe24  1  0.375000  0.250000  0.625000  1
  Fe  Fe25  1  0.875000  0.250000  0.125000  1
  Fe  Fe26  1  0.500000  0.500000  0.000000  1
  Fe  Fe27  1  0.625000  0.375000  0.250000  1
  Fe  Fe28  1  0.250000  0.125000  0.875000  1
  Fe  Fe29  1  0.500000  0.000000  0.000000  1
  Fe  Fe30  1  0.750000  0.875000  0.125000  1
  Fe  Fe31  1  0.000000  0.500000  0.000000  1
  O  O32  1  0.622337  0.418805  0.093097  1
  O  O33  1  0.529241  0.406903  0.825709  1
  O  O34  1  0.674291  0.081195  0.703532  1
  O  O35  1  0.529241  0.622337  0.703532  1
  O  O36  1  0.377663  0.296468  0.470759  1
  O  O37  1  0.081195  0.877663  0.406903  1
  O  O38  1  0.593097  0.174291  0.470759  1
  O  O39  1  0.877663  0.970759  0.796468  1
  O  O40  1  0.122338  0.029241  0.203532  1
  O  O41  1  0.029241  0.203532  0.122338  1
  O  O42  1  0.918805  0.122338  0.593097  1
  O  O43  1  0.906903  0.377663  0.581195  1
  O  O44  1  0.122338  0.593097  0.918805  1
  O  O45  1  0.918805  0.296468  0.325709  1
  O  O46  1  0.093097  0.970759  0.674291  1
  O  O47  1  0.877663  0.406903  0.081195  1
  O  O48  1  0.703532  0.674291  0.081195  1
  O  O49  1  0.970759  0.796468  0.877663  1
  O  O50  1  0.029241  0.325709  0.906903  1
  O  O51  1  0.674291  0.093097  0.970759  1
  O  O52  1  0.796468  0.418805  0.825709  1
  O  O53  1  0.418805  0.093097  0.622337  1
  O  O54  1  0.418805  0.825709  0.796468  1
  O  O55  1  0.906903  0.029241  0.325709  1
  O  O56  1  0.581195  0.174291  0.203532  1
  O  O57  1  0.796468  0.877663  0.970759  1
  O  O58  1  0.825709  0.529241  0.406903  1
  O  O59  1  0.470759  0.593097  0.174291  1
  O  O60  1  0.325709  0.906903  0.029241  1
  O  O61  1  0.581195  0.906903  0.377663  1
  O  O62  1  0.593097  0.918805  0.122338  1
  O  O63  1  0.325709  0.918805  0.296468  1
  O  O64  1  0.406903  0.081195  0.877663  1
  O  O65  1  0.377663  0.581195  0.906903  1
  O  O66  1  0.622337  0.703532  0.529241  1
  O  O67  1  0.470759  0.377663  0.296468  1
  O  O68  1  0.174291  0.203532  0.581195  1
  O  O69  1  0.296468  0.470759  0.377663  1
  O  O70  1  0.296468  0.325709  0.918805  1
  O  O71  1  0.081195  0.703532  0.674291  1
  O  O72  1  0.703532  0.529241  0.622337  1
  O  O73  1  0.093097  0.622337  0.418805  1
  O  O74  1  0.203532  0.581195  0.174291  1
  O  O75  1  0.406903  0.825709  0.529241  1
  O  O76  1  0.203532  0.122338  0.029241  1
  O  O77  1  0.174291  0.470759  0.593097  1
  O  O78  1  0.825709  0.796468  0.418805  1
  O  O79  1  0.970759  0.674291  0.093097  1
