# generated using pymatgen
data_K2V(PO4)2
_symmetry_space_group_name_H-M   'P 1'
_cell_length_a   5.53662208
_cell_length_b   8.42097021
_cell_length_c   8.42097021
_cell_angle_alpha   90.00000000
_cell_angle_beta   90.00000000
_cell_angle_gamma   90.00000000
_symmetry_Int_Tables_number   1
_chemical_formula_structural   K2V(PO4)2
_chemical_formula_sum   'K4 V2 P4 O16'
_cell_volume   392.61703804
_cell_formula_units_Z   2
loop_
 _symmetry_equiv_pos_site_id
 _symmetry_equiv_pos_as_xyz
  1  'x, y, z'
loop_
 _atom_site_type_symbol
 _atom_site_label
 _atom_site_symmetry_multiplicity
 _atom_site_fract_x
 _atom_site_fract_y
 _atom_site_fract_z
 _atom_site_occupancy
  O  O0  1  0.005036  0.000000  0.500000  1
  O  O1  1  0.005036  0.500000  0.000000  1
  O  O2  1  0.993909  0.924435  0.214840  1
  O  O3  1  0.993909  0.075565  0.785160  1
  O  O4  1  0.993909  0.214840  0.075565  1
  O  O5  1  0.993909  0.785160  0.924435  1
  O  O6  1  0.993909  0.285160  0.575565  1
  O  O7  1  0.993909  0.424435  0.285160  1
  O  O8  1  0.993909  0.575565  0.714840  1
  O  O9  1  0.993909  0.714840  0.424435  1
  O  O10  1  0.397156  0.500000  0.500000  1
  O  O11  1  0.397156  0.000000  0.000000  1
  O  O12  1  0.385437  0.373323  0.126677  1
  O  O13  1  0.385437  0.873323  0.373323  1
  O  O14  1  0.385437  0.126677  0.626677  1
  O  O15  1  0.385437  0.626677  0.873323  1
  P  P16  1  0.114441  0.628157  0.871843  1
  P  P17  1  0.114441  0.128157  0.628157  1
  P  P18  1  0.114441  0.871843  0.371843  1
  P  P19  1  0.114441  0.371843  0.128157  1
  K  K20  1  0.627963  0.828321  0.671679  1
  K  K21  1  0.627963  0.328321  0.828321  1
  K  K22  1  0.627963  0.671679  0.171679  1
  K  K23  1  0.627963  0.171679  0.328321  1
  V  V24  1  0.102190  0.500000  0.500000  1
  V  V25  1  0.102190  0.000000  0.000000  1
