# generated using pymatgen
data_Te6MoW3S2
_symmetry_space_group_name_H-M   'P 1'
_cell_length_a   3.45142291
_cell_length_b   3.45141862
_cell_length_c   39.36777097
_cell_angle_alpha   90.00359357
_cell_angle_beta   90.00000000
_cell_angle_gamma   120.00004099
_symmetry_Int_Tables_number   1
_chemical_formula_structural   Te6MoW3S2
_chemical_formula_sum   'Te6 Mo1 W3 S2'
_cell_volume   406.13189014
_cell_formula_units_Z   1
loop_
 _symmetry_equiv_pos_site_id
 _symmetry_equiv_pos_as_xyz
  1  'x, y, z'
loop_
 _atom_site_type_symbol
 _atom_site_label
 _atom_site_symmetry_multiplicity
 _atom_site_fract_x
 _atom_site_fract_y
 _atom_site_fract_z
 _atom_site_occupancy
  Te  Te0  1  0.333351  0.666704  0.329526  1
  Te  Te1  1  0.333412  0.666824  0.704805  1
  Te  Te2  1  0.666622  0.333242  0.046361  1
  Te  Te3  1  0.666677  0.333352  0.140320  1
  Te  Te4  1  0.333297  0.666596  0.235074  1
  Te  Te5  1  0.333364  0.666728  0.610322  1
  Mo  Mo6  1  0.333320  0.666639  0.093327  1
  W  W7  1  0.333306  0.666612  0.469728  1
  W  W8  1  0.666655  0.333310  0.282359  1
  W  W9  1  0.666733  0.333466  0.657552  1
  S  S10  1  0.666607  0.333212  0.431813  1
  S  S11  1  0.666658  0.333314  0.507562  1
