# generated using pymatgen
data_Te4Mo2WS2
_symmetry_space_group_name_H-M   'P 1'
_cell_length_a   3.43626833
_cell_length_b   3.43642562
_cell_length_c   31.56085605
_cell_angle_alpha   89.99986662
_cell_angle_beta   90.00000000
_cell_angle_gamma   119.99848597
_symmetry_Int_Tables_number   1
_chemical_formula_structural   Te4Mo2WS2
_chemical_formula_sum   'Te4 Mo2 W1 S2'
_cell_volume   322.76025488
_cell_formula_units_Z   1
loop_
 _symmetry_equiv_pos_site_id
 _symmetry_equiv_pos_as_xyz
  1  'x, y, z'
loop_
 _atom_site_type_symbol
 _atom_site_label
 _atom_site_symmetry_multiplicity
 _atom_site_fract_x
 _atom_site_fract_y
 _atom_site_fract_z
 _atom_site_occupancy
  Te  Te0  1  0.666644  0.333286  0.056884  1
  Te  Te1  1  0.666630  0.333259  0.518953  1
  Te  Te2  1  0.666648  0.333295  0.174462  1
  Te  Te3  1  0.666647  0.333293  0.637629  1
  Mo  Mo4  1  0.333316  0.666632  0.115662  1
  Mo  Mo5  1  0.666689  0.333379  0.346983  1
  W  W6  1  0.333315  0.666630  0.578306  1
  S  S7  1  0.333355  0.666712  0.393989  1
  S  S8  1  0.333356  0.666713  0.299973  1
