# generated using pymatgen
data_EuCdAu
_symmetry_space_group_name_H-M   'P 1'
_cell_length_a   4.55874877
_cell_length_b   7.56832398
_cell_length_c   8.94570748
_cell_angle_alpha   90.00000000
_cell_angle_beta   90.00000000
_cell_angle_gamma   90.00000000
_symmetry_Int_Tables_number   1
_chemical_formula_structural   EuCdAu
_chemical_formula_sum   'Eu4 Cd4 Au4'
_cell_volume   308.64558343
_cell_formula_units_Z   4
loop_
 _symmetry_equiv_pos_site_id
 _symmetry_equiv_pos_as_xyz
  1  'x, y, z'
loop_
 _atom_site_type_symbol
 _atom_site_label
 _atom_site_symmetry_multiplicity
 _atom_site_fract_x
 _atom_site_fract_y
 _atom_site_fract_z
 _atom_site_occupancy
  Cd  Cd0  1  0.250000  0.645127  0.439808  1
  Cd  Cd1  1  0.250000  0.145127  0.060192  1
  Cd  Cd2  1  0.750000  0.354873  0.560192  1
  Cd  Cd3  1  0.750000  0.854873  0.939808  1
  Eu  Eu4  1  0.750000  0.461074  0.183350  1
  Eu  Eu5  1  0.250000  0.038926  0.683350  1
  Eu  Eu6  1  0.750000  0.961074  0.316650  1
  Eu  Eu7  1  0.250000  0.538926  0.816650  1
  Au  Au8  1  0.250000  0.755275  0.125698  1
  Au  Au9  1  0.250000  0.255275  0.374302  1
  Au  Au10  1  0.750000  0.744725  0.625698  1
  Au  Au11  1  0.750000  0.244725  0.874302  1
