# generated using pymatgen
data_BaEr2NiO5
_symmetry_space_group_name_H-M   'P 1'
_cell_length_a   3.78097469
_cell_length_b   5.76704051
_cell_length_c   6.63639110
_cell_angle_alpha   115.75356217
_cell_angle_beta   106.55088544
_cell_angle_gamma   90.00000001
_symmetry_Int_Tables_number   1
_chemical_formula_structural   BaEr2NiO5
_chemical_formula_sum   'Ba1 Er2 Ni1 O5'
_cell_volume   123.64253366
_cell_formula_units_Z   1
loop_
 _symmetry_equiv_pos_site_id
 _symmetry_equiv_pos_as_xyz
  1  'x, y, z'
loop_
 _atom_site_type_symbol
 _atom_site_label
 _atom_site_symmetry_multiplicity
 _atom_site_fract_x
 _atom_site_fract_y
 _atom_site_fract_z
 _atom_site_occupancy
  O  O0  1  0.500000  0.000000  0.999999  1
  O  O1  1  0.151001  0.911482  0.302004  1
  O  O2  1  0.848998  0.088518  0.697996  1
  O  O3  1  0.848997  0.609478  0.697995  1
  O  O4  1  0.151002  0.390521  0.302005  1
  Ni  Ni5  1  0.000000  0.000000  0.000000  1
  Ba  Ba6  1  0.500001  0.500001  1.000000  1
  Er  Er7  1  0.296618  0.796618  0.593236  1
  Er  Er8  1  0.703382  0.203383  0.406765  1
