# generated using pymatgen
data_NaB(S2O7)2
_symmetry_space_group_name_H-M   'P 1'
_cell_length_a   11.24727645
_cell_length_b   8.77065049
_cell_length_c   13.07125564
_cell_angle_alpha   90.00000000
_cell_angle_beta   110.03403891
_cell_angle_gamma   90.00000000
_symmetry_Int_Tables_number   1
_chemical_formula_structural   NaB(S2O7)2
_chemical_formula_sum   'Na4 B4 S16 O56'
_cell_volume   1211.40205046
_cell_formula_units_Z   4
loop_
 _symmetry_equiv_pos_site_id
 _symmetry_equiv_pos_as_xyz
  1  'x, y, z'
loop_
 _atom_site_type_symbol
 _atom_site_label
 _atom_site_symmetry_multiplicity
 _atom_site_fract_x
 _atom_site_fract_y
 _atom_site_fract_z
 _atom_site_occupancy
  Na  Na0  1  0.700677  0.232331  0.574710  1
  Na  Na1  1  0.299323  0.732331  0.925290  1
  Na  Na2  1  0.299323  0.767669  0.425290  1
  Na  Na3  1  0.700677  0.267669  0.074710  1
  B  B4  1  0.760843  0.723730  0.830977  1
  B  B5  1  0.239157  0.223730  0.669023  1
  B  B6  1  0.239157  0.276270  0.169023  1
  B  B7  1  0.760843  0.776270  0.330977  1
  S  S8  1  0.584548  0.885853  0.676412  1
  S  S9  1  0.415452  0.385853  0.823588  1
  S  S10  1  0.415452  0.114147  0.323588  1
  S  S11  1  0.584548  0.614147  0.176412  1
  S  S12  1  0.622721  0.902167  0.906623  1
  S  S13  1  0.377279  0.402167  0.593377  1
  S  S14  1  0.377279  0.097833  0.093377  1
  S  S15  1  0.622721  0.597833  0.406623  1
  S  S16  1  0.804628  0.420721  0.851748  1
  S  S17  1  0.195372  0.920721  0.648252  1
  S  S18  1  0.195372  0.579279  0.148252  1
  S  S19  1  0.804628  0.079279  0.351748  1
  S  S20  1  0.950602  0.622754  0.769690  1
  S  S21  1  0.049398  0.122754  0.730310  1
  S  S22  1  0.049398  0.377246  0.230310  1
  S  S23  1  0.950602  0.877246  0.269690  1
  O  O24  1  0.460645  0.852019  0.603295  1
  O  O25  1  0.539355  0.352019  0.896705  1
  O  O26  1  0.539355  0.147981  0.396705  1
  O  O27  1  0.460645  0.647981  0.103295  1
  O  O28  1  0.667028  0.983075  0.643420  1
  O  O29  1  0.332972  0.483075  0.856580  1
  O  O30  1  0.332972  0.016925  0.356580  1
  O  O31  1  0.667028  0.516925  0.143420  1
  O  O32  1  0.542220  0.780036  0.914915  1
  O  O33  1  0.457780  0.280036  0.585085  1
  O  O34  1  0.457780  0.219964  0.085085  1
  O  O35  1  0.542220  0.719964  0.414915  1
  O  O36  1  0.641586  0.032026  0.975546  1
  O  O37  1  0.358414  0.532026  0.524454  1
  O  O38  1  0.358414  0.967974  0.024454  1
  O  O39  1  0.641586  0.467974  0.475546  1
  O  O40  1  0.728334  0.368053  0.746051  1
  O  O41  1  0.271666  0.868053  0.753949  1
  O  O42  1  0.271666  0.631947  0.253949  1
  O  O43  1  0.728334  0.131947  0.246051  1
  O  O44  1  0.834415  0.322803  0.944179  1
  O  O45  1  0.165585  0.822803  0.555821  1
  O  O46  1  0.165585  0.677197  0.055821  1
  O  O47  1  0.834415  0.177197  0.444179  1
  O  O48  1  0.881186  0.585901  0.659066  1
  O  O49  1  0.118814  0.085901  0.840934  1
  O  O50  1  0.118814  0.414099  0.340934  1
  O  O51  1  0.881186  0.914099  0.159066  1
  O  O52  1  0.082034  0.657988  0.804258  1
  O  O53  1  0.917966  0.157988  0.695742  1
  O  O54  1  0.917966  0.342012  0.195742  1
  O  O55  1  0.082034  0.842012  0.304258  1
  O  O56  1  0.650013  0.735128  0.726713  1
  O  O57  1  0.349987  0.235128  0.773287  1
  O  O58  1  0.349987  0.264872  0.273287  1
  O  O59  1  0.650013  0.764872  0.226713  1
  O  O60  1  0.753485  0.843257  0.907827  1
  O  O61  1  0.246515  0.343257  0.592173  1
  O  O62  1  0.246515  0.156743  0.092173  1
  O  O63  1  0.753485  0.656743  0.407827  1
  O  O64  1  0.754152  0.573709  0.879921  1
  O  O65  1  0.245848  0.073709  0.620079  1
  O  O66  1  0.245848  0.426291  0.120079  1
  O  O67  1  0.754152  0.926291  0.379921  1
  O  O68  1  0.882987  0.747139  0.814788  1
  O  O69  1  0.117013  0.247139  0.685212  1
  O  O70  1  0.117013  0.252861  0.185212  1
  O  O71  1  0.882987  0.752861  0.314788  1
  O  O72  1  0.565190  0.973100  0.782207  1
  O  O73  1  0.434810  0.473100  0.717793  1
  O  O74  1  0.434810  0.026900  0.217793  1
  O  O75  1  0.565190  0.526900  0.282207  1
  O  O76  1  0.943920  0.474466  0.847940  1
  O  O77  1  0.056080  0.974466  0.652060  1
  O  O78  1  0.056080  0.525534  0.152060  1
  O  O79  1  0.943920  0.025534  0.347940  1
