# generated using pymatgen
data_Tl3Bi
_symmetry_space_group_name_H-M   'P 1'
_cell_length_a   7.45780610
_cell_length_b   7.45841414
_cell_length_c   5.38916651
_cell_angle_alpha   90.14242801
_cell_angle_beta   89.85805904
_cell_angle_gamma   119.97369740
_symmetry_Int_Tables_number   1
_chemical_formula_structural   Tl3Bi
_chemical_formula_sum   'Tl6 Bi2'
_cell_volume   259.67077755
_cell_formula_units_Z   2
loop_
 _symmetry_equiv_pos_site_id
 _symmetry_equiv_pos_as_xyz
  1  'x, y, z'
loop_
 _atom_site_type_symbol
 _atom_site_label
 _atom_site_symmetry_multiplicity
 _atom_site_fract_x
 _atom_site_fract_y
 _atom_site_fract_z
 _atom_site_occupancy
  Tl  Tl0  1  0.169740  0.339642  0.249971  1
  Tl  Tl1  1  0.660363  0.830251  0.249970  1
  Tl  Tl2  1  0.169722  0.830260  0.250063  1
  Tl  Tl3  1  0.830463  0.660741  0.750027  1
  Tl  Tl4  1  0.339253  0.169546  0.750033  1
  Tl  Tl5  1  0.830449  0.169570  0.749928  1
  Bi  Bi6  1  0.333303  0.666677  0.750002  1
  Bi  Bi7  1  0.666706  0.333315  0.250003  1
