# generated using pymatgen
data_Te2MoWSe2
_symmetry_space_group_name_H-M   'P 1'
_cell_length_a   3.43406592
_cell_length_b   3.43402706
_cell_length_c   24.40923933
_cell_angle_alpha   90.00010485
_cell_angle_beta   90.00000000
_cell_angle_gamma   120.00037436
_symmetry_Int_Tables_number   1
_chemical_formula_structural   Te2MoWSe2
_chemical_formula_sum   'Te2 Mo1 W1 Se2'
_cell_volume   249.28467420
_cell_formula_units_Z   1
loop_
 _symmetry_equiv_pos_site_id
 _symmetry_equiv_pos_as_xyz
  1  'x, y, z'
loop_
 _atom_site_type_symbol
 _atom_site_label
 _atom_site_symmetry_multiplicity
 _atom_site_fract_x
 _atom_site_fract_y
 _atom_site_fract_z
 _atom_site_occupancy
  Te  Te0  1  0.333352  0.666705  0.527558  1
  Te  Te1  1  0.333354  0.666709  0.375264  1
  Mo  Mo2  1  0.666690  0.333379  0.451426  1
  W  W3  1  0.333312  0.666624  0.150430  1
  Se  Se4  1  0.666646  0.333291  0.083062  1
  Se  Se5  1  0.666647  0.333292  0.217865  1
