# generated using pymatgen
data_UCoO4
_symmetry_space_group_name_H-M   'P 1'
_cell_length_a   5.82812624
_cell_length_b   5.82812625
_cell_length_c   5.82812625
_cell_angle_alpha   106.18319234
_cell_angle_beta   111.07424242
_cell_angle_gamma   111.20544985
_symmetry_Int_Tables_number   1
_chemical_formula_structural   UCoO4
_chemical_formula_sum   'U2 Co2 O8'
_cell_volume   152.01912977
_cell_formula_units_Z   2
loop_
 _symmetry_equiv_pos_site_id
 _symmetry_equiv_pos_as_xyz
  1  'x, y, z'
loop_
 _atom_site_type_symbol
 _atom_site_label
 _atom_site_symmetry_multiplicity
 _atom_site_fract_x
 _atom_site_fract_y
 _atom_site_fract_z
 _atom_site_occupancy
  O  O0  1  0.194100  0.711109  0.517009  1
  O  O1  1  0.194100  0.177091  0.982991  1
  O  O2  1  0.805900  0.288891  0.482991  1
  O  O3  1  0.805900  0.822909  0.017009  1
  O  O4  1  0.678753  0.727745  0.451009  1
  O  O5  1  0.276736  0.727745  0.048991  1
  O  O6  1  0.723264  0.272255  0.951009  1
  O  O7  1  0.321247  0.272255  0.548991  1
  Co  Co8  1  0.500000  0.500000  0.000000  1
  Co  Co9  1  0.500000  0.000000  0.500000  1
  U  U10  1  0.976835  0.726835  0.750000  1
  U  U11  1  0.023165  0.273165  0.250000  1
