# generated using pymatgen
data_Y(NO3)3
_symmetry_space_group_name_H-M   'P 1'
_cell_length_a   11.26770295
_cell_length_b   6.22912564
_cell_length_c   9.88417847
_cell_angle_alpha   90.00000000
_cell_angle_beta   92.99709360
_cell_angle_gamma   90.00000000
_symmetry_Int_Tables_number   1
_chemical_formula_structural   Y(NO3)3
_chemical_formula_sum   'Y4 N12 O36'
_cell_volume   692.80117955
_cell_formula_units_Z   4
loop_
 _symmetry_equiv_pos_site_id
 _symmetry_equiv_pos_as_xyz
  1  'x, y, z'
loop_
 _atom_site_type_symbol
 _atom_site_label
 _atom_site_symmetry_multiplicity
 _atom_site_fract_x
 _atom_site_fract_y
 _atom_site_fract_z
 _atom_site_occupancy
  Y  Y0  1  0.733469  0.318716  0.713360  1
  Y  Y1  1  0.266531  0.818716  0.786640  1
  Y  Y2  1  0.266531  0.681284  0.286640  1
  Y  Y3  1  0.733469  0.181284  0.213360  1
  N  N4  1  0.492426  0.612065  0.824083  1
  N  N5  1  0.507574  0.112065  0.675917  1
  N  N6  1  0.507574  0.387935  0.175917  1
  N  N7  1  0.492426  0.887935  0.324083  1
  N  N8  1  0.215620  0.267217  0.802578  1
  N  N9  1  0.784380  0.767217  0.697422  1
  N  N10  1  0.784380  0.732783  0.197422  1
  N  N11  1  0.215620  0.232783  0.302578  1
  N  N12  1  0.877172  0.282254  0.473022  1
  N  N13  1  0.122828  0.782254  0.026978  1
  N  N14  1  0.122828  0.717746  0.526978  1
  N  N15  1  0.877172  0.217746  0.973022  1
  O  O16  1  0.425917  0.575590  0.718167  1
  O  O17  1  0.574083  0.075590  0.781833  1
  O  O18  1  0.574083  0.424410  0.281833  1
  O  O19  1  0.425917  0.924410  0.218167  1
  O  O20  1  0.451079  0.732029  0.914257  1
  O  O21  1  0.548921  0.232029  0.585743  1
  O  O22  1  0.548921  0.267971  0.085743  1
  O  O23  1  0.451079  0.767971  0.414257  1
  O  O24  1  0.594857  0.534756  0.839865  1
  O  O25  1  0.405143  0.034756  0.660135  1
  O  O26  1  0.405143  0.465244  0.160135  1
  O  O27  1  0.594857  0.965244  0.339865  1
  O  O28  1  0.282540  0.177277  0.893599  1
  O  O29  1  0.717460  0.677277  0.606401  1
  O  O30  1  0.717460  0.822723  0.106401  1
  O  O31  1  0.282540  0.322723  0.393599  1
  O  O32  1  0.193517  0.464589  0.806474  1
  O  O33  1  0.806483  0.964589  0.693526  1
  O  O34  1  0.806483  0.535411  0.193526  1
  O  O35  1  0.193517  0.035411  0.306474  1
  O  O36  1  0.170219  0.151196  0.708070  1
  O  O37  1  0.829781  0.651196  0.791930  1
  O  O38  1  0.829781  0.848804  0.291930  1
  O  O39  1  0.170219  0.348804  0.208070  1
  O  O40  1  0.761325  0.265881  0.457583  1
  O  O41  1  0.238675  0.765881  0.042417  1
  O  O42  1  0.238675  0.734119  0.542417  1
  O  O43  1  0.761325  0.234119  0.957583  1
  O  O44  1  0.918393  0.336730  0.588781  1
  O  O45  1  0.081607  0.836730  0.911219  1
  O  O46  1  0.081607  0.663270  0.411219  1
  O  O47  1  0.918393  0.163270  0.088781  1
  O  O48  1  0.937489  0.242845  0.374973  1
  O  O49  1  0.062511  0.742845  0.125027  1
  O  O50  1  0.062511  0.757155  0.625027  1
  O  O51  1  0.937489  0.257155  0.874973  1
