# generated using pymatgen
data_Yb2S3
_symmetry_space_group_name_H-M   'P 1'
_cell_length_a   4.08589089
_cell_length_b   11.47808550
_cell_length_c   15.73498155
_cell_angle_alpha   106.57528792
_cell_angle_beta   90.00000000
_cell_angle_gamma   90.00000000
_symmetry_Int_Tables_number   1
_chemical_formula_structural   Yb2S3
_chemical_formula_sum   'Yb12 S18'
_cell_volume   707.27771414
_cell_formula_units_Z   6
loop_
 _symmetry_equiv_pos_site_id
 _symmetry_equiv_pos_as_xyz
  1  'x, y, z'
loop_
 _atom_site_type_symbol
 _atom_site_label
 _atom_site_symmetry_multiplicity
 _atom_site_fract_x
 _atom_site_fract_y
 _atom_site_fract_z
 _atom_site_occupancy
  S  S0  1  0.750000  0.026137  0.029668  1
  S  S1  1  0.250000  0.973863  0.970332  1
  S  S2  1  0.750000  0.371762  0.016575  1
  S  S3  1  0.250000  0.628238  0.983425  1
  S  S4  1  0.750000  0.679948  0.368036  1
  S  S5  1  0.250000  0.320052  0.631964  1
  S  S6  1  0.750000  0.286733  0.746591  1
  S  S7  1  0.250000  0.713268  0.253409  1
  S  S8  1  0.750000  0.720552  0.170127  1
  S  S9  1  0.250000  0.279448  0.829873  1
  S  S10  1  0.750000  0.040550  0.511235  1
  S  S11  1  0.250000  0.959450  0.488765  1
  S  S12  1  0.250000  0.053304  0.286234  1
  S  S13  1  0.750000  0.946696  0.713766  1
  S  S14  1  0.250000  0.642014  0.575617  1
  S  S15  1  0.750000  0.357986  0.424383  1
  S  S16  1  0.250000  0.335519  0.202204  1
  S  S17  1  0.750000  0.664481  0.797796  1
  Yb  Yb18  1  0.750000  0.487693  0.887540  1
  Yb  Yb19  1  0.250000  0.512307  0.112460  1
  Yb  Yb20  1  0.750000  0.493515  0.623475  1
  Yb  Yb21  1  0.250000  0.506485  0.376525  1
  Yb  Yb22  1  0.750000  0.910909  0.326265  1
  Yb  Yb23  1  0.250000  0.089091  0.673735  1
  Yb  Yb24  1  0.750000  0.202029  0.244103  1
  Yb  Yb25  1  0.250000  0.797971  0.755897  1
  Yb  Yb26  1  0.750000  0.789624  0.546251  1
  Yb  Yb27  1  0.250000  0.210376  0.453749  1
  Yb  Yb28  1  0.750000  0.780765  0.987431  1
  Yb  Yb29  1  0.250000  0.219235  0.012569  1
