# generated using pymatgen
data_Cs4SnO4
_symmetry_space_group_name_H-M   'P 1'
_cell_length_a   7.49224235
_cell_length_b   11.89173580
_cell_length_c   11.91791022
_cell_angle_alpha   111.13249838
_cell_angle_beta   90.00000000
_cell_angle_gamma   90.00000000
_symmetry_Int_Tables_number   1
_chemical_formula_structural   Cs4SnO4
_chemical_formula_sum   'Cs16 Sn4 O16'
_cell_volume   990.42606270
_cell_formula_units_Z   4
loop_
 _symmetry_equiv_pos_site_id
 _symmetry_equiv_pos_as_xyz
  1  'x, y, z'
loop_
 _atom_site_type_symbol
 _atom_site_label
 _atom_site_symmetry_multiplicity
 _atom_site_fract_x
 _atom_site_fract_y
 _atom_site_fract_z
 _atom_site_occupancy
  O  O0  1  0.760004  0.028636  0.917391  1
  O  O1  1  0.989071  0.844215  0.222490  1
  O  O2  1  0.489071  0.655785  0.777510  1
  O  O3  1  0.010929  0.155785  0.777510  1
  O  O4  1  0.260004  0.471364  0.082609  1
  O  O5  1  0.239996  0.971364  0.082609  1
  O  O6  1  0.739996  0.528636  0.917391  1
  O  O7  1  0.677218  0.982539  0.634445  1
  O  O8  1  0.177218  0.517461  0.365555  1
  O  O9  1  0.322782  0.017461  0.365555  1
  O  O10  1  0.822782  0.482539  0.634445  1
  O  O11  1  0.975610  0.142984  0.297971  1
  O  O12  1  0.475610  0.357016  0.702029  1
  O  O13  1  0.024390  0.857016  0.702029  1
  O  O14  1  0.524390  0.642984  0.297971  1
  O  O15  1  0.510929  0.344215  0.222490  1
  Sn  Sn16  1  0.629105  0.505860  0.757248  1
  Sn  Sn17  1  0.129105  0.994140  0.242752  1
  Sn  Sn18  1  0.870895  0.005860  0.757248  1
  Sn  Sn19  1  0.370895  0.494140  0.242752  1
  Cs  Cs20  1  0.343729  0.108803  0.633708  1
  Cs  Cs21  1  0.656271  0.891196  0.366292  1
  Cs  Cs22  1  0.156271  0.608804  0.633708  1
  Cs  Cs23  1  0.410452  0.694560  0.057197  1
  Cs  Cs24  1  0.910452  0.805440  0.942803  1
  Cs  Cs25  1  0.589548  0.305440  0.942803  1
  Cs  Cs26  1  0.089548  0.194560  0.057197  1
  Cs  Cs27  1  0.388490  0.909547  0.843938  1
  Cs  Cs28  1  0.888490  0.590453  0.156062  1
  Cs  Cs29  1  0.611510  0.090453  0.156062  1
  Cs  Cs30  1  0.111510  0.409547  0.843938  1
  Cs  Cs31  1  0.324214  0.295771  0.426616  1
  Cs  Cs32  1  0.824214  0.204229  0.573384  1
  Cs  Cs33  1  0.675786  0.704229  0.573384  1
  Cs  Cs34  1  0.175786  0.795771  0.426616  1
  Cs  Cs35  1  0.843729  0.391197  0.366292  1
