# generated using pymatgen
data_CuGe3
_symmetry_space_group_name_H-M   'P 1'
_cell_length_a   4.34543840
_cell_length_b   4.34543840
_cell_length_c   8.93491609
_cell_angle_alpha   90.00000000
_cell_angle_beta   90.00000000
_cell_angle_gamma   120.00000124
_symmetry_Int_Tables_number   1
_chemical_formula_structural   CuGe3
_chemical_formula_sum   'Cu2 Ge6'
_cell_volume   146.11281252
_cell_formula_units_Z   2
loop_
 _symmetry_equiv_pos_site_id
 _symmetry_equiv_pos_as_xyz
  1  'x, y, z'
loop_
 _atom_site_type_symbol
 _atom_site_label
 _atom_site_symmetry_multiplicity
 _atom_site_fract_x
 _atom_site_fract_y
 _atom_site_fract_z
 _atom_site_occupancy
  Cu  Cu0  1  0.666667  0.333333  0.750000  1
  Cu  Cu1  1  0.333333  0.666667  0.250000  1
  Ge  Ge2  1  0.666667  0.333333  0.424390  1
  Ge  Ge3  1  0.333333  0.666667  0.575610  1
  Ge  Ge4  1  0.333333  0.666667  0.924390  1
  Ge  Ge5  1  0.666667  0.333333  0.075610  1
  Ge  Ge6  1  -0.000000  -0.000000  0.750000  1
  Ge  Ge7  1  0.000000  -0.000000  0.250000  1
