# generated using pymatgen
data_LaSnF7
_symmetry_space_group_name_H-M   'P 1'
_cell_length_a   5.87197396
_cell_length_b   9.39116512
_cell_length_c   11.67926363
_cell_angle_alpha   107.40603751
_cell_angle_beta   90.00000000
_cell_angle_gamma   90.00000000
_symmetry_Int_Tables_number   1
_chemical_formula_structural   LaSnF7
_chemical_formula_sum   'La4 Sn4 F28'
_cell_volume   614.55744211
_cell_formula_units_Z   4
loop_
 _symmetry_equiv_pos_site_id
 _symmetry_equiv_pos_as_xyz
  1  'x, y, z'
loop_
 _atom_site_type_symbol
 _atom_site_label
 _atom_site_symmetry_multiplicity
 _atom_site_fract_x
 _atom_site_fract_y
 _atom_site_fract_z
 _atom_site_occupancy
  F  F0  1  0.037283  0.828476  0.543603  1
  F  F1  1  0.537283  0.671524  0.956397  1
  F  F2  1  0.962717  0.171524  0.456397  1
  F  F3  1  0.462717  0.328476  0.043603  1
  F  F4  1  0.947253  0.368878  0.078220  1
  F  F5  1  0.447253  0.131122  0.421780  1
  F  F6  1  0.052747  0.631122  0.921780  1
  F  F7  1  0.552747  0.868878  0.578220  1
  F  F8  1  0.266129  0.625608  0.139055  1
  F  F9  1  0.766129  0.874392  0.360945  1
  F  F10  1  0.733871  0.374392  0.860945  1
  F  F11  1  0.233871  0.125608  0.639055  1
  F  F12  1  0.260462  0.914458  0.948112  1
  F  F13  1  0.760462  0.585542  0.551888  1
  F  F14  1  0.739538  0.085542  0.051888  1
  F  F15  1  0.239538  0.414458  0.448112  1
  F  F16  1  0.952548  0.589860  0.332968  1
  F  F17  1  0.452548  0.910140  0.167032  1
  F  F18  1  0.047452  0.410140  0.667032  1
  F  F19  1  0.547452  0.089860  0.832968  1
  F  F20  1  0.984198  0.868670  0.137219  1
  F  F21  1  0.484198  0.631330  0.362781  1
  F  F22  1  0.015802  0.131330  0.862781  1
  F  F23  1  0.515802  0.368670  0.637219  1
  F  F24  1  0.914604  0.798450  0.767355  1
  F  F25  1  0.414604  0.701550  0.732645  1
  F  F26  1  0.085396  0.201550  0.232645  1
  F  F27  1  0.585396  0.298450  0.267355  1
  Sn  Sn28  1  0.755628  0.730870  0.457126  1
  Sn  Sn29  1  0.255628  0.769130  0.042874  1
  Sn  Sn30  1  0.244372  0.269130  0.542874  1
  Sn  Sn31  1  0.744372  0.230870  0.957126  1
  La  La32  1  0.241865  0.923857  0.734918  1
  La  La33  1  0.741865  0.576143  0.765082  1
  La  La34  1  0.758135  0.076143  0.265082  1
  La  La35  1  0.258135  0.423857  0.234918  1
