# generated using pymatgen
data_Nd5Ge3
_symmetry_space_group_name_H-M   'P 1'
_cell_length_a   9.32446391
_cell_length_b   9.32446391
_cell_length_c   6.20404107
_cell_angle_alpha   90.00000000
_cell_angle_beta   90.00000000
_cell_angle_gamma   120.00000003
_symmetry_Int_Tables_number   1
_chemical_formula_structural   Nd5Ge3
_chemical_formula_sum   'Nd10 Ge6'
_cell_volume   467.14643663
_cell_formula_units_Z   2
loop_
 _symmetry_equiv_pos_site_id
 _symmetry_equiv_pos_as_xyz
  1  'x, y, z'
loop_
 _atom_site_type_symbol
 _atom_site_label
 _atom_site_symmetry_multiplicity
 _atom_site_fract_x
 _atom_site_fract_y
 _atom_site_fract_z
 _atom_site_occupancy
  Ge  Ge0  1  0.650507  0.000000  0.250000  1
  Ge  Ge1  1  0.650507  0.650507  0.750000  1
  Ge  Ge2  1  0.000000  0.349493  0.750000  1
  Ge  Ge3  1  0.000000  0.650507  0.250000  1
  Ge  Ge4  1  0.349493  0.349493  0.250000  1
  Ge  Ge5  1  0.349493  0.000000  0.750000  1
  Nd  Nd6  1  0.292776  0.000000  0.250000  1
  Nd  Nd7  1  0.292776  0.292776  0.750000  1
  Nd  Nd8  1  0.000000  0.707224  0.750000  1
  Nd  Nd9  1  0.000000  0.292776  0.250000  1
  Nd  Nd10  1  0.707224  0.707224  0.250000  1
  Nd  Nd11  1  0.707224  0.000000  0.750000  1
  Nd  Nd12  1  0.333333  0.666667  0.250000  1
  Nd  Nd13  1  0.666667  0.333333  0.750000  1
  Nd  Nd14  1  0.666667  0.333333  0.250000  1
  Nd  Nd15  1  0.333333  0.666667  0.750000  1
