# generated using pymatgen
data_KB(S2O7)2
_symmetry_space_group_name_H-M   'P 1'
_cell_length_a   9.58817441
_cell_length_b   9.58817441
_cell_length_c   14.13036675
_cell_angle_alpha   92.63834375
_cell_angle_beta   92.63834375
_cell_angle_gamma   103.90202674
_symmetry_Int_Tables_number   1
_chemical_formula_structural   KB(S2O7)2
_chemical_formula_sum   'K4 B4 S16 O56'
_cell_volume   1257.47469066
_cell_formula_units_Z   4
loop_
 _symmetry_equiv_pos_site_id
 _symmetry_equiv_pos_as_xyz
  1  'x, y, z'
loop_
 _atom_site_type_symbol
 _atom_site_label
 _atom_site_symmetry_multiplicity
 _atom_site_fract_x
 _atom_site_fract_y
 _atom_site_fract_z
 _atom_site_occupancy
  K  K0  1  0.088979  0.149201  0.672997  1
  K  K1  1  0.149201  0.088979  0.172997  1
  K  K2  1  0.687700  0.717016  0.750327  1
  K  K3  1  0.717016  0.687700  0.250327  1
  B  B4  1  0.178685  0.613535  0.456160  1
  B  B5  1  0.613535  0.178685  0.956160  1
  B  B6  1  0.677132  0.204603  0.445318  1
  B  B7  1  0.204603  0.677132  0.945318  1
  S  S8  1  0.740801  0.307177  0.803372  1
  S  S9  1  0.307177  0.740801  0.303372  1
  S  S10  1  0.480506  0.075347  0.791675  1
  S  S11  1  0.075347  0.480506  0.291675  1
  S  S12  1  0.262184  0.577633  0.633215  1
  S  S13  1  0.577633  0.262184  0.133215  1
  S  S14  1  0.044017  0.730387  0.593006  1
  S  S15  1  0.730387  0.044017  0.093006  1
  S  S16  1  0.880045  0.070324  0.402585  1
  S  S17  1  0.070324  0.880045  0.902585  1
  S  S18  1  0.688320  0.975784  0.549095  1
  S  S19  1  0.975784  0.688320  0.049095  1
  S  S20  1  0.222871  0.402665  0.928558  1
  S  S21  1  0.402665  0.222871  0.428558  1
  S  S22  1  0.469761  0.632713  0.987877  1
  S  S23  1  0.632713  0.469761  0.487877  1
  O  O24  1  0.857689  0.280322  0.752687  1
  O  O25  1  0.280322  0.857689  0.252687  1
  O  O26  1  0.720456  0.449684  0.815116  1
  O  O27  1  0.449684  0.720456  0.315116  1
  O  O28  1  0.545551  0.955734  0.787827  1
  O  O29  1  0.955734  0.545551  0.287827  1
  O  O30  1  0.343535  0.066205  0.745039  1
  O  O31  1  0.066205  0.343535  0.245039  1
  O  O32  1  0.159812  0.444539  0.644248  1
  O  O33  1  0.444539  0.159812  0.144248  1
  O  O34  1  0.394440  0.616051  0.689162  1
  O  O35  1  0.616051  0.394440  0.189162  1
  O  O36  1  0.076226  0.879942  0.575241  1
  O  O37  1  0.879942  0.076226  0.075241  1
  O  O38  1  0.918100  0.666545  0.640413  1
  O  O39  1  0.666545  0.918100  0.140413  1
  O  O40  1  0.914901  0.002357  0.317728  1
  O  O41  1  0.002357  0.914901  0.817728  1
  O  O42  1  0.989852  0.145029  0.471229  1
  O  O43  1  0.145029  0.989852  0.971229  1
  O  O44  1  0.547722  0.882994  0.537457  1
  O  O45  1  0.882994  0.547722  0.037457  1
  O  O46  1  0.780479  0.967828  0.630509  1
  O  O47  1  0.967828  0.780479  0.130509  1
  O  O48  1  0.196049  0.297168  0.851443  1
  O  O49  1  0.297168  0.196049  0.351443  1
  O  O50  1  0.364591  0.193475  0.523397  1
  O  O51  1  0.193475  0.364591  0.023397  1
  O  O52  1  0.472552  0.605143  0.086278  1
  O  O53  1  0.605143  0.472552  0.586278  1
  O  O54  1  0.599957  0.689781  0.942972  1
  O  O55  1  0.689781  0.599957  0.442972  1
  O  O56  1  0.738982  0.232924  0.898789  1
  O  O57  1  0.232924  0.738982  0.398789  1
  O  O58  1  0.479058  0.136234  0.895807  1
  O  O59  1  0.136234  0.479058  0.395807  1
  O  O60  1  0.292190  0.599514  0.527074  1
  O  O61  1  0.599514  0.292190  0.027074  1
  O  O62  1  0.048782  0.634501  0.502594  1
  O  O63  1  0.634501  0.048782  0.002594  1
  O  O64  1  0.773122  0.162775  0.375712  1
  O  O65  1  0.162775  0.773122  0.875712  1
  O  O66  1  0.691333  0.136392  0.537249  1
  O  O67  1  0.136392  0.691333  0.037249  1
  O  O68  1  0.530095  0.157850  0.400010  1
  O  O69  1  0.157850  0.530095  0.900010  1
  O  O70  1  0.361131  0.724710  0.963357  1
  O  O71  1  0.724710  0.361131  0.463357  1
  O  O72  1  0.588892  0.212436  0.746049  1
  O  O73  1  0.212436  0.588892  0.246049  1
  O  O74  1  0.186777  0.711706  0.657250  1
  O  O75  1  0.711706  0.186777  0.157250  1
  O  O76  1  0.770418  0.937761  0.452561  1
  O  O77  1  0.937761  0.770418  0.952561  1
  O  O78  1  0.397292  0.480966  0.924440  1
  O  O79  1  0.480966  0.397292  0.424440  1
