# generated using pymatgen
data_Na3TaF8
_symmetry_space_group_name_H-M   'P 1'
_cell_length_a   5.44756956
_cell_length_b   6.47489508
_cell_length_c   10.10070579
_cell_angle_alpha   83.59904630
_cell_angle_beta   74.35579647
_cell_angle_gamma   65.12319639
_symmetry_Int_Tables_number   1
_chemical_formula_structural   Na3TaF8
_chemical_formula_sum   'Na6 Ta2 F16'
_cell_volume   311.24472222
_cell_formula_units_Z   2
loop_
 _symmetry_equiv_pos_site_id
 _symmetry_equiv_pos_as_xyz
  1  'x, y, z'
loop_
 _atom_site_type_symbol
 _atom_site_label
 _atom_site_symmetry_multiplicity
 _atom_site_fract_x
 _atom_site_fract_y
 _atom_site_fract_z
 _atom_site_occupancy
  F  F0  1  0.824799  0.546833  0.285455  1
  F  F1  1  0.157087  0.953167  0.214545  1
  F  F2  1  0.175201  0.453167  0.714545  1
  F  F3  1  0.842913  0.046833  0.785455  1
  F  F4  1  0.313288  0.481987  0.139707  1
  F  F5  1  0.434982  0.018013  0.360293  1
  F  F6  1  0.686712  0.518013  0.860293  1
  F  F7  1  0.565018  0.981987  0.639707  1
  F  F8  1  0.763491  0.577915  0.611183  1
  F  F9  1  0.452588  0.922085  0.888817  1
  F  F10  1  0.236509  0.422085  0.388817  1
  F  F11  1  0.547412  0.077915  0.111183  1
  F  F12  1  0.091327  0.799542  0.583852  1
  F  F13  1  0.974721  0.700458  0.916148  1
  F  F14  1  0.908673  0.200458  0.416148  1
  F  F15  1  0.025279  0.299542  0.083852  1
  Na  Na16  1  0.878111  0.833830  0.397232  1
  Na  Na17  1  0.609172  0.666170  0.102768  1
  Na  Na18  1  0.121889  0.166170  0.602768  1
  Na  Na19  1  0.390828  0.333830  0.897232  1
  Na  Na20  1  0.500000  0.500000  0.500000  1
  Na  Na21  1  0.000000  0.000000  0.000000  1
  Ta  Ta22  1  0.187122  0.250000  0.250000  1
  Ta  Ta23  1  0.812878  0.750000  0.750000  1
