# generated using pymatgen
data_CsVP2S7
_symmetry_space_group_name_H-M   'P 1'
_cell_length_a   6.54141791
_cell_length_b   6.54141791
_cell_length_c   7.17018844
_cell_angle_alpha   94.91613308
_cell_angle_beta   94.91613303
_cell_angle_gamma   96.61384407
_symmetry_Int_Tables_number   1
_chemical_formula_structural   CsVP2S7
_chemical_formula_sum   'Cs1 V1 P2 S7'
_cell_volume   302.23137283
_cell_formula_units_Z   1
loop_
 _symmetry_equiv_pos_site_id
 _symmetry_equiv_pos_as_xyz
  1  'x, y, z'
loop_
 _atom_site_type_symbol
 _atom_site_label
 _atom_site_symmetry_multiplicity
 _atom_site_fract_x
 _atom_site_fract_y
 _atom_site_fract_z
 _atom_site_occupancy
  P  P0  1  0.054874  0.341367  0.575051  1
  P  P1  1  0.658633  0.945126  0.424949  1
  S  S2  1  0.313720  0.363345  0.757120  1
  S  S3  1  0.636655  0.686280  0.242880  1
  S  S4  1  0.156567  0.470917  0.344473  1
  S  S5  1  0.529083  0.843433  0.655527  1
  S  S6  1  0.818045  0.450751  0.700537  1
  S  S7  1  0.549249  0.181955  0.299463  1
  S  S8  1  0.987938  0.012062  0.500000  1
  V  V9  1  0.501530  0.498470  0.500000  1
  Cs  Cs10  1  0.105887  0.894113  0.000000  1
