# generated using pymatgen
data_SrTb2O4
_symmetry_space_group_name_H-M   'P 1'
_cell_length_a   3.45257079
_cell_length_b   10.19995929
_cell_length_c   12.06163066
_cell_angle_alpha   90.00000000
_cell_angle_beta   90.00000000
_cell_angle_gamma   90.00000000
_symmetry_Int_Tables_number   1
_chemical_formula_structural   SrTb2O4
_chemical_formula_sum   'Sr4 Tb8 O16'
_cell_volume   424.76336839
_cell_formula_units_Z   4
loop_
 _symmetry_equiv_pos_site_id
 _symmetry_equiv_pos_as_xyz
  1  'x, y, z'
loop_
 _atom_site_type_symbol
 _atom_site_label
 _atom_site_symmetry_multiplicity
 _atom_site_fract_x
 _atom_site_fract_y
 _atom_site_fract_z
 _atom_site_occupancy
  O  O0  1  0.250000  0.074675  0.077642  1
  O  O1  1  0.750000  0.925325  0.922358  1
  O  O2  1  0.250000  0.574675  0.422358  1
  O  O3  1  0.750000  0.425325  0.577642  1
  O  O4  1  0.250000  0.985326  0.716212  1
  O  O5  1  0.750000  0.014674  0.283788  1
  O  O6  1  0.250000  0.485326  0.783788  1
  O  O7  1  0.750000  0.514674  0.216212  1
  O  O8  1  0.250000  0.374031  0.020369  1
  O  O9  1  0.750000  0.625969  0.979631  1
  O  O10  1  0.250000  0.874031  0.479631  1
  O  O11  1  0.750000  0.125969  0.520369  1
  O  O12  1  0.750000  0.211440  0.824308  1
  O  O13  1  0.250000  0.788560  0.175692  1
  O  O14  1  0.750000  0.711440  0.675692  1
  O  O15  1  0.250000  0.288560  0.324308  1
  Sr  Sr16  1  0.750000  0.752884  0.351273  1
  Sr  Sr17  1  0.250000  0.247116  0.648727  1
  Sr  Sr18  1  0.750000  0.252884  0.148727  1
  Sr  Sr19  1  0.250000  0.747116  0.851273  1
  Tb  Tb20  1  0.250000  0.076942  0.388906  1
  Tb  Tb21  1  0.750000  0.923058  0.611094  1
  Tb  Tb22  1  0.250000  0.576942  0.111094  1
  Tb  Tb23  1  0.750000  0.423058  0.888906  1
  Tb  Tb24  1  0.750000  0.422528  0.387862  1
  Tb  Tb25  1  0.250000  0.577472  0.612139  1
  Tb  Tb26  1  0.750000  0.922528  0.112139  1
  Tb  Tb27  1  0.250000  0.077472  0.887861  1
