# generated using pymatgen
data_MoW3(SeS)4
_symmetry_space_group_name_H-M   'P 1'
_cell_length_a   3.25338463
_cell_length_b   3.25337692
_cell_length_c   36.88149400
_cell_angle_alpha   89.99971998
_cell_angle_beta   90.00000000
_cell_angle_gamma   120.00007827
_symmetry_Int_Tables_number   1
_chemical_formula_structural   MoW3(SeS)4
_chemical_formula_sum   'Mo1 W3 Se4 S4'
_cell_volume   338.07152024
_cell_formula_units_Z   1
loop_
 _symmetry_equiv_pos_site_id
 _symmetry_equiv_pos_as_xyz
  1  'x, y, z'
loop_
 _atom_site_type_symbol
 _atom_site_label
 _atom_site_symmetry_multiplicity
 _atom_site_fract_x
 _atom_site_fract_y
 _atom_site_fract_z
 _atom_site_occupancy
  Mo  Mo0  1  0.666693  0.333386  0.281790  1
  W  W1  1  0.333311  0.666621  0.093913  1
  W  W2  1  0.333310  0.666620  0.469646  1
  W  W3  1  0.666689  0.333378  0.657545  1
  Se  Se4  1  0.333353  0.666707  0.327810  1
  Se  Se5  1  0.333352  0.666705  0.703888  1
  Se  Se6  1  0.333358  0.666716  0.235776  1
  Se  Se7  1  0.333351  0.666703  0.611226  1
  S  S8  1  0.666646  0.333292  0.051885  1
  S  S9  1  0.666646  0.333291  0.427655  1
  S  S10  1  0.666647  0.333292  0.135936  1
  S  S11  1  0.666645  0.333289  0.511678  1
