# generated using pymatgen
data_ReC2
_symmetry_space_group_name_H-M   'P 1'
_cell_length_a   2.58339003
_cell_length_b   2.58326426
_cell_length_c   10.06182368
_cell_angle_alpha   90.00000000
_cell_angle_beta   90.00000000
_cell_angle_gamma   120.00161071
_symmetry_Int_Tables_number   1
_chemical_formula_structural   ReC2
_chemical_formula_sum   'Re2 C4'
_cell_volume   58.15125600
_cell_formula_units_Z   2
loop_
 _symmetry_equiv_pos_site_id
 _symmetry_equiv_pos_as_xyz
  1  'x, y, z'
loop_
 _atom_site_type_symbol
 _atom_site_label
 _atom_site_symmetry_multiplicity
 _atom_site_fract_x
 _atom_site_fract_y
 _atom_site_fract_z
 _atom_site_occupancy
  Re  Re0  1  0.333518  0.667036  0.250000  1
  Re  Re1  1  0.666482  0.332964  0.750000  1
  C  C2  1  0.333457  0.666915  0.014743  1
  C  C3  1  0.666543  0.333085  0.985257  1
  C  C4  1  0.666543  0.333085  0.514743  1
  C  C5  1  0.333457  0.666915  0.485257  1
