# generated using pymatgen
data_Ho2Cu(GeO3)4
_symmetry_space_group_name_H-M   'P 1'
_cell_length_a   4.99271276
_cell_length_b   7.25955038
_cell_length_c   7.98450554
_cell_angle_alpha   66.39646900
_cell_angle_beta   86.94265336
_cell_angle_gamma   76.85421874
_symmetry_Int_Tables_number   1
_chemical_formula_structural   Ho2Cu(GeO3)4
_chemical_formula_sum   'Ho2 Cu1 Ge4 O12'
_cell_volume   258.00543523
_cell_formula_units_Z   1
loop_
 _symmetry_equiv_pos_site_id
 _symmetry_equiv_pos_as_xyz
  1  'x, y, z'
loop_
 _atom_site_type_symbol
 _atom_site_label
 _atom_site_symmetry_multiplicity
 _atom_site_fract_x
 _atom_site_fract_y
 _atom_site_fract_z
 _atom_site_occupancy
  O  O0  1  0.775153  0.933317  0.610818  1
  O  O1  1  0.224848  0.066683  0.389182  1
  O  O2  1  0.794280  0.575186  0.389166  1
  O  O3  1  0.205720  0.424814  0.610834  1
  O  O4  1  0.415553  0.657981  0.705412  1
  O  O5  1  0.584447  0.342019  0.294588  1
  O  O6  1  0.731958  0.687738  0.987734  1
  O  O7  1  0.742818  0.223272  0.805713  1
  O  O8  1  0.257182  0.776728  0.194287  1
  O  O9  1  0.752313  0.991941  0.203732  1
  O  O10  1  0.247687  0.008059  0.796268  1
  O  O11  1  0.268042  0.312262  0.012266  1
  Cu  Cu12  1  0.000000  0.000000  0.000000  1
  Ge  Ge13  1  0.539655  0.832434  0.774505  1
  Ge  Ge14  1  0.460345  0.167566  0.225495  1
  Ge  Ge15  1  0.582298  0.616351  0.204611  1
  Ge  Ge16  1  0.417702  0.383649  0.795389  1
  Ho  Ho17  1  0.045807  0.769613  0.451179  1
  Ho  Ho18  1  0.954193  0.230387  0.548821  1
