# generated using pymatgen
data_UCd2O5
_symmetry_space_group_name_H-M   'P 1'
_cell_length_a   5.38113896
_cell_length_b   6.36848645
_cell_length_c   8.21624390
_cell_angle_alpha   107.65118695
_cell_angle_beta   90.00000000
_cell_angle_gamma   114.99137197
_symmetry_Int_Tables_number   1
_chemical_formula_structural   UCd2O5
_chemical_formula_sum   'U2 Cd4 O10'
_cell_volume   240.50053308
_cell_formula_units_Z   2
loop_
 _symmetry_equiv_pos_site_id
 _symmetry_equiv_pos_as_xyz
  1  'x, y, z'
loop_
 _atom_site_type_symbol
 _atom_site_label
 _atom_site_symmetry_multiplicity
 _atom_site_fract_x
 _atom_site_fract_y
 _atom_site_fract_z
 _atom_site_occupancy
  U  U0  1  -0.000000  -0.000000  -0.000000  1
  U  U1  1  0.000001  -0.000000  0.499999  1
  Cd  Cd2  1  0.296243  0.667707  0.182338  1
  Cd  Cd3  1  0.628536  0.332292  0.317662  1
  Cd  Cd4  1  0.371465  0.667709  0.682338  1
  Cd  Cd5  1  0.703757  0.332292  0.817663  1
  O  O6  1  0.367316  0.225450  0.979130  1
  O  O7  1  0.632683  0.774549  0.020869  1
  O  O8  1  0.928680  0.310913  0.125409  1
  O  O9  1  0.193880  -0.000000  0.250000  1
  O  O10  1  0.617768  0.689087  0.374592  1
  O  O11  1  0.858135  0.225452  0.479132  1
  O  O12  1  0.141867  0.774549  0.520870  1
  O  O13  1  0.382233  0.310912  0.625408  1
  O  O14  1  0.806117  0.999999  0.749999  1
  O  O15  1  0.071319  0.689086  0.874591  1
