# generated using pymatgen
data_Ca3UO6
_symmetry_space_group_name_H-M   'P 1'
_cell_length_a   6.78718114
_cell_length_b   6.78718114
_cell_length_c   6.78718114
_cell_angle_alpha   91.22866484
_cell_angle_beta   91.22866487
_cell_angle_gamma   91.22866487
_symmetry_Int_Tables_number   1
_chemical_formula_structural   Ca3UO6
_chemical_formula_sum   'Ca6 U2 O12'
_cell_volume   312.43832640
_cell_formula_units_Z   2
loop_
 _symmetry_equiv_pos_site_id
 _symmetry_equiv_pos_as_xyz
  1  'x, y, z'
loop_
 _atom_site_type_symbol
 _atom_site_label
 _atom_site_symmetry_multiplicity
 _atom_site_fract_x
 _atom_site_fract_y
 _atom_site_fract_z
 _atom_site_occupancy
  O  O0  1  0.706418  0.936391  0.073697  1
  O  O1  1  0.936391  0.073697  0.706418  1
  O  O2  1  0.073697  0.706418  0.936391  1
  O  O3  1  0.293582  0.063609  0.926303  1
  O  O4  1  0.063609  0.926303  0.293582  1
  O  O5  1  0.926303  0.293582  0.063609  1
  O  O6  1  0.794094  0.586852  0.458442  1
  O  O7  1  0.586852  0.458442  0.794094  1
  O  O8  1  0.541558  0.205906  0.413148  1
  O  O9  1  0.413148  0.541558  0.205906  1
  O  O10  1  0.205906  0.413148  0.541558  1
  O  O11  1  0.458442  0.794094  0.586852  1
  Ca  Ca12  1  0.060216  0.555806  0.250416  1
  Ca  Ca13  1  0.250416  0.060216  0.555806  1
  Ca  Ca14  1  0.444194  0.749584  0.939784  1
  Ca  Ca15  1  0.749584  0.939784  0.444194  1
  Ca  Ca16  1  0.939784  0.444194  0.749584  1
  Ca  Ca17  1  0.555806  0.250416  0.060216  1
  U  U18  1  0.000000  0.000000  0.000000  1
  U  U19  1  0.500000  0.500000  0.500000  1
