# generated using pymatgen
data_TbNbO4
_symmetry_space_group_name_H-M   'P 1'
_cell_length_a   5.15704734
_cell_length_b   5.38952941
_cell_length_c   6.61403471
_cell_angle_alpha   111.94767850
_cell_angle_beta   110.77145334
_cell_angle_gamma   94.95790644
_symmetry_Int_Tables_number   1
_chemical_formula_structural   TbNbO4
_chemical_formula_sum   'Tb2 Nb2 O8'
_cell_volume   154.25952846
_cell_formula_units_Z   2
loop_
 _symmetry_equiv_pos_site_id
 _symmetry_equiv_pos_as_xyz
  1  'x, y, z'
loop_
 _atom_site_type_symbol
 _atom_site_label
 _atom_site_symmetry_multiplicity
 _atom_site_fract_x
 _atom_site_fract_y
 _atom_site_fract_z
 _atom_site_occupancy
  O  O0  1  0.290411  0.131108  0.079510  1
  O  O1  1  0.789078  0.448383  0.079480  1
  O  O2  1  0.709588  0.868893  0.920489  1
  O  O3  1  0.210921  0.551616  0.920520  1
  O  O4  1  0.505223  0.715558  0.436852  1
  O  O5  1  0.931724  0.221394  0.436892  1
  O  O6  1  0.068275  0.778606  0.563108  1
  O  O7  1  0.494776  0.284441  0.563147  1
  Nb  Nb8  1  0.354203  0.604203  0.708382  1
  Nb  Nb9  1  0.645796  0.395796  0.291617  1
  Tb  Tb10  1  0.879631  0.129643  0.759270  1
  Tb  Tb11  1  0.120369  0.870357  0.240730  1
