# generated using pymatgen
data_Er2Te3
_symmetry_space_group_name_H-M   'P 1'
_cell_length_a   7.51274555
_cell_length_b   7.51274554
_cell_length_c   13.68955508
_cell_angle_alpha   100.58576235
_cell_angle_beta   100.58576234
_cell_angle_gamma   109.29950166
_symmetry_Int_Tables_number   1
_chemical_formula_structural   Er2Te3
_chemical_formula_sum   'Er8 Te12'
_cell_volume   691.50032175
_cell_formula_units_Z   4
loop_
 _symmetry_equiv_pos_site_id
 _symmetry_equiv_pos_as_xyz
  1  'x, y, z'
loop_
 _atom_site_type_symbol
 _atom_site_label
 _atom_site_symmetry_multiplicity
 _atom_site_fract_x
 _atom_site_fract_y
 _atom_site_fract_z
 _atom_site_occupancy
  Te  Te0  1  0.540731  0.290000  0.084454  1
  Te  Te1  1  0.205546  0.956277  0.415546  1
  Te  Te2  1  0.710000  0.459269  0.415546  1
  Te  Te3  1  0.043723  0.794454  0.084454  1
  Te  Te4  1  0.459269  0.710000  0.915546  1
  Te  Te5  1  0.794454  0.043723  0.584454  1
  Te  Te6  1  0.290000  0.540731  0.584454  1
  Te  Te7  1  0.956277  0.205546  0.915546  1
  Te  Te8  1  0.623596  0.873596  0.250000  1
  Te  Te9  1  0.126404  0.376404  0.250000  1
  Te  Te10  1  0.376404  0.126404  0.750000  1
  Te  Te11  1  0.873596  0.623596  0.750000  1
  Er  Er12  1  0.375469  0.125469  0.250939  1
  Er  Er13  1  0.874531  0.624531  0.249061  1
  Er  Er14  1  0.624531  0.874531  0.749061  1
  Er  Er15  1  0.125469  0.375469  0.750939  1
  Er  Er16  1  0.042319  0.792319  0.584639  1
  Er  Er17  1  0.207681  0.957681  0.915361  1
  Er  Er18  1  0.957681  0.207681  0.415361  1
  Er  Er19  1  0.792319  0.042319  0.084639  1
