# generated using pymatgen
data_TeMoWSe2S
_symmetry_space_group_name_H-M   'P 1'
_cell_length_a   3.34166329
_cell_length_b   3.34167820
_cell_length_c   38.03790762
_cell_angle_alpha   89.99965692
_cell_angle_beta   90.00000000
_cell_angle_gamma   119.99985230
_symmetry_Int_Tables_number   1
_chemical_formula_structural   TeMoWSe2S
_chemical_formula_sum   'Te2 Mo2 W2 Se4 S2'
_cell_volume   367.85376945
_cell_formula_units_Z   2
loop_
 _symmetry_equiv_pos_site_id
 _symmetry_equiv_pos_as_xyz
  1  'x, y, z'
loop_
 _atom_site_type_symbol
 _atom_site_label
 _atom_site_symmetry_multiplicity
 _atom_site_fract_x
 _atom_site_fract_y
 _atom_site_fract_z
 _atom_site_occupancy
  Te  Te0  1  0.666646  0.333290  0.044049  1
  Te  Te1  1  0.666645  0.333289  0.143766  1
  Mo  Mo2  1  0.333310  0.666620  0.093889  1
  Mo  Mo3  1  0.666689  0.333379  0.281795  1
  W  W4  1  0.333305  0.666609  0.469651  1
  W  W5  1  0.666691  0.333383  0.657533  1
  Se  Se6  1  0.333354  0.666709  0.325630  1
  Se  Se7  1  0.666647  0.333293  0.425667  1
  Se  Se8  1  0.666639  0.333277  0.513706  1
  Se  Se9  1  0.333360  0.666720  0.237998  1
  S  S10  1  0.333356  0.666714  0.697599  1
  S  S11  1  0.333357  0.666716  0.617464  1
