# generated using pymatgen
data_Rb2TeMo2(PO7)2
_symmetry_space_group_name_H-M   'P 1'
_cell_length_a   9.20181524
_cell_length_b   11.51912432
_cell_length_c   12.69375666
_cell_angle_alpha   90.00000000
_cell_angle_beta   90.00000000
_cell_angle_gamma   90.00000000
_symmetry_Int_Tables_number   1
_chemical_formula_structural   Rb2TeMo2(PO7)2
_chemical_formula_sum   'Rb8 Te4 Mo8 P8 O56'
_cell_volume   1345.49826784
_cell_formula_units_Z   4
loop_
 _symmetry_equiv_pos_site_id
 _symmetry_equiv_pos_as_xyz
  1  'x, y, z'
loop_
 _atom_site_type_symbol
 _atom_site_label
 _atom_site_symmetry_multiplicity
 _atom_site_fract_x
 _atom_site_fract_y
 _atom_site_fract_z
 _atom_site_occupancy
  O  O0  1  0.643539  0.132466  0.368172  1
  O  O1  1  0.643539  0.367534  0.631828  1
  O  O2  1  0.856462  0.632466  0.131828  1
  O  O3  1  0.856462  0.867533  0.868172  1
  O  O4  1  0.356461  0.867533  0.631828  1
  O  O5  1  0.356461  0.632466  0.368172  1
  O  O6  1  0.143539  0.367534  0.868172  1
  O  O7  1  0.143539  0.132466  0.131828  1
  O  O8  1  0.521013  0.451617  0.363981  1
  O  O9  1  0.521013  0.048383  0.636018  1
  O  O10  1  0.978987  0.951617  0.136018  1
  O  O11  1  0.978987  0.548382  0.863981  1
  O  O12  1  0.478986  0.548382  0.636018  1
  O  O13  1  0.478986  0.951617  0.363981  1
  O  O14  1  0.021013  0.048383  0.863981  1
  O  O15  1  0.021013  0.451617  0.136018  1
  O  O16  1  0.712243  0.553509  0.533611  1
  O  O17  1  0.712243  0.946492  0.466389  1
  O  O18  1  0.787757  0.053508  0.966389  1
  O  O19  1  0.787757  0.446492  0.033611  1
  O  O20  1  0.311755  0.346395  0.660619  1
  O  O21  1  0.287757  0.053508  0.533611  1
  O  O22  1  0.212242  0.946492  0.033611  1
  O  O23  1  0.212242  0.553509  0.966389  1
  O  O24  1  0.688246  0.653605  0.339380  1
  O  O25  1  0.688246  0.846395  0.660619  1
  O  O26  1  0.811755  0.153605  0.160620  1
  O  O27  1  0.811755  0.346395  0.839381  1
  O  O28  1  0.265623  0.343234  0.072000  1
  O  O29  1  0.265623  0.156767  0.928000  1
  O  O30  1  0.234377  0.843233  0.428000  1
  O  O31  1  0.234377  0.656766  0.572000  1
  O  O32  1  0.734377  0.656766  0.928000  1
  O  O33  1  0.734377  0.843233  0.072000  1
  O  O34  1  0.765623  0.156767  0.572000  1
  O  O35  1  0.765623  0.343234  0.428000  1
  O  O36  1  0.276613  0.452003  0.270360  1
  O  O37  1  0.276613  0.047998  0.729639  1
  O  O38  1  0.223387  0.952002  0.229640  1
  O  O39  1  0.223387  0.547998  0.770360  1
  O  O40  1  0.723387  0.547998  0.729639  1
  O  O41  1  0.723387  0.952002  0.270360  1
  O  O42  1  0.776613  0.047998  0.770360  1
  O  O43  1  0.776613  0.452003  0.229640  1
  O  O44  1  0.439467  0.543571  0.110936  1
  O  O45  1  0.439467  0.956429  0.889064  1
  O  O46  1  0.060533  0.043571  0.389064  1
  O  O47  1  0.060533  0.456429  0.610936  1
  O  O48  1  0.560534  0.456429  0.889064  1
  O  O49  1  0.560534  0.043571  0.110936  1
  O  O50  1  0.939467  0.956429  0.610936  1
  O  O51  1  0.939467  0.543571  0.389064  1
  O  O52  1  0.188245  0.653605  0.160620  1
  O  O53  1  0.188245  0.846395  0.839381  1
  O  O54  1  0.311755  0.153605  0.339380  1
  O  O55  1  0.287757  0.446492  0.466389  1
  P  P56  1  0.635653  0.997660  0.367613  1
  P  P57  1  0.635653  0.502340  0.632387  1
  P  P58  1  0.864346  0.497660  0.132388  1
  P  P59  1  0.864346  0.002339  0.867613  1
  P  P60  1  0.364347  0.002339  0.632387  1
  P  P61  1  0.364347  0.497660  0.367613  1
  P  P62  1  0.135653  0.502340  0.867613  1
  P  P63  1  0.135653  0.997660  0.132388  1
  Rb  Rb64  1  0.031912  0.216891  0.683914  1
  Rb  Rb65  1  0.468088  0.783109  0.183914  1
  Rb  Rb66  1  0.468088  0.716891  0.816086  1
  Rb  Rb67  1  0.968088  0.716891  0.683914  1
  Rb  Rb68  1  0.968088  0.783109  0.316086  1
  Rb  Rb69  1  0.531912  0.216891  0.816086  1
  Rb  Rb70  1  0.531912  0.283109  0.183914  1
  Rb  Rb71  1  0.031912  0.283109  0.316086  1
  Mo  Mo72  1  0.253791  0.981209  0.879917  1
  Mo  Mo73  1  0.753792  0.518791  0.379917  1
  Mo  Mo74  1  0.753792  0.981209  0.620083  1
  Mo  Mo75  1  0.746209  0.018791  0.120083  1
  Mo  Mo76  1  0.253791  0.518791  0.120083  1
  Mo  Mo77  1  0.246208  0.018791  0.379917  1
  Mo  Mo78  1  0.746209  0.481209  0.879917  1
  Mo  Mo79  1  0.246208  0.481209  0.620083  1
  Te  Te80  1  0.128923  0.250000  0.000000  1
  Te  Te81  1  0.371076  0.750000  0.500000  1
  Te  Te82  1  0.871077  0.750000  0.000000  1
  Te  Te83  1  0.628924  0.250000  0.500000  1
