# generated using pymatgen
data_Te2Mo3W(Se2S)2
_symmetry_space_group_name_H-M   'P 1'
_cell_length_a   3.34440041
_cell_length_b   3.34450692
_cell_length_c   38.09317390
_cell_angle_alpha   89.99989446
_cell_angle_beta   90.00000000
_cell_angle_gamma   119.99894663
_symmetry_Int_Tables_number   1
_chemical_formula_structural   Te2Mo3W(Se2S)2
_chemical_formula_sum   'Te2 Mo3 W1 Se4 S2'
_cell_volume   369.00543912
_cell_formula_units_Z   1
loop_
 _symmetry_equiv_pos_site_id
 _symmetry_equiv_pos_as_xyz
  1  'x, y, z'
loop_
 _atom_site_type_symbol
 _atom_site_label
 _atom_site_symmetry_multiplicity
 _atom_site_fract_x
 _atom_site_fract_y
 _atom_site_fract_z
 _atom_site_occupancy
  Te  Te0  1  0.333355  0.666710  0.707351  1
  Te  Te1  1  0.333355  0.666711  0.607780  1
  Mo  Mo2  1  0.333294  0.666588  0.093924  1
  Mo  Mo3  1  0.333313  0.666625  0.469628  1
  Mo  Mo4  1  0.666686  0.333372  0.657597  1
  W  W5  1  0.666686  0.333371  0.281787  1
  Se  Se6  1  0.333346  0.666694  0.325804  1
  Se  Se7  1  0.666650  0.333300  0.425833  1
  Se  Se8  1  0.666650  0.333299  0.513432  1
  Se  Se9  1  0.333347  0.666695  0.237770  1
  S  S10  1  0.666658  0.333315  0.054120  1
  S  S11  1  0.666661  0.333320  0.133723  1
