# generated using pymatgen
data_MoW3(SeS)4
_symmetry_space_group_name_H-M   'P 1'
_cell_length_a   3.25709280
_cell_length_b   3.25707903
_cell_length_c   36.94139768
_cell_angle_alpha   90.00029772
_cell_angle_beta   90.00000104
_cell_angle_gamma   120.00014057
_symmetry_Int_Tables_number   1
_chemical_formula_structural   MoW3(SeS)4
_chemical_formula_sum   'Mo1 W3 Se4 S4'
_cell_volume   339.39213119
_cell_formula_units_Z   1
loop_
 _symmetry_equiv_pos_site_id
 _symmetry_equiv_pos_as_xyz
  1  'x, y, z'
loop_
 _atom_site_type_symbol
 _atom_site_label
 _atom_site_symmetry_multiplicity
 _atom_site_fract_x
 _atom_site_fract_y
 _atom_site_fract_z
 _atom_site_occupancy
  Mo  Mo0  1  0.333312  0.666623  0.093910  1
  W  W1  1  0.333311  0.666621  0.469719  1
  W  W2  1  0.666684  0.333370  0.281758  1
  W  W3  1  0.666690  0.333380  0.657566  1
  Se  Se4  1  0.333347  0.666694  0.327972  1
  Se  Se5  1  0.666650  0.333300  0.423467  1
  Se  Se6  1  0.666653  0.333306  0.515911  1
  Se  Se7  1  0.333344  0.666689  0.235514  1
  S  S8  1  0.333356  0.666710  0.699524  1
  S  S9  1  0.666647  0.333294  0.052157  1
  S  S10  1  0.666650  0.333300  0.135659  1
  S  S11  1  0.333357  0.666712  0.615590  1
