# generated using pymatgen
data_HoGe3
_symmetry_space_group_name_H-M   'P 1'
_cell_length_a   3.94033140
_cell_length_b   4.02916728
_cell_length_c   10.65443591
_cell_angle_alpha   100.89933386
_cell_angle_beta   90.00000000
_cell_angle_gamma   90.00000000
_symmetry_Int_Tables_number   1
_chemical_formula_structural   HoGe3
_chemical_formula_sum   'Ho2 Ge6'
_cell_volume   166.10117679
_cell_formula_units_Z   2
loop_
 _symmetry_equiv_pos_site_id
 _symmetry_equiv_pos_as_xyz
  1  'x, y, z'
loop_
 _atom_site_type_symbol
 _atom_site_label
 _atom_site_symmetry_multiplicity
 _atom_site_fract_x
 _atom_site_fract_y
 _atom_site_fract_z
 _atom_site_occupancy
  Ho  Ho0  1  0.250000  0.917344  0.834688  1
  Ho  Ho1  1  0.750000  0.082656  0.165312  1
  Ge  Ge2  1  0.250000  0.191034  0.382067  1
  Ge  Ge3  1  0.750000  0.808966  0.617933  1
  Ge  Ge4  1  0.250000  0.310605  0.621211  1
  Ge  Ge5  1  0.750000  0.689395  0.378789  1
  Ge  Ge6  1  0.250000  0.539637  0.079273  1
  Ge  Ge7  1  0.750000  0.460363  0.920727  1
