# generated using pymatgen
data_LaGe5
_symmetry_space_group_name_H-M   'P 1'
_cell_length_a   4.02957436
_cell_length_b   6.28558835
_cell_length_c   6.28558835
_cell_angle_alpha   60.83061175
_cell_angle_beta   71.30436992
_cell_angle_gamma   71.30436992
_symmetry_Int_Tables_number   1
_chemical_formula_structural   LaGe5
_chemical_formula_sum   'La1 Ge5'
_cell_volume   129.05367473
_cell_formula_units_Z   1
loop_
 _symmetry_equiv_pos_site_id
 _symmetry_equiv_pos_as_xyz
  1  'x, y, z'
loop_
 _atom_site_type_symbol
 _atom_site_label
 _atom_site_symmetry_multiplicity
 _atom_site_fract_x
 _atom_site_fract_y
 _atom_site_fract_z
 _atom_site_occupancy
  La  La0  1  -0.000000  0.000000  -0.000000  1
  Ge  Ge1  1  0.670682  0.127801  0.530834  1
  Ge  Ge2  1  0.329318  0.872199  0.469166  1
  Ge  Ge3  1  0.670682  0.530834  0.127801  1
  Ge  Ge4  1  0.329318  0.469166  0.872199  1
  Ge  Ge5  1  0.000000  0.500000  0.500000  1
