# generated using pymatgen
data_Te4Mo(WS)2
_symmetry_space_group_name_H-M   'P 1'
_cell_length_a   3.42546440
_cell_length_b   3.42544129
_cell_length_c   31.75964638
_cell_angle_alpha   89.99925560
_cell_angle_beta   90.00000000
_cell_angle_gamma   120.00022322
_symmetry_Int_Tables_number   1
_chemical_formula_structural   Te4Mo(WS)2
_chemical_formula_sum   'Te4 Mo1 W2 S2'
_cell_volume   322.73145745
_cell_formula_units_Z   1
loop_
 _symmetry_equiv_pos_site_id
 _symmetry_equiv_pos_as_xyz
  1  'x, y, z'
loop_
 _atom_site_type_symbol
 _atom_site_label
 _atom_site_symmetry_multiplicity
 _atom_site_fract_x
 _atom_site_fract_y
 _atom_site_fract_z
 _atom_site_occupancy
  Te  Te0  1  0.333345  0.666691  0.405733  1
  Te  Te1  1  0.666653  0.333305  0.519539  1
  Te  Te2  1  0.666649  0.333296  0.637403  1
  Te  Te3  1  0.333357  0.666715  0.287866  1
  Mo  Mo4  1  0.333313  0.666625  0.115655  1
  W  W5  1  0.333317  0.666633  0.578502  1
  W  W6  1  0.666679  0.333358  0.346793  1
  S  S7  1  0.666642  0.333283  0.068538  1
  S  S8  1  0.666647  0.333294  0.162812  1
