# generated using pymatgen
data_Mg2SiO4
_symmetry_space_group_name_H-M   'P 1'
_cell_length_a   2.80045487
_cell_length_b   4.95513975
_cell_length_c   9.47089493
_cell_angle_alpha   90.00000000
_cell_angle_beta   90.00000000
_cell_angle_gamma   106.41429640
_symmetry_Int_Tables_number   1
_chemical_formula_structural   Mg2SiO4
_chemical_formula_sum   'Mg4 Si2 O8'
_cell_volume   126.06785597
_cell_formula_units_Z   2
loop_
 _symmetry_equiv_pos_site_id
 _symmetry_equiv_pos_as_xyz
  1  'x, y, z'
loop_
 _atom_site_type_symbol
 _atom_site_label
 _atom_site_symmetry_multiplicity
 _atom_site_fract_x
 _atom_site_fract_y
 _atom_site_fract_z
 _atom_site_occupancy
  Mg  Mg0  1  0.139685  0.279370  0.853847  1
  Mg  Mg1  1  0.860315  0.720630  0.353847  1
  Mg  Mg2  1  0.607812  0.215624  0.185079  1
  Mg  Mg3  1  0.392188  0.784376  0.685079  1
  Si  Si4  1  0.126532  0.253064  0.499108  1
  Si  Si5  1  0.873468  0.746936  0.999108  1
  O  O6  1  0.494734  0.989468  0.938191  1
  O  O7  1  0.505266  0.010532  0.438191  1
  O  O8  1  0.253256  0.506511  0.045366  1
  O  O9  1  0.746744  0.493489  0.545366  1
  O  O10  1  0.795685  0.591370  0.826679  1
  O  O11  1  0.204315  0.408630  0.326679  1
  O  O12  1  0.045176  0.090351  0.662530  1
  O  O13  1  0.954824  0.909649  0.162530  1
