# generated using pymatgen
data_Rb2MnV2O7
_symmetry_space_group_name_H-M   'P 1'
_cell_length_a   8.76647297
_cell_length_b   8.76647297
_cell_length_c   12.03544410
_cell_angle_alpha   90.00000000
_cell_angle_beta   90.00000000
_cell_angle_gamma   90.00000000
_symmetry_Int_Tables_number   1
_chemical_formula_structural   Rb2MnV2O7
_chemical_formula_sum   'Rb8 Mn4 V8 O28'
_cell_volume   924.93649625
_cell_formula_units_Z   4
loop_
 _symmetry_equiv_pos_site_id
 _symmetry_equiv_pos_as_xyz
  1  'x, y, z'
loop_
 _atom_site_type_symbol
 _atom_site_label
 _atom_site_symmetry_multiplicity
 _atom_site_fract_x
 _atom_site_fract_y
 _atom_site_fract_z
 _atom_site_occupancy
  O  O0  1  0.639588  0.360413  0.856421  1
  O  O1  1  0.360413  0.639588  0.856421  1
  O  O2  1  0.360413  0.639588  0.143579  1
  O  O3  1  0.860413  0.860413  0.356421  1
  O  O4  1  0.139587  0.139587  0.356421  1
  O  O5  1  0.860413  0.860413  0.643579  1
  O  O6  1  0.139587  0.139587  0.643579  1
  O  O7  1  0.639588  0.360413  0.143579  1
  O  O8  1  0.500000  0.500000  0.663781  1
  O  O9  1  0.000000  0.000000  0.163781  1
  O  O10  1  0.000000  0.000000  0.836219  1
  O  O11  1  0.500000  0.500000  0.336219  1
  O  O12  1  0.183661  0.587031  0.336799  1
  O  O13  1  0.816339  0.412969  0.336799  1
  O  O14  1  0.587031  0.183661  0.663201  1
  O  O15  1  0.087031  0.316339  0.836799  1
  O  O16  1  0.912969  0.683661  0.836799  1
  O  O17  1  0.316339  0.087031  0.163201  1
  O  O18  1  0.683661  0.912969  0.163201  1
  O  O19  1  0.412969  0.816339  0.663201  1
  O  O20  1  0.587031  0.183661  0.336799  1
  O  O21  1  0.316339  0.087031  0.836799  1
  O  O22  1  0.683661  0.912969  0.836799  1
  O  O23  1  0.087031  0.316339  0.163201  1
  O  O24  1  0.816339  0.412969  0.663201  1
  O  O25  1  0.412969  0.816339  0.336799  1
  O  O26  1  0.183661  0.587031  0.663201  1
  O  O27  1  0.912969  0.683661  0.163201  1
  V  V28  1  0.638973  0.361027  0.716694  1
  V  V29  1  0.361027  0.638973  0.716694  1
  V  V30  1  0.361027  0.638973  0.283306  1
  V  V31  1  0.861027  0.861027  0.216694  1
  V  V32  1  0.138974  0.138974  0.216694  1
  V  V33  1  0.638973  0.361027  0.283306  1
  V  V34  1  0.138974  0.138974  0.783306  1
  V  V35  1  0.861027  0.861027  0.783306  1
  Mn  Mn36  1  0.000000  0.500000  0.750000  1
  Mn  Mn37  1  0.000000  0.500000  0.250000  1
  Mn  Mn38  1  0.500000  0.000000  0.250000  1
  Mn  Mn39  1  0.500000  0.000000  0.750000  1
  Rb  Rb40  1  0.150841  0.849159  0.500000  1
  Rb  Rb41  1  0.650842  0.650842  0.000000  1
  Rb  Rb42  1  0.349159  0.349159  0.000000  1
  Rb  Rb43  1  0.849159  0.150841  0.500000  1
  Rb  Rb44  1  0.679574  0.679574  0.500000  1
  Rb  Rb45  1  0.820427  0.179573  0.000000  1
  Rb  Rb46  1  0.179573  0.820427  0.000000  1
  Rb  Rb47  1  0.320427  0.320427  0.500000  1
