# generated using pymatgen
data_Sr2FeO3F
_symmetry_space_group_name_H-M   'P 1'
_cell_length_a   5.55761314
_cell_length_b   5.55761314
_cell_length_c   26.48225169
_cell_angle_alpha   90.00000000
_cell_angle_beta   90.00000000
_cell_angle_gamma   90.00000000
_symmetry_Int_Tables_number   1
_chemical_formula_structural   Sr2FeO3F
_chemical_formula_sum   'Sr16 Fe8 O24 F8'
_cell_volume   817.95899788
_cell_formula_units_Z   8
loop_
 _symmetry_equiv_pos_site_id
 _symmetry_equiv_pos_as_xyz
  1  'x, y, z'
loop_
 _atom_site_type_symbol
 _atom_site_label
 _atom_site_symmetry_multiplicity
 _atom_site_fract_x
 _atom_site_fract_y
 _atom_site_fract_z
 _atom_site_occupancy
  O  O0  1  0.000000  0.500000  0.626902  1
  O  O1  1  0.500000  0.000000  0.373099  1
  O  O2  1  0.000000  0.500000  0.873098  1
  O  O3  1  0.500000  0.000000  0.126901  1
  O  O4  1  0.500000  0.000000  0.626902  1
  O  O5  1  0.000000  0.500000  0.373099  1
  O  O6  1  0.500000  0.000000  0.873098  1
  O  O7  1  0.000000  0.500000  0.126901  1
  O  O8  1  0.500000  0.500000  0.626902  1
  O  O9  1  0.500000  0.500000  0.373099  1
  O  O10  1  0.500000  0.500000  0.873098  1
  O  O11  1  0.500000  0.500000  0.126901  1
  O  O12  1  0.000000  0.000000  0.626902  1
  O  O13  1  0.000000  0.000000  0.373099  1
  O  O14  1  0.000000  0.000000  0.873098  1
  O  O15  1  0.000000  0.000000  0.126901  1
  O  O16  1  0.250001  0.250001  0.541072  1
  O  O17  1  0.750001  0.750001  0.541072  1
  O  O18  1  0.750001  0.750001  0.041072  1
  O  O19  1  0.250001  0.250001  0.041072  1
  O  O20  1  0.250001  0.750001  0.458928  1
  O  O21  1  0.750001  0.250001  0.958928  1
  O  O22  1  0.250001  0.750001  0.958928  1
  O  O23  1  0.750001  0.250001  0.458928  1
  F  F24  1  0.250001  0.250001  0.717328  1
  F  F25  1  0.750001  0.750001  0.717328  1
  F  F26  1  0.750001  0.750001  0.217328  1
  F  F27  1  0.750001  0.250001  0.282672  1
  F  F28  1  0.250001  0.750001  0.282672  1
  F  F29  1  0.750001  0.250001  0.782672  1
  F  F30  1  0.250001  0.750001  0.782672  1
  F  F31  1  0.250001  0.250001  0.217328  1
  Fe  Fe32  1  0.250001  0.250001  0.613965  1
  Fe  Fe33  1  0.750001  0.750001  0.613965  1
  Fe  Fe34  1  0.750001  0.750001  0.113965  1
  Fe  Fe35  1  0.750001  0.250001  0.386035  1
  Fe  Fe36  1  0.250001  0.750001  0.386035  1
  Fe  Fe37  1  0.750001  0.250001  0.886035  1
  Fe  Fe38  1  0.250001  0.750001  0.886035  1
  Fe  Fe39  1  0.250001  0.250001  0.113965  1
  Sr  Sr40  1  0.750001  0.250001  0.552182  1
  Sr  Sr41  1  0.250001  0.750001  0.552182  1
  Sr  Sr42  1  0.750001  0.250001  0.052182  1
  Sr  Sr43  1  0.750001  0.750001  0.447818  1
  Sr  Sr44  1  0.250001  0.250001  0.447818  1
  Sr  Sr45  1  0.250001  0.250001  0.947818  1
  Sr  Sr46  1  0.750001  0.750001  0.947818  1
  Sr  Sr47  1  0.250001  0.750001  0.052182  1
  Sr  Sr48  1  0.250001  0.750001  0.188074  1
  Sr  Sr49  1  0.750001  0.750001  0.811927  1
  Sr  Sr50  1  0.250001  0.250001  0.811927  1
  Sr  Sr51  1  0.250001  0.250001  0.311926  1
  Sr  Sr52  1  0.750001  0.750001  0.311926  1
  Sr  Sr53  1  0.750001  0.250001  0.188074  1
  Sr  Sr54  1  0.250001  0.750001  0.688073  1
  Sr  Sr55  1  0.750001  0.250001  0.688073  1
