# generated using pymatgen
data_Pr4Si2Se3O7
_symmetry_space_group_name_H-M   'P 1'
_cell_length_a   11.35350962
_cell_length_b   11.35350962
_cell_length_c   11.35350962
_cell_angle_alpha   99.59358708
_cell_angle_beta   114.62457926
_cell_angle_gamma   114.62457929
_symmetry_Int_Tables_number   1
_chemical_formula_structural   Pr4Si2Se3O7
_chemical_formula_sum   'Pr16 Si8 Se12 O28'
_cell_volume   1102.12446004
_cell_formula_units_Z   4
loop_
 _symmetry_equiv_pos_site_id
 _symmetry_equiv_pos_as_xyz
  1  'x, y, z'
loop_
 _atom_site_type_symbol
 _atom_site_label
 _atom_site_symmetry_multiplicity
 _atom_site_fract_x
 _atom_site_fract_y
 _atom_site_fract_z
 _atom_site_occupancy
  O  O0  1  0.250000  0.389609  0.139609  1
  O  O1  1  0.750000  0.139609  0.389609  1
  O  O2  1  0.750000  0.610391  0.860391  1
  O  O3  1  0.250000  0.860391  0.610391  1
  O  O4  1  0.024963  0.830363  0.355326  1
  O  O5  1  0.475037  0.830363  0.805400  1
  O  O6  1  0.475037  0.644674  0.169637  1
  O  O7  1  0.975037  0.805400  0.830363  1
  O  O8  1  0.524963  0.355326  0.830363  1
  O  O9  1  0.524963  0.169637  0.194600  1
  O  O10  1  0.975037  0.169637  0.644674  1
  O  O11  1  0.024963  0.194600  0.169637  1
  O  O12  1  0.772929  0.923921  0.432138  1
  O  O13  1  0.727071  0.159208  0.150992  1
  O  O14  1  0.727071  0.567862  0.076079  1
  O  O15  1  0.991784  0.150992  0.923921  1
  O  O16  1  0.508216  0.432138  0.159208  1
  O  O17  1  0.508216  0.076079  0.849008  1
  O  O18  1  0.991784  0.840792  0.567862  1
  O  O19  1  0.772929  0.849008  0.840792  1
  O  O20  1  0.227071  0.076079  0.567862  1
  O  O21  1  0.272929  0.840792  0.849008  1
  O  O22  1  0.272929  0.432138  0.923921  1
  O  O23  1  0.008216  0.849008  0.076079  1
  O  O24  1  0.491784  0.567862  0.840792  1
  O  O25  1  0.491784  0.923921  0.150992  1
  O  O26  1  0.008216  0.159208  0.432138  1
  O  O27  1  0.227071  0.150992  0.159208  1
  Si  Si28  1  0.373805  0.906101  0.779906  1
  Si  Si29  1  0.126195  0.906101  0.532296  1
  Si  Si30  1  0.126195  0.220094  0.093899  1
  Si  Si31  1  0.626195  0.532296  0.906101  1
  Si  Si32  1  0.873805  0.779906  0.906101  1
  Si  Si33  1  0.873805  0.093899  0.467704  1
  Si  Si34  1  0.626195  0.093899  0.220094  1
  Si  Si35  1  0.373805  0.467704  0.093899  1
  Se  Se36  1  0.250000  0.125000  0.875000  1
  Se  Se37  1  0.750000  0.875000  0.125000  1
  Se  Se38  1  0.750000  0.375000  0.625000  1
  Se  Se39  1  0.250000  0.625000  0.375000  1
  Se  Se40  1  0.853654  0.500000  0.353654  1
  Se  Se41  1  0.853654  0.353654  0.000000  1
  Se  Se42  1  0.646346  0.646346  0.500000  1
  Se  Se43  1  0.646346  0.000000  0.646346  1
  Se  Se44  1  0.146346  0.500000  0.646346  1
  Se  Se45  1  0.146346  0.646346  0.000000  1
  Se  Se46  1  0.353654  0.353654  0.500000  1
  Se  Se47  1  0.353654  0.000000  0.353654  1
  Pr  Pr48  1  0.094740  0.047370  0.297370  1
  Pr  Pr49  1  0.250000  0.297370  0.702630  1
  Pr  Pr50  1  0.250000  0.952630  0.047370  1
  Pr  Pr51  1  0.405260  0.702630  0.952630  1
  Pr  Pr52  1  0.905260  0.952630  0.702630  1
  Pr  Pr53  1  0.750000  0.702630  0.297370  1
  Pr  Pr54  1  0.750000  0.047370  0.952630  1
  Pr  Pr55  1  0.594740  0.297370  0.047370  1
  Pr  Pr56  1  0.010236  0.665778  0.176014  1
  Pr  Pr57  1  0.489764  0.665778  0.655542  1
  Pr  Pr58  1  0.489764  0.823986  0.334222  1
  Pr  Pr59  1  0.989764  0.655542  0.665778  1
  Pr  Pr60  1  0.510236  0.176014  0.665778  1
  Pr  Pr61  1  0.510236  0.334222  0.344458  1
  Pr  Pr62  1  0.989764  0.334222  0.823986  1
  Pr  Pr63  1  0.010236  0.344458  0.334222  1
