# generated using pymatgen
data_BaTeMo2O9
_symmetry_space_group_name_H-M   'P 1'
_cell_length_a   5.70031436
_cell_length_b   7.58974503
_cell_length_c   9.00303835
_cell_angle_alpha   90.00000000
_cell_angle_beta   90.61827296
_cell_angle_gamma   90.00000000
_symmetry_Int_Tables_number   1
_chemical_formula_structural   BaTeMo2O9
_chemical_formula_sum   'Ba2 Te2 Mo4 O18'
_cell_volume   389.48416704
_cell_formula_units_Z   2
loop_
 _symmetry_equiv_pos_site_id
 _symmetry_equiv_pos_as_xyz
  1  'x, y, z'
loop_
 _atom_site_type_symbol
 _atom_site_label
 _atom_site_symmetry_multiplicity
 _atom_site_fract_x
 _atom_site_fract_y
 _atom_site_fract_z
 _atom_site_occupancy
  O  O0  1  0.289269  0.474844  0.865531  1
  O  O1  1  0.710730  0.974843  0.134469  1
  O  O2  1  0.992380  0.291419  0.675097  1
  O  O3  1  0.007619  0.791418  0.324904  1
  O  O4  1  0.023965  0.650251  0.643044  1
  O  O5  1  0.976036  0.150252  0.356955  1
  O  O6  1  0.765433  0.615798  0.915128  1
  O  O7  1  0.234566  0.115798  0.084872  1
  O  O8  1  0.287403  0.432313  0.440961  1
  O  O9  1  0.712598  0.932313  0.559039  1
  O  O10  1  0.534625  0.735132  0.329682  1
  O  O11  1  0.465374  0.235131  0.670318  1
  O  O12  1  0.542520  0.595602  0.624983  1
  O  O13  1  0.980365  0.925532  0.839435  1
  O  O14  1  0.500789  0.397173  0.196829  1
  O  O15  1  0.499210  0.897174  0.803170  1
  O  O16  1  0.019634  0.425532  0.160565  1
  O  O17  1  0.457480  0.095601  0.375018  1
  Mo  Mo18  1  0.215650  0.451081  0.674397  1
  Mo  Mo19  1  0.784351  0.951081  0.325603  1
  Mo  Mo20  1  0.223211  0.270248  0.231873  1
  Mo  Mo21  1  0.776788  0.770247  0.768127  1
  Te  Te22  1  0.610014  0.514438  0.418174  1
  Te  Te23  1  0.389987  0.014437  0.581827  1
  Ba  Ba24  1  0.722052  0.246213  0.934312  1
  Ba  Ba25  1  0.277947  0.746212  0.065688  1
