# generated using pymatgen
data_Tb2Mo2C3
_symmetry_space_group_name_H-M   'P 1'
_cell_length_a   3.36125485
_cell_length_b   5.75162486
_cell_length_c   6.15875505
_cell_angle_alpha   112.04041224
_cell_angle_beta   105.83597050
_cell_angle_gamma   90.00000000
_symmetry_Int_Tables_number   1
_chemical_formula_structural   Tb2Mo2C3
_chemical_formula_sum   'Tb2 Mo2 C3'
_cell_volume   105.47281984
_cell_formula_units_Z   1
loop_
 _symmetry_equiv_pos_site_id
 _symmetry_equiv_pos_as_xyz
  1  'x, y, z'
loop_
 _atom_site_type_symbol
 _atom_site_label
 _atom_site_symmetry_multiplicity
 _atom_site_fract_x
 _atom_site_fract_y
 _atom_site_fract_z
 _atom_site_occupancy
  Tb  Tb0  1  0.390350  0.177346  0.780701  1
  Tb  Tb1  1  0.609650  0.822654  0.219299  1
  Mo  Mo2  1  0.157817  0.325087  0.315634  1
  Mo  Mo3  1  0.842183  0.674913  0.684366  1
  C  C4  1  0.248839  0.732329  0.497678  1
  C  C5  1  0.751161  0.267671  0.502322  1
  C  C6  1  0.000000  0.000000  0.000000  1
