# generated using pymatgen
data_CeAlPt
_symmetry_space_group_name_H-M   'P 1'
_cell_length_a   4.38392117
_cell_length_b   7.16065457
_cell_length_c   7.94415677
_cell_angle_alpha   90.00000000
_cell_angle_beta   90.00000000
_cell_angle_gamma   90.00000000
_symmetry_Int_Tables_number   1
_chemical_formula_structural   CeAlPt
_chemical_formula_sum   'Ce4 Al4 Pt4'
_cell_volume   249.38094484
_cell_formula_units_Z   4
loop_
 _symmetry_equiv_pos_site_id
 _symmetry_equiv_pos_as_xyz
  1  'x, y, z'
loop_
 _atom_site_type_symbol
 _atom_site_label
 _atom_site_symmetry_multiplicity
 _atom_site_fract_x
 _atom_site_fract_y
 _atom_site_fract_z
 _atom_site_occupancy
  Ce  Ce0  1  0.750000  0.975147  0.683373  1
  Ce  Ce1  1  0.250000  0.524853  0.183373  1
  Ce  Ce2  1  0.750000  0.475147  0.816627  1
  Ce  Ce3  1  0.250000  0.024853  0.316627  1
  Al  Al4  1  0.750000  0.352585  0.432736  1
  Al  Al5  1  0.250000  0.647415  0.567264  1
  Al  Al6  1  0.250000  0.147415  0.932736  1
  Al  Al7  1  0.750000  0.852585  0.067264  1
  Pt  Pt8  1  0.250000  0.778893  0.890486  1
  Pt  Pt9  1  0.750000  0.721107  0.390486  1
  Pt  Pt10  1  0.750000  0.221107  0.109514  1
  Pt  Pt11  1  0.250000  0.278893  0.609514  1
