# generated using pymatgen
data_RbSn
_symmetry_space_group_name_H-M   'P 1'
_cell_length_a   11.93923288
_cell_length_b   11.93923288
_cell_length_c   12.91045807
_cell_angle_alpha   117.54118608
_cell_angle_beta   117.54118607
_cell_angle_gamma   90.00000001
_symmetry_Int_Tables_number   1
_chemical_formula_structural   RbSn
_chemical_formula_sum   'Rb16 Sn16'
_cell_volume   1392.33461156
_cell_formula_units_Z   16
loop_
 _symmetry_equiv_pos_site_id
 _symmetry_equiv_pos_as_xyz
  1  'x, y, z'
loop_
 _atom_site_type_symbol
 _atom_site_label
 _atom_site_symmetry_multiplicity
 _atom_site_fract_x
 _atom_site_fract_y
 _atom_site_fract_z
 _atom_site_occupancy
  Rb  Rb0  1  0.112167  0.250000  0.500000  1
  Rb  Rb1  1  0.750000  0.112167  0.000000  1
  Rb  Rb2  1  0.250000  0.387833  0.000000  1
  Rb  Rb3  1  0.387833  0.750000  0.500000  1
  Rb  Rb4  1  0.887833  0.750000  0.500000  1
  Rb  Rb5  1  0.250000  0.887833  0.000000  1
  Rb  Rb6  1  0.750000  0.612167  0.000000  1
  Rb  Rb7  1  0.612167  0.250000  0.500000  1
  Rb  Rb8  1  0.502719  0.752719  0.250000  1
  Rb  Rb9  1  0.997281  0.502719  0.750000  1
  Rb  Rb10  1  0.752719  0.747281  0.750000  1
  Rb  Rb11  1  0.747281  0.997281  0.250000  1
  Rb  Rb12  1  0.497281  0.247281  0.750000  1
  Rb  Rb13  1  0.002719  0.497281  0.250000  1
  Rb  Rb14  1  0.247281  0.252719  0.250000  1
  Rb  Rb15  1  0.252719  0.002719  0.750000  1
  Sn  Sn16  1  0.992485  0.070886  0.859197  1
  Sn  Sn17  1  0.288311  0.992485  0.359197  1
  Sn  Sn18  1  0.070886  0.866711  0.359197  1
  Sn  Sn19  1  0.633289  0.429114  0.140803  1
  Sn  Sn20  1  0.507515  0.211689  0.140803  1
  Sn  Sn21  1  0.211689  0.633289  0.640803  1
  Sn  Sn22  1  0.429114  0.507515  0.640803  1
  Sn  Sn23  1  0.866711  0.288311  0.859197  1
  Sn  Sn24  1  0.007515  0.929114  0.140803  1
  Sn  Sn25  1  0.711689  0.007515  0.640803  1
  Sn  Sn26  1  0.929114  0.133289  0.640803  1
  Sn  Sn27  1  0.366711  0.570886  0.859197  1
  Sn  Sn28  1  0.492485  0.788311  0.859197  1
  Sn  Sn29  1  0.788311  0.366711  0.359197  1
  Sn  Sn30  1  0.570886  0.492485  0.359197  1
  Sn  Sn31  1  0.133289  0.711689  0.140803  1
