# generated using pymatgen
data_ErGe2Pt
_symmetry_space_group_name_H-M   'P 1'
_cell_length_a   4.31858502
_cell_length_b   8.75357383
_cell_length_c   9.57634120
_cell_angle_alpha   117.19637559
_cell_angle_beta   103.03122271
_cell_angle_gamma   90.00000003
_symmetry_Int_Tables_number   1
_chemical_formula_structural   ErGe2Pt
_chemical_formula_sum   'Er4 Ge8 Pt4'
_cell_volume   311.47399301
_cell_formula_units_Z   4
loop_
 _symmetry_equiv_pos_site_id
 _symmetry_equiv_pos_as_xyz
  1  'x, y, z'
loop_
 _atom_site_type_symbol
 _atom_site_label
 _atom_site_symmetry_multiplicity
 _atom_site_fract_x
 _atom_site_fract_y
 _atom_site_fract_z
 _atom_site_occupancy
  Ge  Ge0  1  0.201089  0.051232  0.402177  1
  Ge  Ge1  1  0.798911  0.948768  0.597823  1
  Ge  Ge2  1  0.798911  0.649054  0.597823  1
  Ge  Ge3  1  0.201089  0.350946  0.402177  1
  Ge  Ge4  1  0.573789  0.573789  0.147578  1
  Ge  Ge5  1  0.426937  0.926937  0.853875  1
  Ge  Ge6  1  0.573063  0.073063  0.146125  1
  Ge  Ge7  1  0.426211  0.426211  0.852422  1
  Er  Er8  1  0.200430  0.700430  0.400861  1
  Er  Er9  1  0.000000  0.263117  0.000000  1
  Er  Er10  1  0.799570  0.299570  0.599139  1
  Er  Er11  1  0.000000  0.736883  0.000000  1
  Pt  Pt12  1  0.352645  0.603035  0.705291  1
  Pt  Pt13  1  0.647355  0.396965  0.294709  1
  Pt  Pt14  1  0.647355  0.897744  0.294709  1
  Pt  Pt15  1  0.352645  0.102256  0.705291  1
