# generated using pymatgen
data_BaGdAuSe3
_symmetry_space_group_name_H-M   'P 1'
_cell_length_a   4.28030467
_cell_length_b   7.49363264
_cell_length_c   10.84506816
_cell_angle_alpha   90.00000000
_cell_angle_beta   90.00000000
_cell_angle_gamma   106.59448431
_symmetry_Int_Tables_number   1
_chemical_formula_structural   BaGdAuSe3
_chemical_formula_sum   'Ba2 Gd2 Au2 Se6'
_cell_volume   333.36772210
_cell_formula_units_Z   2
loop_
 _symmetry_equiv_pos_site_id
 _symmetry_equiv_pos_as_xyz
  1  'x, y, z'
loop_
 _atom_site_type_symbol
 _atom_site_label
 _atom_site_symmetry_multiplicity
 _atom_site_fract_x
 _atom_site_fract_y
 _atom_site_fract_z
 _atom_site_occupancy
  Se  Se0  1  0.921055  0.842110  0.250000  1
  Se  Se1  1  0.078945  0.157890  0.750000  1
  Se  Se2  1  0.362070  0.724140  0.550903  1
  Se  Se3  1  0.362070  0.724140  0.949097  1
  Se  Se4  1  0.637930  0.275860  0.050903  1
  Se  Se5  1  0.637930  0.275860  0.449097  1
  Ba  Ba6  1  0.247825  0.495651  0.250000  1
  Ba  Ba7  1  0.752175  0.504349  0.750000  1
  Gd  Gd8  1  0.000000  0.000000  0.500000  1
  Gd  Gd9  1  0.000000  0.000000  0.000000  1
  Au  Au10  1  0.464742  0.929484  0.750000  1
  Au  Au11  1  0.535258  0.070516  0.250000  1
