# generated using pymatgen
data_K2Zn(PO3)4
_symmetry_space_group_name_H-M   'P 1'
_cell_length_a   7.82133701
_cell_length_b   8.47653154
_cell_length_c   8.47653154
_cell_angle_alpha   97.08146968
_cell_angle_beta   97.98964963
_cell_angle_gamma   97.98964963
_symmetry_Int_Tables_number   1
_chemical_formula_structural   K2Zn(PO3)4
_chemical_formula_sum   'K4 Zn2 P8 O24'
_cell_volume   545.26095084
_cell_formula_units_Z   2
loop_
 _symmetry_equiv_pos_site_id
 _symmetry_equiv_pos_as_xyz
  1  'x, y, z'
loop_
 _atom_site_type_symbol
 _atom_site_label
 _atom_site_symmetry_multiplicity
 _atom_site_fract_x
 _atom_site_fract_y
 _atom_site_fract_z
 _atom_site_occupancy
  K  K0  1  0.416241  0.242018  0.492912  1
  K  K1  1  0.916241  0.492912  0.242018  1
  K  K2  1  0.591598  0.800069  0.531841  1
  K  K3  1  0.091598  0.531841  0.800069  1
  Zn  Zn4  1  0.757793  0.158258  0.849100  1
  Zn  Zn5  1  0.257793  0.849100  0.158258  1
  P  P6  1  0.668024  0.034688  0.184152  1
  P  P7  1  0.168024  0.184152  0.034688  1
  P  P8  1  0.927425  0.172910  0.496405  1
  P  P9  1  0.427425  0.496405  0.172910  1
  P  P10  1  0.084089  0.867245  0.494603  1
  P  P11  1  0.584089  0.494603  0.867245  1
  P  P12  1  0.320406  0.963770  0.811560  1
  P  P13  1  0.820406  0.811560  0.963770  1
  O  O14  1  0.023025  0.340552  0.510623  1
  O  O15  1  0.523025  0.510623  0.340552  1
  O  O16  1  0.795419  0.130077  0.604128  1
  O  O17  1  0.295419  0.604128  0.130077  1
  O  O18  1  0.836515  0.122443  0.311140  1
  O  O19  1  0.336515  0.311140  0.122443  1
  O  O20  1  0.078838  0.059016  0.507888  1
  O  O21  1  0.578838  0.507888  0.059016  1
  O  O22  1  0.220573  0.832811  0.390564  1
  O  O23  1  0.720573  0.390564  0.832811  1
  O  O24  1  0.907948  0.766543  0.457606  1
  O  O25  1  0.407948  0.457606  0.766543  1
  O  O26  1  0.166690  0.853417  0.678337  1
  O  O27  1  0.666690  0.678337  0.853417  1
  O  O28  1  0.470442  0.025297  0.730664  1
  O  O29  1  0.970442  0.730664  0.025297  1
  O  O30  1  0.345970  0.860063  0.941661  1
  O  O31  1  0.845970  0.941661  0.860063  1
  O  O32  1  0.229349  0.116052  0.868972  1
  O  O33  1  0.729349  0.868972  0.116052  1
  O  O34  1  0.518163  0.988593  0.272199  1
  O  O35  1  0.018163  0.272199  0.988593  1
  O  O36  1  0.649492  0.143773  0.058050  1
  O  O37  1  0.149492  0.058050  0.143773  1
