# generated using pymatgen
data_VAgHgO4
_symmetry_space_group_name_H-M   'P 1'
_cell_length_a   5.58377517
_cell_length_b   5.98797199
_cell_length_c   7.25409111
_cell_angle_alpha   98.01948525
_cell_angle_beta   90.00000000
_cell_angle_gamma   117.79110278
_symmetry_Int_Tables_number   1
_chemical_formula_structural   VAgHgO4
_chemical_formula_sum   'V2 Ag2 Hg2 O8'
_cell_volume   211.88257833
_cell_formula_units_Z   2
loop_
 _symmetry_equiv_pos_site_id
 _symmetry_equiv_pos_as_xyz
  1  'x, y, z'
loop_
 _atom_site_type_symbol
 _atom_site_label
 _atom_site_symmetry_multiplicity
 _atom_site_fract_x
 _atom_site_fract_y
 _atom_site_fract_z
 _atom_site_occupancy
  O  O0  1  0.219973  0.732525  0.974991  1
  O  O1  1  0.487448  0.267475  0.025009  1
  O  O2  1  0.501187  0.237416  0.407760  1
  O  O3  1  0.263771  0.762584  0.592240  1
  O  O4  1  0.085659  0.278223  0.732408  1
  O  O5  1  0.807436  0.721777  0.267592  1
  O  O6  1  0.950718  0.285780  0.211891  1
  O  O7  1  0.664938  0.714220  0.788109  1
  V  V8  1  0.316640  0.626419  0.769948  1
  V  V9  1  0.690221  0.373581  0.230052  1
  Ag  Ag10  1  0.351884  0.723923  0.278542  1
  Ag  Ag11  1  0.627961  0.276077  0.721458  1
  Hg  Hg12  1  0.008892  0.000000  0.000000  1
  Hg  Hg13  1  0.972871  0.000000  0.500000  1
