# generated using pymatgen
data_KNa2Zn3(PO4)3
_symmetry_space_group_name_H-M   'P 1'
_cell_length_a   17.90930334
_cell_length_b   17.90930304
_cell_length_c   8.29936301
_cell_angle_alpha   90.00000000
_cell_angle_beta   90.00000000
_cell_angle_gamma   120.00000056
_symmetry_Int_Tables_number   1
_chemical_formula_structural   KNa2Zn3(PO4)3
_chemical_formula_sum   'K8 Na16 Zn24 P24 O96'
_cell_volume   2305.32822555
_cell_formula_units_Z   8
loop_
 _symmetry_equiv_pos_site_id
 _symmetry_equiv_pos_as_xyz
  1  'x, y, z'
loop_
 _atom_site_type_symbol
 _atom_site_label
 _atom_site_symmetry_multiplicity
 _atom_site_fract_x
 _atom_site_fract_y
 _atom_site_fract_z
 _atom_site_occupancy
  O  O0  1  0.039729  0.257712  0.071775  1
  O  O1  1  0.782017  0.039729  0.571775  1
  O  O2  1  0.257712  0.217983  0.571775  1
  O  O3  1  0.742288  0.782017  0.071775  1
  O  O4  1  0.217983  0.960271  0.071775  1
  O  O5  1  0.960271  0.742288  0.571775  1
  O  O6  1  0.120231  0.574345  0.562127  1
  O  O7  1  0.545886  0.120231  0.062127  1
  O  O8  1  0.574345  0.454114  0.062127  1
  O  O9  1  0.425655  0.545886  0.562127  1
  O  O10  1  0.454114  0.879769  0.562127  1
  O  O11  1  0.879769  0.425655  0.062127  1
  O  O12  1  0.201354  0.056505  0.282075  1
  O  O13  1  0.144849  0.201354  0.782075  1
  O  O14  1  0.056505  0.855151  0.782075  1
  O  O15  1  0.943495  0.144849  0.282075  1
  O  O16  1  0.855151  0.798646  0.282075  1
  O  O17  1  0.798646  0.943495  0.782075  1
  O  O18  1  0.240756  0.284830  0.104106  1
  O  O19  1  0.955926  0.240756  0.604106  1
  O  O20  1  0.284830  0.044074  0.604106  1
  O  O21  1  0.715170  0.955926  0.104106  1
  O  O22  1  0.044074  0.759244  0.104106  1
  O  O23  1  0.759244  0.715170  0.604106  1
  O  O24  1  0.213972  0.455323  0.074315  1
  O  O25  1  0.758648  0.213972  0.574315  1
  O  O26  1  0.455323  0.241352  0.574315  1
  O  O27  1  0.544677  0.758648  0.074315  1
  O  O28  1  0.241352  0.786028  0.074315  1
  O  O29  1  0.786028  0.544677  0.574315  1
  O  O30  1  0.113148  0.201385  0.487147  1
  O  O31  1  0.911763  0.113148  0.987147  1
  O  O32  1  0.201385  0.088237  0.987147  1
  O  O33  1  0.798615  0.911763  0.487147  1
  O  O34  1  0.088237  0.886852  0.487147  1
  O  O35  1  0.886852  0.798615  0.987147  1
  O  O36  1  0.071570  0.451623  0.071436  1
  O  O37  1  0.619947  0.071570  0.571436  1
  O  O38  1  0.451623  0.380053  0.571436  1
  O  O39  1  0.548377  0.619947  0.071436  1
  O  O40  1  0.380053  0.928430  0.071436  1
  O  O41  1  0.928430  0.548377  0.571436  1
  O  O42  1  0.050413  0.622316  0.062453  1
  O  O43  1  0.428097  0.050413  0.562453  1
  O  O44  1  0.622316  0.571903  0.562453  1
  O  O45  1  0.377684  0.428097  0.062453  1
  O  O46  1  0.571903  0.949587  0.062453  1
  O  O47  1  0.949587  0.377684  0.562453  1
  O  O48  1  0.121396  0.074481  0.606747  1
  O  O49  1  0.046915  0.121396  0.106747  1
  O  O50  1  0.074481  0.953085  0.106747  1
  O  O51  1  0.925519  0.046915  0.606747  1
  O  O52  1  0.953085  0.878604  0.606747  1
  O  O53  1  0.878604  0.925519  0.106747  1
  O  O54  1  0.285714  0.546468  0.582299  1
  O  O55  1  0.739246  0.285714  0.082299  1
  O  O56  1  0.546468  0.260754  0.082299  1
  O  O57  1  0.453532  0.739246  0.582299  1
  O  O58  1  0.260754  0.714286  0.582299  1
  O  O59  1  0.714286  0.453532  0.082299  1
  O  O60  1  0.204895  0.585364  0.181982  1
  O  O61  1  0.619531  0.204895  0.681982  1
  O  O62  1  0.585364  0.380469  0.681982  1
  O  O63  1  0.414636  0.619531  0.181982  1
  O  O64  1  0.380469  0.795105  0.181982  1
  O  O65  1  0.795105  0.414636  0.681982  1
  O  O66  1  0.084106  0.385717  0.684429  1
  O  O67  1  0.698389  0.084106  0.184429  1
  O  O68  1  0.385717  0.301611  0.184429  1
  O  O69  1  0.614283  0.698389  0.684429  1
  O  O70  1  0.301611  0.915894  0.684429  1
  O  O71  1  0.915894  0.614283  0.184429  1
  O  O72  1  0.191614  0.555319  0.885153  1
  O  O73  1  0.636295  0.191614  0.385153  1
  O  O74  1  0.555319  0.363705  0.385153  1
  O  O75  1  0.444681  0.636295  0.885153  1
  O  O76  1  0.363705  0.808386  0.885153  1
  O  O77  1  0.808386  0.444681  0.385153  1
  O  O78  1  0.051642  0.350537  0.390479  1
  O  O79  1  0.701105  0.051642  0.890479  1
  O  O80  1  0.350537  0.298895  0.890479  1
  O  O81  1  0.649463  0.701105  0.390479  1
  O  O82  1  0.298895  0.948358  0.390479  1
  O  O83  1  0.948358  0.649463  0.890479  1
  O  O84  1  0.292765  0.413876  0.678897  1
  O  O85  1  0.878888  0.292765  0.178897  1
  O  O86  1  0.413876  0.121112  0.178897  1
  O  O87  1  0.586124  0.878888  0.678897  1
  O  O88  1  0.121112  0.707235  0.678897  1
  O  O89  1  0.707235  0.586124  0.178897  1
  O  O90  1  0.301158  0.445746  0.382413  1
  O  O91  1  0.855412  0.301158  0.882413  1
  O  O92  1  0.445746  0.144588  0.882413  1
  O  O93  1  0.554254  0.855412  0.382413  1
  O  O94  1  0.144588  0.698842  0.382413  1
  O  O95  1  0.698842  0.554254  0.882413  1
  Na  Na96  1  0.322149  0.152831  0.810201  1
  Na  Na97  1  0.169318  0.322149  0.310201  1
  Na  Na98  1  0.152831  0.830682  0.310201  1
  Na  Na99  1  0.847169  0.169318  0.810201  1
  Na  Na100  1  0.830682  0.677851  0.810201  1
  Na  Na101  1  0.677851  0.847169  0.310201  1
  Na  Na102  1  0.157637  0.338508  0.860654  1
  Na  Na103  1  0.819129  0.157637  0.360654  1
  Na  Na104  1  0.338508  0.180871  0.360654  1
  Na  Na105  1  0.661492  0.819129  0.860654  1
  Na  Na106  1  0.180871  0.842363  0.860654  1
  Na  Na107  1  0.842363  0.661492  0.360654  1
  Na  Na108  1  0.333333  0.666667  0.365145  1
  Na  Na109  1  0.666667  0.333333  0.865145  1
  Na  Na110  1  0.333333  0.666667  0.805111  1
  Na  Na111  1  0.666667  0.333333  0.305111  1
  P  P112  1  0.159632  0.173786  0.612634  1
  P  P113  1  0.985846  0.159632  0.112634  1
  P  P114  1  0.173786  0.014154  0.112634  1
  P  P115  1  0.826214  0.985846  0.612634  1
  P  P116  1  0.014154  0.840368  0.612634  1
  P  P117  1  0.840368  0.826214  0.112634  1
  P  P118  1  0.009636  0.338469  0.559471  1
  P  P119  1  0.671168  0.009636  0.059471  1
  P  P120  1  0.338469  0.328832  0.059471  1
  P  P121  1  0.661531  0.671168  0.559471  1
  P  P122  1  0.328832  0.990364  0.559471  1
  P  P123  1  0.990364  0.661531  0.059471  1
  P  P124  1  0.170620  0.511538  0.053724  1
  P  P125  1  0.659082  0.170620  0.553724  1
  P  P126  1  0.511538  0.340918  0.553724  1
  P  P127  1  0.488462  0.659082  0.053724  1
  P  P128  1  0.340918  0.829380  0.053724  1
  P  P129  1  0.829380  0.488462  0.553724  1
  P  P130  1  0.326069  0.487959  0.551772  1
  P  P131  1  0.838110  0.326069  0.051772  1
  P  P132  1  0.487959  0.161890  0.051772  1
  P  P133  1  0.512041  0.838110  0.551772  1
  P  P134  1  0.161890  0.673931  0.551772  1
  P  P135  1  0.673931  0.512041  0.051772  1
  K  K136  1  0.000000  0.000000  0.343611  1
  K  K137  1  0.000000  0.000000  0.843611  1
  K  K138  1  0.999183  0.501930  0.328450  1
  K  K139  1  0.497253  0.999183  0.828450  1
  K  K140  1  0.501930  0.502747  0.828450  1
  K  K141  1  0.498070  0.497253  0.328450  1
  K  K142  1  0.502747  0.000817  0.328450  1
  K  K143  1  0.000817  0.498070  0.828450  1
  Zn  Zn144  1  0.161919  0.172519  0.006886  1
  Zn  Zn145  1  0.989399  0.161919  0.506886  1
  Zn  Zn146  1  0.172519  0.010601  0.506886  1
  Zn  Zn147  1  0.827481  0.989399  0.006886  1
  Zn  Zn148  1  0.010601  0.838081  0.006886  1
  Zn  Zn149  1  0.838081  0.827481  0.506886  1
  Zn  Zn150  1  0.004240  0.335801  0.168143  1
  Zn  Zn151  1  0.668438  0.004240  0.668143  1
  Zn  Zn152  1  0.335801  0.331562  0.668143  1
  Zn  Zn153  1  0.664199  0.668438  0.168143  1
  Zn  Zn154  1  0.331562  0.995760  0.168143  1
  Zn  Zn155  1  0.995760  0.664199  0.668143  1
  Zn  Zn156  1  0.508486  0.339275  0.159908  1
  Zn  Zn157  1  0.169211  0.508486  0.659908  1
  Zn  Zn158  1  0.339275  0.830789  0.659908  1
  Zn  Zn159  1  0.660725  0.169211  0.159908  1
  Zn  Zn160  1  0.830789  0.491514  0.159908  1
  Zn  Zn161  1  0.491514  0.660725  0.659908  1
  Zn  Zn162  1  0.329400  0.495502  0.160535  1
  Zn  Zn163  1  0.833897  0.329400  0.660535  1
  Zn  Zn164  1  0.495502  0.166103  0.660535  1
  Zn  Zn165  1  0.504498  0.833897  0.160535  1
  Zn  Zn166  1  0.166103  0.670600  0.160535  1
  Zn  Zn167  1  0.670600  0.504498  0.660535  1
