# generated using pymatgen
data_Te2MoWSe2
_symmetry_space_group_name_H-M   'P 1'
_cell_length_a   3.43867623
_cell_length_b   3.43866001
_cell_length_c   39.11634169
_cell_angle_alpha   89.99984941
_cell_angle_beta   90.00000000
_cell_angle_gamma   120.00015612
_symmetry_Int_Tables_number   1
_chemical_formula_structural   Te2MoWSe2
_chemical_formula_sum   'Te4 Mo2 W2 Se4'
_cell_volume   400.56103853
_cell_formula_units_Z   2
loop_
 _symmetry_equiv_pos_site_id
 _symmetry_equiv_pos_as_xyz
  1  'x, y, z'
loop_
 _atom_site_type_symbol
 _atom_site_label
 _atom_site_symmetry_multiplicity
 _atom_site_fract_x
 _atom_site_fract_y
 _atom_site_fract_z
 _atom_site_occupancy
  Te  Te0  1  0.666637  0.333273  0.046509  1
  Te  Te1  1  0.666639  0.333277  0.421958  1
  Te  Te2  1  0.666649  0.333297  0.141338  1
  Te  Te3  1  0.666650  0.333300  0.517371  1
  Mo  Mo4  1  0.333310  0.666620  0.093909  1
  Mo  Mo5  1  0.666684  0.333369  0.281774  1
  W  W6  1  0.333311  0.666621  0.469633  1
  W  W7  1  0.666696  0.333392  0.657539  1
  Se  Se8  1  0.333348  0.666696  0.323653  1
  Se  Se9  1  0.333358  0.666718  0.699478  1
  Se  Se10  1  0.333349  0.666700  0.239980  1
  Se  Se11  1  0.333369  0.666739  0.615606  1
