# generated using pymatgen
data_Cs3Y(PO4)2
_symmetry_space_group_name_H-M   'P 1'
_cell_length_a   10.36975948
_cell_length_b   10.53033540
_cell_length_c   10.73144001
_cell_angle_alpha   90.00000000
_cell_angle_beta   107.50133341
_cell_angle_gamma   90.00000000
_symmetry_Int_Tables_number   1
_chemical_formula_structural   Cs3Y(PO4)2
_chemical_formula_sum   'Cs12 Y4 P8 O32'
_cell_volume   1117.59694148
_cell_formula_units_Z   4
loop_
 _symmetry_equiv_pos_site_id
 _symmetry_equiv_pos_as_xyz
  1  'x, y, z'
loop_
 _atom_site_type_symbol
 _atom_site_label
 _atom_site_symmetry_multiplicity
 _atom_site_fract_x
 _atom_site_fract_y
 _atom_site_fract_z
 _atom_site_occupancy
  Cs  Cs0  1  0.989573  0.686945  0.705096  1
  Cs  Cs1  1  0.010427  0.186945  0.294904  1
  Cs  Cs2  1  0.034526  0.537262  0.165193  1
  Cs  Cs3  1  0.965474  0.037262  0.834807  1
  Cs  Cs4  1  0.279005  0.667903  0.519094  1
  Cs  Cs5  1  0.720995  0.167903  0.480906  1
  Cs  Cs6  1  0.522184  0.585828  0.277856  1
  Cs  Cs7  1  0.477816  0.085828  0.722144  1
  Cs  Cs8  1  0.724988  0.748642  0.934508  1
  Cs  Cs9  1  0.275012  0.248642  0.065492  1
  Cs  Cs10  1  0.332038  0.787686  0.955324  1
  Cs  Cs11  1  0.667962  0.287686  0.044676  1
  Y  Y12  1  0.655905  0.477584  0.661084  1
  Y  Y13  1  0.344095  0.977584  0.338916  1
  Y  Y14  1  0.158166  0.333748  0.661302  1
  Y  Y15  1  0.841834  0.833748  0.338698  1
  P  P16  1  0.900615  0.358241  0.847308  1
  P  P17  1  0.099385  0.858241  0.152692  1
  P  P18  1  0.637097  0.821776  0.574602  1
  P  P19  1  0.362903  0.321776  0.425398  1
  P  P20  1  0.132419  0.988825  0.575946  1
  P  P21  1  0.867581  0.488825  0.424054  1
  P  P22  1  0.398158  0.461659  0.843646  1
  P  P23  1  0.601842  0.961659  0.156354  1
  O  O24  1  0.494627  0.877354  0.499679  1
  O  O25  1  0.505373  0.377354  0.500321  1
  O  O26  1  0.707063  0.905343  0.693231  1
  O  O27  1  0.292937  0.405343  0.306769  1
  O  O28  1  0.613232  0.684789  0.621216  1
  O  O29  1  0.386768  0.184789  0.378784  1
  O  O30  1  0.722048  0.813131  0.478841  1
  O  O31  1  0.277952  0.313131  0.521159  1
  O  O32  1  0.988743  0.938924  0.498043  1
  O  O33  1  0.011257  0.438924  0.501957  1
  O  O34  1  0.111498  0.127005  0.621709  1
  O  O35  1  0.888502  0.627005  0.378291  1
  O  O36  1  0.196998  0.904005  0.694866  1
  O  O37  1  0.803002  0.404005  0.305134  1
  O  O38  1  0.221119  0.993046  0.481843  1
  O  O39  1  0.778881  0.493046  0.518157  1
  O  O40  1  0.266395  0.526246  0.752997  1
  O  O41  1  0.733605  0.026246  0.247003  1
  O  O42  1  0.432875  0.504609  0.986576  1
  O  O43  1  0.567125  0.004609  0.013424  1
  O  O44  1  0.520385  0.487784  0.790168  1
  O  O45  1  0.479615  0.987784  0.209832  1
  O  O46  1  0.362540  0.315161  0.829770  1
  O  O47  1  0.637460  0.815161  0.170230  1
  O  O48  1  0.022287  0.338494  0.791732  1
  O  O49  1  0.977713  0.838494  0.208268  1
  O  O50  1  0.857310  0.502265  0.840179  1
  O  O51  1  0.142690  0.002265  0.159821  1
  O  O52  1  0.770450  0.291165  0.754849  1
  O  O53  1  0.229550  0.791165  0.245151  1
  O  O54  1  0.939034  0.305099  0.987337  1
  O  O55  1  0.060966  0.805099  0.012663  1
