# generated using pymatgen
data_K2U3(TeO7)2
_symmetry_space_group_name_H-M   'P 1'
_cell_length_a   7.12017094
_cell_length_b   7.01207676
_cell_length_c   8.14767617
_cell_angle_alpha   102.13105663
_cell_angle_beta   106.40659178
_cell_angle_gamma   97.58858864
_symmetry_Int_Tables_number   1
_chemical_formula_structural   K2U3(TeO7)2
_chemical_formula_sum   'K2 U3 Te2 O14'
_cell_volume   373.48196344
_cell_formula_units_Z   1
loop_
 _symmetry_equiv_pos_site_id
 _symmetry_equiv_pos_as_xyz
  1  'x, y, z'
loop_
 _atom_site_type_symbol
 _atom_site_label
 _atom_site_symmetry_multiplicity
 _atom_site_fract_x
 _atom_site_fract_y
 _atom_site_fract_z
 _atom_site_occupancy
  O  O0  1  0.236114  0.030566  0.945038  1
  O  O1  1  0.763886  0.969434  0.054962  1
  O  O2  1  0.605469  0.387433  0.829030  1
  O  O3  1  0.394531  0.612567  0.170970  1
  O  O4  1  0.051840  0.393978  0.679148  1
  O  O5  1  0.948160  0.606022  0.320852  1
  O  O6  1  0.996083  0.320233  0.023924  1
  O  O7  1  0.179638  0.963364  0.274912  1
  O  O8  1  0.820362  0.036636  0.725088  1
  O  O9  1  0.264299  0.366503  0.374242  1
  O  O10  1  0.735701  0.633497  0.625758  1
  O  O11  1  0.589887  0.183937  0.476241  1
  O  O12  1  0.410113  0.816063  0.523759  1
  O  O13  1  0.003917  0.679767  0.976076  1
  K  K14  1  0.396878  0.703255  0.844340  1
  K  K15  1  0.603122  0.296745  0.155660  1
  Te  Te16  1  0.675555  0.836764  0.508920  1
  Te  Te17  1  0.324445  0.163236  0.491080  1
  U  U18  1  0.834824  0.397907  0.759630  1
  U  U19  1  0.165176  0.602093  0.240370  1
  U  U20  1  0.000000  0.000000  0.000000  1
