# generated using pymatgen
data_Te2MoWSeS
_symmetry_space_group_name_H-M   'P 1'
_cell_length_a   3.39571223
_cell_length_b   3.39572894
_cell_length_c   38.83733462
_cell_angle_alpha   90.00002025
_cell_angle_beta   90.00000000
_cell_angle_gamma   119.99983729
_symmetry_Int_Tables_number   1
_chemical_formula_structural   Te2MoWSeS
_chemical_formula_sum   'Te4 Mo2 W2 Se2 S2'
_cell_volume   387.83290716
_cell_formula_units_Z   2
loop_
 _symmetry_equiv_pos_site_id
 _symmetry_equiv_pos_as_xyz
  1  'x, y, z'
loop_
 _atom_site_type_symbol
 _atom_site_label
 _atom_site_symmetry_multiplicity
 _atom_site_fract_x
 _atom_site_fract_y
 _atom_site_fract_z
 _atom_site_occupancy
  Te  Te0  1  0.333349  0.666699  0.330110  1
  Te  Te1  1  0.333350  0.666702  0.706100  1
  Te  Te2  1  0.333361  0.666723  0.233467  1
  Te  Te3  1  0.333362  0.666724  0.608987  1
  Mo  Mo4  1  0.333313  0.666626  0.469643  1
  Mo  Mo5  1  0.666688  0.333376  0.281761  1
  W  W6  1  0.333309  0.666618  0.093913  1
  W  W7  1  0.666684  0.333368  0.657547  1
  Se  Se8  1  0.666650  0.333298  0.427155  1
  Se  Se9  1  0.666647  0.333294  0.512198  1
  S  S10  1  0.666644  0.333288  0.055113  1
  S  S11  1  0.666643  0.333285  0.132755  1
