# generated using pymatgen
data_Ho5Ni2Sb
_symmetry_space_group_name_H-M   'P 1'
_cell_length_a   7.58245255
_cell_length_b   7.58245255
_cell_length_c   8.56053407
_cell_angle_alpha   116.28731065
_cell_angle_beta   116.28731070
_cell_angle_gamma   89.99999998
_symmetry_Int_Tables_number   1
_chemical_formula_structural   Ho5Ni2Sb
_chemical_formula_sum   'Ho10 Ni4 Sb2'
_cell_volume   383.68494936
_cell_formula_units_Z   2
loop_
 _symmetry_equiv_pos_site_id
 _symmetry_equiv_pos_as_xyz
  1  'x, y, z'
loop_
 _atom_site_type_symbol
 _atom_site_label
 _atom_site_symmetry_multiplicity
 _atom_site_fract_x
 _atom_site_fract_y
 _atom_site_fract_z
 _atom_site_occupancy
  Ni  Ni0  1  0.368750  0.868750  0.000000  1
  Ni  Ni1  1  0.131250  0.368750  0.000000  1
  Ni  Ni2  1  0.631250  0.131250  0.000000  1
  Ni  Ni3  1  0.868750  0.631250  0.000000  1
  Sb  Sb4  1  0.250000  0.250000  0.500000  1
  Sb  Sb5  1  0.750000  0.750000  0.500000  1
  Ho  Ho6  1  0.206186  0.019897  0.726083  1
  Ho  Ho7  1  0.019897  0.519897  0.726083  1
  Ho  Ho8  1  0.706186  0.206186  0.726083  1
  Ho  Ho9  1  0.980103  0.480103  0.273917  1
  Ho  Ho10  1  0.519897  0.706186  0.726083  1
  Ho  Ho11  1  0.793814  0.980103  0.273917  1
  Ho  Ho12  1  0.480103  0.293814  0.273917  1
  Ho  Ho13  1  0.293814  0.793814  0.273917  1
  Ho  Ho14  1  0.500000  0.500000  0.000000  1
  Ho  Ho15  1  0.000000  0.000000  0.000000  1
