# generated using pymatgen
data_BaFe(Si2O5)2
_symmetry_space_group_name_H-M   'P 1'
_cell_length_a   7.63011274
_cell_length_b   7.63011274
_cell_length_c   16.43668390
_cell_angle_alpha   90.00000000
_cell_angle_beta   90.00000000
_cell_angle_gamma   90.00000000
_symmetry_Int_Tables_number   1
_chemical_formula_structural   BaFe(Si2O5)2
_chemical_formula_sum   'Ba4 Fe4 Si16 O40'
_cell_volume   956.92106102
_cell_formula_units_Z   4
loop_
 _symmetry_equiv_pos_site_id
 _symmetry_equiv_pos_as_xyz
  1  'x, y, z'
loop_
 _atom_site_type_symbol
 _atom_site_label
 _atom_site_symmetry_multiplicity
 _atom_site_fract_x
 _atom_site_fract_y
 _atom_site_fract_z
 _atom_site_occupancy
  O  O0  1  0.022003  0.385664  0.591322  1
  O  O1  1  0.477997  0.114336  0.591322  1
  O  O2  1  0.885664  0.522003  0.908678  1
  O  O3  1  0.385664  0.477997  0.591322  1
  O  O4  1  0.114336  0.022003  0.591322  1
  O  O5  1  0.977997  0.885664  0.908678  1
  O  O6  1  0.522003  0.614336  0.908678  1
  O  O7  1  0.614336  0.977997  0.908678  1
  O  O8  1  0.977997  0.614336  0.408678  1
  O  O9  1  0.522003  0.885664  0.408678  1
  O  O10  1  0.114336  0.477997  0.091322  1
  O  O11  1  0.614336  0.522003  0.408678  1
  O  O12  1  0.885664  0.977997  0.408678  1
  O  O13  1  0.022003  0.114336  0.091322  1
  O  O14  1  0.477997  0.385664  0.091322  1
  O  O15  1  0.003828  0.280425  0.362305  1
  O  O16  1  0.385664  0.022003  0.091322  1
  O  O17  1  0.503828  0.780425  0.637695  1
  O  O18  1  0.219575  0.496172  0.862305  1
  O  O19  1  0.719575  0.503828  0.637695  1
  O  O20  1  0.780425  0.996172  0.637695  1
  O  O21  1  0.003828  0.219575  0.862305  1
  O  O22  1  0.496172  0.280425  0.862305  1
  O  O23  1  0.280425  0.003828  0.862305  1
  O  O24  1  0.470346  0.970346  0.250000  1
  O  O25  1  0.529654  0.470346  0.250000  1
  O  O26  1  0.970346  0.029654  0.250000  1
  O  O27  1  0.029654  0.529654  0.250000  1
  O  O28  1  0.529654  0.029654  0.750000  1
  O  O29  1  0.470346  0.529654  0.750000  1
  O  O30  1  0.029654  0.970346  0.750000  1
  O  O31  1  0.970346  0.470346  0.750000  1
  O  O32  1  0.719575  0.996172  0.137695  1
  O  O33  1  0.503828  0.719575  0.137695  1
  O  O34  1  0.996172  0.780425  0.137695  1
  O  O35  1  0.219575  0.003828  0.362305  1
  O  O36  1  0.280425  0.496172  0.362305  1
  O  O37  1  0.780425  0.503828  0.137695  1
  O  O38  1  0.496172  0.219575  0.362305  1
  O  O39  1  0.996172  0.719575  0.637695  1
  Si  Si40  1  0.932362  0.516875  0.655142  1
  Si  Si41  1  0.567638  0.983125  0.655142  1
  Si  Si42  1  0.016875  0.432362  0.844858  1
  Si  Si43  1  0.516875  0.567638  0.655142  1
  Si  Si44  1  0.983125  0.932362  0.655142  1
  Si  Si45  1  0.067638  0.016875  0.844858  1
  Si  Si46  1  0.432362  0.483125  0.844858  1
  Si  Si47  1  0.483125  0.067638  0.844858  1
  Si  Si48  1  0.067638  0.483125  0.344858  1
  Si  Si49  1  0.432362  0.016875  0.344858  1
  Si  Si50  1  0.983125  0.567638  0.155142  1
  Si  Si51  1  0.483125  0.432362  0.344858  1
  Si  Si52  1  0.016875  0.067638  0.344858  1
  Si  Si53  1  0.932362  0.983125  0.155142  1
  Si  Si54  1  0.567638  0.516875  0.155142  1
  Si  Si55  1  0.516875  0.932362  0.155142  1
  Fe  Fe56  1  0.250000  0.250000  0.594268  1
  Fe  Fe57  1  0.750000  0.750000  0.905732  1
  Fe  Fe58  1  0.750000  0.750000  0.405732  1
  Fe  Fe59  1  0.250000  0.250000  0.094268  1
  Ba  Ba60  1  0.250000  0.750000  0.500000  1
  Ba  Ba61  1  0.750000  0.250000  0.500000  1
  Ba  Ba62  1  0.750000  0.250000  0.000000  1
  Ba  Ba63  1  0.250000  0.750000  0.000000  1
