# generated using pymatgen
data_Y5(Si7Os2)2
_symmetry_space_group_name_H-M   'P 1'
_cell_length_a   7.97830254
_cell_length_b   8.05312640
_cell_length_c   12.80701262
_cell_angle_alpha   90.00000000
_cell_angle_beta   98.62806329
_cell_angle_gamma   90.00000000
_symmetry_Int_Tables_number   1
_chemical_formula_structural   Y5(Si7Os2)2
_chemical_formula_sum   'Y10 Si28 Os8'
_cell_volume   813.54190778
_cell_formula_units_Z   2
loop_
 _symmetry_equiv_pos_site_id
 _symmetry_equiv_pos_as_xyz
  1  'x, y, z'
loop_
 _atom_site_type_symbol
 _atom_site_label
 _atom_site_symmetry_multiplicity
 _atom_site_fract_x
 _atom_site_fract_y
 _atom_site_fract_z
 _atom_site_occupancy
  Si  Si0  1  0.392256  0.000269  0.558479  1
  Si  Si1  1  0.107744  0.500269  0.441521  1
  Si  Si2  1  0.607744  0.999731  0.441521  1
  Si  Si3  1  0.892256  0.499731  0.558479  1
  Si  Si4  1  0.612966  0.500282  0.447355  1
  Si  Si5  1  0.887034  0.000282  0.552645  1
  Si  Si6  1  0.387034  0.499718  0.552645  1
  Si  Si7  1  0.112966  0.999718  0.447355  1
  Si  Si8  1  0.176953  0.005660  0.821107  1
  Si  Si9  1  0.323047  0.505660  0.178893  1
  Si  Si10  1  0.823047  0.994340  0.178893  1
  Si  Si11  1  0.676953  0.494340  0.821107  1
  Si  Si12  1  0.237156  0.506390  0.821129  1
  Si  Si13  1  0.262844  0.006390  0.178871  1
  Si  Si14  1  0.762844  0.493610  0.178871  1
  Si  Si15  1  0.737156  0.993610  0.821129  1
  Si  Si16  1  0.461935  0.279453  0.820638  1
  Si  Si17  1  0.038065  0.779453  0.179362  1
  Si  Si18  1  0.333704  0.332484  0.999321  1
  Si  Si19  1  0.166296  0.832484  0.000679  1
  Si  Si20  1  0.666296  0.667516  0.000679  1
  Si  Si21  1  0.833704  0.167516  0.999321  1
  Si  Si22  1  0.950324  0.779199  0.821281  1
  Si  Si23  1  0.549676  0.279199  0.178719  1
  Si  Si24  1  0.049676  0.220801  0.178719  1
  Si  Si25  1  0.450324  0.720801  0.821281  1
  Si  Si26  1  0.961935  0.220547  0.820638  1
  Si  Si27  1  0.538065  0.720547  0.179362  1
  Y  Y28  1  0.657482  0.745686  0.635581  1
  Y  Y29  1  0.842518  0.245686  0.364419  1
  Y  Y30  1  0.342518  0.254314  0.364419  1
  Y  Y31  1  0.157482  0.754314  0.635581  1
  Y  Y32  1  0.838237  0.748354  0.365766  1
  Y  Y33  1  0.661763  0.248354  0.634234  1
  Y  Y34  1  0.161763  0.251646  0.634234  1
  Y  Y35  1  0.338237  0.751646  0.365766  1
  Y  Y36  1  0.000000  0.500000  0.000000  1
  Y  Y37  1  0.500000  0.000000  0.000000  1
  Os  Os38  1  0.128584  0.126377  0.999352  1
  Os  Os39  1  0.371416  0.626377  0.000648  1
  Os  Os40  1  0.871416  0.873623  0.000648  1
  Os  Os41  1  0.628584  0.373623  0.999352  1
  Os  Os42  1  0.939246  0.500058  0.746872  1
  Os  Os43  1  0.560754  0.000058  0.253128  1
  Os  Os44  1  0.060754  0.499942  0.253128  1
  Os  Os45  1  0.439246  0.999942  0.746872  1
