# generated using pymatgen
data_Te2MoW2(SeS)2
_symmetry_space_group_name_H-M   'P 1'
_cell_length_a   3.34554357
_cell_length_b   3.34554032
_cell_length_c   31.00379008
_cell_angle_alpha   90.00055424
_cell_angle_beta   90.00000000
_cell_angle_gamma   120.00003228
_symmetry_Int_Tables_number   1
_chemical_formula_structural   Te2MoW2(SeS)2
_chemical_formula_sum   'Te2 Mo1 W2 Se2 S2'
_cell_volume   300.52336014
_cell_formula_units_Z   1
loop_
 _symmetry_equiv_pos_site_id
 _symmetry_equiv_pos_as_xyz
  1  'x, y, z'
loop_
 _atom_site_type_symbol
 _atom_site_label
 _atom_site_symmetry_multiplicity
 _atom_site_fract_x
 _atom_site_fract_y
 _atom_site_fract_z
 _atom_site_occupancy
  Te  Te0  1  0.666643  0.333285  0.054510  1
  Te  Te1  1  0.666648  0.333296  0.176735  1
  Mo  Mo2  1  0.333313  0.666625  0.115597  1
  W  W3  1  0.333309  0.666618  0.578312  1
  W  W4  1  0.666689  0.333378  0.347035  1
  Se  Se5  1  0.333352  0.666705  0.400983  1
  Se  Se6  1  0.333360  0.666721  0.293041  1
  S  S7  1  0.666646  0.333291  0.529199  1
  S  S8  1  0.666640  0.333280  0.627428  1
