# generated using pymatgen
data_Ho3Ga5O12
_symmetry_space_group_name_H-M   'P 1'
_cell_length_a   10.72227629
_cell_length_b   10.72227629
_cell_length_c   10.72227629
_cell_angle_alpha   109.47122066
_cell_angle_beta   109.47122066
_cell_angle_gamma   109.47122059
_symmetry_Int_Tables_number   1
_chemical_formula_structural   Ho3Ga5O12
_chemical_formula_sum   'Ho12 Ga20 O48'
_cell_volume   948.94073676
_cell_formula_units_Z   4
loop_
 _symmetry_equiv_pos_site_id
 _symmetry_equiv_pos_as_xyz
  1  'x, y, z'
loop_
 _atom_site_type_symbol
 _atom_site_label
 _atom_site_symmetry_multiplicity
 _atom_site_fract_x
 _atom_site_fract_y
 _atom_site_fract_z
 _atom_site_occupancy
  O  O0  1  0.793221  0.417210  0.822738  1
  O  O1  1  0.082790  0.876011  0.405528  1
  O  O2  1  0.677262  0.094472  0.970483  1
  O  O3  1  0.706779  0.529517  0.623989  1
  O  O4  1  0.706779  0.677262  0.082790  1
  O  O5  1  0.529517  0.623989  0.706779  1
  O  O6  1  0.094472  0.623989  0.417210  1
  O  O7  1  0.623989  0.706779  0.529517  1
  O  O8  1  0.405528  0.822738  0.529517  1
  O  O9  1  0.876011  0.970483  0.793221  1
  O  O10  1  0.970483  0.793221  0.876011  1
  O  O11  1  0.082790  0.706779  0.677262  1
  O  O12  1  0.623989  0.417210  0.094472  1
  O  O13  1  0.529517  0.405528  0.822738  1
  O  O14  1  0.677262  0.082790  0.706779  1
  O  O15  1  0.417210  0.094472  0.623989  1
  O  O16  1  0.822738  0.529517  0.405528  1
  O  O17  1  0.405528  0.082790  0.876011  1
  O  O18  1  0.094472  0.970483  0.677262  1
  O  O19  1  0.594472  0.177262  0.470483  1
  O  O20  1  0.970483  0.677262  0.094472  1
  O  O21  1  0.822738  0.793221  0.417210  1
  O  O22  1  0.876011  0.405528  0.082790  1
  O  O23  1  0.793221  0.876011  0.970483  1
  O  O24  1  0.206779  0.582790  0.177262  1
  O  O25  1  0.917210  0.123989  0.594472  1
  O  O26  1  0.322738  0.905528  0.029517  1
  O  O27  1  0.293221  0.470483  0.376011  1
  O  O28  1  0.293221  0.322738  0.917210  1
  O  O29  1  0.470483  0.376011  0.293221  1
  O  O30  1  0.905528  0.376011  0.582790  1
  O  O31  1  0.376011  0.293221  0.470483  1
  O  O32  1  0.206779  0.123989  0.029517  1
  O  O33  1  0.123989  0.594472  0.917210  1
  O  O34  1  0.177262  0.206779  0.582790  1
  O  O35  1  0.582790  0.177262  0.206779  1
  O  O36  1  0.029517  0.322738  0.905528  1
  O  O37  1  0.905528  0.029517  0.322738  1
  O  O38  1  0.594472  0.917210  0.123989  1
  O  O39  1  0.177262  0.470483  0.594472  1
  O  O40  1  0.582790  0.905528  0.376011  1
  O  O41  1  0.322738  0.917210  0.293221  1
  O  O42  1  0.470483  0.594472  0.177262  1
  O  O43  1  0.376011  0.582790  0.905528  1
  O  O44  1  0.917210  0.293221  0.322738  1
  O  O45  1  0.029517  0.206779  0.123989  1
  O  O46  1  0.123989  0.029517  0.206779  1
  O  O47  1  0.417210  0.822738  0.793221  1
  Ga  Ga48  1  0.875000  0.125000  0.750000  1
  Ga  Ga49  1  0.125000  0.875000  0.250000  1
  Ga  Ga50  1  0.250000  0.625000  0.375000  1
  Ga  Ga51  1  0.125000  0.750000  0.875000  1
  Ga  Ga52  1  0.750000  0.875000  0.125000  1
  Ga  Ga53  1  0.375000  0.250000  0.625000  1
  Ga  Ga54  1  0.625000  0.750000  0.375000  1
  Ga  Ga55  1  0.875000  0.250000  0.125000  1
  Ga  Ga56  1  0.250000  0.125000  0.875000  1
  Ga  Ga57  1  0.750000  0.375000  0.625000  1
  Ga  Ga58  1  0.375000  0.625000  0.750000  1
  Ga  Ga59  1  0.625000  0.375000  0.250000  1
  Ga  Ga60  1  0.500000  0.500000  0.500000  1
  Ga  Ga61  1  0.500000  0.500000  0.000000  1
  Ga  Ga62  1  0.500000  0.000000  0.500000  1
  Ga  Ga63  1  0.000000  0.500000  0.500000  1
  Ga  Ga64  1  0.500000  0.000000  0.000000  1
  Ga  Ga65  1  0.000000  0.000000  0.500000  1
  Ga  Ga66  1  0.000000  0.500000  0.000000  1
  Ga  Ga67  1  0.000000  0.000000  0.000000  1
  Ho  Ho68  1  0.625000  0.250000  0.875000  1
  Ho  Ho69  1  0.875000  0.750000  0.625000  1
  Ho  Ho70  1  0.750000  0.625000  0.875000  1
  Ho  Ho71  1  0.250000  0.875000  0.625000  1
  Ho  Ho72  1  0.875000  0.625000  0.250000  1
  Ho  Ho73  1  0.625000  0.875000  0.750000  1
  Ho  Ho74  1  0.375000  0.750000  0.125000  1
  Ho  Ho75  1  0.125000  0.250000  0.375000  1
  Ho  Ho76  1  0.250000  0.375000  0.125000  1
  Ho  Ho77  1  0.750000  0.125000  0.375000  1
  Ho  Ho78  1  0.125000  0.375000  0.750000  1
  Ho  Ho79  1  0.375000  0.125000  0.250000  1
