# generated using pymatgen
data_Te2MoWSe2
_symmetry_space_group_name_H-M   'P 1'
_cell_length_a   3.44337571
_cell_length_b   3.44333898
_cell_length_c   39.14291255
_cell_angle_alpha   90.00030336
_cell_angle_beta   90.00000000
_cell_angle_gamma   120.00035299
_symmetry_Int_Tables_number   1
_chemical_formula_structural   Te2MoWSe2
_chemical_formula_sum   'Te4 Mo2 W2 Se4'
_cell_volume   401.92629018
_cell_formula_units_Z   2
loop_
 _symmetry_equiv_pos_site_id
 _symmetry_equiv_pos_as_xyz
  1  'x, y, z'
loop_
 _atom_site_type_symbol
 _atom_site_label
 _atom_site_symmetry_multiplicity
 _atom_site_fract_x
 _atom_site_fract_y
 _atom_site_fract_z
 _atom_site_occupancy
  Te  Te0  1  0.333354  0.666709  0.705156  1
  Te  Te1  1  0.666648  0.333294  0.422032  1
  Te  Te2  1  0.666648  0.333295  0.517258  1
  Te  Te3  1  0.333348  0.666697  0.609933  1
  Mo  Mo4  1  0.333312  0.666623  0.093927  1
  Mo  Mo5  1  0.666690  0.333380  0.281783  1
  W  W6  1  0.333311  0.666622  0.469635  1
  W  W7  1  0.666690  0.333381  0.657562  1
  Se  Se8  1  0.333357  0.666714  0.323599  1
  Se  Se9  1  0.666645  0.333289  0.052144  1
  Se  Se10  1  0.666647  0.333292  0.135714  1
  Se  Se11  1  0.333351  0.666703  0.240005  1
