# generated using pymatgen
data_Te4Mo3WS4
_symmetry_space_group_name_H-M   'P 1'
_cell_length_a   3.35796162
_cell_length_b   3.35800196
_cell_length_c   40.34375543
_cell_angle_alpha   90.00430031
_cell_angle_beta   90.00000000
_cell_angle_gamma   119.99960266
_symmetry_Int_Tables_number   1
_chemical_formula_structural   Te4Mo3WS4
_chemical_formula_sum   'Te4 Mo3 W1 S4'
_cell_volume   393.97200619
_cell_formula_units_Z   1
loop_
 _symmetry_equiv_pos_site_id
 _symmetry_equiv_pos_as_xyz
  1  'x, y, z'
loop_
 _atom_site_type_symbol
 _atom_site_label
 _atom_site_symmetry_multiplicity
 _atom_site_fract_x
 _atom_site_fract_y
 _atom_site_fract_z
 _atom_site_occupancy
  Te  Te0  1  0.333406  0.666813  0.326873  1
  Te  Te1  1  0.666625  0.333250  0.424500  1
  Te  Te2  1  0.666672  0.333342  0.518159  1
  Te  Te3  1  0.333293  0.666587  0.233150  1
  Mo  Mo4  1  0.333367  0.666734  0.093731  1
  Mo  Mo5  1  0.333327  0.666654  0.471348  1
  Mo  Mo6  1  0.666679  0.333359  0.280017  1
  W  W7  1  0.666642  0.333283  0.657826  1
  S  S8  1  0.333329  0.666660  0.695461  1
  S  S9  1  0.666672  0.333343  0.056226  1
  S  S10  1  0.666700  0.333398  0.131292  1
  S  S11  1  0.333288  0.666576  0.620166  1
