# generated using pymatgen
data_Ca2GeO4
_symmetry_space_group_name_H-M   'P 1'
_cell_length_a   5.80323900
_cell_length_b   5.80322434
_cell_length_c   6.86051053
_cell_angle_alpha   89.99999998
_cell_angle_beta   90.00055032
_cell_angle_gamma   119.99991900
_symmetry_Int_Tables_number   1
_chemical_formula_structural   Ca2GeO4
_chemical_formula_sum   'Ca4 Ge2 O8'
_cell_volume   200.09085413
_cell_formula_units_Z   2
loop_
 _symmetry_equiv_pos_site_id
 _symmetry_equiv_pos_as_xyz
  1  'x, y, z'
loop_
 _atom_site_type_symbol
 _atom_site_label
 _atom_site_symmetry_multiplicity
 _atom_site_fract_x
 _atom_site_fract_y
 _atom_site_fract_z
 _atom_site_occupancy
  Ca  Ca0  1  0.666649  0.333325  0.365372  1
  Ca  Ca1  1  0.333351  0.666675  0.634628  1
  Ca  Ca2  1  0.000000  0.000000  0.500000  1
  Ca  Ca3  1  0.000000  0.000000  -0.000000  1
  Ge  Ge4  1  0.666670  0.333335  0.812295  1
  Ge  Ge5  1  0.333330  0.666665  0.187705  1
  O  O6  1  0.666657  0.333328  0.062009  1
  O  O7  1  0.333343  0.666672  0.937991  1
  O  O8  1  0.345890  0.172945  0.703905  1
  O  O9  1  0.827056  0.654118  0.703920  1
  O  O10  1  0.827056  0.172939  0.703920  1
  O  O11  1  0.654110  0.827055  0.296095  1
  O  O12  1  0.172944  0.345882  0.296080  1
  O  O13  1  0.172944  0.827061  0.296080  1
