# generated using pymatgen
data_BaMgP2O7
_symmetry_space_group_name_H-M   'P 1'
_cell_length_a   5.55309841
_cell_length_b   8.65081062
_cell_length_c   12.95039180
_cell_angle_alpha   90.00000000
_cell_angle_beta   91.45785581
_cell_angle_gamma   90.00000000
_symmetry_Int_Tables_number   1
_chemical_formula_structural   BaMgP2O7
_chemical_formula_sum   'Ba4 Mg4 P8 O28'
_cell_volume   621.91994099
_cell_formula_units_Z   4
loop_
 _symmetry_equiv_pos_site_id
 _symmetry_equiv_pos_as_xyz
  1  'x, y, z'
loop_
 _atom_site_type_symbol
 _atom_site_label
 _atom_site_symmetry_multiplicity
 _atom_site_fract_x
 _atom_site_fract_y
 _atom_site_fract_z
 _atom_site_occupancy
  O  O0  1  0.512721  0.904331  0.206760  1
  O  O1  1  0.987279  0.404331  0.293240  1
  O  O2  1  0.487279  0.095669  0.793240  1
  O  O3  1  0.012721  0.595669  0.706760  1
  O  O4  1  0.058377  0.189722  0.498247  1
  O  O5  1  0.441623  0.689722  0.001753  1
  O  O6  1  0.941623  0.810278  0.501753  1
  O  O7  1  0.558377  0.310278  0.998247  1
  O  O8  1  0.829140  0.107437  0.154313  1
  O  O9  1  0.670860  0.607437  0.345687  1
  O  O10  1  0.170860  0.892563  0.845687  1
  O  O11  1  0.329140  0.392563  0.654313  1
  O  O12  1  0.647384  0.160420  0.580989  1
  O  O13  1  0.852616  0.660420  0.919011  1
  O  O14  1  0.352616  0.839580  0.419011  1
  O  O15  1  0.147384  0.339580  0.080989  1
  O  O16  1  0.302984  0.642631  0.557982  1
  O  O17  1  0.197016  0.142631  0.942018  1
  O  O18  1  0.697016  0.357369  0.442018  1
  O  O19  1  0.802984  0.857369  0.057982  1
  O  O20  1  0.447698  0.635860  0.748849  1
  O  O21  1  0.052302  0.135860  0.751151  1
  O  O22  1  0.552302  0.364140  0.251151  1
  O  O23  1  0.947698  0.864140  0.248849  1
  O  O24  1  0.211491  0.424669  0.893325  1
  O  O25  1  0.288509  0.924669  0.606675  1
  O  O26  1  0.788509  0.575331  0.106675  1
  O  O27  1  0.711491  0.075331  0.393325  1
  Mg  Mg28  1  0.787987  0.333658  0.121530  1
  Mg  Mg29  1  0.712013  0.833658  0.378470  1
  Mg  Mg30  1  0.212013  0.666342  0.878470  1
  Mg  Mg31  1  0.287987  0.166342  0.621530  1
  P  P32  1  0.784035  0.185858  0.481560  1
  P  P33  1  0.715965  0.685858  0.018440  1
  P  P34  1  0.215965  0.814142  0.518440  1
  P  P35  1  0.284035  0.314142  0.981560  1
  P  P36  1  0.767500  0.938344  0.169643  1
  P  P37  1  0.732500  0.438344  0.330357  1
  P  P38  1  0.232500  0.061656  0.830357  1
  P  P39  1  0.267500  0.561656  0.669643  1
  Ba  Ba40  1  0.239410  0.126792  0.297041  1
  Ba  Ba41  1  0.260590  0.626792  0.202959  1
  Ba  Ba42  1  0.760590  0.873208  0.702959  1
  Ba  Ba43  1  0.739410  0.373208  0.797041  1
