# generated using pymatgen
data_Te3MoWSe
_symmetry_space_group_name_H-M   'P 1'
_cell_length_a   3.49505282
_cell_length_b   3.49502683
_cell_length_c   40.60914726
_cell_angle_alpha   90.00022909
_cell_angle_beta   90.00000000
_cell_angle_gamma   120.00024122
_symmetry_Int_Tables_number   1
_chemical_formula_structural   Te3MoWSe
_chemical_formula_sum   'Te6 Mo2 W2 Se2'
_cell_volume   429.59350199
_cell_formula_units_Z   2
loop_
 _symmetry_equiv_pos_site_id
 _symmetry_equiv_pos_as_xyz
  1  'x, y, z'
loop_
 _atom_site_type_symbol
 _atom_site_label
 _atom_site_symmetry_multiplicity
 _atom_site_fract_x
 _atom_site_fract_y
 _atom_site_fract_z
 _atom_site_occupancy
  Te  Te0  1  0.333349  0.666700  0.326969  1
  Te  Te1  1  0.666650  0.333300  0.048801  1
  Te  Te2  1  0.666640  0.333278  0.424287  1
  Te  Te3  1  0.666649  0.333297  0.139091  1
  Te  Te4  1  0.666645  0.333288  0.515046  1
  Te  Te5  1  0.333354  0.666709  0.236637  1
  Mo  Mo6  1  0.333313  0.666626  0.093924  1
  Mo  Mo7  1  0.666691  0.333382  0.281800  1
  W  W8  1  0.333308  0.666615  0.469674  1
  W  W9  1  0.666690  0.333380  0.657512  1
  Se  Se10  1  0.333359  0.666719  0.697496  1
  Se  Se11  1  0.333353  0.666707  0.617511  1
