# generated using pymatgen
data_K5P2Au
_symmetry_space_group_name_H-M   'P 1'
_cell_length_a   5.70624270
_cell_length_b   5.70624270
_cell_length_c   18.90472430
_cell_angle_alpha   90.00000000
_cell_angle_beta   90.00000000
_cell_angle_gamma   119.99999999
_symmetry_Int_Tables_number   1
_chemical_formula_structural   K5P2Au
_chemical_formula_sum   'K10 P4 Au2'
_cell_volume   533.09113259
_cell_formula_units_Z   2
loop_
 _symmetry_equiv_pos_site_id
 _symmetry_equiv_pos_as_xyz
  1  'x, y, z'
loop_
 _atom_site_type_symbol
 _atom_site_label
 _atom_site_symmetry_multiplicity
 _atom_site_fract_x
 _atom_site_fract_y
 _atom_site_fract_z
 _atom_site_occupancy
  P  P0  1  0.333333  0.666667  0.122396  1
  P  P1  1  0.666667  0.333333  0.622396  1
  P  P2  1  0.666667  0.333333  0.877604  1
  P  P3  1  0.333333  0.666667  0.377604  1
  K  K4  1  0.000000  0.000000  0.856041  1
  K  K5  1  0.000000  0.000000  0.643959  1
  K  K6  1  0.333333  0.666667  0.750000  1
  K  K7  1  0.000000  0.000000  0.356041  1
  K  K8  1  0.333333  0.666667  0.547987  1
  K  K9  1  0.666667  0.333333  0.250000  1
  K  K10  1  0.666667  0.333333  0.452013  1
  K  K11  1  0.666667  0.333333  0.047987  1
  K  K12  1  0.333333  0.666667  0.952013  1
  K  K13  1  0.000000  0.000000  0.143959  1
  Au  Au14  1  0.666667  0.333333  0.750000  1
  Au  Au15  1  0.333333  0.666667  0.250000  1
