# generated using pymatgen
data_Ca2UO5
_symmetry_space_group_name_H-M   'P 1'
_cell_length_a   5.50585750
_cell_length_b   7.97661333
_cell_length_c   11.49088575
_cell_angle_alpha   108.18827199
_cell_angle_beta   90.00000000
_cell_angle_gamma   90.00000000
_symmetry_Int_Tables_number   1
_chemical_formula_structural   Ca2UO5
_chemical_formula_sum   'Ca8 U4 O20'
_cell_volume   479.44308547
_cell_formula_units_Z   4
loop_
 _symmetry_equiv_pos_site_id
 _symmetry_equiv_pos_as_xyz
  1  'x, y, z'
loop_
 _atom_site_type_symbol
 _atom_site_label
 _atom_site_symmetry_multiplicity
 _atom_site_fract_x
 _atom_site_fract_y
 _atom_site_fract_z
 _atom_site_occupancy
  O  O0  1  0.681630  0.749834  0.503248  1
  O  O1  1  0.181630  0.250166  0.996752  1
  O  O2  1  0.318370  0.250166  0.496752  1
  O  O3  1  0.818370  0.749834  0.003248  1
  O  O4  1  0.750705  0.983424  0.366302  1
  O  O5  1  0.250705  0.016576  0.133698  1
  O  O6  1  0.249295  0.016576  0.633698  1
  O  O7  1  0.749295  0.983424  0.866302  1
  O  O8  1  0.807809  0.384085  0.427946  1
  O  O9  1  0.307809  0.615915  0.072054  1
  O  O10  1  0.192191  0.615915  0.572054  1
  O  O11  1  0.692191  0.384085  0.927946  1
  O  O12  1  0.668259  0.550295  0.672221  1
  O  O13  1  0.168259  0.449705  0.827779  1
  O  O14  1  0.331741  0.449705  0.327779  1
  O  O15  1  0.831741  0.550295  0.172221  1
  O  O16  1  0.722128  0.121875  0.641734  1
  O  O17  1  0.222128  0.878125  0.858266  1
  O  O18  1  0.277872  0.878125  0.358266  1
  O  O19  1  0.777872  0.121875  0.141734  1
  Ca  Ca20  1  0.944599  0.847775  0.681345  1
  Ca  Ca21  1  0.444599  0.152225  0.818655  1
  Ca  Ca22  1  0.055401  0.152225  0.318655  1
  Ca  Ca23  1  0.555401  0.847775  0.181345  1
  Ca  Ca24  1  0.493632  0.650281  0.861427  1
  Ca  Ca25  1  0.993632  0.349719  0.638573  1
  Ca  Ca26  1  0.506368  0.349719  0.138573  1
  Ca  Ca27  1  0.006368  0.650281  0.361427  1
  U  U28  1  0.000000  0.000000  0.000000  1
  U  U29  1  0.500000  0.000000  0.500000  1
  U  U30  1  0.000000  0.500000  0.000000  1
  U  U31  1  0.500000  0.500000  0.500000  1
