# generated using pymatgen
data_Na3LiP2O7
_symmetry_space_group_name_H-M   'P 1'
_cell_length_a   5.40193009
_cell_length_b   5.40193009
_cell_length_c   12.43420630
_cell_angle_alpha   90.00000000
_cell_angle_beta   90.00000000
_cell_angle_gamma   118.00310697
_symmetry_Int_Tables_number   1
_chemical_formula_structural   Na3LiP2O7
_chemical_formula_sum   'Na6 Li2 P4 O14'
_cell_volume   320.36007894
_cell_formula_units_Z   2
loop_
 _symmetry_equiv_pos_site_id
 _symmetry_equiv_pos_as_xyz
  1  'x, y, z'
loop_
 _atom_site_type_symbol
 _atom_site_label
 _atom_site_symmetry_multiplicity
 _atom_site_fract_x
 _atom_site_fract_y
 _atom_site_fract_z
 _atom_site_occupancy
  Na  Na0  1  0.651452  0.651452  0.000000  1
  Na  Na1  1  0.348548  0.348548  0.500000  1
  Na  Na2  1  0.298218  0.953600  0.881168  1
  Na  Na3  1  0.953600  0.298218  0.118832  1
  Na  Na4  1  0.701782  0.046400  0.381168  1
  Na  Na5  1  0.046400  0.701782  0.618832  1
  Li  Li6  1  0.537920  0.462080  0.750000  1
  Li  Li7  1  0.462080  0.537920  0.250000  1
  P  P8  1  0.971561  0.309167  0.851619  1
  P  P9  1  0.309167  0.971561  0.148381  1
  P  P10  1  0.028439  0.690833  0.351619  1
  P  P11  1  0.690833  0.028439  0.648381  1
  O  O12  1  0.285946  0.414244  0.871822  1
  O  O13  1  0.414244  0.285946  0.128178  1
  O  O14  1  0.714054  0.585756  0.371822  1
  O  O15  1  0.585756  0.714054  0.628178  1
  O  O16  1  0.781633  0.130924  0.942880  1
  O  O17  1  0.130924  0.781633  0.057120  1
  O  O18  1  0.218367  0.869076  0.442880  1
  O  O19  1  0.869076  0.218367  0.557120  1
  O  O20  1  0.906709  0.543919  0.814265  1
  O  O21  1  0.543919  0.906709  0.185735  1
  O  O22  1  0.093291  0.456081  0.314265  1
  O  O23  1  0.456081  0.093291  0.685735  1
  O  O24  1  0.907105  0.092895  0.750000  1
  O  O25  1  0.092895  0.907105  0.250000  1
