# generated using pymatgen
data_GaMo4CS8
_symmetry_space_group_name_H-M   'P 1'
_cell_length_a   7.20384017
_cell_length_b   7.20384016
_cell_length_c   7.20384016
_cell_angle_alpha   60.00000000
_cell_angle_beta   60.00000003
_cell_angle_gamma   59.99999999
_symmetry_Int_Tables_number   1
_chemical_formula_structural   GaMo4CS8
_chemical_formula_sum   'Ga1 Mo4 C1 S8'
_cell_volume   264.34871691
_cell_formula_units_Z   1
loop_
 _symmetry_equiv_pos_site_id
 _symmetry_equiv_pos_as_xyz
  1  'x, y, z'
loop_
 _atom_site_type_symbol
 _atom_site_label
 _atom_site_symmetry_multiplicity
 _atom_site_fract_x
 _atom_site_fract_y
 _atom_site_fract_z
 _atom_site_occupancy
  C  C0  1  0.250000  0.250000  0.250000  1
  S  S1  1  0.630021  0.109937  0.630021  1
  S  S2  1  0.143479  0.143479  0.569562  1
  S  S3  1  0.143479  0.143479  0.143479  1
  S  S4  1  0.569562  0.143479  0.143479  1
  S  S5  1  0.143479  0.569562  0.143479  1
  S  S6  1  0.630021  0.630021  0.630021  1
  S  S7  1  0.630021  0.630021  0.109937  1
  S  S8  1  0.109937  0.630021  0.630021  1
  Ga  Ga9  1  0.000000  0.000000  0.000000  1
  Mo  Mo10  1  0.791709  0.402764  0.402764  1
  Mo  Mo11  1  0.402764  0.402764  0.791709  1
  Mo  Mo12  1  0.402764  0.402764  0.402764  1
  Mo  Mo13  1  0.402764  0.791709  0.402764  1
