# generated using pymatgen
data_LaMn3Ni2
_symmetry_space_group_name_H-M   'P 1'
_cell_length_a   9.12675279
_cell_length_b   9.12675279
_cell_length_c   4.16100793
_cell_angle_alpha   90.00000000
_cell_angle_beta   90.00000000
_cell_angle_gamma   120.00000003
_symmetry_Int_Tables_number   1
_chemical_formula_structural   LaMn3Ni2
_chemical_formula_sum   'La3 Mn9 Ni6'
_cell_volume   300.16617403
_cell_formula_units_Z   3
loop_
 _symmetry_equiv_pos_site_id
 _symmetry_equiv_pos_as_xyz
  1  'x, y, z'
loop_
 _atom_site_type_symbol
 _atom_site_label
 _atom_site_symmetry_multiplicity
 _atom_site_fract_x
 _atom_site_fract_y
 _atom_site_fract_z
 _atom_site_occupancy
  Mn  Mn0  1  0.000000  0.500000  0.000000  1
  Mn  Mn1  1  0.500000  0.500000  0.000000  1
  Mn  Mn2  1  0.500000  0.000000  0.000000  1
  Mn  Mn3  1  0.695723  0.000000  0.500000  1
  Mn  Mn4  1  0.695723  0.695723  0.500000  1
  Mn  Mn5  1  0.000000  0.304277  0.500000  1
  Mn  Mn6  1  0.000000  0.695723  0.500000  1
  Mn  Mn7  1  0.304277  0.000000  0.500000  1
  Mn  Mn8  1  0.304277  0.304277  0.500000  1
  Ni  Ni9  1  0.820134  0.179866  0.000000  1
  Ni  Ni10  1  0.179866  0.820134  0.000000  1
  Ni  Ni11  1  0.640269  0.820134  0.000000  1
  Ni  Ni12  1  0.359731  0.179866  0.000000  1
  Ni  Ni13  1  0.179866  0.359731  0.000000  1
  Ni  Ni14  1  0.820134  0.640269  0.000000  1
  La  La15  1  0.666667  0.333333  0.500000  1
  La  La16  1  0.333333  0.666667  0.500000  1
  La  La17  1  0.000000  0.000000  0.000000  1
