# generated using pymatgen
data_Mn4SiO7
_symmetry_space_group_name_H-M   'P 1'
_cell_length_a   8.15128285
_cell_length_b   8.15128285
_cell_length_c   4.95971718
_cell_angle_alpha   90.00000000
_cell_angle_beta   90.00000000
_cell_angle_gamma   120.00000000
_symmetry_Int_Tables_number   1
_chemical_formula_structural   Mn4SiO7
_chemical_formula_sum   'Mn8 Si2 O14'
_cell_volume   285.39047265
_cell_formula_units_Z   2
loop_
 _symmetry_equiv_pos_site_id
 _symmetry_equiv_pos_as_xyz
  1  'x, y, z'
loop_
 _atom_site_type_symbol
 _atom_site_label
 _atom_site_symmetry_multiplicity
 _atom_site_fract_x
 _atom_site_fract_y
 _atom_site_fract_z
 _atom_site_occupancy
  O  O0  1  0.947897  0.153203  0.260262  1
  O  O1  1  0.794694  0.947896  0.760262  1
  O  O2  1  0.153204  0.205307  0.760262  1
  O  O3  1  0.846796  0.794693  0.260262  1
  O  O4  1  0.205307  0.052104  0.260262  1
  O  O5  1  0.052103  0.846797  0.760262  1
  O  O6  1  0.870003  0.377357  0.799838  1
  O  O7  1  0.492646  0.870003  0.299838  1
  O  O8  1  0.377357  0.507354  0.299838  1
  O  O9  1  0.622643  0.492646  0.799838  1
  O  O10  1  0.333333  0.666667  0.770605  1
  O  O11  1  0.666666  0.333333  0.270605  1
  O  O12  1  0.507354  0.129997  0.799838  1
  O  O13  1  0.129997  0.622643  0.299838  1
  Si  Si14  1  0.666666  0.333333  0.938582  1
  Si  Si15  1  0.333333  0.666667  0.438583  1
  Mn  Mn16  1  0.886829  0.590589  0.502973  1
  Mn  Mn17  1  0.590589  0.703760  0.002973  1
  Mn  Mn18  1  0.113170  0.409411  0.002973  1
  Mn  Mn19  1  0.703760  0.113170  0.502973  1
  Mn  Mn20  1  0.409410  0.296240  0.502973  1
  Mn  Mn21  1  0.296239  0.886830  0.002973  1
  Mn  Mn22  1  0.000000  0.000000  0.509590  1
  Mn  Mn23  1  0.000000  0.000000  0.009590  1
