# generated using pymatgen
data_Na5La(MoO4)4
_symmetry_space_group_name_H-M   'P 1'
_cell_length_a   10.17572975
_cell_length_b   10.17572975
_cell_length_c   10.17572975
_cell_angle_alpha   109.71701950
_cell_angle_beta   109.34846116
_cell_angle_gamma   109.34846121
_symmetry_Int_Tables_number   1
_chemical_formula_structural   Na5La(MoO4)4
_chemical_formula_sum   'Na10 La2 Mo8 O32'
_cell_volume   811.08954755
_cell_formula_units_Z   2
loop_
 _symmetry_equiv_pos_site_id
 _symmetry_equiv_pos_as_xyz
  1  'x, y, z'
loop_
 _atom_site_type_symbol
 _atom_site_label
 _atom_site_symmetry_multiplicity
 _atom_site_fract_x
 _atom_site_fract_y
 _atom_site_fract_z
 _atom_site_occupancy
  O  O0  1  0.151128  0.520040  0.996601  1
  O  O1  1  0.476560  0.496601  0.845473  1
  O  O2  1  0.023440  0.868913  0.020040  1
  O  O3  1  0.348872  0.345473  0.368913  1
  O  O4  1  0.848872  0.479960  0.003399  1
  O  O5  1  0.523440  0.503399  0.154527  1
  O  O6  1  0.976560  0.131087  0.979960  1
  O  O7  1  0.651128  0.654527  0.631087  1
  O  O8  1  0.923647  0.566590  0.763606  1
  O  O9  1  0.197016  0.263606  0.839959  1
  O  O10  1  0.302984  0.142943  0.066590  1
  O  O11  1  0.576353  0.339959  0.642943  1
  O  O12  1  0.076353  0.433410  0.236394  1
  O  O13  1  0.802984  0.736394  0.160041  1
  O  O14  1  0.697016  0.857057  0.933410  1
  O  O15  1  0.423647  0.660041  0.357057  1
  O  O16  1  0.872343  0.244401  0.669512  1
  O  O17  1  0.425110  0.169512  0.797169  1
  O  O18  1  0.074890  0.872058  0.744401  1
  O  O19  1  0.627657  0.297169  0.372058  1
  O  O20  1  0.644410  0.952907  0.662395  1
  O  O21  1  0.709488  0.162395  0.017984  1
  O  O22  1  0.790512  0.808496  0.452907  1
  O  O23  1  0.855590  0.517984  0.308496  1
  O  O24  1  0.355590  0.047093  0.337605  1
  O  O25  1  0.290512  0.837605  0.982016  1
  O  O26  1  0.209488  0.191504  0.547093  1
  O  O27  1  0.144410  0.482016  0.691504  1
  O  O28  1  0.372343  0.702831  0.627942  1
  O  O29  1  0.925110  0.127942  0.255599  1
  O  O30  1  0.574890  0.830488  0.202831  1
  O  O31  1  0.127657  0.755599  0.330488  1
  Na  Na32  1  0.669091  0.205903  0.783777  1
  Na  Na33  1  0.577874  0.283777  0.114687  1
  Na  Na34  1  0.922126  0.036812  0.705903  1
  Na  Na35  1  0.830909  0.614687  0.536812  1
  Na  Na36  1  0.330909  0.794097  0.216223  1
  Na  Na37  1  0.422125  0.716223  0.885313  1
  Na  Na38  1  0.077874  0.963188  0.294097  1
  Na  Na39  1  0.169091  0.385313  0.463188  1
  Na  Na40  1  0.750000  0.125000  0.375000  1
  Na  Na41  1  0.250000  0.875000  0.625000  1
  Mo  Mo42  1  0.525885  0.741046  0.572956  1
  Mo  Mo43  1  0.831910  0.072956  0.047071  1
  Mo  Mo44  1  0.025885  0.452929  0.784839  1
  Mo  Mo45  1  0.331910  0.284839  0.758954  1
  Mo  Mo46  1  0.168090  0.927044  0.952929  1
  Mo  Mo47  1  0.474115  0.258954  0.427044  1
  Mo  Mo48  1  0.974115  0.547071  0.215161  1
  Mo  Mo49  1  0.668090  0.715161  0.241046  1
  La  La50  1  0.250000  0.375000  0.125000  1
  La  La51  1  0.750000  0.625000  0.875000  1
