# generated using pymatgen
data_Rb2Cu2Si8O19
_symmetry_space_group_name_H-M   'P 1'
_cell_length_a   8.50315168
_cell_length_b   9.98427720
_cell_length_c   11.69013944
_cell_angle_alpha   95.01990044
_cell_angle_beta   90.00000000
_cell_angle_gamma   90.00000000
_symmetry_Int_Tables_number   1
_chemical_formula_structural   Rb2Cu2Si8O19
_chemical_formula_sum   'Rb4 Si16 Cu4 O38'
_cell_volume   988.66065305
_cell_formula_units_Z   2
loop_
 _symmetry_equiv_pos_site_id
 _symmetry_equiv_pos_as_xyz
  1  'x, y, z'
loop_
 _atom_site_type_symbol
 _atom_site_label
 _atom_site_symmetry_multiplicity
 _atom_site_fract_x
 _atom_site_fract_y
 _atom_site_fract_z
 _atom_site_occupancy
  O  O0  1  0.750000  0.841107  0.780227  1
  O  O1  1  0.250000  0.158893  0.219773  1
  O  O2  1  0.250000  0.612461  0.259691  1
  O  O3  1  0.750000  0.387539  0.740309  1
  O  O4  1  0.250000  0.603461  0.906983  1
  O  O5  1  0.750000  0.396539  0.093017  1
  O  O6  1  0.977355  0.046934  0.179117  1
  O  O7  1  0.477355  0.953066  0.820883  1
  O  O8  1  0.022645  0.953066  0.820883  1
  O  O9  1  0.522645  0.046934  0.179117  1
  O  O10  1  0.993576  0.252639  0.347619  1
  O  O11  1  0.493576  0.747361  0.652381  1
  O  O12  1  0.006424  0.747361  0.652381  1
  O  O13  1  0.506424  0.252639  0.347619  1
  O  O14  1  0.537404  0.205189  0.786138  1
  O  O15  1  0.037404  0.794811  0.213862  1
  O  O16  1  0.462596  0.794811  0.213862  1
  O  O17  1  0.962596  0.205189  0.786138  1
  O  O18  1  0.525550  0.707799  0.876684  1
  O  O19  1  0.025550  0.292201  0.123316  1
  O  O20  1  0.474450  0.292201  0.123316  1
  O  O21  1  0.974450  0.707799  0.876684  1
  O  O22  1  0.500000  0.500000  0.000000  1
  O  O23  1  0.000000  0.500000  0.000000  1
  O  O24  1  0.250000  0.109137  0.751558  1
  O  O25  1  0.750000  0.890863  0.248442  1
  O  O26  1  0.978986  0.316441  0.581976  1
  O  O27  1  0.478986  0.683559  0.418024  1
  O  O28  1  0.021014  0.683559  0.418024  1
  O  O29  1  0.521014  0.316441  0.581976  1
  O  O30  1  0.012314  0.027235  0.602706  1
  O  O31  1  0.512314  0.972765  0.397294  1
  O  O32  1  0.987686  0.972765  0.397294  1
  O  O33  1  0.487686  0.027235  0.602706  1
  O  O34  1  0.044681  0.462178  0.774111  1
  O  O35  1  0.544681  0.537822  0.225889  1
  O  O36  1  0.955319  0.537822  0.225889  1
  O  O37  1  0.455319  0.462178  0.774111  1
  Si  Si38  1  0.438096  0.193168  0.226268  1
  Si  Si39  1  0.938096  0.806832  0.773732  1
  Si  Si40  1  0.561904  0.806832  0.773732  1
  Si  Si41  1  0.061904  0.193168  0.226268  1
  Si  Si42  1  0.435435  0.565581  0.887813  1
  Si  Si43  1  0.935435  0.434419  0.112187  1
  Si  Si44  1  0.564565  0.434419  0.112187  1
  Si  Si45  1  0.064565  0.565581  0.887813  1
  Si  Si46  1  0.063960  0.072217  0.735816  1
  Si  Si47  1  0.563960  0.927783  0.264184  1
  Si  Si48  1  0.936040  0.927783  0.264184  1
  Si  Si49  1  0.436040  0.072217  0.735816  1
  Si  Si50  1  0.432762  0.659883  0.285017  1
  Si  Si51  1  0.932762  0.340117  0.714983  1
  Si  Si52  1  0.567238  0.340117  0.714983  1
  Si  Si53  1  0.067238  0.659883  0.285017  1
  Cu  Cu54  1  0.492625  0.845324  0.518664  1
  Cu  Cu55  1  0.992625  0.154676  0.481336  1
  Cu  Cu56  1  0.507375  0.154676  0.481336  1
  Cu  Cu57  1  0.007375  0.845324  0.518664  1
  Rb  Rb58  1  0.750000  0.468684  0.439418  1
  Rb  Rb59  1  0.250000  0.531316  0.560582  1
  Rb  Rb60  1  0.250000  0.895886  0.026947  1
  Rb  Rb61  1  0.750000  0.104114  0.973053  1
