# generated using pymatgen
data_Mo3W(SeS)4
_symmetry_space_group_name_H-M   'P 1'
_cell_length_a   3.25347554
_cell_length_b   3.25345016
_cell_length_c   36.86057239
_cell_angle_alpha   90.00029592
_cell_angle_beta   89.99998489
_cell_angle_gamma   120.00023276
_symmetry_Int_Tables_number   1
_chemical_formula_structural   Mo3W(SeS)4
_chemical_formula_sum   'Mo3 W1 Se4 S4'
_cell_volume   337.89626564
_cell_formula_units_Z   1
loop_
 _symmetry_equiv_pos_site_id
 _symmetry_equiv_pos_as_xyz
  1  'x, y, z'
loop_
 _atom_site_type_symbol
 _atom_site_label
 _atom_site_symmetry_multiplicity
 _atom_site_fract_x
 _atom_site_fract_y
 _atom_site_fract_z
 _atom_site_occupancy
  Mo  Mo0  1  0.333311  0.666622  0.093898  1
  Mo  Mo1  1  0.333312  0.666623  0.469662  1
  Mo  Mo2  1  0.666689  0.333378  0.281821  1
  W  W3  1  0.666691  0.333382  0.657539  1
  Se  Se4  1  0.333353  0.666706  0.327859  1
  Se  Se5  1  0.666648  0.333295  0.047813  1
  Se  Se6  1  0.666648  0.333296  0.139999  1
  Se  Se7  1  0.333352  0.666704  0.235741  1
  S  S8  1  0.333356  0.666714  0.699571  1
  S  S9  1  0.666644  0.333286  0.427769  1
  S  S10  1  0.666641  0.333282  0.511577  1
  S  S11  1  0.333355  0.666711  0.615499  1
