# generated using pymatgen
data_CoHCO4
_symmetry_space_group_name_H-M   'P 1'
_cell_length_a   10.22236054
_cell_length_b   10.22235964
_cell_length_c   6.19829570
_cell_angle_alpha   90.00000000
_cell_angle_beta   90.00000000
_cell_angle_gamma   120.00000088
_symmetry_Int_Tables_number   1
_chemical_formula_structural   CoHCO4
_chemical_formula_sum   'Co6 H6 C6 O24'
_cell_volume   560.92561059
_cell_formula_units_Z   6
loop_
 _symmetry_equiv_pos_site_id
 _symmetry_equiv_pos_as_xyz
  1  'x, y, z'
loop_
 _atom_site_type_symbol
 _atom_site_label
 _atom_site_symmetry_multiplicity
 _atom_site_fract_x
 _atom_site_fract_y
 _atom_site_fract_z
 _atom_site_occupancy
  Co  Co0  1  0.000000  0.500000  0.500000  1
  Co  Co1  1  0.000000  0.500000  0.000000  1
  Co  Co2  1  0.500000  0.500000  0.500000  1
  Co  Co3  1  0.500000  0.500000  0.000000  1
  Co  Co4  1  0.500000  0.000000  0.500000  1
  Co  Co5  1  0.500000  0.000000  0.000000  1
  H  H6  1  0.190108  0.639710  0.750000  1
  H  H7  1  0.449604  0.809892  0.750000  1
  H  H8  1  0.360290  0.550396  0.750000  1
  H  H9  1  0.639710  0.449604  0.250000  1
  H  H10  1  0.550396  0.190108  0.250000  1
  H  H11  1  0.809892  0.360290  0.250000  1
  C  C12  1  0.201812  0.763740  0.250000  1
  C  C13  1  0.236260  0.438073  0.250000  1
  C  C14  1  0.561927  0.798188  0.250000  1
  C  C15  1  0.438073  0.201812  0.750000  1
  C  C16  1  0.763740  0.561927  0.750000  1
  C  C17  1  0.798188  0.236260  0.750000  1
  O  O18  1  0.144968  0.703286  0.435051  1
  O  O19  1  0.144968  0.703286  0.064949  1
  O  O20  1  0.323098  0.894115  0.250000  1
  O  O21  1  0.121756  0.528980  0.750000  1
  O  O22  1  0.105885  0.428983  0.250000  1
  O  O23  1  0.407223  0.878244  0.750000  1
  O  O24  1  0.296714  0.441680  0.435051  1
  O  O25  1  0.296714  0.441680  0.064949  1
  O  O26  1  0.558320  0.855032  0.064949  1
  O  O27  1  0.558320  0.855032  0.435051  1
  O  O28  1  0.471020  0.592777  0.750000  1
  O  O29  1  0.571017  0.676902  0.250000  1
  O  O30  1  0.428983  0.323098  0.750000  1
  O  O31  1  0.528980  0.407223  0.250000  1
  O  O32  1  0.441680  0.144968  0.564949  1
  O  O33  1  0.441680  0.144968  0.935051  1
  O  O34  1  0.703286  0.558320  0.935051  1
  O  O35  1  0.703286  0.558320  0.564949  1
  O  O36  1  0.592777  0.121756  0.250000  1
  O  O37  1  0.894115  0.571017  0.750000  1
  O  O38  1  0.878244  0.471020  0.250000  1
  O  O39  1  0.676902  0.105885  0.750000  1
  O  O40  1  0.855032  0.296714  0.935051  1
  O  O41  1  0.855032  0.296714  0.564949  1
