# generated using pymatgen
data_Te2Mo3W(Se2S)2
_symmetry_space_group_name_H-M   'P 1'
_cell_length_a   3.34265393
_cell_length_b   3.34265563
_cell_length_c   38.05884981
_cell_angle_alpha   89.99949752
_cell_angle_beta   90.00000000
_cell_angle_gamma   119.99998312
_symmetry_Int_Tables_number   1
_chemical_formula_structural   Te2Mo3W(Se2S)2
_chemical_formula_sum   'Te2 Mo3 W1 Se4 S2'
_cell_volume   368.27260727
_cell_formula_units_Z   1
loop_
 _symmetry_equiv_pos_site_id
 _symmetry_equiv_pos_as_xyz
  1  'x, y, z'
loop_
 _atom_site_type_symbol
 _atom_site_label
 _atom_site_symmetry_multiplicity
 _atom_site_fract_x
 _atom_site_fract_y
 _atom_site_fract_z
 _atom_site_occupancy
  Te  Te0  1  0.666648  0.333296  0.044016  1
  Te  Te1  1  0.666650  0.333298  0.143741  1
  Mo  Mo2  1  0.333315  0.666630  0.093852  1
  Mo  Mo3  1  0.333312  0.666625  0.469669  1
  Mo  Mo4  1  0.666690  0.333380  0.281844  1
  W  W5  1  0.666689  0.333379  0.657549  1
  Se  Se6  1  0.333350  0.666701  0.325661  1
  Se  Se7  1  0.666650  0.333299  0.425809  1
  Se  Se8  1  0.666636  0.333271  0.513535  1
  Se  Se9  1  0.333350  0.666702  0.237990  1
  S  S10  1  0.333352  0.666705  0.697515  1
  S  S11  1  0.333357  0.666714  0.617566  1
