# generated using pymatgen
data_V3P
_symmetry_space_group_name_H-M   'P 1'
_cell_length_a   4.74355876
_cell_length_b   9.33978632
_cell_length_c   9.33978632
_cell_angle_alpha   90.00000000
_cell_angle_beta   90.00000000
_cell_angle_gamma   90.00000000
_symmetry_Int_Tables_number   1
_chemical_formula_structural   V3P
_chemical_formula_sum   'V24 P8'
_cell_volume   413.78826066
_cell_formula_units_Z   8
loop_
 _symmetry_equiv_pos_site_id
 _symmetry_equiv_pos_as_xyz
  1  'x, y, z'
loop_
 _atom_site_type_symbol
 _atom_site_label
 _atom_site_symmetry_multiplicity
 _atom_site_fract_x
 _atom_site_fract_y
 _atom_site_fract_z
 _atom_site_occupancy
  P  P0  1  0.983675  0.541851  0.771501  1
  P  P1  1  0.483675  0.228499  0.041850  1
  P  P2  1  0.483675  0.271501  0.458149  1
  P  P3  1  0.983675  0.958149  0.728499  1
  P  P4  1  0.016325  0.458149  0.228499  1
  P  P5  1  0.516325  0.771501  0.958149  1
  P  P6  1  0.516325  0.728499  0.541851  1
  P  P7  1  0.016325  0.041850  0.271501  1
  V  V8  1  0.513877  0.102273  0.261057  1
  V  V9  1  0.013877  0.738943  0.602273  1
  V  V10  1  0.013877  0.761057  0.897727  1
  V  V11  1  0.513877  0.397727  0.238943  1
  V  V12  1  0.486123  0.897727  0.738943  1
  V  V13  1  0.986123  0.261057  0.397727  1
  V  V14  1  0.986123  0.238943  0.102273  1
  V  V15  1  0.486123  0.602273  0.761057  1
  V  V16  1  0.240878  0.055193  0.534072  1
  V  V17  1  0.740878  0.465928  0.555193  1
  V  V18  1  0.740878  0.034072  0.944807  1
  V  V19  1  0.240878  0.444807  0.965928  1
  V  V20  1  0.759122  0.944807  0.465928  1
  V  V21  1  0.259122  0.534072  0.444807  1
  V  V22  1  0.259122  0.965928  0.055193  1
  V  V23  1  0.759122  0.555193  0.034072  1
  V  V24  1  0.269055  0.667294  0.157931  1
  V  V25  1  0.769055  0.842069  0.167294  1
  V  V26  1  0.769055  0.657931  0.332706  1
  V  V27  1  0.269055  0.832706  0.342069  1
  V  V28  1  0.730945  0.332706  0.842069  1
  V  V29  1  0.230945  0.157931  0.832706  1
  V  V30  1  0.230945  0.342069  0.667294  1
  V  V31  1  0.730945  0.167294  0.657931  1
