# generated using pymatgen
data_Tb5Ge4
_symmetry_space_group_name_H-M   'P 1'
_cell_length_a   7.69941315
_cell_length_b   7.77576934
_cell_length_c   14.78772456
_cell_angle_alpha   90.00000000
_cell_angle_beta   90.00000000
_cell_angle_gamma   90.00000000
_symmetry_Int_Tables_number   1
_chemical_formula_structural   Tb5Ge4
_chemical_formula_sum   'Tb20 Ge16'
_cell_volume   885.32422187
_cell_formula_units_Z   4
loop_
 _symmetry_equiv_pos_site_id
 _symmetry_equiv_pos_as_xyz
  1  'x, y, z'
loop_
 _atom_site_type_symbol
 _atom_site_label
 _atom_site_symmetry_multiplicity
 _atom_site_fract_x
 _atom_site_fract_y
 _atom_site_fract_z
 _atom_site_occupancy
  Ge  Ge0  1  0.169372  0.637077  0.250000  1
  Ge  Ge1  1  0.669372  0.862923  0.250000  1
  Ge  Ge2  1  0.330628  0.137077  0.750000  1
  Ge  Ge3  1  0.830628  0.362923  0.750000  1
  Ge  Ge4  1  0.917417  0.115709  0.250000  1
  Ge  Ge5  1  0.417417  0.384291  0.250000  1
  Ge  Ge6  1  0.582583  0.615709  0.750000  1
  Ge  Ge7  1  0.082583  0.884291  0.750000  1
  Ge  Ge8  1  0.780963  0.466723  0.455907  1
  Ge  Ge9  1  0.280963  0.033277  0.044093  1
  Ge  Ge10  1  0.719037  0.966723  0.544093  1
  Ge  Ge11  1  0.219037  0.533277  0.955907  1
  Ge  Ge12  1  0.219037  0.533277  0.544093  1
  Ge  Ge13  1  0.719037  0.966723  0.955907  1
  Ge  Ge14  1  0.280963  0.033277  0.455907  1
  Ge  Ge15  1  0.780963  0.466723  0.044093  1
  Tb  Tb16  1  0.712906  0.998106  0.750000  1
  Tb  Tb17  1  0.212906  0.501894  0.750000  1
  Tb  Tb18  1  0.787094  0.498106  0.250000  1
  Tb  Tb19  1  0.287094  0.001894  0.250000  1
  Tb  Tb20  1  0.025280  0.177263  0.601286  1
  Tb  Tb21  1  0.525280  0.322737  0.898714  1
  Tb  Tb22  1  0.474720  0.677263  0.398714  1
  Tb  Tb23  1  0.974720  0.822737  0.101286  1
  Tb  Tb24  1  0.974720  0.822737  0.398714  1
  Tb  Tb25  1  0.474720  0.677263  0.101286  1
  Tb  Tb26  1  0.525280  0.322737  0.601286  1
  Tb  Tb27  1  0.025280  0.177263  0.898714  1
  Tb  Tb28  1  0.877019  0.660448  0.616819  1
  Tb  Tb29  1  0.377019  0.839552  0.883181  1
  Tb  Tb30  1  0.622981  0.160448  0.383181  1
  Tb  Tb31  1  0.122981  0.339552  0.116819  1
  Tb  Tb32  1  0.122981  0.339552  0.383181  1
  Tb  Tb33  1  0.622981  0.160448  0.116819  1
  Tb  Tb34  1  0.377019  0.839552  0.616819  1
  Tb  Tb35  1  0.877019  0.660448  0.883181  1
