# generated using pymatgen
data_Ba2LiSi3
_symmetry_space_group_name_H-M   'P 1'
_cell_length_a   8.75974835
_cell_length_b   8.78526311
_cell_length_c   10.71454500
_cell_angle_alpha   78.24099738
_cell_angle_beta   65.87188341
_cell_angle_gamma   60.09602600
_symmetry_Int_Tables_number   1
_chemical_formula_structural   Ba2LiSi3
_chemical_formula_sum   'Ba8 Li4 Si12'
_cell_volume   652.32899640
_cell_formula_units_Z   4
loop_
 _symmetry_equiv_pos_site_id
 _symmetry_equiv_pos_as_xyz
  1  'x, y, z'
loop_
 _atom_site_type_symbol
 _atom_site_label
 _atom_site_symmetry_multiplicity
 _atom_site_fract_x
 _atom_site_fract_y
 _atom_site_fract_z
 _atom_site_occupancy
  Li  Li0  1  0.457357  0.085286  0.750000  1
  Li  Li1  1  0.792643  0.414714  0.750000  1
  Li  Li2  1  0.542643  0.914714  0.250000  1
  Li  Li3  1  0.207357  0.585286  0.250000  1
  Si  Si4  1  0.970484  0.592542  0.742720  1
  Si  Si5  1  0.805746  0.907458  0.757280  1
  Si  Si6  1  0.436974  0.592542  0.757280  1
  Si  Si7  1  0.286797  0.907458  0.742720  1
  Si  Si8  1  0.032838  0.934324  0.250000  1
  Si  Si9  1  0.717162  0.565676  0.250000  1
  Si  Si10  1  0.967162  0.065676  0.750000  1
  Si  Si11  1  0.282838  0.434324  0.750000  1
  Si  Si12  1  0.713203  0.092542  0.257280  1
  Si  Si13  1  0.563026  0.407458  0.242720  1
  Si  Si14  1  0.194254  0.092542  0.242720  1
  Si  Si15  1  0.029516  0.407458  0.257280  1
  Ba  Ba16  1  0.749272  0.750000  0.501456  1
  Ba  Ba17  1  0.500728  0.750000  0.998544  1
  Ba  Ba18  1  0.250728  0.250000  0.498544  1
  Ba  Ba19  1  0.499272  0.250000  0.001456  1
  Ba  Ba20  1  0.999830  0.750000  0.000340  1
  Ba  Ba21  1  0.250170  0.750000  0.499660  1
  Ba  Ba22  1  0.000170  0.250000  0.999660  1
  Ba  Ba23  1  0.749830  0.250000  0.500340  1
