# generated using pymatgen
data_ErMn2
_symmetry_space_group_name_H-M   'P 1'
_cell_length_a   5.06283267
_cell_length_b   5.06283267
_cell_length_c   8.29656917
_cell_angle_alpha   90.00000000
_cell_angle_beta   90.00000000
_cell_angle_gamma   119.99999994
_symmetry_Int_Tables_number   1
_chemical_formula_structural   ErMn2
_chemical_formula_sum   'Er4 Mn8'
_cell_volume   184.16891015
_cell_formula_units_Z   4
loop_
 _symmetry_equiv_pos_site_id
 _symmetry_equiv_pos_as_xyz
  1  'x, y, z'
loop_
 _atom_site_type_symbol
 _atom_site_label
 _atom_site_symmetry_multiplicity
 _atom_site_fract_x
 _atom_site_fract_y
 _atom_site_fract_z
 _atom_site_occupancy
  Mn  Mn0  1  0.168666  0.337333  0.750000  1
  Mn  Mn1  1  0.831334  0.168666  0.250000  1
  Mn  Mn2  1  0.337333  0.168666  0.250000  1
  Mn  Mn3  1  0.662667  0.831334  0.750000  1
  Mn  Mn4  1  0.000000  0.000000  0.000000  1
  Mn  Mn5  1  0.000000  0.000000  0.500000  1
  Mn  Mn6  1  0.831334  0.662667  0.250000  1
  Mn  Mn7  1  0.168666  0.831334  0.750000  1
  Er  Er8  1  0.333333  0.666667  0.437344  1
  Er  Er9  1  0.666667  0.333333  0.937344  1
  Er  Er10  1  0.666667  0.333333  0.562656  1
  Er  Er11  1  0.333333  0.666667  0.062656  1
