# generated using pymatgen
data_LiNd2IrO6
_symmetry_space_group_name_H-M   'P 1'
_cell_length_a   5.45152131
_cell_length_b   5.84090683
_cell_length_c   7.78462764
_cell_angle_alpha   90.00000000
_cell_angle_beta   90.56316238
_cell_angle_gamma   90.00000000
_symmetry_Int_Tables_number   1
_chemical_formula_structural   LiNd2IrO6
_chemical_formula_sum   'Li2 Nd4 Ir2 O12'
_cell_volume   247.86480133
_cell_formula_units_Z   2
loop_
 _symmetry_equiv_pos_site_id
 _symmetry_equiv_pos_as_xyz
  1  'x, y, z'
loop_
 _atom_site_type_symbol
 _atom_site_label
 _atom_site_symmetry_multiplicity
 _atom_site_fract_x
 _atom_site_fract_y
 _atom_site_fract_z
 _atom_site_occupancy
  Li  Li0  1  0.000000  0.000000  0.000000  1
  Li  Li1  1  0.500000  0.500000  0.500000  1
  O  O2  1  0.179467  0.288770  0.446917  1
  O  O3  1  0.320533  0.788770  0.053083  1
  O  O4  1  0.820533  0.711230  0.553083  1
  O  O5  1  0.679467  0.211230  0.946917  1
  O  O6  1  0.098791  0.029624  0.745830  1
  O  O7  1  0.401209  0.529624  0.754170  1
  O  O8  1  0.200168  0.312521  0.048465  1
  O  O9  1  0.299832  0.812521  0.451535  1
  O  O10  1  0.799832  0.687479  0.951535  1
  O  O11  1  0.700168  0.187479  0.548465  1
  O  O12  1  0.598791  0.470376  0.245830  1
  O  O13  1  0.901209  0.970376  0.254170  1
  Nd  Nd14  1  0.481397  0.073706  0.251729  1
  Nd  Nd15  1  0.018603  0.573706  0.248271  1
  Nd  Nd16  1  0.981397  0.426294  0.751729  1
  Nd  Nd17  1  0.518603  0.926294  0.748271  1
  Ir  Ir18  1  0.500000  0.500000  0.000000  1
  Ir  Ir19  1  0.000000  0.000000  0.500000  1
