# generated using pymatgen
data_Fe2SiS4
_symmetry_space_group_name_H-M   'P 1'
_cell_length_a   5.43243725
_cell_length_b   6.76057379
_cell_length_c   6.76007903
_cell_angle_alpha   59.99757740
_cell_angle_beta   90.14985092
_cell_angle_gamma   90.00000001
_symmetry_Int_Tables_number   1
_chemical_formula_structural   Fe2SiS4
_chemical_formula_sum   'Fe4 Si2 S8'
_cell_volume   215.00477131
_cell_formula_units_Z   2
loop_
 _symmetry_equiv_pos_site_id
 _symmetry_equiv_pos_as_xyz
  1  'x, y, z'
loop_
 _atom_site_type_symbol
 _atom_site_label
 _atom_site_symmetry_multiplicity
 _atom_site_fract_x
 _atom_site_fract_y
 _atom_site_fract_z
 _atom_site_occupancy
  Fe  Fe0  1  0.500000  0.500000  0.500000  1
  Fe  Fe1  1  0.500000  0.500000  0.000000  1
  Fe  Fe2  1  -0.000000  -0.000000  -0.000000  1
  Fe  Fe3  1  0.500000  0.000000  0.500000  1
  Si  Si4  1  0.083371  0.333470  0.333060  1
  Si  Si5  1  0.916629  0.666530  0.666940  1
  S  S6  1  0.252529  0.167738  0.664524  1
  S  S7  1  0.686834  0.333303  0.333395  1
  S  S8  1  0.252538  0.167723  0.167766  1
  S  S9  1  0.252538  0.664511  0.167766  1
  S  S10  1  0.747462  0.832277  0.832234  1
  S  S11  1  0.747462  0.335489  0.832234  1
  S  S12  1  0.313166  0.666697  0.666605  1
  S  S13  1  0.747471  0.832262  0.335476  1
