# generated using pymatgen
data_Sr3HoRhO6
_symmetry_space_group_name_H-M   'P 1'
_cell_length_a   6.85161956
_cell_length_b   6.85161955
_cell_length_c   6.85161955
_cell_angle_alpha   92.19087863
_cell_angle_beta   92.19087864
_cell_angle_gamma   92.19087864
_symmetry_Int_Tables_number   1
_chemical_formula_structural   Sr3HoRhO6
_chemical_formula_sum   'Sr6 Ho2 Rh2 O12'
_cell_volume   320.92327487
_cell_formula_units_Z   2
loop_
 _symmetry_equiv_pos_site_id
 _symmetry_equiv_pos_as_xyz
  1  'x, y, z'
loop_
 _atom_site_type_symbol
 _atom_site_label
 _atom_site_symmetry_multiplicity
 _atom_site_fract_x
 _atom_site_fract_y
 _atom_site_fract_z
 _atom_site_occupancy
  O  O0  1  0.792173  0.591419  0.457245  1
  O  O1  1  0.591419  0.457245  0.792173  1
  O  O2  1  0.457245  0.792173  0.591419  1
  O  O3  1  0.042755  0.908581  0.707827  1
  O  O4  1  0.908581  0.707827  0.042755  1
  O  O5  1  0.707827  0.042755  0.908581  1
  O  O6  1  0.207827  0.408581  0.542755  1
  O  O7  1  0.408581  0.542755  0.207827  1
  O  O8  1  0.542755  0.207827  0.408581  1
  O  O9  1  0.957245  0.091419  0.292173  1
  O  O10  1  0.292173  0.957245  0.091419  1
  O  O11  1  0.091419  0.292173  0.957245  1
  Sr  Sr12  1  0.618803  0.881197  0.250000  1
  Sr  Sr13  1  0.250000  0.618803  0.881197  1
  Sr  Sr14  1  0.881197  0.250000  0.618803  1
  Sr  Sr15  1  0.381197  0.118803  0.750000  1
  Sr  Sr16  1  0.118803  0.750000  0.381197  1
  Sr  Sr17  1  0.750000  0.381197  0.118803  1
  Rh  Rh18  1  0.500000  0.500000  0.500000  1
  Rh  Rh19  1  0.000000  0.000000  0.000000  1
  Ho  Ho20  1  0.750000  0.750000  0.750000  1
  Ho  Ho21  1  0.250000  0.250000  0.250000  1
