# generated using pymatgen
data_Re2O7
_symmetry_space_group_name_H-M   'P 1'
_cell_length_a   12.74065775
_cell_length_b   15.56604360
_cell_length_c   5.55836387
_cell_angle_alpha   90.00000000
_cell_angle_beta   90.00000000
_cell_angle_gamma   90.00000000
_symmetry_Int_Tables_number   1
_chemical_formula_structural   Re2O7
_chemical_formula_sum   'Re16 O56'
_cell_volume   1102.34380523
_cell_formula_units_Z   8
loop_
 _symmetry_equiv_pos_site_id
 _symmetry_equiv_pos_as_xyz
  1  'x, y, z'
loop_
 _atom_site_type_symbol
 _atom_site_label
 _atom_site_symmetry_multiplicity
 _atom_site_fract_x
 _atom_site_fract_y
 _atom_site_fract_z
 _atom_site_occupancy
  Re  Re0  1  0.023821  0.630364  0.066698  1
  Re  Re1  1  0.025549  0.356464  0.672424  1
  Re  Re2  1  0.219990  0.136658  0.814080  1
  Re  Re3  1  0.232087  0.636465  0.562519  1
  Re  Re4  1  0.267913  0.363535  0.062519  1
  Re  Re5  1  0.280010  0.863342  0.314080  1
  Re  Re6  1  0.474451  0.643536  0.172424  1
  Re  Re7  1  0.476179  0.369636  0.566698  1
  Re  Re8  1  0.523821  0.869636  0.933302  1
  Re  Re9  1  0.525549  0.143536  0.327576  1
  Re  Re10  1  0.719990  0.363342  0.185920  1
  Re  Re11  1  0.732087  0.863535  0.437481  1
  Re  Re12  1  0.767913  0.136465  0.937481  1
  Re  Re13  1  0.780010  0.636658  0.685920  1
  Re  Re14  1  0.974451  0.856464  0.827576  1
  Re  Re15  1  0.976179  0.130364  0.433302  1
  O  O16  1  0.003184  0.264531  0.483414  1
  O  O17  1  0.013300  0.950429  0.965938  1
  O  O18  1  0.053960  0.524232  0.012364  1
  O  O19  1  0.048880  0.843553  0.572968  1
  O  O20  1  0.079975  0.121827  0.235887  1
  O  O21  1  0.084165  0.130267  0.722954  1
  O  O22  1  0.126383  0.660856  0.761851  1
  O  O23  1  0.128365  0.660899  0.263796  1
  O  O24  1  0.161894  0.362598  0.255339  1
  O  O25  1  0.160355  0.360856  0.767524  1
  O  O26  1  0.208739  0.850647  0.054173  1
  O  O27  1  0.213488  0.528225  0.515505  1
  O  O28  1  0.237974  0.955862  0.454161  1
  O  O29  1  0.244366  0.227930  0.002166  1
  O  O30  1  0.255634  0.772070  0.502166  1
  O  O31  1  0.262026  0.044138  0.954161  1
  O  O32  1  0.286512  0.471775  0.015505  1
  O  O33  1  0.291261  0.149353  0.554173  1
  O  O34  1  0.339645  0.639144  0.267524  1
  O  O35  1  0.338106  0.637402  0.755339  1
  O  O36  1  0.371635  0.339101  0.763796  1
  O  O37  1  0.373617  0.339144  0.261851  1
  O  O38  1  0.415835  0.869733  0.222954  1
  O  O39  1  0.420025  0.878173  0.735887  1
  O  O40  1  0.451120  0.156447  0.072968  1
  O  O41  1  0.446040  0.475768  0.512364  1
  O  O42  1  0.486700  0.049571  0.465938  1
  O  O43  1  0.496816  0.735469  0.983414  1
  O  O44  1  0.503184  0.235469  0.516586  1
  O  O45  1  0.513300  0.549571  0.034062  1
  O  O46  1  0.553960  0.975768  0.987636  1
  O  O47  1  0.548880  0.656447  0.427032  1
  O  O48  1  0.579975  0.378173  0.764113  1
  O  O49  1  0.584165  0.369733  0.277046  1
  O  O50  1  0.626383  0.839144  0.238149  1
  O  O51  1  0.628365  0.839101  0.736204  1
  O  O52  1  0.661894  0.137402  0.744661  1
  O  O53  1  0.660355  0.139144  0.232476  1
  O  O54  1  0.708739  0.649353  0.945827  1
  O  O55  1  0.713488  0.971775  0.484495  1
  O  O56  1  0.737974  0.544138  0.545839  1
  O  O57  1  0.744366  0.272070  0.997834  1
  O  O58  1  0.755634  0.727930  0.497834  1
  O  O59  1  0.762026  0.455862  0.045839  1
  O  O60  1  0.786512  0.028225  0.984495  1
  O  O61  1  0.791261  0.350647  0.445827  1
  O  O62  1  0.839645  0.860856  0.732476  1
  O  O63  1  0.838106  0.862598  0.244661  1
  O  O64  1  0.871635  0.160899  0.236204  1
  O  O65  1  0.873617  0.160856  0.738149  1
  O  O66  1  0.915835  0.630267  0.777046  1
  O  O67  1  0.920025  0.621827  0.264113  1
  O  O68  1  0.951120  0.343553  0.927032  1
  O  O69  1  0.946040  0.024232  0.487636  1
  O  O70  1  0.986700  0.450429  0.534062  1
  O  O71  1  0.996816  0.764531  0.016586  1
