# generated using pymatgen
data_Ba2H3I
_symmetry_space_group_name_H-M   'P 1'
_cell_length_a   4.53669541
_cell_length_b   4.53682478
_cell_length_c   8.16797909
_cell_angle_alpha   89.99999999
_cell_angle_beta   89.99961384
_cell_angle_gamma   120.00094819
_symmetry_Int_Tables_number   1
_chemical_formula_structural   Ba2H3I
_chemical_formula_sum   'Ba2 H3 I1'
_cell_volume   145.59039609
_cell_formula_units_Z   1
loop_
 _symmetry_equiv_pos_site_id
 _symmetry_equiv_pos_as_xyz
  1  'x, y, z'
loop_
 _atom_site_type_symbol
 _atom_site_label
 _atom_site_symmetry_multiplicity
 _atom_site_fract_x
 _atom_site_fract_y
 _atom_site_fract_z
 _atom_site_occupancy
  Ba  Ba0  1  0.666665  0.333332  0.684470  1
  Ba  Ba1  1  0.333335  0.666668  0.315530  1
  H  H2  1  0.666674  0.333337  0.355946  1
  H  H3  1  0.333326  0.666663  0.644054  1
  H  H4  1  0.000000  0.000000  0.500000  1
  I  I5  1  0.000000  0.000000  0.000000  1
