# generated using pymatgen
data_Li4Ca2Mg(SiN3)2
_symmetry_space_group_name_H-M   'P 1'
_cell_length_a   5.64797877
_cell_length_b   5.74802412
_cell_length_c   5.74802412
_cell_angle_alpha   117.85809414
_cell_angle_beta   92.52394872
_cell_angle_gamma   92.52394872
_symmetry_Int_Tables_number   1
_chemical_formula_structural   Li4Ca2Mg(SiN3)2
_chemical_formula_sum   'Li4 Ca2 Mg1 Si2 N6'
_cell_volume   164.37986129
_cell_formula_units_Z   1
loop_
 _symmetry_equiv_pos_site_id
 _symmetry_equiv_pos_as_xyz
  1  'x, y, z'
loop_
 _atom_site_type_symbol
 _atom_site_label
 _atom_site_symmetry_multiplicity
 _atom_site_fract_x
 _atom_site_fract_y
 _atom_site_fract_z
 _atom_site_occupancy
  Li  Li0  1  0.624698  0.989545  0.332187  1
  Li  Li1  1  0.624698  0.332187  0.989545  1
  Li  Li2  1  0.375302  0.010455  0.667813  1
  Li  Li3  1  0.375302  0.667813  0.010455  1
  Ca  Ca4  1  0.000000  0.321990  0.678010  1
  Ca  Ca5  1  0.000000  0.678010  0.321990  1
  Mg  Mg6  1  0.000000  0.000000  -0.000000  1
  Si  Si7  1  0.366921  0.321964  0.321964  1
  Si  Si8  1  0.633079  0.678036  0.678036  1
  N  N9  1  0.313205  0.621823  0.621823  1
  N  N10  1  0.686795  0.378177  0.378177  1
  N  N11  1  0.251658  0.033935  0.322369  1
  N  N12  1  0.251658  0.322369  0.033935  1
  N  N13  1  0.748342  0.966065  0.677631  1
  N  N14  1  0.748342  0.677631  0.966065  1
