# generated using pymatgen
data_LiGaSiO4
_symmetry_space_group_name_H-M   'P 1'
_cell_length_a   8.55777982
_cell_length_b   8.55777982
_cell_length_c   8.55777982
_cell_angle_alpha   107.87820932
_cell_angle_beta   107.87820935
_cell_angle_gamma   107.87820934
_symmetry_Int_Tables_number   1
_chemical_formula_structural   LiGaSiO4
_chemical_formula_sum   'Li6 Ga6 Si6 O24'
_cell_volume   508.92850785
_cell_formula_units_Z   6
loop_
 _symmetry_equiv_pos_site_id
 _symmetry_equiv_pos_as_xyz
  1  'x, y, z'
loop_
 _atom_site_type_symbol
 _atom_site_label
 _atom_site_symmetry_multiplicity
 _atom_site_fract_x
 _atom_site_fract_y
 _atom_site_fract_z
 _atom_site_occupancy
  Li  Li0  1  0.210476  0.433687  0.608789  1
  Li  Li1  1  0.723647  0.125993  0.893508  1
  Li  Li2  1  0.125993  0.893508  0.723647  1
  Li  Li3  1  0.893508  0.723647  0.125993  1
  Li  Li4  1  0.433687  0.608789  0.210476  1
  Li  Li5  1  0.608789  0.210476  0.433687  1
  O  O6  1  0.704822  0.379337  0.698689  1
  O  O7  1  0.357246  0.297157  0.630443  1
  O  O8  1  0.630443  0.357246  0.297157  1
  O  O9  1  0.003063  0.062349  0.731051  1
  O  O10  1  0.062349  0.731051  0.003063  1
  O  O11  1  0.731051  0.003063  0.062349  1
  O  O12  1  0.994002  0.976889  0.310954  1
  O  O13  1  0.976889  0.310954  0.994002  1
  O  O14  1  0.310954  0.994002  0.976889  1
  O  O15  1  0.297157  0.630443  0.357246  1
  O  O16  1  0.698689  0.704822  0.379337  1
  O  O17  1  0.379337  0.698689  0.704822  1
  O  O18  1  0.601618  0.936500  0.631997  1
  O  O19  1  0.631997  0.601618  0.936500  1
  O  O20  1  0.936500  0.631997  0.601618  1
  O  O21  1  0.353051  0.019872  0.307242  1
  O  O22  1  0.307242  0.353051  0.019872  1
  O  O23  1  0.019872  0.307242  0.353051  1
  O  O24  1  0.082086  0.403982  0.760734  1
  O  O25  1  0.760734  0.082086  0.403982  1
  O  O26  1  0.403982  0.760734  0.082086  1
  O  O27  1  0.909851  0.578351  0.264527  1
  O  O28  1  0.264527  0.909851  0.578351  1
  O  O29  1  0.578351  0.264527  0.909851  1
  Si  Si30  1  0.281528  0.875842  0.094616  1
  Si  Si31  1  0.875842  0.094616  0.281528  1
  Si  Si32  1  0.094616  0.281528  0.875842  1
  Si  Si33  1  0.566586  0.387967  0.795813  1
  Si  Si34  1  0.387967  0.795813  0.566586  1
  Si  Si35  1  0.795813  0.566586  0.387967  1
  Ga  Ga36  1  0.237815  0.053092  0.457736  1
  Ga  Ga37  1  0.053092  0.457736  0.237815  1
  Ga  Ga38  1  0.457736  0.237815  0.053092  1
  Ga  Ga39  1  0.769410  0.944647  0.534637  1
  Ga  Ga40  1  0.944647  0.534637  0.769410  1
  Ga  Ga41  1  0.534637  0.769410  0.944647  1
