# generated using pymatgen
data_TeMoWSeS2
_symmetry_space_group_name_H-M   'P 1'
_cell_length_a   3.30572482
_cell_length_b   3.30574790
_cell_length_c   44.77606845
_cell_angle_alpha   89.98742481
_cell_angle_beta   90.00000000
_cell_angle_gamma   119.99976908
_symmetry_Int_Tables_number   1
_chemical_formula_structural   TeMoWSeS2
_chemical_formula_sum   'Te2 Mo2 W2 Se2 S4'
_cell_volume   423.75419929
_cell_formula_units_Z   2
loop_
 _symmetry_equiv_pos_site_id
 _symmetry_equiv_pos_as_xyz
  1  'x, y, z'
loop_
 _atom_site_type_symbol
 _atom_site_label
 _atom_site_symmetry_multiplicity
 _atom_site_fract_x
 _atom_site_fract_y
 _atom_site_fract_z
 _atom_site_occupancy
  Te  Te0  1  0.666707  0.333414  0.429307  1
  Te  Te1  1  0.666617  0.333233  0.514714  1
  Mo  Mo2  1  0.333480  0.666959  0.093536  1
  Mo  Mo3  1  0.333318  0.666635  0.472054  1
  W  W4  1  0.666641  0.333282  0.277382  1
  W  W5  1  0.666532  0.333064  0.659964  1
  Se  Se6  1  0.333181  0.666364  0.315064  1
  Se  Se7  1  0.333451  0.666902  0.239685  1
  S  S8  1  0.333123  0.666248  0.694264  1
  S  S9  1  0.666900  0.333798  0.059423  1
  S  S10  1  0.666783  0.333565  0.127651  1
  S  S11  1  0.333267  0.666535  0.625703  1
