# generated using pymatgen
data_K2Pd3Se4
_symmetry_space_group_name_H-M   'P 1'
_cell_length_a   6.43102917
_cell_length_b   6.46558070
_cell_length_c   13.85333283
_cell_angle_alpha   83.37125879
_cell_angle_beta   76.57859738
_cell_angle_gamma   60.17661845
_symmetry_Int_Tables_number   1
_chemical_formula_structural   K2Pd3Se4
_chemical_formula_sum   'K4 Pd6 Se8'
_cell_volume   486.09058080
_cell_formula_units_Z   2
loop_
 _symmetry_equiv_pos_site_id
 _symmetry_equiv_pos_as_xyz
  1  'x, y, z'
loop_
 _atom_site_type_symbol
 _atom_site_label
 _atom_site_symmetry_multiplicity
 _atom_site_fract_x
 _atom_site_fract_y
 _atom_site_fract_z
 _atom_site_occupancy
  K  K0  1  0.301632  0.250000  0.396737  1
  K  K1  1  0.448368  0.250000  0.103263  1
  K  K2  1  0.698368  0.750000  0.603263  1
  K  K3  1  0.551632  0.750000  0.896737  1
  Se  Se4  1  0.347016  0.417251  0.627327  1
  Se  Se5  1  0.025656  0.082749  0.627327  1
  Se  Se6  1  0.235733  0.417251  0.872673  1
  Se  Se7  1  0.108406  0.917251  0.127327  1
  Se  Se8  1  0.652984  0.582749  0.372673  1
  Se  Se9  1  0.891594  0.082749  0.872673  1
  Se  Se10  1  0.764267  0.582749  0.127327  1
  Se  Se11  1  0.974344  0.917251  0.372673  1
  Pd  Pd12  1  0.374071  0.750000  0.251859  1
  Pd  Pd13  1  0.124071  0.250000  0.751859  1
  Pd  Pd14  1  0.625929  0.250000  0.748141  1
  Pd  Pd15  1  0.125000  0.750000  0.750000  1
  Pd  Pd16  1  0.875000  0.250000  0.250000  1
  Pd  Pd17  1  0.875929  0.750000  0.248141  1
