# generated using pymatgen
data_K2TeOF4
_symmetry_space_group_name_H-M   'P 1'
_cell_length_a   6.43772845
_cell_length_b   6.72101514
_cell_length_c   7.83890053
_cell_angle_alpha   90.00000000
_cell_angle_beta   114.24422811
_cell_angle_gamma   90.00000000
_symmetry_Int_Tables_number   1
_chemical_formula_structural   K2TeOF4
_chemical_formula_sum   'K4 Te2 O2 F8'
_cell_volume   309.26010246
_cell_formula_units_Z   2
loop_
 _symmetry_equiv_pos_site_id
 _symmetry_equiv_pos_as_xyz
  1  'x, y, z'
loop_
 _atom_site_type_symbol
 _atom_site_label
 _atom_site_symmetry_multiplicity
 _atom_site_fract_x
 _atom_site_fract_y
 _atom_site_fract_z
 _atom_site_occupancy
  O  O0  1  0.237155  0.250000  0.474311  1
  O  O1  1  0.762845  0.750000  0.525689  1
  F  F2  1  0.347596  0.467416  0.224613  1
  F  F3  1  0.122983  0.532584  0.775387  1
  F  F4  1  0.347596  0.032584  0.224613  1
  F  F5  1  0.122983  0.967416  0.775387  1
  F  F6  1  0.652404  0.967416  0.775387  1
  F  F7  1  0.877017  0.032584  0.224613  1
  F  F8  1  0.877017  0.467416  0.224613  1
  F  F9  1  0.652404  0.532584  0.775387  1
  K  K10  1  0.573043  0.750000  0.146086  1
  K  K11  1  0.426957  0.250000  0.853915  1
  K  K12  1  0.249528  0.750000  0.499057  1
  K  K13  1  0.750472  0.250000  0.500943  1
  Te  Te14  1  0.889977  0.750000  0.779954  1
  Te  Te15  1  0.110023  0.250000  0.220046  1
