# generated using pymatgen
data_MoW3(SeS)4
_symmetry_space_group_name_H-M   'P 1'
_cell_length_a   3.25565323
_cell_length_b   3.25567244
_cell_length_c   36.94601658
_cell_angle_alpha   89.99969867
_cell_angle_beta   90.00000000
_cell_angle_gamma   119.99980469
_symmetry_Int_Tables_number   1
_chemical_formula_structural   MoW3(SeS)4
_chemical_formula_sum   'Mo1 W3 Se4 S4'
_cell_volume   339.13916862
_cell_formula_units_Z   1
loop_
 _symmetry_equiv_pos_site_id
 _symmetry_equiv_pos_as_xyz
  1  'x, y, z'
loop_
 _atom_site_type_symbol
 _atom_site_label
 _atom_site_symmetry_multiplicity
 _atom_site_fract_x
 _atom_site_fract_y
 _atom_site_fract_z
 _atom_site_occupancy
  Mo  Mo0  1  0.333315  0.666629  0.469631  1
  W  W1  1  0.333310  0.666620  0.093913  1
  W  W2  1  0.666688  0.333376  0.281786  1
  W  W3  1  0.666688  0.333376  0.657587  1
  Se  Se4  1  0.333349  0.666700  0.703828  1
  Se  Se5  1  0.666654  0.333307  0.423670  1
  Se  Se6  1  0.666650  0.333299  0.515609  1
  Se  Se7  1  0.333350  0.666702  0.611320  1
  S  S8  1  0.333350  0.666701  0.323758  1
  S  S9  1  0.666648  0.333295  0.051934  1
  S  S10  1  0.666647  0.333293  0.135896  1
  S  S11  1  0.333351  0.666703  0.239817  1
