# generated using pymatgen
data_K3YbSi2O7
_symmetry_space_group_name_H-M   'P 1'
_cell_length_a   10.05545791
_cell_length_b   10.05545791
_cell_length_c   14.59742389
_cell_angle_alpha   90.00000000
_cell_angle_beta   90.00000000
_cell_angle_gamma   119.99999997
_symmetry_Int_Tables_number   1
_chemical_formula_structural   K3YbSi2O7
_chemical_formula_sum   'K18 Yb6 Si12 O42'
_cell_volume   1278.23456251
_cell_formula_units_Z   6
loop_
 _symmetry_equiv_pos_site_id
 _symmetry_equiv_pos_as_xyz
  1  'x, y, z'
loop_
 _atom_site_type_symbol
 _atom_site_label
 _atom_site_symmetry_multiplicity
 _atom_site_fract_x
 _atom_site_fract_y
 _atom_site_fract_z
 _atom_site_occupancy
  O  O0  1  0.403787  0.000000  0.750000  1
  O  O1  1  0.403787  0.403787  0.250000  1
  O  O2  1  0.000000  0.596213  0.250000  1
  O  O3  1  0.000000  0.403787  0.750000  1
  O  O4  1  0.596213  0.596213  0.750000  1
  O  O5  1  0.596213  0.000000  0.250000  1
  O  O6  1  0.821698  0.821698  0.855993  1
  O  O7  1  0.178302  0.000000  0.855993  1
  O  O8  1  0.000000  0.178302  0.855993  1
  O  O9  1  0.000000  0.821698  0.355993  1
  O  O10  1  0.178302  0.000000  0.644007  1
  O  O11  1  0.178302  0.178302  0.355993  1
  O  O12  1  0.821698  0.000000  0.355993  1
  O  O13  1  0.178302  0.178302  0.144007  1
  O  O14  1  0.000000  0.821698  0.144007  1
  O  O15  1  0.000000  0.178302  0.644007  1
  O  O16  1  0.821698  0.821698  0.644007  1
  O  O17  1  0.821698  0.000000  0.144007  1
  O  O18  1  0.323482  0.847187  0.907382  1
  O  O19  1  0.152813  0.476295  0.907382  1
  O  O20  1  0.523705  0.676518  0.907382  1
  O  O21  1  0.476295  0.323482  0.407382  1
  O  O22  1  0.676518  0.523705  0.592618  1
  O  O23  1  0.676518  0.152813  0.407382  1
  O  O24  1  0.847187  0.523705  0.407382  1
  O  O25  1  0.152813  0.676518  0.092618  1
  O  O26  1  0.523705  0.847187  0.092618  1
  O  O27  1  0.476295  0.152813  0.592618  1
  O  O28  1  0.847187  0.323482  0.592618  1
  O  O29  1  0.323482  0.476295  0.092618  1
  O  O30  1  0.676518  0.152813  0.092618  1
  O  O31  1  0.847187  0.523705  0.092618  1
  O  O32  1  0.476295  0.323482  0.092618  1
  O  O33  1  0.523705  0.676518  0.592618  1
  O  O34  1  0.323482  0.476295  0.407382  1
  O  O35  1  0.323482  0.847187  0.592618  1
  O  O36  1  0.676518  0.523705  0.907382  1
  O  O37  1  0.152813  0.676518  0.407382  1
  O  O38  1  0.523705  0.847187  0.407382  1
  O  O39  1  0.476295  0.152813  0.907382  1
  O  O40  1  0.847187  0.323482  0.907382  1
  O  O41  1  0.152813  0.476295  0.592618  1
  Si  Si42  1  0.659693  0.659693  0.856772  1
  Si  Si43  1  0.340307  0.000000  0.856772  1
  Si  Si44  1  0.000000  0.340307  0.856772  1
  Si  Si45  1  0.000000  0.659693  0.356772  1
  Si  Si46  1  0.340307  0.000000  0.643228  1
  Si  Si47  1  0.340307  0.340307  0.356772  1
  Si  Si48  1  0.659693  0.000000  0.356772  1
  Si  Si49  1  0.340307  0.340307  0.143228  1
  Si  Si50  1  0.000000  0.659693  0.143228  1
  Si  Si51  1  0.000000  0.340307  0.643228  1
  Si  Si52  1  0.659693  0.659693  0.643228  1
  Si  Si53  1  0.659693  0.000000  0.143228  1
  K  K54  1  0.000000  0.000000  0.500000  1
  K  K55  1  0.334949  0.000000  0.085755  1
  K  K56  1  0.334949  0.334949  0.585755  1
  K  K57  1  0.000000  0.665051  0.585755  1
  K  K58  1  0.000000  0.334949  0.085755  1
  K  K59  1  0.665051  0.665051  0.085755  1
  K  K60  1  0.334949  0.000000  0.414245  1
  K  K61  1  0.000000  0.000000  0.000000  1
  K  K62  1  0.333333  0.666667  0.750000  1
  K  K63  1  0.666667  0.333333  0.250000  1
  K  K64  1  0.666667  0.333333  0.750000  1
  K  K65  1  0.333333  0.666667  0.250000  1
  K  K66  1  0.665051  0.665051  0.414245  1
  K  K67  1  0.665051  0.000000  0.914245  1
  K  K68  1  0.000000  0.665051  0.914245  1
  K  K69  1  0.000000  0.334949  0.414245  1
  K  K70  1  0.665051  0.000000  0.585755  1
  K  K71  1  0.334949  0.334949  0.914245  1
  Yb  Yb72  1  0.000000  0.000000  0.750000  1
  Yb  Yb73  1  0.333333  0.666667  0.000000  1
  Yb  Yb74  1  0.666667  0.333333  0.500000  1
  Yb  Yb75  1  0.666667  0.333333  0.000000  1
  Yb  Yb76  1  0.333333  0.666667  0.500000  1
  Yb  Yb77  1  0.000000  0.000000  0.250000  1
