# generated using pymatgen
data_K2LiAlF6
_symmetry_space_group_name_H-M   'P 1'
_cell_length_a   9.90805467
_cell_length_b   9.90805468
_cell_length_c   9.90805467
_cell_angle_alpha   33.52723153
_cell_angle_beta   33.52723149
_cell_angle_gamma   33.52723151
_symmetry_Int_Tables_number   1
_chemical_formula_structural   K2LiAlF6
_chemical_formula_sum   'K4 Li2 Al2 F12'
_cell_volume   264.29504470
_cell_formula_units_Z   2
loop_
 _symmetry_equiv_pos_site_id
 _symmetry_equiv_pos_as_xyz
  1  'x, y, z'
loop_
 _atom_site_type_symbol
 _atom_site_label
 _atom_site_symmetry_multiplicity
 _atom_site_fract_x
 _atom_site_fract_y
 _atom_site_fract_z
 _atom_site_occupancy
  Li  Li0  1  0.596999  0.596999  0.596999  1
  Li  Li1  1  0.403001  0.403001  0.403001  1
  F  F2  1  0.190483  0.190483  0.731936  1
  F  F3  1  0.190483  0.731936  0.190483  1
  F  F4  1  0.731936  0.190483  0.190483  1
  F  F5  1  0.268064  0.809517  0.809517  1
  F  F6  1  0.608852  0.164985  0.608852  1
  F  F7  1  0.608852  0.608852  0.164985  1
  F  F8  1  0.164985  0.608852  0.608852  1
  F  F9  1  0.835015  0.391148  0.391148  1
  F  F10  1  0.391148  0.835015  0.391148  1
  F  F11  1  0.391148  0.391148  0.835015  1
  F  F12  1  0.809517  0.268064  0.809517  1
  F  F13  1  0.809517  0.809517  0.268064  1
  Al  Al14  1  0.500000  0.500000  0.500000  1
  Al  Al15  1  0.000000  0.000000  0.000000  1
  K  K16  1  0.719502  0.719502  0.719502  1
  K  K17  1  0.280498  0.280498  0.280498  1
  K  K18  1  0.872123  0.872123  0.872123  1
  K  K19  1  0.127877  0.127877  0.127877  1
