# generated using pymatgen
data_SiO2
_symmetry_space_group_name_H-M   'P 1'
_cell_length_a   5.03445515
_cell_length_b   7.48573888
_cell_length_c   7.52768318
_cell_angle_alpha   73.06299134
_cell_angle_beta   70.46418335
_cell_angle_gamma   70.35023048
_symmetry_Int_Tables_number   1
_chemical_formula_structural   SiO2
_chemical_formula_sum   'Si6 O12'
_cell_volume   246.62539476
_cell_formula_units_Z   6
loop_
 _symmetry_equiv_pos_site_id
 _symmetry_equiv_pos_as_xyz
  1  'x, y, z'
loop_
 _atom_site_type_symbol
 _atom_site_label
 _atom_site_symmetry_multiplicity
 _atom_site_fract_x
 _atom_site_fract_y
 _atom_site_fract_z
 _atom_site_occupancy
  O  O0  1  0.719258  0.440522  0.701816  1
  O  O1  1  0.861596  0.059478  0.798184  1
  O  O2  1  0.280742  0.559478  0.298184  1
  O  O3  1  0.138404  0.940522  0.201816  1
  O  O4  1  0.265601  0.236994  0.566372  1
  O  O5  1  0.068967  0.263006  0.933628  1
  O  O6  1  0.245933  0.732889  0.700165  1
  O  O7  1  0.678986  0.767111  0.799835  1
  O  O8  1  0.754067  0.267111  0.299835  1
  O  O9  1  0.321014  0.232889  0.200165  1
  O  O10  1  0.931033  0.736994  0.066372  1
  O  O11  1  0.734399  0.763006  0.433628  1
  Si  Si12  1  0.400751  0.324632  0.341433  1
  Si  Si13  1  0.066816  0.175368  0.158567  1
  Si  Si14  1  0.599249  0.675368  0.658567  1
  Si  Si15  1  0.933184  0.824632  0.841433  1
  Si  Si16  1  0.979341  0.250000  0.750000  1
  Si  Si17  1  0.020659  0.750000  0.250000  1
