# generated using pymatgen
data_ThCoSi
_symmetry_space_group_name_H-M   'P 1'
_cell_length_a   4.09136460
_cell_length_b   4.09136460
_cell_length_c   7.42939281
_cell_angle_alpha   105.98286485
_cell_angle_beta   105.98286485
_cell_angle_gamma   90.00000000
_symmetry_Int_Tables_number   1
_chemical_formula_structural   ThCoSi
_chemical_formula_sum   'Th2 Co2 Si2'
_cell_volume   114.54629190
_cell_formula_units_Z   2
loop_
 _symmetry_equiv_pos_site_id
 _symmetry_equiv_pos_as_xyz
  1  'x, y, z'
loop_
 _atom_site_type_symbol
 _atom_site_label
 _atom_site_symmetry_multiplicity
 _atom_site_fract_x
 _atom_site_fract_y
 _atom_site_fract_z
 _atom_site_occupancy
  Th  Th0  1  0.577209  0.577209  0.154418  1
  Th  Th1  1  0.827209  0.327209  0.654418  1
  Co  Co2  1  0.170236  0.170236  0.340472  1
  Co  Co3  1  0.420236  0.920236  0.840472  1
  Si  Si4  1  0.999555  0.999555  0.999110  1
  Si  Si5  1  0.249555  0.749555  0.499110  1
