# generated using pymatgen
data_FeCu2SiSe4
_symmetry_space_group_name_H-M   'P 1'
_cell_length_a   5.58705377
_cell_length_b   5.58705377
_cell_length_c   6.78778756
_cell_angle_alpha   114.30236030
_cell_angle_beta   114.30236030
_cell_angle_gamma   90.00000000
_symmetry_Int_Tables_number   1
_chemical_formula_structural   FeCu2SiSe4
_chemical_formula_sum   'Fe1 Cu2 Si1 Se4'
_cell_volume   172.29663921
_cell_formula_units_Z   1
loop_
 _symmetry_equiv_pos_site_id
 _symmetry_equiv_pos_as_xyz
  1  'x, y, z'
loop_
 _atom_site_type_symbol
 _atom_site_label
 _atom_site_symmetry_multiplicity
 _atom_site_fract_x
 _atom_site_fract_y
 _atom_site_fract_z
 _atom_site_occupancy
  Fe  Fe0  1  -0.000000  0.000000  0.000000  1
  Cu  Cu1  1  0.250000  0.750000  0.500000  1
  Cu  Cu2  1  0.750000  0.250000  0.500000  1
  Si  Si3  1  0.500000  0.500000  0.000000  1
  Se  Se4  1  0.381115  0.381115  0.247372  1
  Se  Se5  1  0.866257  0.866257  0.247372  1
  Se  Se6  1  0.133743  0.618885  0.752628  1
  Se  Se7  1  0.618885  0.133743  0.752628  1
