# generated using pymatgen
data_Lu2MgSe4
_symmetry_space_group_name_H-M   'P 1'
_cell_length_a   8.14817181
_cell_length_b   8.14817181
_cell_length_c   8.14817181
_cell_angle_alpha   59.99999995
_cell_angle_beta   59.99999996
_cell_angle_gamma   59.99999999
_symmetry_Int_Tables_number   1
_chemical_formula_structural   Lu2MgSe4
_chemical_formula_sum   'Lu4 Mg2 Se8'
_cell_volume   382.53003069
_cell_formula_units_Z   2
loop_
 _symmetry_equiv_pos_site_id
 _symmetry_equiv_pos_as_xyz
  1  'x, y, z'
loop_
 _atom_site_type_symbol
 _atom_site_label
 _atom_site_symmetry_multiplicity
 _atom_site_fract_x
 _atom_site_fract_y
 _atom_site_fract_z
 _atom_site_occupancy
  Mg  Mg0  1  0.875000  0.875000  0.875000  1
  Mg  Mg1  1  0.125000  0.125000  0.125000  1
  Se  Se2  1  0.255833  0.255833  0.732502  1
  Se  Se3  1  0.744167  0.744167  0.744167  1
  Se  Se4  1  0.744167  0.744167  0.267498  1
  Se  Se5  1  0.255833  0.732502  0.255833  1
  Se  Se6  1  0.255833  0.255833  0.255833  1
  Se  Se7  1  0.267498  0.744167  0.744167  1
  Se  Se8  1  0.744167  0.267498  0.744167  1
  Se  Se9  1  0.732502  0.255833  0.255833  1
  Lu  Lu10  1  0.500000  0.500000  0.500000  1
  Lu  Lu11  1  0.500000  0.000000  0.500000  1
  Lu  Lu12  1  0.000000  0.500000  0.500000  1
  Lu  Lu13  1  0.500000  0.500000  0.000000  1
