# generated using pymatgen
data_YMnO3
_symmetry_space_group_name_H-M   'P 1'
_cell_length_a   6.23349453
_cell_length_b   6.23349453
_cell_length_c   11.58942265
_cell_angle_alpha   90.00000000
_cell_angle_beta   90.00000000
_cell_angle_gamma   120.00000003
_symmetry_Int_Tables_number   1
_chemical_formula_structural   YMnO3
_chemical_formula_sum   'Y6 Mn6 O18'
_cell_volume   389.99191044
_cell_formula_units_Z   6
loop_
 _symmetry_equiv_pos_site_id
 _symmetry_equiv_pos_as_xyz
  1  'x, y, z'
loop_
 _atom_site_type_symbol
 _atom_site_label
 _atom_site_symmetry_multiplicity
 _atom_site_fract_x
 _atom_site_fract_y
 _atom_site_fract_z
 _atom_site_occupancy
  O  O0  1  0.666666  0.333333  0.021233  1
  O  O1  1  0.333333  0.666666  0.521233  1
  O  O2  1  0.666666  0.333333  0.521233  1
  O  O3  1  0.333333  0.666666  0.021233  1
  O  O4  1  0.000000  0.000000  0.977539  1
  O  O5  1  0.000000  0.000000  0.477540  1
  O  O6  1  0.358616  0.000000  0.837277  1
  O  O7  1  0.358616  0.358617  0.337277  1
  O  O8  1  0.000001  0.641385  0.337277  1
  O  O9  1  0.000001  0.358617  0.837277  1
  O  O10  1  0.641384  0.641385  0.837277  1
  O  O11  1  0.641384  0.000000  0.337277  1
  O  O12  1  0.307677  0.000000  0.165666  1
  O  O13  1  0.307676  0.307677  0.665666  1
  O  O14  1  1.000000  0.692323  0.665666  1
  O  O15  1  0.692323  0.000000  0.665666  1
  O  O16  1  0.692323  0.692323  0.165666  1
  O  O17  1  0.000001  0.307677  0.165666  1
  Mn  Mn18  1  0.666388  0.000000  0.501380  1
  Mn  Mn19  1  0.666389  0.666388  0.001380  1
  Mn  Mn20  1  1.000000  0.333611  0.001380  1
  Mn  Mn21  1  0.999999  0.666388  0.501380  1
  Mn  Mn22  1  0.333611  0.333611  0.501380  1
  Mn  Mn23  1  0.333612  0.000000  0.001380  1
  Y  Y24  1  0.666666  0.333333  0.232969  1
  Y  Y25  1  0.333333  0.666666  0.732970  1
  Y  Y26  1  0.666666  0.333333  0.732970  1
  Y  Y27  1  0.333333  0.666666  0.232969  1
  Y  Y28  1  0.000000  0.000000  0.776087  1
  Y  Y29  1  0.000000  0.000000  0.276087  1
