# generated using pymatgen
data_Na4CrO4
_symmetry_space_group_name_H-M   'P 1'
_cell_length_a   5.77025697
_cell_length_b   5.76992246
_cell_length_c   8.73049331
_cell_angle_alpha   71.38539471
_cell_angle_beta   81.25042630
_cell_angle_gamma   68.30647475
_symmetry_Int_Tables_number   1
_chemical_formula_structural   Na4CrO4
_chemical_formula_sum   'Na8 Cr2 O8'
_cell_volume   255.76416780
_cell_formula_units_Z   2
loop_
 _symmetry_equiv_pos_site_id
 _symmetry_equiv_pos_as_xyz
  1  'x, y, z'
loop_
 _atom_site_type_symbol
 _atom_site_label
 _atom_site_symmetry_multiplicity
 _atom_site_fract_x
 _atom_site_fract_y
 _atom_site_fract_z
 _atom_site_occupancy
  O  O0  1  0.152558  0.149837  0.069680  1
  O  O1  1  0.027070  0.295382  0.376762  1
  O  O2  1  0.972936  0.704616  0.623234  1
  O  O3  1  0.529389  0.637653  0.803926  1
  O  O4  1  0.470617  0.362353  0.196071  1
  O  O5  1  0.472355  0.836539  0.360885  1
  O  O6  1  0.847451  0.850165  0.930327  1
  O  O7  1  0.527648  0.163459  0.639115  1
  Na  Na8  1  0.757650  0.052906  0.398369  1
  Na  Na9  1  0.733557  0.605788  0.181547  1
  Na  Na10  1  0.266444  0.394212  0.818451  1
  Na  Na11  1  0.246501  0.759224  0.012747  1
  Na  Na12  1  0.753503  0.240778  0.987251  1
  Na  Na13  1  0.265146  0.521100  0.432484  1
  Na  Na14  1  0.242353  0.947096  0.601631  1
  Na  Na15  1  0.734853  0.478902  0.567514  1
  Cr  Cr16  1  0.279343  0.156053  0.242762  1
  Cr  Cr17  1  0.720624  0.843930  0.757246  1
