# generated using pymatgen
data_Ni6Cl7
_symmetry_space_group_name_H-M   'P 1'
_cell_length_a   6.06102937
_cell_length_b   6.99050144
_cell_length_c   10.63313304
_cell_angle_alpha   89.60090457
_cell_angle_beta   95.90488003
_cell_angle_gamma   106.43160709
_symmetry_Int_Tables_number   1
_chemical_formula_structural   Ni6Cl7
_chemical_formula_sum   'Ni12 Cl14'
_cell_volume   429.71326197
_cell_formula_units_Z   2
loop_
 _symmetry_equiv_pos_site_id
 _symmetry_equiv_pos_as_xyz
  1  'x, y, z'
loop_
 _atom_site_type_symbol
 _atom_site_label
 _atom_site_symmetry_multiplicity
 _atom_site_fract_x
 _atom_site_fract_y
 _atom_site_fract_z
 _atom_site_occupancy
  Ni  Ni0  1  0.858870  0.215624  0.715605  1
  Ni  Ni1  1  0.858612  0.713557  0.708823  1
  Ni  Ni2  1  0.715907  0.430286  0.426755  1
  Ni  Ni3  1  0.426950  0.855428  0.858959  1
  Ni  Ni4  1  0.571429  0.142857  0.142857  1
  Ni  Ni5  1  0.571429  0.642857  0.142857  1
  Ni  Ni6  1  0.283987  0.070090  0.570110  1
  Ni  Ni7  1  0.284246  0.572158  0.576891  1
  Ni  Ni8  1  0.146698  0.281528  0.288049  1
  Ni  Ni9  1  0.147667  0.794508  0.293736  1
  Ni  Ni10  1  0.996159  0.004186  0.997665  1
  Ni  Ni11  1  0.995190  0.491206  0.991979  1
  Cl  Cl12  1  0.021898  0.749141  0.497902  1
  Cl  Cl13  1  0.714989  0.175011  0.930026  1
  Cl  Cl14  1  0.721255  0.681007  0.947648  1
  Cl  Cl15  1  0.855990  0.454183  0.221943  1
  Cl  Cl16  1  0.869040  0.967498  0.213979  1
  Cl  Cl17  1  0.579949  0.402919  0.627729  1
  Cl  Cl18  1  0.562908  0.882795  0.657985  1
  Cl  Cl19  1  0.427868  0.110703  0.355688  1
  Cl  Cl20  1  0.421602  0.604707  0.338066  1
  Cl  Cl21  1  0.124092  0.023798  0.778935  1
  Cl  Cl22  1  0.120959  0.536573  0.787812  1
  Cl  Cl23  1  0.273818  0.318216  0.071735  1
  Cl  Cl24  1  0.286867  0.831531  0.063771  1
  Cl  Cl25  1  0.018766  0.261916  0.506779  1
