# generated using pymatgen
data_Sr2CaWO6
_symmetry_space_group_name_H-M   'P 1'
_cell_length_a   5.83867995
_cell_length_b   6.10664375
_cell_length_c   8.36580941
_cell_angle_alpha   90.00000000
_cell_angle_beta   90.00000000
_cell_angle_gamma   90.00000000
_symmetry_Int_Tables_number   1
_chemical_formula_structural   Sr2CaWO6
_chemical_formula_sum   'Sr4 Ca2 W2 O12'
_cell_volume   298.28074623
_cell_formula_units_Z   2
loop_
 _symmetry_equiv_pos_site_id
 _symmetry_equiv_pos_as_xyz
  1  'x, y, z'
loop_
 _atom_site_type_symbol
 _atom_site_label
 _atom_site_symmetry_multiplicity
 _atom_site_fract_x
 _atom_site_fract_y
 _atom_site_fract_z
 _atom_site_occupancy
  O  O0  1  0.500000  0.513056  0.732628  1
  O  O1  1  0.500000  0.513056  0.267372  1
  O  O2  1  0.000000  0.948884  0.767372  1
  O  O3  1  0.000000  0.948884  0.232628  1
  O  O4  1  0.732985  0.732968  0.500000  1
  O  O5  1  0.267015  0.732968  0.500000  1
  O  O6  1  0.744601  0.286176  0.500000  1
  O  O7  1  0.255399  0.286176  0.500000  1
  O  O8  1  0.244604  0.175816  0.000000  1
  O  O9  1  0.755396  0.175816  0.000000  1
  O  O10  1  0.767002  0.729041  0.000000  1
  O  O11  1  0.232998  0.729041  0.000000  1
  Ca  Ca12  1  0.000000  0.006404  0.500000  1
  Ca  Ca13  1  0.500000  0.455609  0.000000  1
  Sr  Sr14  1  0.500000  0.935267  0.767627  1
  Sr  Sr15  1  0.000000  0.526799  0.267624  1
  Sr  Sr16  1  0.500000  0.935267  0.232373  1
  Sr  Sr17  1  0.000000  0.526799  0.732376  1
  W  W18  1  0.500000  0.496041  0.500000  1
  W  W19  1  0.000000  0.965931  0.000000  1
