# generated using pymatgen
data_Ga(PO3)3
_symmetry_space_group_name_H-M   'P 1'
_cell_length_a   9.47358106
_cell_length_b   10.70990924
_cell_length_c   11.66679797
_cell_angle_alpha   113.54368097
_cell_angle_beta   109.79724616
_cell_angle_gamma   98.43313254
_symmetry_Int_Tables_number   1
_chemical_formula_structural   Ga(PO3)3
_chemical_formula_sum   'Ga6 P18 O54'
_cell_volume   964.96555428
_cell_formula_units_Z   6
loop_
 _symmetry_equiv_pos_site_id
 _symmetry_equiv_pos_as_xyz
  1  'x, y, z'
loop_
 _atom_site_type_symbol
 _atom_site_label
 _atom_site_symmetry_multiplicity
 _atom_site_fract_x
 _atom_site_fract_y
 _atom_site_fract_z
 _atom_site_occupancy
  O  O0  1  0.874873  0.058050  0.376893  1
  O  O1  1  0.997980  0.681157  0.623107  1
  O  O2  1  0.710334  0.060581  0.963638  1
  O  O3  1  0.246696  0.096942  0.036362  1
  O  O4  1  0.450118  0.093083  0.779828  1
  O  O5  1  0.170290  0.313255  0.220172  1
  O  O6  1  0.712993  0.556311  0.186545  1
  O  O7  1  0.026448  0.369766  0.813455  1
  O  O8  1  0.892077  0.793036  0.386806  1
  O  O9  1  0.005272  0.406230  0.613194  1
  O  O10  1  0.413008  0.171432  0.544303  1
  O  O11  1  0.368705  0.627129  0.455697  1
  O  O12  1  0.202105  0.200992  0.377723  1
  O  O13  1  0.324382  0.823269  0.622277  1
  O  O14  1  0.987285  0.313215  0.339546  1
  O  O15  1  0.147739  0.973669  0.660454  1
  O  O16  1  0.763522  0.426733  0.425329  1
  O  O17  1  0.838192  0.001404  0.574671  1
  O  O18  1  0.551568  0.438736  0.679804  1
  O  O19  1  0.371764  0.758932  0.320196  1
  O  O20  1  0.697106  0.961474  0.122718  1
  O  O21  1  0.074389  0.838757  0.877282  1
  O  O22  1  0.312213  0.997312  0.287912  1
  O  O23  1  0.524301  0.709401  0.712088  1
  O  O24  1  0.275022  0.474716  0.798049  1
  O  O25  1  0.976973  0.676667  0.201951  1
  O  O26  1  0.027605  0.473632  0.045892  1
  O  O27  1  0.481713  0.427741  0.954108  1
  O  O28  1  0.518785  0.309423  0.105479  1
  O  O29  1  0.913307  0.203944  0.894521  1
  O  O30  1  0.711341  0.330269  0.000808  1
  O  O31  1  0.210533  0.329461  0.999192  1
  O  O32  1  0.121227  0.211433  0.644084  1
  O  O33  1  0.977144  0.567349  0.355916  1
  O  O34  1  0.633873  0.752944  0.476700  1
  O  O35  1  0.657173  0.276244  0.523300  1
  O  O36  1  0.147630  0.986404  0.420268  1
  O  O37  1  0.227362  0.566136  0.579732  1
  O  O38  1  0.383922  0.636218  0.058296  1
  O  O39  1  0.825625  0.577921  0.941704  1
  O  O40  1  0.348875  0.888475  0.046023  1
  O  O41  1  0.802852  0.842452  0.953977  1
  O  O42  1  0.443834  0.524628  0.264253  1
  O  O43  1  0.679581  0.260375  0.735747  1
  O  O44  1  0.810474  0.637224  0.726834  1
  O  O45  1  0.583640  0.910390  0.273166  1
  O  O46  1  0.319838  0.931349  0.851286  1
  O  O47  1  0.968551  0.080063  0.148714  1
  O  O48  1  0.643876  0.972129  0.675963  1
  O  O49  1  0.467914  0.296167  0.324037  1
  O  O50  1  0.550009  0.649625  0.927869  1
  O  O51  1  0.122139  0.721756  0.072131  1
  O  O52  1  0.865808  0.866364  0.708800  1
  O  O53  1  0.657008  0.157565  0.291200  1
  P  P54  1  0.607065  0.396014  0.061731  1
  P  P55  1  0.045334  0.334283  0.938269  1
  P  P56  1  0.984514  0.615908  0.056065  1
  P  P57  1  0.428448  0.559843  0.943935  1
  P  P58  1  0.788867  0.984979  0.036631  1
  P  P59  1  0.252235  0.948348  0.963369  1
  P  P60  1  0.580164  0.295771  0.630730  1
  P  P61  1  0.449434  0.665041  0.369270  1
  P  P62  1  0.931944  0.742919  0.725350  1
  P  P63  1  0.706594  0.017569  0.274650  1
  P  P64  1  0.364502  0.678155  0.602293  1
  P  P65  1  0.262209  0.075861  0.397707  1
  P  P66  1  0.102372  0.356668  0.706423  1
  P  P67  1  0.895949  0.650245  0.293577  1
  P  P68  1  0.081604  0.238073  0.272229  1
  P  P69  1  0.309375  0.965844  0.727771  1
  P  P70  1  0.635584  0.298733  0.390802  1
  P  P71  1  0.744782  0.907931  0.609198  1
  Ga  Ga72  1  0.675364  0.640674  0.823410  1
  Ga  Ga73  1  0.351954  0.817263  0.176590  1
  Ga  Ga74  1  0.342053  0.310791  0.159225  1
  Ga  Ga75  1  0.682828  0.151567  0.840775  1
  Ga  Ga76  1  0.994478  0.492828  0.489389  1
  Ga  Ga77  1  0.005089  0.003439  0.510611  1
