# generated using pymatgen
data_Te4MoW3S4
_symmetry_space_group_name_H-M   'P 1'
_cell_length_a   3.35753718
_cell_length_b   3.35754843
_cell_length_c   39.95439265
_cell_angle_alpha   89.99725491
_cell_angle_beta   90.00000000
_cell_angle_gamma   119.99988917
_symmetry_Int_Tables_number   1
_chemical_formula_structural   Te4MoW3S4
_chemical_formula_sum   'Te4 Mo1 W3 S4'
_cell_volume   390.06660066
_cell_formula_units_Z   1
loop_
 _symmetry_equiv_pos_site_id
 _symmetry_equiv_pos_as_xyz
  1  'x, y, z'
loop_
 _atom_site_type_symbol
 _atom_site_label
 _atom_site_symmetry_multiplicity
 _atom_site_fract_x
 _atom_site_fract_y
 _atom_site_fract_z
 _atom_site_occupancy
  Te  Te0  1  0.333307  0.666615  0.327801  1
  Te  Te1  1  0.666697  0.333392  0.423427  1
  Te  Te2  1  0.666642  0.333282  0.518526  1
  Te  Te3  1  0.333331  0.666662  0.233105  1
  Mo  Mo4  1  0.666654  0.333308  0.280455  1
  W  W5  1  0.333313  0.666625  0.093770  1
  W  W6  1  0.333335  0.666669  0.470999  1
  W  W7  1  0.666704  0.333407  0.657708  1
  S  S8  1  0.333342  0.666685  0.695680  1
  S  S9  1  0.666664  0.333326  0.055797  1
  S  S10  1  0.666636  0.333271  0.131814  1
  S  S11  1  0.333378  0.666757  0.619667  1
