# generated using pymatgen
data_Sm3In
_symmetry_space_group_name_H-M   'P 1'
_cell_length_a   7.07587041
_cell_length_b   7.07586970
_cell_length_c   5.53790481
_cell_angle_alpha   90.00000000
_cell_angle_beta   90.00000000
_cell_angle_gamma   120.00000822
_symmetry_Int_Tables_number   1
_chemical_formula_structural   Sm3In
_chemical_formula_sum   'Sm6 In2'
_cell_volume   240.12411624
_cell_formula_units_Z   2
loop_
 _symmetry_equiv_pos_site_id
 _symmetry_equiv_pos_as_xyz
  1  'x, y, z'
loop_
 _atom_site_type_symbol
 _atom_site_label
 _atom_site_symmetry_multiplicity
 _atom_site_fract_x
 _atom_site_fract_y
 _atom_site_fract_z
 _atom_site_occupancy
  Sm  Sm0  1  0.174447  0.348893  0.249968  1
  Sm  Sm1  1  0.651107  0.825553  0.249968  1
  Sm  Sm2  1  0.174447  0.825553  0.249968  1
  Sm  Sm3  1  0.825554  0.651107  0.750033  1
  Sm  Sm4  1  0.348894  0.174447  0.750033  1
  Sm  Sm5  1  0.825553  0.174447  0.750033  1
  In  In6  1  0.333333  0.666665  0.749991  1
  In  In7  1  0.666666  0.333333  0.250010  1
