# generated using pymatgen
data_TeMoWSe2S
_symmetry_space_group_name_H-M   'P 1'
_cell_length_a   3.34513931
_cell_length_b   3.34515050
_cell_length_c   39.74614054
_cell_angle_alpha   89.99458793
_cell_angle_beta   90.00000000
_cell_angle_gamma   119.99988940
_symmetry_Int_Tables_number   1
_chemical_formula_structural   TeMoWSe2S
_chemical_formula_sum   'Te2 Mo2 W2 Se4 S2'
_cell_volume   385.17309917
_cell_formula_units_Z   2
loop_
 _symmetry_equiv_pos_site_id
 _symmetry_equiv_pos_as_xyz
  1  'x, y, z'
loop_
 _atom_site_type_symbol
 _atom_site_label
 _atom_site_symmetry_multiplicity
 _atom_site_fract_x
 _atom_site_fract_y
 _atom_site_fract_z
 _atom_site_occupancy
  Te  Te0  1  0.666690  0.333379  0.421496  1
  Te  Te1  1  0.666646  0.333291  0.517441  1
  Mo  Mo2  1  0.333238  0.666477  0.093929  1
  Mo  Mo3  1  0.666738  0.333477  0.281119  1
  W  W4  1  0.333331  0.666663  0.469462  1
  W  W5  1  0.666688  0.333376  0.658410  1
  Se  Se6  1  0.333372  0.666746  0.322999  1
  Se  Se7  1  0.333350  0.666701  0.700504  1
  Se  Se8  1  0.333436  0.666873  0.239196  1
  Se  Se9  1  0.333356  0.666713  0.616339  1
  S  S10  1  0.666592  0.333184  0.055788  1
  S  S11  1  0.666561  0.333121  0.132064  1
