# generated using pymatgen
data_Ba2LaC3O9F
_symmetry_space_group_name_H-M   'P 1'
_cell_length_a   5.17955656
_cell_length_b   6.72668337
_cell_length_c   13.33545637
_cell_angle_alpha   102.50101089
_cell_angle_beta   90.00000000
_cell_angle_gamma   90.00000000
_symmetry_Int_Tables_number   1
_chemical_formula_structural   Ba2LaC3O9F
_chemical_formula_sum   'Ba4 La2 C6 O18 F2'
_cell_volume   453.60858231
_cell_formula_units_Z   2
loop_
 _symmetry_equiv_pos_site_id
 _symmetry_equiv_pos_as_xyz
  1  'x, y, z'
loop_
 _atom_site_type_symbol
 _atom_site_label
 _atom_site_symmetry_multiplicity
 _atom_site_fract_x
 _atom_site_fract_y
 _atom_site_fract_z
 _atom_site_occupancy
  C  C0  1  0.250000  0.254175  0.426619  1
  C  C1  1  0.250000  0.331566  0.128026  1
  C  C2  1  0.750000  0.668434  0.871974  1
  C  C3  1  0.750000  0.745825  0.573381  1
  C  C4  1  0.250000  0.215366  0.727428  1
  C  C5  1  0.750000  0.784634  0.272572  1
  O  O6  1  0.534408  0.877496  0.262041  1
  O  O7  1  0.034408  0.122504  0.737959  1
  O  O8  1  0.965592  0.877496  0.262041  1
  O  O9  1  0.465592  0.122504  0.737959  1
  O  O10  1  0.031356  0.401165  0.103794  1
  O  O11  1  0.468644  0.401165  0.103794  1
  O  O12  1  0.531356  0.598835  0.896206  1
  O  O13  1  0.968644  0.598835  0.896206  1
  O  O14  1  0.750000  0.808204  0.817119  1
  O  O15  1  0.250000  0.191796  0.182881  1
  O  O16  1  0.750000  0.609607  0.297660  1
  O  O17  1  0.250000  0.390393  0.702340  1
  O  O18  1  0.750000  0.864817  0.509598  1
  O  O19  1  0.250000  0.135183  0.490402  1
  O  O20  1  0.967557  0.679077  0.602879  1
  O  O21  1  0.467557  0.320923  0.397121  1
  O  O22  1  0.032443  0.320923  0.397121  1
  O  O23  1  0.532443  0.679077  0.602879  1
  F  F24  1  0.250000  0.013553  0.926468  1
  F  F25  1  0.750000  0.986447  0.073532  1
  Ba  Ba26  1  0.250000  0.727384  0.416835  1
  Ba  Ba27  1  0.750000  0.215063  0.924995  1
  Ba  Ba28  1  0.750000  0.272616  0.583165  1
  Ba  Ba29  1  0.250000  0.784937  0.075005  1
  La  La30  1  0.250000  0.773419  0.761634  1
  La  La31  1  0.750000  0.226581  0.238366  1
