# generated using pymatgen
data_Cu4Ag(AsO4)3
_symmetry_space_group_name_H-M   'P 1'
_cell_length_a   7.58887985
_cell_length_b   8.77826999
_cell_length_c   8.77826999
_cell_angle_alpha   91.36217281
_cell_angle_beta   109.65724268
_cell_angle_gamma   109.65724269
_symmetry_Int_Tables_number   1
_chemical_formula_structural   Cu4Ag(AsO4)3
_chemical_formula_sum   'Cu8 Ag2 As6 O24'
_cell_volume   512.39061395
_cell_formula_units_Z   2
loop_
 _symmetry_equiv_pos_site_id
 _symmetry_equiv_pos_as_xyz
  1  'x, y, z'
loop_
 _atom_site_type_symbol
 _atom_site_label
 _atom_site_symmetry_multiplicity
 _atom_site_fract_x
 _atom_site_fract_y
 _atom_site_fract_z
 _atom_site_occupancy
  O  O0  1  0.035641  0.154622  0.754511  1
  O  O1  1  0.464359  0.245489  0.845378  1
  O  O2  1  0.964359  0.845378  0.245489  1
  O  O3  1  0.535641  0.754511  0.154622  1
  O  O4  1  0.198045  0.973477  0.585961  1
  O  O5  1  0.301955  0.414039  0.026523  1
  O  O6  1  0.801955  0.026523  0.414039  1
  O  O7  1  0.698045  0.585961  0.973477  1
  O  O8  1  0.373374  0.976656  0.313788  1
  O  O9  1  0.126626  0.686212  0.023344  1
  O  O10  1  0.626626  0.023344  0.686212  1
  O  O11  1  0.873374  0.313788  0.976656  1
  O  O12  1  0.238077  0.273014  0.519401  1
  O  O13  1  0.261923  0.480599  0.726986  1
  O  O14  1  0.761923  0.726986  0.480599  1
  O  O15  1  0.738077  0.519401  0.273014  1
  O  O16  1  0.608041  0.171555  0.160316  1
  O  O17  1  0.891959  0.839684  0.828445  1
  O  O18  1  0.391959  0.828445  0.839684  1
  O  O19  1  0.108041  0.160316  0.171555  1
  O  O20  1  0.825842  0.504491  0.726527  1
  O  O21  1  0.674158  0.273473  0.495509  1
  O  O22  1  0.174158  0.495509  0.273473  1
  O  O23  1  0.325842  0.726527  0.504491  1
  Cu  Cu24  1  0.141512  0.064702  0.379340  1
  Cu  Cu25  1  0.750000  0.264697  0.735303  1
  Cu  Cu26  1  0.250000  0.735303  0.264697  1
  Cu  Cu27  1  0.641512  0.379340  0.064702  1
  Cu  Cu28  1  0.858488  0.935298  0.620660  1
  Cu  Cu29  1  0.358488  0.620660  0.935298  1
  Cu  Cu30  1  0.750000  0.506856  0.493144  1
  Cu  Cu31  1  0.250000  0.493144  0.506856  1
  As  As32  1  0.616136  0.107870  0.346702  1
  As  As33  1  0.750000  0.726753  0.273247  1
  As  As34  1  0.250000  0.273247  0.726753  1
  As  As35  1  0.883864  0.653298  0.892130  1
  As  As36  1  0.116136  0.346702  0.107870  1
  As  As37  1  0.383864  0.892130  0.653298  1
  Ag  Ag38  1  0.250000  0.011323  0.988677  1
  Ag  Ag39  1  0.750000  0.988677  0.011323  1
