# generated using pymatgen
data_Tm3Co29(Si2B5)2
_symmetry_space_group_name_H-M   'P 1'
_cell_length_a   7.79779235
_cell_length_b   11.09511829
_cell_length_c   11.09511829
_cell_angle_alpha   90.00000000
_cell_angle_beta   90.00000000
_cell_angle_gamma   90.00000000
_symmetry_Int_Tables_number   1
_chemical_formula_structural   Tm3Co29(Si2B5)2
_chemical_formula_sum   'Tm6 Co58 Si8 B20'
_cell_volume   959.92110362
_cell_formula_units_Z   2
loop_
 _symmetry_equiv_pos_site_id
 _symmetry_equiv_pos_as_xyz
  1  'x, y, z'
loop_
 _atom_site_type_symbol
 _atom_site_label
 _atom_site_symmetry_multiplicity
 _atom_site_fract_x
 _atom_site_fract_y
 _atom_site_fract_z
 _atom_site_occupancy
  B  B0  1  0.518536  0.935824  0.935824  1
  B  B1  1  0.518536  0.564176  0.564176  1
  B  B2  1  0.518536  0.935824  0.564176  1
  B  B3  1  0.518536  0.564176  0.935824  1
  B  B4  1  0.481464  0.435824  0.435824  1
  B  B5  1  0.481464  0.064176  0.435824  1
  B  B6  1  0.264053  0.006102  0.750000  1
  B  B7  1  0.264053  0.493898  0.750000  1
  B  B8  1  0.264053  0.750000  0.493898  1
  B  B9  1  0.264053  0.750000  0.006102  1
  B  B10  1  0.735947  0.250000  0.506102  1
  B  B11  1  0.735947  0.993898  0.250000  1
  B  B12  1  0.735947  0.506102  0.250000  1
  B  B13  1  0.735947  0.250000  0.993898  1
  B  B14  1  0.149042  0.750000  0.750000  1
  B  B15  1  0.850958  0.250000  0.250000  1
  B  B16  1  0.892520  0.750000  0.750000  1
  B  B17  1  0.107480  0.250000  0.250000  1
  B  B18  1  0.481464  0.435824  0.064176  1
  B  B19  1  0.481464  0.064176  0.064176  1
  Si  Si20  1  0.824928  0.432605  0.750000  1
  Si  Si21  1  0.175072  0.250000  0.567395  1
  Si  Si22  1  0.175072  0.932605  0.250000  1
  Si  Si23  1  0.175072  0.567395  0.250000  1
  Si  Si24  1  0.175072  0.250000  0.932605  1
  Si  Si25  1  0.824928  0.750000  0.432605  1
  Si  Si26  1  0.824928  0.750000  0.067395  1
  Si  Si27  1  0.824928  0.067395  0.750000  1
  Co  Co28  1  0.336003  0.424130  0.588610  1
  Co  Co29  1  0.526710  0.750000  0.521414  1
  Co  Co30  1  0.526710  0.521414  0.750000  1
  Co  Co31  1  0.526710  0.978586  0.750000  1
  Co  Co32  1  0.970119  0.250000  0.084984  1
  Co  Co33  1  0.970119  0.415016  0.250000  1
  Co  Co34  1  0.970119  0.084984  0.250000  1
  Co  Co35  1  0.970119  0.250000  0.415016  1
  Co  Co36  1  0.029881  0.750000  0.915016  1
  Co  Co37  1  0.029881  0.750000  0.584984  1
  Co  Co38  1  0.029881  0.584984  0.750000  1
  Co  Co39  1  0.029881  0.915016  0.750000  1
  Co  Co40  1  0.247616  0.133656  0.133656  1
  Co  Co41  1  0.247616  0.366344  0.133656  1
  Co  Co42  1  0.247616  0.133656  0.366344  1
  Co  Co43  1  0.247616  0.366344  0.366344  1
  Co  Co44  1  0.752384  0.633656  0.866344  1
  Co  Co45  1  0.752384  0.866344  0.633656  1
  Co  Co46  1  0.752384  0.633656  0.633656  1
  Co  Co47  1  0.752384  0.866344  0.866344  1
  Co  Co48  1  0.698517  0.139790  0.139790  1
  Co  Co49  1  0.698517  0.360210  0.139790  1
  Co  Co50  1  0.698517  0.139790  0.360210  1
  Co  Co51  1  0.698517  0.360210  0.360210  1
  Co  Co52  1  0.301483  0.639790  0.860210  1
  Co  Co53  1  0.301483  0.860210  0.639790  1
  Co  Co54  1  0.301483  0.639790  0.639790  1
  Co  Co55  1  0.301483  0.860210  0.860210  1
  Co  Co56  1  0.336003  0.075870  0.588610  1
  Co  Co57  1  0.336003  0.911390  0.075870  1
  Co  Co58  1  0.336003  0.588610  0.424130  1
  Co  Co59  1  0.336003  0.424130  0.911390  1
  Co  Co60  1  0.663997  0.575870  0.411390  1
  Co  Co61  1  0.663997  0.924130  0.088610  1
  Co  Co62  1  0.663997  0.088610  0.575870  1
  Co  Co63  1  0.888536  0.250000  0.860141  1
  Co  Co64  1  0.663997  0.924130  0.411390  1
  Co  Co65  1  0.663997  0.088610  0.924130  1
  Co  Co66  1  0.663997  0.411390  0.575870  1
  Co  Co67  1  0.663997  0.575870  0.088610  1
  Co  Co68  1  0.526710  0.750000  0.978586  1
  Co  Co69  1  0.888536  0.639859  0.250000  1
  Co  Co70  1  0.336003  0.911390  0.424130  1
  Co  Co71  1  0.336003  0.588610  0.075870  1
  Co  Co72  1  0.888536  0.860141  0.250000  1
  Co  Co73  1  0.888536  0.250000  0.639859  1
  Co  Co74  1  0.534906  0.750000  0.750000  1
  Co  Co75  1  0.465094  0.250000  0.250000  1
  Co  Co76  1  0.111464  0.750000  0.360141  1
  Co  Co77  1  0.473290  0.250000  0.478586  1
  Co  Co78  1  0.473290  0.021414  0.250000  1
  Co  Co79  1  0.473290  0.478586  0.250000  1
  Co  Co80  1  0.473290  0.250000  0.021414  1
  Co  Co81  1  0.111464  0.360141  0.750000  1
  Co  Co82  1  0.111464  0.139859  0.750000  1
  Co  Co83  1  0.111464  0.750000  0.139859  1
  Co  Co84  1  0.663997  0.411390  0.924130  1
  Co  Co85  1  0.336003  0.075870  0.911390  1
  Tm  Tm86  1  0.000000  0.500000  0.500000  1
  Tm  Tm87  1  0.000000  0.000000  0.500000  1
  Tm  Tm88  1  0.000000  0.500000  0.000000  1
  Tm  Tm89  1  0.000000  0.000000  0.000000  1
  Tm  Tm90  1  0.500000  0.750000  0.250000  1
  Tm  Tm91  1  0.500000  0.250000  0.750000  1
