# generated using pymatgen
data_PmPu3
_symmetry_space_group_name_H-M   'P 1'
_cell_length_a   6.95421156
_cell_length_b   6.95268761
_cell_length_c   5.55309363
_cell_angle_alpha   89.99999097
_cell_angle_beta   89.99999167
_cell_angle_gamma   119.96415871
_symmetry_Int_Tables_number   1
_chemical_formula_structural   PmPu3
_chemical_formula_sum   'Pm2 Pu6'
_cell_volume   232.60710718
_cell_formula_units_Z   2
loop_
 _symmetry_equiv_pos_site_id
 _symmetry_equiv_pos_as_xyz
  1  'x, y, z'
loop_
 _atom_site_type_symbol
 _atom_site_label
 _atom_site_symmetry_multiplicity
 _atom_site_fract_x
 _atom_site_fract_y
 _atom_site_fract_z
 _atom_site_occupancy
  Pm  Pm0  1  0.333299  0.666691  0.750001  1
  Pm  Pm1  1  0.666716  0.333344  0.249999  1
  Pu  Pu2  1  0.162315  0.324708  0.250001  1
  Pu  Pu3  1  0.675318  0.837671  0.250001  1
  Pu  Pu4  1  0.162314  0.837625  0.250000  1
  Pu  Pu5  1  0.837707  0.675331  0.750000  1
  Pu  Pu6  1  0.324649  0.162283  0.750001  1
  Pu  Pu7  1  0.837678  0.162341  0.750000  1
