# generated using pymatgen
data_Nb2Zn3O8
_symmetry_space_group_name_H-M   'P 1'
_cell_length_a   5.29808222
_cell_length_b   5.97528729
_cell_length_c   10.15773166
_cell_angle_alpha   107.10508080
_cell_angle_beta   90.02729603
_cell_angle_gamma   90.00000002
_symmetry_Int_Tables_number   1
_chemical_formula_structural   Nb2Zn3O8
_chemical_formula_sum   'Nb4 Zn6 O16'
_cell_volume   307.34501203
_cell_formula_units_Z   2
loop_
 _symmetry_equiv_pos_site_id
 _symmetry_equiv_pos_as_xyz
  1  'x, y, z'
loop_
 _atom_site_type_symbol
 _atom_site_label
 _atom_site_symmetry_multiplicity
 _atom_site_fract_x
 _atom_site_fract_y
 _atom_site_fract_z
 _atom_site_occupancy
  O  O0  1  0.914304  0.433731  0.116235  1
  O  O1  1  0.585695  0.317496  0.883766  1
  O  O2  1  0.085695  0.566270  0.883766  1
  O  O3  1  0.414304  0.682504  0.116235  1
  O  O4  1  0.575408  0.814854  0.861721  1
  O  O5  1  0.924593  0.953133  0.138279  1
  O  O6  1  0.424594  0.185145  0.138279  1
  O  O7  1  0.075406  0.046867  0.861722  1
  O  O8  1  0.632713  0.549062  0.386944  1
  O  O9  1  0.867288  0.162119  0.613057  1
  O  O10  1  0.439762  0.923197  0.641549  1
  O  O11  1  0.060238  0.281649  0.358451  1
  O  O12  1  0.560239  0.076802  0.358450  1
  O  O13  1  0.367289  0.450938  0.613056  1
  O  O14  1  0.132713  0.837882  0.386944  1
  O  O15  1  0.939762  0.718352  0.641549  1
  Zn  Zn16  1  0.250000  0.349338  0.000000  1
  Zn  Zn17  1  0.750000  0.650661  0.000000  1
  Zn  Zn18  1  0.236653  0.124726  0.559560  1
  Zn  Zn19  1  0.263346  0.565167  0.440441  1
  Zn  Zn20  1  0.736653  0.434834  0.559560  1
  Zn  Zn21  1  0.763346  0.875274  0.440441  1
  Nb  Nb22  1  0.262892  0.953045  0.229198  1
  Nb  Nb23  1  0.237108  0.723847  0.770802  1
  Nb  Nb24  1  0.737108  0.046955  0.770802  1
  Nb  Nb25  1  0.762891  0.276154  0.229198  1
