# generated using pymatgen
data_Ho5Si3B
_symmetry_space_group_name_H-M   'P 1'
_cell_length_a   8.50492989
_cell_length_b   8.50492989
_cell_length_c   6.30047292
_cell_angle_alpha   90.00000000
_cell_angle_beta   90.00000000
_cell_angle_gamma   120.00000004
_symmetry_Int_Tables_number   1
_chemical_formula_structural   Ho5Si3B
_chemical_formula_sum   'Ho10 Si6 B2'
_cell_volume   394.68012456
_cell_formula_units_Z   2
loop_
 _symmetry_equiv_pos_site_id
 _symmetry_equiv_pos_as_xyz
  1  'x, y, z'
loop_
 _atom_site_type_symbol
 _atom_site_label
 _atom_site_symmetry_multiplicity
 _atom_site_fract_x
 _atom_site_fract_y
 _atom_site_fract_z
 _atom_site_occupancy
  B  B0  1  0.000000  0.000000  0.500000  1
  B  B1  1  0.000000  0.000000  0.000000  1
  Si  Si2  1  0.399334  0.000000  0.750000  1
  Si  Si3  1  0.399334  0.399334  0.250000  1
  Si  Si4  1  0.000000  0.600666  0.250000  1
  Si  Si5  1  0.000000  0.399334  0.750000  1
  Si  Si6  1  0.600666  0.600666  0.750000  1
  Si  Si7  1  0.600666  0.000000  0.250000  1
  Ho  Ho8  1  0.760477  0.760477  0.250000  1
  Ho  Ho9  1  0.760477  0.000000  0.750000  1
  Ho  Ho10  1  0.000000  0.239523  0.250000  1
  Ho  Ho11  1  0.000000  0.760477  0.750000  1
  Ho  Ho12  1  0.239523  0.239523  0.750000  1
  Ho  Ho13  1  0.239523  0.000000  0.250000  1
  Ho  Ho14  1  0.666667  0.333333  0.000000  1
  Ho  Ho15  1  0.333333  0.666667  0.500000  1
  Ho  Ho16  1  0.333333  0.666667  0.000000  1
  Ho  Ho17  1  0.666667  0.333333  0.500000  1
