# generated using pymatgen
data_Sr3ScNiO6
_symmetry_space_group_name_H-M   'P 1'
_cell_length_a   6.71227830
_cell_length_b   6.71227830
_cell_length_c   6.71227830
_cell_angle_alpha   93.23493978
_cell_angle_beta   93.23493981
_cell_angle_gamma   93.23493978
_symmetry_Int_Tables_number   1
_chemical_formula_structural   Sr3ScNiO6
_chemical_formula_sum   'Sr6 Sc2 Ni2 O12'
_cell_volume   300.91694402
_cell_formula_units_Z   2
loop_
 _symmetry_equiv_pos_site_id
 _symmetry_equiv_pos_as_xyz
  1  'x, y, z'
loop_
 _atom_site_type_symbol
 _atom_site_label
 _atom_site_symmetry_multiplicity
 _atom_site_fract_x
 _atom_site_fract_y
 _atom_site_fract_z
 _atom_site_occupancy
  O  O0  1  0.789589  0.595220  0.466814  1
  O  O1  1  0.595221  0.466813  0.789589  1
  O  O2  1  0.466813  0.789589  0.595221  1
  O  O3  1  0.033186  0.904780  0.710412  1
  O  O4  1  0.904779  0.710411  0.033186  1
  O  O5  1  0.710412  0.033186  0.904779  1
  O  O6  1  0.210412  0.404779  0.533187  1
  O  O7  1  0.404779  0.533186  0.210412  1
  O  O8  1  0.533186  0.210412  0.404778  1
  O  O9  1  0.966814  0.095221  0.289589  1
  O  O10  1  0.289589  0.966813  0.095220  1
  O  O11  1  0.095220  0.289588  0.966813  1
  Sc  Sc12  1  0.750000  0.750001  0.750000  1
  Sc  Sc13  1  0.250001  0.250000  0.250000  1
  Ni  Ni14  1  0.500000  0.500000  0.500000  1
  Ni  Ni15  1  0.000000  0.000000  0.000000  1
  Sr  Sr16  1  0.379134  0.120865  0.750000  1
  Sr  Sr17  1  0.750000  0.379135  0.120866  1
  Sr  Sr18  1  0.249999  0.620866  0.879135  1
  Sr  Sr19  1  0.620865  0.879134  0.250001  1
  Sr  Sr20  1  0.120866  0.750000  0.379135  1
  Sr  Sr21  1  0.879134  0.250000  0.620866  1
