# generated using pymatgen
data_Na5AlO4
_symmetry_space_group_name_H-M   'P 1'
_cell_length_a   5.96427838
_cell_length_b   10.28152218
_cell_length_c   18.04662177
_cell_angle_alpha   90.00000000
_cell_angle_beta   90.00000000
_cell_angle_gamma   90.00000000
_symmetry_Int_Tables_number   1
_chemical_formula_structural   Na5AlO4
_chemical_formula_sum   'Na40 Al8 O32'
_cell_volume   1106.65242180
_cell_formula_units_Z   8
loop_
 _symmetry_equiv_pos_site_id
 _symmetry_equiv_pos_as_xyz
  1  'x, y, z'
loop_
 _atom_site_type_symbol
 _atom_site_label
 _atom_site_symmetry_multiplicity
 _atom_site_fract_x
 _atom_site_fract_y
 _atom_site_fract_z
 _atom_site_occupancy
  O  O0  1  0.622058  0.454120  0.619909  1
  O  O1  1  0.122058  0.545880  0.880091  1
  O  O2  1  0.877942  0.954120  0.380091  1
  O  O3  1  0.377942  0.045880  0.119909  1
  O  O4  1  0.377942  0.545880  0.380091  1
  O  O5  1  0.877942  0.454120  0.119909  1
  O  O6  1  0.122058  0.045880  0.619909  1
  O  O7  1  0.622058  0.954120  0.880091  1
  O  O8  1  0.235159  0.378273  0.708262  1
  O  O9  1  0.735159  0.621727  0.791738  1
  O  O10  1  0.264841  0.878273  0.291738  1
  O  O11  1  0.235615  0.129107  0.873804  1
  O  O12  1  0.764841  0.621727  0.291738  1
  O  O13  1  0.264841  0.378273  0.208262  1
  O  O14  1  0.735159  0.121727  0.708262  1
  O  O15  1  0.235159  0.878273  0.791738  1
  O  O16  1  0.198081  0.373358  0.548590  1
  O  O17  1  0.698081  0.626642  0.951410  1
  O  O18  1  0.301919  0.873358  0.451410  1
  O  O19  1  0.801919  0.126642  0.048590  1
  O  O20  1  0.801919  0.626642  0.451410  1
  O  O21  1  0.301919  0.373358  0.048590  1
  O  O22  1  0.698081  0.126642  0.548590  1
  O  O23  1  0.198081  0.873358  0.951410  1
  O  O24  1  0.235615  0.629107  0.626196  1
  O  O25  1  0.735615  0.370893  0.873804  1
  O  O26  1  0.264385  0.129107  0.373804  1
  O  O27  1  0.764385  0.870893  0.126196  1
  O  O28  1  0.764385  0.370893  0.373804  1
  O  O29  1  0.264385  0.629107  0.126196  1
  O  O30  1  0.735615  0.870893  0.626196  1
  O  O31  1  0.764841  0.121727  0.208262  1
  Na  Na32  1  0.105790  0.326249  0.827102  1
  Na  Na33  1  0.605790  0.673751  0.672898  1
  Na  Na34  1  0.394210  0.826249  0.172898  1
  Na  Na35  1  0.894210  0.173751  0.327102  1
  Na  Na36  1  0.894210  0.673751  0.172898  1
  Na  Na37  1  0.394210  0.326249  0.327102  1
  Na  Na38  1  0.605790  0.173751  0.827102  1
  Na  Na39  1  0.105790  0.826249  0.672898  1
  Na  Na40  1  0.100343  0.579756  0.749083  1
  Na  Na41  1  0.600343  0.420244  0.750917  1
  Na  Na42  1  0.399657  0.079756  0.250917  1
  Na  Na43  1  0.899657  0.920244  0.249083  1
  Na  Na44  1  0.899657  0.420244  0.250917  1
  Na  Na45  1  0.399657  0.579756  0.249083  1
  Na  Na46  1  0.600343  0.920244  0.749083  1
  Na  Na47  1  0.100343  0.079756  0.750917  1
  Na  Na48  1  0.086526  0.162414  0.502340  1
  Na  Na49  1  0.586526  0.837586  0.997660  1
  Na  Na50  1  0.413474  0.662414  0.497660  1
  Na  Na51  1  0.913474  0.337586  0.002340  1
  Na  Na52  1  0.913474  0.837586  0.497660  1
  Na  Na53  1  0.413474  0.162414  0.002340  1
  Na  Na54  1  0.586526  0.337586  0.502340  1
  Na  Na55  1  0.086526  0.662414  0.997660  1
  Na  Na56  1  0.916634  0.302183  0.639335  1
  Na  Na57  1  0.411110  0.440611  0.935742  1
  Na  Na58  1  0.588890  0.059389  0.435742  1
  Na  Na59  1  0.088890  0.940611  0.064258  1
  Na  Na60  1  0.088890  0.440611  0.435742  1
  Na  Na61  1  0.588890  0.559389  0.064258  1
  Na  Na62  1  0.411110  0.940611  0.564258  1
  Na  Na63  1  0.911110  0.059389  0.935742  1
  Na  Na64  1  0.916634  0.802183  0.860665  1
  Na  Na65  1  0.416634  0.197817  0.639335  1
  Na  Na66  1  0.583366  0.302183  0.139335  1
  Na  Na67  1  0.083366  0.697817  0.360665  1
  Na  Na68  1  0.083366  0.197817  0.139335  1
  Na  Na69  1  0.583366  0.802183  0.360665  1
  Na  Na70  1  0.416634  0.697817  0.860665  1
  Na  Na71  1  0.911110  0.559389  0.564258  1
  Al  Al72  1  0.322616  0.460633  0.624016  1
  Al  Al73  1  0.822616  0.539367  0.875984  1
  Al  Al74  1  0.177384  0.960633  0.375984  1
  Al  Al75  1  0.677384  0.039367  0.124016  1
  Al  Al76  1  0.677384  0.539367  0.375984  1
  Al  Al77  1  0.177384  0.460633  0.124016  1
  Al  Al78  1  0.822616  0.039367  0.624016  1
  Al  Al79  1  0.322616  0.960633  0.875984  1
