# generated using pymatgen
data_BaCr10O15
_symmetry_space_group_name_H-M   'P 1'
_cell_length_a   7.85596606
_cell_length_b   7.85596606
_cell_length_c   9.62839243
_cell_angle_alpha   90.00000000
_cell_angle_beta   90.00000000
_cell_angle_gamma   96.60184395
_symmetry_Int_Tables_number   1
_chemical_formula_structural   BaCr10O15
_chemical_formula_sum   'Ba2 Cr20 O30'
_cell_volume   590.28753432
_cell_formula_units_Z   2
loop_
 _symmetry_equiv_pos_site_id
 _symmetry_equiv_pos_as_xyz
  1  'x, y, z'
loop_
 _atom_site_type_symbol
 _atom_site_label
 _atom_site_symmetry_multiplicity
 _atom_site_fract_x
 _atom_site_fract_y
 _atom_site_fract_z
 _atom_site_occupancy
  O  O0  1  0.500000  0.500000  0.500000  1
  O  O1  1  0.000000  0.000000  0.000000  1
  O  O2  1  0.144904  0.144904  0.739793  1
  O  O3  1  0.355096  0.355096  0.239793  1
  O  O4  1  0.644904  0.644904  0.760207  1
  O  O5  1  0.855096  0.855096  0.260207  1
  O  O6  1  0.958740  0.222507  0.240321  1
  O  O7  1  0.541260  0.277493  0.740321  1
  O  O8  1  0.722507  0.458740  0.259679  1
  O  O9  1  0.777493  0.041260  0.759679  1
  O  O10  1  0.041260  0.777493  0.759679  1
  O  O11  1  0.458740  0.722507  0.259679  1
  O  O12  1  0.277493  0.541260  0.740321  1
  O  O13  1  0.222507  0.958740  0.240321  1
  O  O14  1  0.064690  0.564690  0.250000  1
  O  O15  1  0.435310  0.935310  0.750000  1
  O  O16  1  0.935310  0.435310  0.750000  1
  O  O17  1  0.564690  0.064690  0.250000  1
  O  O18  1  0.103644  0.364741  0.994563  1
  O  O19  1  0.396356  0.135259  0.494563  1
  O  O20  1  0.864741  0.603644  0.505437  1
  O  O21  1  0.635259  0.896356  0.005437  1
  O  O22  1  0.243802  0.756198  0.000000  1
  O  O23  1  0.256198  0.743802  0.500000  1
  O  O24  1  0.756198  0.243802  0.000000  1
  O  O25  1  0.743802  0.256198  0.500000  1
  O  O26  1  0.364741  0.103644  0.994563  1
  O  O27  1  0.135259  0.396356  0.494563  1
  O  O28  1  0.603644  0.864741  0.505437  1
  O  O29  1  0.896356  0.635259  0.005437  1
  Cr  Cr30  1  0.906617  0.418207  0.114744  1
  Cr  Cr31  1  0.593383  0.081793  0.614744  1
  Cr  Cr32  1  0.918207  0.406617  0.385256  1
  Cr  Cr33  1  0.581793  0.093383  0.885256  1
  Cr  Cr34  1  0.093383  0.581793  0.885256  1
  Cr  Cr35  1  0.406617  0.918207  0.385256  1
  Cr  Cr36  1  0.081793  0.593383  0.614744  1
  Cr  Cr37  1  0.418207  0.906617  0.114744  1
  Cr  Cr38  1  0.042881  0.788500  0.143291  1
  Cr  Cr39  1  0.457119  0.711500  0.643291  1
  Cr  Cr40  1  0.288500  0.542881  0.356709  1
  Cr  Cr41  1  0.211500  0.957119  0.856709  1
  Cr  Cr42  1  0.957119  0.211500  0.856709  1
  Cr  Cr43  1  0.542881  0.288500  0.356709  1
  Cr  Cr44  1  0.711500  0.457119  0.643291  1
  Cr  Cr45  1  0.788500  0.042881  0.143291  1
  Cr  Cr46  1  0.816692  0.816692  0.865262  1
  Cr  Cr47  1  0.683308  0.683308  0.365262  1
  Cr  Cr48  1  0.316692  0.316692  0.634738  1
  Cr  Cr49  1  0.183308  0.183308  0.134738  1
  Ba  Ba50  1  0.000000  0.000000  0.500000  1
  Ba  Ba51  1  0.500000  0.500000  0.000000  1
