# generated using pymatgen
data_KPr(SeO4)2
_symmetry_space_group_name_H-M   'P 1'
_cell_length_a   7.50014587
_cell_length_b   9.02257476
_cell_length_c   11.25197523
_cell_angle_alpha   91.67616734
_cell_angle_beta   90.00000000
_cell_angle_gamma   90.00000000
_symmetry_Int_Tables_number   1
_chemical_formula_structural   KPr(SeO4)2
_chemical_formula_sum   'K4 Pr4 Se8 O32'
_cell_volume   761.10241193
_cell_formula_units_Z   4
loop_
 _symmetry_equiv_pos_site_id
 _symmetry_equiv_pos_as_xyz
  1  'x, y, z'
loop_
 _atom_site_type_symbol
 _atom_site_label
 _atom_site_symmetry_multiplicity
 _atom_site_fract_x
 _atom_site_fract_y
 _atom_site_fract_z
 _atom_site_occupancy
  O  O0  1  0.479396  0.591935  0.362980  1
  O  O1  1  0.979396  0.408065  0.137020  1
  O  O2  1  0.520604  0.408065  0.637020  1
  O  O3  1  0.020604  0.591935  0.862980  1
  O  O4  1  0.752058  0.302391  0.456176  1
  O  O5  1  0.252058  0.697609  0.043824  1
  O  O6  1  0.247942  0.697609  0.543824  1
  O  O7  1  0.747942  0.302391  0.956176  1
  O  O8  1  0.682270  0.246061  0.190983  1
  O  O9  1  0.182270  0.753939  0.309017  1
  O  O10  1  0.317730  0.753939  0.809017  1
  O  O11  1  0.817730  0.246061  0.690983  1
  O  O12  1  0.450835  0.883567  0.444540  1
  O  O13  1  0.950835  0.116433  0.055460  1
  O  O14  1  0.549165  0.116433  0.555460  1
  O  O15  1  0.049165  0.883567  0.944540  1
  O  O16  1  0.668781  0.879417  0.971373  1
  O  O17  1  0.168781  0.120583  0.528627  1
  O  O18  1  0.331219  0.120583  0.028627  1
  O  O19  1  0.831219  0.879417  0.471373  1
  O  O20  1  0.852190  0.631502  0.601962  1
  O  O21  1  0.352190  0.368498  0.898038  1
  O  O22  1  0.147810  0.368498  0.398038  1
  O  O23  1  0.647810  0.631502  0.101962  1
  O  O24  1  0.659677  0.865712  0.695308  1
  O  O25  1  0.159677  0.134288  0.804692  1
  O  O26  1  0.340323  0.134288  0.304692  1
  O  O27  1  0.840323  0.865712  0.195308  1
  O  O28  1  0.000214  0.900715  0.686912  1
  O  O29  1  0.500214  0.099285  0.813088  1
  O  O30  1  0.999786  0.099285  0.313088  1
  O  O31  1  0.499786  0.900715  0.186912  1
  K  K32  1  0.853818  0.562570  0.343033  1
  K  K33  1  0.646182  0.562570  0.843033  1
  K  K34  1  0.146182  0.437430  0.656967  1
  K  K35  1  0.353818  0.437430  0.156967  1
  Se  Se36  1  0.164407  0.187069  0.392149  1
  Se  Se37  1  0.841862  0.277908  0.089925  1
  Se  Se38  1  0.335593  0.187069  0.892149  1
  Se  Se39  1  0.835593  0.812931  0.607851  1
  Se  Se40  1  0.158138  0.722092  0.910076  1
  Se  Se41  1  0.658138  0.277908  0.589924  1
  Se  Se42  1  0.341862  0.722092  0.410075  1
  Se  Se43  1  0.664407  0.812931  0.107851  1
  Pr  Pr44  1  0.665945  0.056611  0.348350  1
  Pr  Pr45  1  0.165945  0.943389  0.151650  1
  Pr  Pr46  1  0.334055  0.943389  0.651650  1
  Pr  Pr47  1  0.834055  0.056611  0.848350  1
