# generated using pymatgen
data_TeMoSe
_symmetry_space_group_name_H-M   'P 1'
_cell_length_a   3.44074709
_cell_length_b   3.44067662
_cell_length_c   39.07471606
_cell_angle_alpha   89.99996433
_cell_angle_beta   90.00000000
_cell_angle_gamma   120.00067742
_symmetry_Int_Tables_number   1
_chemical_formula_structural   TeMoSe
_chemical_formula_sum   'Te4 Mo4 Se4'
_cell_volume   400.60845012
_cell_formula_units_Z   4
loop_
 _symmetry_equiv_pos_site_id
 _symmetry_equiv_pos_as_xyz
  1  'x, y, z'
loop_
 _atom_site_type_symbol
 _atom_site_label
 _atom_site_symmetry_multiplicity
 _atom_site_fract_x
 _atom_site_fract_y
 _atom_site_fract_z
 _atom_site_occupancy
  Te  Te0  1  0.333357  0.666714  0.329256  1
  Te  Te1  1  0.666643  0.333286  0.422202  1
  Te  Te2  1  0.666646  0.333292  0.517160  1
  Te  Te3  1  0.333354  0.666708  0.234298  1
  Mo  Mo4  1  0.333310  0.666620  0.093911  1
  Mo  Mo5  1  0.333308  0.666616  0.469692  1
  Mo  Mo6  1  0.666692  0.333384  0.281766  1
  Mo  Mo7  1  0.666690  0.333380  0.657547  1
  Se  Se8  1  0.333360  0.666722  0.699416  1
  Se  Se9  1  0.666640  0.333278  0.052042  1
  Se  Se10  1  0.666646  0.333291  0.135819  1
  Se  Se11  1  0.333354  0.666709  0.615639  1
