# generated using pymatgen
data_K2CuPb(NO2)6
_symmetry_space_group_name_H-M   'P 1'
_cell_length_a   7.64595140
_cell_length_b   7.64595140
_cell_length_c   7.64872911
_cell_angle_alpha   119.43111338
_cell_angle_beta   119.43111338
_cell_angle_gamma   90.96773846
_symmetry_Int_Tables_number   1
_chemical_formula_structural   K2CuPb(NO2)6
_chemical_formula_sum   'K2 Cu1 Pb1 N6 O12'
_cell_volume   318.90744675
_cell_formula_units_Z   1
loop_
 _symmetry_equiv_pos_site_id
 _symmetry_equiv_pos_as_xyz
  1  'x, y, z'
loop_
 _atom_site_type_symbol
 _atom_site_label
 _atom_site_symmetry_multiplicity
 _atom_site_fract_x
 _atom_site_fract_y
 _atom_site_fract_z
 _atom_site_occupancy
  N  N0  1  0.798109  0.798109  0.596219  1
  N  N1  1  0.201891  0.201891  0.403781  1
  N  N2  1  0.201648  0.798352  0.000000  1
  N  N3  1  0.798352  0.201648  0.000000  1
  N  N4  1  0.195799  0.195799  0.000000  1
  N  N5  1  0.804201  0.804201  0.000000  1
  O  O6  1  0.842863  0.645013  0.000000  1
  O  O7  1  0.354987  0.157137  0.000000  1
  O  O8  1  0.157137  0.354987  0.000000  1
  O  O9  1  0.162688  0.639722  0.802410  1
  O  O10  1  0.639722  0.162688  0.802410  1
  O  O11  1  0.360278  0.837312  0.197590  1
  O  O12  1  0.161145  0.161145  0.523449  1
  O  O13  1  0.637697  0.637697  0.476551  1
  O  O14  1  0.838855  0.838855  0.476551  1
  O  O15  1  0.362303  0.362303  0.523449  1
  O  O16  1  0.837312  0.360278  0.197590  1
  O  O17  1  0.645013  0.842863  0.000000  1
  K  K18  1  0.250000  0.750000  0.500000  1
  K  K19  1  0.750000  0.250000  0.500000  1
  Cu  Cu20  1  0.000000  0.000000  0.000000  1
  Pb  Pb21  1  0.500000  0.500000  0.000000  1
