# generated using pymatgen
data_Bi3O2
_symmetry_space_group_name_H-M   'P 1'
_cell_length_a   3.95113879
_cell_length_b   3.95113891
_cell_length_c   7.65683541
_cell_angle_alpha   104.95224739
_cell_angle_beta   104.95224751
_cell_angle_gamma   89.99999676
_symmetry_Int_Tables_number   1
_chemical_formula_structural   Bi3O2
_chemical_formula_sum   'Bi3 O2'
_cell_volume   111.29298415
_cell_formula_units_Z   1
loop_
 _symmetry_equiv_pos_site_id
 _symmetry_equiv_pos_as_xyz
  1  'x, y, z'
loop_
 _atom_site_type_symbol
 _atom_site_label
 _atom_site_symmetry_multiplicity
 _atom_site_fract_x
 _atom_site_fract_y
 _atom_site_fract_z
 _atom_site_occupancy
  Bi  Bi0  1  0.339231  0.339231  0.678463  1
  Bi  Bi1  1  0.660769  0.660769  0.321537  1
  Bi  Bi2  1  -0.000000  0.000000  -0.000000  1
  O  O3  1  0.750000  0.250000  0.500000  1
  O  O4  1  0.250000  0.750000  0.500000  1
