# generated using pymatgen
data_Rb4Ta2S11
_symmetry_space_group_name_H-M   'P 1'
_cell_length_a   7.84373554
_cell_length_b   13.86015052
_cell_length_c   18.66958461
_cell_angle_alpha   90.00000000
_cell_angle_beta   90.00000000
_cell_angle_gamma   90.00000000
_symmetry_Int_Tables_number   1
_chemical_formula_structural   Rb4Ta2S11
_chemical_formula_sum   'Rb16 Ta8 S44'
_cell_volume   2029.67052275
_cell_formula_units_Z   4
loop_
 _symmetry_equiv_pos_site_id
 _symmetry_equiv_pos_as_xyz
  1  'x, y, z'
loop_
 _atom_site_type_symbol
 _atom_site_label
 _atom_site_symmetry_multiplicity
 _atom_site_fract_x
 _atom_site_fract_y
 _atom_site_fract_z
 _atom_site_occupancy
  S  S0  1  0.748170  0.576607  0.967121  1
  S  S1  1  0.251830  0.423393  0.467121  1
  S  S2  1  0.251830  0.076607  0.967121  1
  S  S3  1  0.748170  0.923393  0.467121  1
  S  S4  1  0.542264  0.477995  0.128827  1
  S  S5  1  0.457736  0.522005  0.628827  1
  S  S6  1  0.457736  0.977995  0.128827  1
  S  S7  1  0.542264  0.022005  0.628827  1
  S  S8  1  0.014249  0.184002  0.772353  1
  S  S9  1  0.985751  0.815998  0.272353  1
  S  S10  1  0.985751  0.684002  0.772353  1
  S  S11  1  0.014249  0.315998  0.272353  1
  S  S12  1  0.601990  0.257955  0.692908  1
  S  S13  1  0.398010  0.742045  0.192908  1
  S  S14  1  0.398010  0.757955  0.692908  1
  S  S15  1  0.601990  0.242045  0.192908  1
  S  S16  1  0.772590  0.236461  0.608415  1
  S  S17  1  0.251257  0.038968  0.265967  1
  S  S18  1  0.227410  0.736461  0.608415  1
  S  S19  1  0.772590  0.263539  0.108415  1
  S  S20  1  0.962715  0.023682  0.621315  1
  S  S21  1  0.037285  0.976318  0.121315  1
  S  S22  1  0.037285  0.523682  0.621315  1
  S  S23  1  0.962715  0.476318  0.121315  1
  S  S24  1  0.604281  0.071187  0.812387  1
  S  S25  1  0.395719  0.928813  0.312387  1
  S  S26  1  0.395719  0.571187  0.812387  1
  S  S27  1  0.604281  0.428813  0.312387  1
  S  S28  1  0.748743  0.961032  0.765967  1
  S  S29  1  0.739420  0.322880  0.924945  1
  S  S30  1  0.251257  0.461032  0.765967  1
  S  S31  1  0.748743  0.538968  0.265967  1
  S  S32  1  0.435498  0.098326  0.543295  1
  S  S33  1  0.564502  0.901674  0.043295  1
  S  S34  1  0.564502  0.598326  0.543295  1
  S  S35  1  0.435498  0.401674  0.043295  1
  S  S36  1  0.973775  0.159210  0.475941  1
  S  S37  1  0.026225  0.840790  0.975941  1
  S  S38  1  0.026225  0.659210  0.475941  1
  S  S39  1  0.973775  0.340790  0.975941  1
  S  S40  1  0.739420  0.177120  0.424945  1
  S  S41  1  0.260580  0.822880  0.924945  1
  S  S42  1  0.260580  0.677120  0.424945  1
  S  S43  1  0.227410  0.763539  0.108415  1
  Rb  Rb44  1  0.813852  0.085479  0.973127  1
  Rb  Rb45  1  0.186148  0.914521  0.473127  1
  Rb  Rb46  1  0.186148  0.585479  0.973127  1
  Rb  Rb47  1  0.813852  0.414521  0.473127  1
  Rb  Rb48  1  0.330716  0.269059  0.873252  1
  Rb  Rb49  1  0.669284  0.730941  0.373252  1
  Rb  Rb50  1  0.669284  0.769059  0.873252  1
  Rb  Rb51  1  0.210283  0.539663  0.271297  1
  Rb  Rb52  1  0.795290  0.786166  0.621068  1
  Rb  Rb53  1  0.204710  0.213834  0.121068  1
  Rb  Rb54  1  0.204710  0.286166  0.621068  1
  Rb  Rb55  1  0.795290  0.713834  0.121068  1
  Rb  Rb56  1  0.330716  0.230941  0.373252  1
  Rb  Rb57  1  0.789717  0.039663  0.271297  1
  Rb  Rb58  1  0.789717  0.460337  0.771297  1
  Rb  Rb59  1  0.210283  0.960337  0.771297  1
  Ta  Ta60  1  0.741245  0.437024  0.029400  1
  Ta  Ta61  1  0.258755  0.562976  0.529400  1
  Ta  Ta62  1  0.258755  0.937024  0.029400  1
  Ta  Ta63  1  0.741245  0.062976  0.529400  1
  Ta  Ta64  1  0.794667  0.380113  0.210284  1
  Ta  Ta65  1  0.205333  0.619887  0.710284  1
  Ta  Ta66  1  0.205333  0.880113  0.210284  1
  Ta  Ta67  1  0.794667  0.119887  0.710284  1
