# generated using pymatgen
data_La4B10O21
_symmetry_space_group_name_H-M   'P 1'
_cell_length_a   7.22427331
_cell_length_b   19.85499861
_cell_length_c   9.65934566
_cell_angle_alpha   90.00000000
_cell_angle_beta   93.68764520
_cell_angle_gamma   90.00000000
_symmetry_Int_Tables_number   1
_chemical_formula_structural   La4B10O21
_chemical_formula_sum   'La16 B40 O84'
_cell_volume   1382.64791152
_cell_formula_units_Z   4
loop_
 _symmetry_equiv_pos_site_id
 _symmetry_equiv_pos_as_xyz
  1  'x, y, z'
loop_
 _atom_site_type_symbol
 _atom_site_label
 _atom_site_symmetry_multiplicity
 _atom_site_fract_x
 _atom_site_fract_y
 _atom_site_fract_z
 _atom_site_occupancy
  La  La0  1  0.126225  0.699974  0.661325  1
  La  La1  1  0.626225  0.800026  0.161325  1
  La  La2  1  0.873775  0.300026  0.338675  1
  La  La3  1  0.373775  0.199974  0.838675  1
  La  La4  1  0.603443  0.795153  0.676616  1
  La  La5  1  0.103443  0.704847  0.176616  1
  La  La6  1  0.396557  0.204847  0.323384  1
  La  La7  1  0.896557  0.295153  0.823384  1
  La  La8  1  0.135086  0.918172  0.659641  1
  La  La9  1  0.635086  0.581828  0.159641  1
  La  La10  1  0.864914  0.081828  0.340359  1
  La  La11  1  0.364914  0.418172  0.840359  1
  La  La12  1  0.651800  0.579675  0.649929  1
  La  La13  1  0.151800  0.920325  0.149929  1
  La  La14  1  0.348200  0.420325  0.350071  1
  La  La15  1  0.848200  0.079675  0.850071  1
  B  B16  1  0.481786  0.906853  0.446473  1
  B  B17  1  0.981786  0.593147  0.946473  1
  B  B18  1  0.518214  0.093147  0.553527  1
  B  B19  1  0.018214  0.406853  0.053527  1
  B  B20  1  0.691554  0.978382  0.607180  1
  B  B21  1  0.191554  0.521618  0.107180  1
  B  B22  1  0.308446  0.021618  0.392820  1
  B  B23  1  0.808446  0.478382  0.892820  1
  B  B24  1  0.470505  0.905837  0.946009  1
  B  B25  1  0.970505  0.594163  0.446009  1
  B  B26  1  0.529495  0.094163  0.053991  1
  B  B27  1  0.029495  0.405837  0.553991  1
  B  B28  1  0.202590  0.524778  0.604372  1
  B  B29  1  0.702590  0.975222  0.104372  1
  B  B30  1  0.797410  0.475222  0.395628  1
  B  B31  1  0.297410  0.024778  0.895628  1
  B  B32  1  0.796911  0.921459  0.864850  1
  B  B33  1  0.296911  0.578541  0.364850  1
  B  B34  1  0.203089  0.078541  0.135150  1
  B  B35  1  0.703089  0.421459  0.635150  1
  B  B36  1  0.951893  0.811217  0.953134  1
  B  B37  1  0.451893  0.688783  0.453134  1
  B  B38  1  0.048107  0.188783  0.046866  1
  B  B39  1  0.548107  0.311217  0.546866  1
  B  B40  1  0.787635  0.705724  0.378408  1
  B  B41  1  0.287635  0.794276  0.878408  1
  B  B42  1  0.212365  0.294276  0.621592  1
  B  B43  1  0.712365  0.205724  0.121592  1
  B  B44  1  0.303254  0.572666  0.870927  1
  B  B45  1  0.803254  0.927334  0.370927  1
  B  B46  1  0.696746  0.427334  0.129073  1
  B  B47  1  0.196746  0.072666  0.629073  1
  B  B48  1  0.933390  0.821278  0.453025  1
  B  B49  1  0.433390  0.678722  0.953025  1
  B  B50  1  0.066610  0.178722  0.546975  1
  B  B51  1  0.566610  0.321278  0.046975  1
  B  B52  1  0.817839  0.701644  0.880068  1
  B  B53  1  0.317839  0.798356  0.380068  1
  B  B54  1  0.182161  0.298356  0.119932  1
  B  B55  1  0.682161  0.201644  0.619932  1
  O  O56  1  0.197858  0.021186  0.520005  1
  O  O57  1  0.697858  0.478814  0.020005  1
  O  O58  1  0.802142  0.978814  0.479995  1
  O  O59  1  0.302142  0.521186  0.979995  1
  O  O60  1  0.867021  0.657656  0.481384  1
  O  O61  1  0.367021  0.842344  0.981384  1
  O  O62  1  0.132979  0.342344  0.518616  1
  O  O63  1  0.632979  0.157656  0.018616  1
  O  O64  1  0.143560  0.617800  0.871292  1
  O  O65  1  0.643560  0.882200  0.371292  1
  O  O66  1  0.856440  0.382200  0.128708  1
  O  O67  1  0.356440  0.117800  0.628708  1
  O  O68  1  0.370631  0.844507  0.481459  1
  O  O69  1  0.870631  0.655493  0.981459  1
  O  O70  1  0.629369  0.155493  0.518541  1
  O  O71  1  0.129369  0.344507  0.018541  1
  O  O72  1  0.621176  0.886634  0.860660  1
  O  O73  1  0.121176  0.613366  0.360660  1
  O  O74  1  0.378824  0.113366  0.139340  1
  O  O75  1  0.878824  0.386634  0.639340  1
  O  O76  1  0.449069  0.677708  0.600925  1
  O  O77  1  0.949069  0.822292  0.100925  1
  O  O78  1  0.550931  0.322292  0.399075  1
  O  O79  1  0.050931  0.177708  0.899075  1
  O  O80  1  0.329515  0.541484  0.732947  1
  O  O81  1  0.829515  0.958516  0.232947  1
  O  O82  1  0.670485  0.458516  0.267053  1
  O  O83  1  0.170485  0.041484  0.767053  1
  O  O84  1  0.042744  0.570850  0.586374  1
  O  O85  1  0.542744  0.929150  0.086374  1
  O  O86  1  0.957256  0.429150  0.413626  1
  O  O87  1  0.457256  0.070850  0.913626  1
  O  O88  1  0.927575  0.812078  0.591721  1
  O  O89  1  0.427575  0.687922  0.091721  1
  O  O90  1  0.072425  0.187922  0.408279  1
  O  O91  1  0.572425  0.312078  0.908279  1
  O  O92  1  0.539902  0.929983  0.586166  1
  O  O93  1  0.039902  0.570017  0.086166  1
  O  O94  1  0.460098  0.070017  0.413834  1
  O  O95  1  0.960098  0.429983  0.913834  1
  O  O96  1  0.805314  0.686925  0.743483  1
  O  O97  1  0.305314  0.813075  0.243483  1
  O  O98  1  0.194686  0.313075  0.256517  1
  O  O99  1  0.694686  0.186925  0.756517  1
  O  O100  1  0.280339  0.817662  0.736809  1
  O  O101  1  0.780339  0.682338  0.236809  1
  O  O102  1  0.719661  0.182338  0.263191  1
  O  O103  1  0.219661  0.317662  0.763191  1
  O  O104  1  0.363594  0.952088  0.361731  1
  O  O105  1  0.863594  0.547912  0.861731  1
  O  O106  1  0.636406  0.047912  0.638269  1
  O  O107  1  0.136406  0.452088  0.138269  1
  O  O108  1  0.608218  0.733806  0.419486  1
  O  O109  1  0.108218  0.766194  0.919486  1
  O  O110  1  0.391782  0.266194  0.580514  1
  O  O111  1  0.891782  0.233806  0.080514  1
  O  O112  1  0.176313  0.039646  0.268460  1
  O  O113  1  0.676313  0.460354  0.768460  1
  O  O114  1  0.823687  0.960354  0.731540  1
  O  O115  1  0.323687  0.539646  0.231540  1
  O  O116  1  0.953812  0.872614  0.870793  1
  O  O117  1  0.453812  0.627386  0.370793  1
  O  O118  1  0.046188  0.127386  0.129207  1
  O  O119  1  0.546188  0.372614  0.629207  1
  O  O120  1  0.480527  0.615339  0.899525  1
  O  O121  1  0.980527  0.884661  0.399525  1
  O  O122  1  0.519473  0.384661  0.100475  1
  O  O123  1  0.019473  0.115339  0.600475  1
  O  O124  1  0.819562  0.969398  0.982244  1
  O  O125  1  0.319562  0.530602  0.482244  1
  O  O126  1  0.180438  0.030602  0.017756  1
  O  O127  1  0.680438  0.469398  0.517756  1
  O  O128  1  0.774073  0.767522  0.918666  1
  O  O129  1  0.274073  0.732478  0.418666  1
  O  O130  1  0.225927  0.232478  0.081334  1
  O  O131  1  0.725927  0.267522  0.581334  1
  O  O132  1  0.408424  0.731377  0.861091  1
  O  O133  1  0.908424  0.768623  0.361091  1
  O  O134  1  0.591576  0.268623  0.138909  1
  O  O135  1  0.091576  0.231377  0.638909  1
  O  O136  1  0.336851  0.952452  0.876803  1
  O  O137  1  0.836851  0.547548  0.376803  1
  O  O138  1  0.663149  0.047548  0.123197  1
  O  O139  1  0.163149  0.452452  0.623197  1
