# generated using pymatgen
data_LuTe3
_symmetry_space_group_name_H-M   'P 1'
_cell_length_a   3.91849625
_cell_length_b   4.64628272
_cell_length_c   14.06065436
_cell_angle_alpha   90.00000000
_cell_angle_beta   98.00980707
_cell_angle_gamma   90.00000000
_symmetry_Int_Tables_number   1
_chemical_formula_structural   LuTe3
_chemical_formula_sum   'Lu2 Te6'
_cell_volume   253.49705732
_cell_formula_units_Z   2
loop_
 _symmetry_equiv_pos_site_id
 _symmetry_equiv_pos_as_xyz
  1  'x, y, z'
loop_
 _atom_site_type_symbol
 _atom_site_label
 _atom_site_symmetry_multiplicity
 _atom_site_fract_x
 _atom_site_fract_y
 _atom_site_fract_z
 _atom_site_occupancy
  Lu  Lu0  1  0.950616  0.250000  0.901232  1
  Lu  Lu1  1  0.049384  0.750000  0.098768  1
  Te  Te2  1  0.837983  0.250000  0.675967  1
  Te  Te3  1  0.162017  0.750000  0.324033  1
  Te  Te4  1  0.685045  0.250000  0.370090  1
  Te  Te5  1  0.314955  0.750000  0.629910  1
  Te  Te6  1  0.550598  0.250000  0.101196  1
  Te  Te7  1  0.449402  0.750000  0.898804  1
