# generated using pymatgen
data_AlV2O4
_symmetry_space_group_name_H-M   'P 1'
_cell_length_a   10.38479055
_cell_length_b   5.83962607
_cell_length_c   5.83962607
_cell_angle_alpha   59.99999785
_cell_angle_beta   89.99999907
_cell_angle_gamma   106.32959287
_symmetry_Int_Tables_number   1
_chemical_formula_structural   AlV2O4
_chemical_formula_sum   'Al4 V8 O16'
_cell_volume   290.07622972
_cell_formula_units_Z   4
loop_
 _symmetry_equiv_pos_site_id
 _symmetry_equiv_pos_as_xyz
  1  'x, y, z'
loop_
 _atom_site_type_symbol
 _atom_site_label
 _atom_site_symmetry_multiplicity
 _atom_site_fract_x
 _atom_site_fract_y
 _atom_site_fract_z
 _atom_site_occupancy
  Al  Al0  1  0.551775  0.367850  0.816075  1
  Al  Al1  1  0.448225  0.632150  0.183925  1
  Al  Al2  1  0.922037  0.614691  0.692654  1
  Al  Al3  1  0.077963  0.385309  0.307346  1
  V  V4  1  0.000000  0.000000  0.000000  1
  V  V5  1  0.500000  -0.000000  0.500000  1
  V  V6  1  0.252771  0.985676  0.281419  1
  V  V7  1  0.747229  0.014324  0.718581  1
  V  V8  1  0.252771  0.985676  0.732905  1
  V  V9  1  0.747229  0.014324  0.267095  1
  V  V10  1  0.252771  0.534190  0.732905  1
  V  V11  1  0.747229  0.465810  0.267095  1
  O  O12  1  0.366548  0.244365  0.877817  1
  O  O13  1  0.633452  0.755635  0.122183  1
  O  O14  1  0.107225  0.738150  0.630925  1
  O  O15  1  0.892775  0.261850  0.369075  1
  O  O16  1  0.621640  0.252409  0.116821  1
  O  O17  1  0.378360  0.747591  0.883179  1
  O  O18  1  0.621640  0.252409  0.630769  1
  O  O19  1  0.378360  0.747591  0.369231  1
  O  O20  1  0.621640  0.738461  0.630769  1
  O  O21  1  0.378360  0.261539  0.369231  1
  O  O22  1  0.862425  0.742270  0.377884  1
  O  O23  1  0.137575  0.257730  0.622116  1
  O  O24  1  0.862425  0.742270  0.879845  1
  O  O25  1  0.137575  0.257730  0.120155  1
  O  O26  1  0.862425  0.240309  0.879845  1
  O  O27  1  0.137575  0.759691  0.120155  1
