# generated using pymatgen
data_Ba4Ru3O10
_symmetry_space_group_name_H-M   'P 1'
_cell_length_a   5.86949932
_cell_length_b   7.31080634
_cell_length_c   13.30908772
_cell_angle_alpha   90.00000000
_cell_angle_beta   90.00000000
_cell_angle_gamma   113.65523394
_symmetry_Int_Tables_number   1
_chemical_formula_structural   Ba4Ru3O10
_chemical_formula_sum   'Ba8 Ru6 O20'
_cell_volume   523.11706795
_cell_formula_units_Z   2
loop_
 _symmetry_equiv_pos_site_id
 _symmetry_equiv_pos_as_xyz
  1  'x, y, z'
loop_
 _atom_site_type_symbol
 _atom_site_label
 _atom_site_symmetry_multiplicity
 _atom_site_fract_x
 _atom_site_fract_y
 _atom_site_fract_z
 _atom_site_occupancy
  O  O0  1  0.370602  0.237677  0.249464  1
  O  O1  1  0.129398  0.762323  0.749464  1
  O  O2  1  0.629398  0.762323  0.750536  1
  O  O3  1  0.870602  0.237677  0.250536  1
  O  O4  1  0.769518  0.538418  0.349301  1
  O  O5  1  0.730482  0.461582  0.849301  1
  O  O6  1  0.230482  0.461582  0.650699  1
  O  O7  1  0.269518  0.538418  0.150699  1
  O  O8  1  0.840750  0.219877  0.464915  1
  O  O9  1  0.659250  0.780123  0.964915  1
  O  O10  1  0.159250  0.780123  0.535085  1
  O  O11  1  0.340750  0.219877  0.035085  1
  O  O12  1  0.379203  0.219804  0.464418  1
  O  O13  1  0.120797  0.780196  0.964418  1
  O  O14  1  0.965195  0.929083  0.149722  1
  O  O15  1  0.534805  0.070917  0.649722  1
  O  O16  1  0.034805  0.070917  0.850278  1
  O  O17  1  0.465195  0.929083  0.350278  1
  O  O18  1  0.879203  0.219804  0.035582  1
  O  O19  1  0.620797  0.780196  0.535582  1
  Ru  Ru20  1  0.375494  0.752224  0.649227  1
  Ru  Ru21  1  0.124506  0.247776  0.149227  1
  Ru  Ru22  1  0.624506  0.247776  0.350773  1
  Ru  Ru23  1  0.875494  0.752224  0.850773  1
  Ru  Ru24  1  0.500000  0.000000  0.500000  1
  Ru  Ru25  1  0.000000  0.000000  0.000000  1
  Ba  Ba26  1  0.240322  0.481078  0.886710  1
  Ba  Ba27  1  0.259678  0.518922  0.386710  1
  Ba  Ba28  1  0.759678  0.518922  0.113290  1
  Ba  Ba29  1  0.740322  0.481078  0.613290  1
  Ba  Ba30  1  0.965481  0.930202  0.360584  1
  Ba  Ba31  1  0.534519  0.069798  0.860584  1
  Ba  Ba32  1  0.034519  0.069798  0.639416  1
  Ba  Ba33  1  0.465481  0.930202  0.139416  1
