# generated using pymatgen
data_Cs2NbAgSe4
_symmetry_space_group_name_H-M   'P 1'
_cell_length_a   6.17789020
_cell_length_b   8.10174740
_cell_length_c   13.34295341
_cell_angle_alpha   84.93618447
_cell_angle_beta   76.61437403
_cell_angle_gamma   67.58769059
_symmetry_Int_Tables_number   1
_chemical_formula_structural   Cs2NbAgSe4
_chemical_formula_sum   'Cs4 Nb2 Ag2 Se8'
_cell_volume   600.61981952
_cell_formula_units_Z   2
loop_
 _symmetry_equiv_pos_site_id
 _symmetry_equiv_pos_as_xyz
  1  'x, y, z'
loop_
 _atom_site_type_symbol
 _atom_site_label
 _atom_site_symmetry_multiplicity
 _atom_site_fract_x
 _atom_site_fract_y
 _atom_site_fract_z
 _atom_site_occupancy
  Se  Se0  1  0.557164  0.557009  0.639900  1
  Se  Se1  1  0.254073  0.942991  0.860100  1
  Se  Se2  1  0.885827  0.557009  0.860100  1
  Se  Se3  1  0.802936  0.942991  0.639900  1
  Se  Se4  1  0.197064  0.057009  0.360100  1
  Se  Se5  1  0.745927  0.057009  0.139900  1
  Se  Se6  1  0.114173  0.442991  0.139900  1
  Se  Se7  1  0.442836  0.442991  0.360100  1
  Nb  Nb8  1  0.375000  0.250000  0.250000  1
  Nb  Nb9  1  0.625000  0.750000  0.750000  1
  Ag  Ag10  1  0.125000  0.750000  0.750000  1
  Ag  Ag11  1  0.875000  0.250000  0.250000  1
  Cs  Cs12  1  0.195672  0.250000  0.608656  1
  Cs  Cs13  1  0.554328  0.250000  0.891344  1
  Cs  Cs14  1  0.445672  0.750000  0.108656  1
  Cs  Cs15  1  0.804328  0.750000  0.391344  1
