# generated using pymatgen
data_Co4B6O13
_symmetry_space_group_name_H-M   'P 1'
_cell_length_a   6.53352886
_cell_length_b   6.53352885
_cell_length_c   6.53352886
_cell_angle_alpha   109.47122062
_cell_angle_beta   109.47122061
_cell_angle_gamma   109.47122066
_symmetry_Int_Tables_number   1
_chemical_formula_structural   Co4B6O13
_chemical_formula_sum   'Co4 B6 O13'
_cell_volume   214.69481200
_cell_formula_units_Z   1
loop_
 _symmetry_equiv_pos_site_id
 _symmetry_equiv_pos_as_xyz
  1  'x, y, z'
loop_
 _atom_site_type_symbol
 _atom_site_label
 _atom_site_symmetry_multiplicity
 _atom_site_fract_x
 _atom_site_fract_y
 _atom_site_fract_z
 _atom_site_occupancy
  B  B0  1  0.500000  0.749999  0.250000  1
  B  B1  1  0.249999  0.749999  0.499999  1
  B  B2  1  0.750000  0.250000  0.500000  1
  B  B3  1  0.250000  0.500000  0.750000  1
  B  B4  1  0.749999  0.500000  0.250000  1
  B  B5  1  0.500000  0.250000  0.750000  1
  O  O6  1  0.442257  0.723867  1.000000  1
  O  O7  1  0.723868  0.442258  1.000000  1
  O  O8  1  0.999999  0.723867  0.442257  1
  O  O9  1  0.557743  0.557743  0.281611  1
  O  O10  1  0.276132  0.718390  0.276132  1
  O  O11  1  0.000000  0.000000  0.000000  1
  O  O12  1  0.442258  0.000000  0.723868  1
  O  O13  1  0.000001  0.442258  0.723868  1
  O  O14  1  0.281611  0.557743  0.557743  1
  O  O15  1  0.557743  0.281610  0.557742  1
  O  O16  1  0.276133  0.276132  0.718389  1
  O  O17  1  0.718389  0.276132  0.276132  1
  O  O18  1  0.723867  0.000000  0.442258  1
  Co  Co19  1  0.000000  0.000000  0.692578  1
  Co  Co20  1  1.000000  0.692578  0.000000  1
  Co  Co21  1  0.692577  0.000000  0.000000  1
  Co  Co22  1  0.307422  0.307423  0.307422  1
