# generated using pymatgen
data_KMn4(PO4)3
_symmetry_space_group_name_H-M   'P 1'
_cell_length_a   6.64821835
_cell_length_b   10.21682174
_cell_length_c   16.28914724
_cell_angle_alpha   90.00000000
_cell_angle_beta   90.00000000
_cell_angle_gamma   90.00000000
_symmetry_Int_Tables_number   1
_chemical_formula_structural   KMn4(PO4)3
_chemical_formula_sum   'K4 Mn16 P12 O48'
_cell_volume   1106.41852766
_cell_formula_units_Z   4
loop_
 _symmetry_equiv_pos_site_id
 _symmetry_equiv_pos_as_xyz
  1  'x, y, z'
loop_
 _atom_site_type_symbol
 _atom_site_label
 _atom_site_symmetry_multiplicity
 _atom_site_fract_x
 _atom_site_fract_y
 _atom_site_fract_z
 _atom_site_occupancy
  O  O0  1  0.250000  0.052963  0.767449  1
  O  O1  1  0.750001  0.947037  0.232552  1
  O  O2  1  0.250000  0.552963  0.732552  1
  O  O3  1  0.750001  0.447037  0.267449  1
  O  O4  1  0.940155  0.744879  0.178368  1
  O  O5  1  0.440157  0.255121  0.821631  1
  O  O6  1  0.559844  0.244879  0.321631  1
  O  O7  1  0.059844  0.755121  0.678369  1
  O  O8  1  0.059844  0.255121  0.821631  1
  O  O9  1  0.559844  0.744879  0.178368  1
  O  O10  1  0.440157  0.755121  0.678369  1
  O  O11  1  0.940155  0.244879  0.321631  1
  O  O12  1  0.250000  0.250195  0.684524  1
  O  O13  1  0.750001  0.749805  0.315477  1
  O  O14  1  0.250000  0.750196  0.815476  1
  O  O15  1  0.750001  0.249804  0.184523  1
  O  O16  1  0.939911  0.912616  0.899983  1
  O  O17  1  0.439910  0.087384  0.100017  1
  O  O18  1  0.560091  0.412617  0.600017  1
  O  O19  1  0.939729  0.560804  0.890798  1
  O  O20  1  0.060090  0.087384  0.100017  1
  O  O21  1  0.560091  0.912616  0.899983  1
  O  O22  1  0.439910  0.587383  0.399983  1
  O  O23  1  0.939911  0.412617  0.600017  1
  O  O24  1  0.250000  0.104729  0.966393  1
  O  O25  1  0.750001  0.895271  0.033606  1
  O  O26  1  0.250000  0.604729  0.533606  1
  O  O27  1  0.750001  0.395271  0.466394  1
  O  O28  1  0.250000  0.388226  0.457518  1
  O  O29  1  0.750001  0.611773  0.542483  1
  O  O30  1  0.250000  0.888226  0.042483  1
  O  O31  1  0.750001  0.111774  0.957518  1
  O  O32  1  0.750001  0.110804  0.476909  1
  O  O33  1  0.250000  0.889197  0.523091  1
  O  O34  1  0.750001  0.610803  0.023091  1
  O  O35  1  0.250000  0.389197  0.976909  1
  O  O36  1  0.750001  0.379710  0.967306  1
  O  O37  1  0.250000  0.620290  0.032693  1
  O  O38  1  0.750001  0.879710  0.532693  1
  O  O39  1  0.250000  0.120290  0.467307  1
  O  O40  1  0.939729  0.060805  0.609202  1
  O  O41  1  0.439728  0.939196  0.390798  1
  O  O42  1  0.560273  0.560804  0.890798  1
  O  O43  1  0.060272  0.439196  0.109202  1
  O  O44  1  0.060272  0.939196  0.390798  1
  O  O45  1  0.560273  0.060805  0.609202  1
  O  O46  1  0.439728  0.439196  0.109202  1
  O  O47  1  0.060090  0.587383  0.399983  1
  P  P48  1  0.250000  0.206275  0.776098  1
  P  P49  1  0.750001  0.793725  0.223902  1
  P  P50  1  0.250000  0.706275  0.723902  1
  P  P51  1  0.750001  0.293725  0.276098  1
  P  P52  1  0.250000  0.040836  0.055868  1
  P  P53  1  0.750001  0.959164  0.944132  1
  P  P54  1  0.250000  0.540835  0.444132  1
  P  P55  1  0.750001  0.028213  0.560265  1
  P  P56  1  0.250000  0.471787  0.060265  1
  P  P57  1  0.750001  0.528213  0.939734  1
  P  P58  1  0.250000  0.971787  0.439735  1
  P  P59  1  0.750001  0.459165  0.555867  1
  K  K60  1  0.250000  0.750127  0.285173  1
  K  K61  1  0.750001  0.749873  0.785173  1
  K  K62  1  0.250000  0.250127  0.214827  1
  K  K63  1  0.750001  0.249873  0.714827  1
  Mn  Mn64  1  0.997695  0.752344  0.052577  1
  Mn  Mn65  1  0.497694  0.747655  0.552577  1
  Mn  Mn66  1  0.502305  0.752344  0.052577  1
  Mn  Mn67  1  0.002305  0.247656  0.947423  1
  Mn  Mn68  1  0.250000  0.434953  0.626757  1
  Mn  Mn69  1  0.750001  0.565047  0.373243  1
  Mn  Mn70  1  0.250000  0.934953  0.873243  1
  Mn  Mn71  1  0.750001  0.065047  0.126757  1
  Mn  Mn72  1  0.250000  0.043746  0.630427  1
  Mn  Mn73  1  0.750001  0.956254  0.369573  1
  Mn  Mn74  1  0.250000  0.543745  0.869573  1
  Mn  Mn75  1  0.750001  0.456255  0.130427  1
  Mn  Mn76  1  0.497694  0.247656  0.947423  1
  Mn  Mn77  1  0.502305  0.252345  0.447423  1
  Mn  Mn78  1  0.002305  0.747655  0.552577  1
  Mn  Mn79  1  0.997695  0.252345  0.447423  1
