# generated using pymatgen
data_Te2MoWS2
_symmetry_space_group_name_H-M   'P 1'
_cell_length_a   3.35997525
_cell_length_b   3.35997932
_cell_length_c   39.93005305
_cell_angle_alpha   89.99970213
_cell_angle_beta   90.00000000
_cell_angle_gamma   119.99995987
_symmetry_Int_Tables_number   1
_chemical_formula_structural   Te2MoWS2
_chemical_formula_sum   'Te4 Mo2 W2 S4'
_cell_volume   390.39421781
_cell_formula_units_Z   2
loop_
 _symmetry_equiv_pos_site_id
 _symmetry_equiv_pos_as_xyz
  1  'x, y, z'
loop_
 _atom_site_type_symbol
 _atom_site_label
 _atom_site_symmetry_multiplicity
 _atom_site_fract_x
 _atom_site_fract_y
 _atom_site_fract_z
 _atom_site_occupancy
  Te  Te0  1  0.333278  0.666558  0.327581  1
  Te  Te1  1  0.666696  0.333391  0.423583  1
  Te  Te2  1  0.666682  0.333362  0.518762  1
  Te  Te3  1  0.333309  0.666619  0.232827  1
  Mo  Mo4  1  0.333323  0.666646  0.093763  1
  Mo  Mo5  1  0.666638  0.333276  0.280203  1
  W  W6  1  0.333346  0.666693  0.471185  1
  W  W7  1  0.666683  0.333366  0.657773  1
  S  S8  1  0.333350  0.666702  0.695779  1
  S  S9  1  0.666682  0.333362  0.055879  1
  S  S10  1  0.666670  0.333340  0.131689  1
  S  S11  1  0.333342  0.666685  0.619724  1
