# generated using pymatgen
data_Fe2B2O5
_symmetry_space_group_name_H-M   'P 1'
_cell_length_a   3.28351853
_cell_length_b   6.25844668
_cell_length_c   9.53459838
_cell_angle_alpha   105.13312201
_cell_angle_beta   91.07124752
_cell_angle_gamma   91.79936025
_symmetry_Int_Tables_number   1
_chemical_formula_structural   Fe2B2O5
_chemical_formula_sum   'Fe4 B4 O10'
_cell_volume   188.97206762
_cell_formula_units_Z   2
loop_
 _symmetry_equiv_pos_site_id
 _symmetry_equiv_pos_as_xyz
  1  'x, y, z'
loop_
 _atom_site_type_symbol
 _atom_site_label
 _atom_site_symmetry_multiplicity
 _atom_site_fract_x
 _atom_site_fract_y
 _atom_site_fract_z
 _atom_site_occupancy
  B  B0  1  0.654676  0.124632  0.830020  1
  B  B1  1  0.345325  0.875368  0.169980  1
  B  B2  1  0.305876  0.319788  0.645943  1
  B  B3  1  0.694126  0.680213  0.354057  1
  O  O4  1  0.242132  0.088295  0.181195  1
  O  O5  1  0.740960  0.307879  0.943269  1
  O  O6  1  0.259041  0.692121  0.056731  1
  O  O7  1  0.757866  0.911704  0.818804  1
  O  O8  1  0.736332  0.473343  0.260563  1
  O  O9  1  0.242838  0.270663  0.500269  1
  O  O10  1  0.571076  0.856058  0.295630  1
  O  O11  1  0.428925  0.143942  0.704370  1
  O  O12  1  0.757159  0.729337  0.499731  1
  O  O13  1  0.263665  0.526656  0.739437  1
  Fe  Fe14  1  0.762724  0.636355  0.899704  1
  Fe  Fe15  1  0.237274  0.363645  0.100296  1
  Fe  Fe16  1  0.252369  0.786820  0.639610  1
  Fe  Fe17  1  0.747629  0.213180  0.360390  1
