# generated using pymatgen
data_Te3MoWS
_symmetry_space_group_name_H-M   'P 1'
_cell_length_a   3.46013266
_cell_length_b   3.46013273
_cell_length_c   39.26130719
_cell_angle_alpha   90.00030520
_cell_angle_beta   90.00000000
_cell_angle_gamma   119.99999937
_symmetry_Int_Tables_number   1
_chemical_formula_structural   Te3MoWS
_chemical_formula_sum   'Te6 Mo2 W2 S2'
_cell_volume   407.08106067
_cell_formula_units_Z   2
loop_
 _symmetry_equiv_pos_site_id
 _symmetry_equiv_pos_as_xyz
  1  'x, y, z'
loop_
 _atom_site_type_symbol
 _atom_site_label
 _atom_site_symmetry_multiplicity
 _atom_site_fract_x
 _atom_site_fract_y
 _atom_site_fract_z
 _atom_site_occupancy
  Te  Te0  1  0.333355  0.666710  0.329113  1
  Te  Te1  1  0.333350  0.666701  0.704804  1
  Te  Te2  1  0.666644  0.333287  0.046886  1
  Te  Te3  1  0.666650  0.333300  0.140879  1
  Te  Te4  1  0.333352  0.666705  0.234593  1
  Te  Te5  1  0.333350  0.666702  0.610204  1
  Mo  Mo6  1  0.333309  0.666618  0.093865  1
  Mo  Mo7  1  0.333313  0.666626  0.469664  1
  W  W8  1  0.666692  0.333384  0.281869  1
  W  W9  1  0.666688  0.333376  0.657547  1
  S  S10  1  0.666652  0.333304  0.431797  1
  S  S11  1  0.666644  0.333286  0.507526  1
