# generated using pymatgen
data_Te2MoWSe2
_symmetry_space_group_name_H-M   'P 1'
_cell_length_a   3.43765470
_cell_length_b   3.43766365
_cell_length_c   39.14337653
_cell_angle_alpha   90.00115717
_cell_angle_beta   90.00000000
_cell_angle_gamma   119.99991391
_symmetry_Int_Tables_number   1
_chemical_formula_structural   Te2MoWSe2
_chemical_formula_sum   'Te4 Mo2 W2 Se4'
_cell_volume   400.60367265
_cell_formula_units_Z   2
loop_
 _symmetry_equiv_pos_site_id
 _symmetry_equiv_pos_as_xyz
  1  'x, y, z'
loop_
 _atom_site_type_symbol
 _atom_site_label
 _atom_site_symmetry_multiplicity
 _atom_site_fract_x
 _atom_site_fract_y
 _atom_site_fract_z
 _atom_site_occupancy
  Te  Te0  1  0.333364  0.666728  0.705216  1
  Te  Te1  1  0.666635  0.333270  0.422251  1
  Te  Te2  1  0.666649  0.333297  0.516992  1
  Te  Te3  1  0.333361  0.666722  0.609895  1
  Mo  Mo4  1  0.333311  0.666623  0.469621  1
  Mo  Mo5  1  0.666689  0.333378  0.281802  1
  W  W6  1  0.333306  0.666611  0.093919  1
  W  W7  1  0.666695  0.333391  0.657583  1
  Se  Se8  1  0.333355  0.666711  0.323622  1
  Se  Se9  1  0.666647  0.333293  0.052014  1
  Se  Se10  1  0.666625  0.333249  0.135834  1
  Se  Se11  1  0.333363  0.666728  0.239998  1
