# generated using pymatgen
data_NaMn7O12
_symmetry_space_group_name_H-M   'P 1'
_cell_length_a   6.44936817
_cell_length_b   6.44936817
_cell_length_c   6.44936817
_cell_angle_alpha   109.47122064
_cell_angle_beta   109.47122064
_cell_angle_gamma   109.47122062
_symmetry_Int_Tables_number   1
_chemical_formula_structural   NaMn7O12
_chemical_formula_sum   'Na1 Mn7 O12'
_cell_volume   206.50454694
_cell_formula_units_Z   1
loop_
 _symmetry_equiv_pos_site_id
 _symmetry_equiv_pos_as_xyz
  1  'x, y, z'
loop_
 _atom_site_type_symbol
 _atom_site_label
 _atom_site_symmetry_multiplicity
 _atom_site_fract_x
 _atom_site_fract_y
 _atom_site_fract_z
 _atom_site_occupancy
  O  O0  1  0.816655  0.312318  0.128972  1
  O  O1  1  0.183346  0.687683  0.871029  1
  O  O2  1  0.816655  0.687683  0.504337  1
  O  O3  1  0.312317  0.495662  0.183346  1
  O  O4  1  0.495664  0.183346  0.312317  1
  O  O5  1  0.128972  0.816654  0.312318  1
  O  O6  1  0.687682  0.871027  0.183345  1
  O  O7  1  0.504337  0.816654  0.687682  1
  O  O8  1  0.183346  0.312318  0.495663  1
  O  O9  1  0.687683  0.504336  0.816654  1
  O  O10  1  0.312317  0.128971  0.816654  1
  O  O11  1  0.871029  0.183346  0.687683  1
  Na  Na12  1  0.000000  0.000000  0.000000  1
  Mn  Mn13  1  0.500000  0.000000  0.499999  1
  Mn  Mn14  1  0.000001  0.500000  0.000001  1
  Mn  Mn15  1  0.500000  0.500000  0.500000  1
  Mn  Mn16  1  0.000000  0.000000  0.500000  1
  Mn  Mn17  1  0.500000  0.500000  0.000001  1
  Mn  Mn18  1  0.000001  0.500000  0.500000  1
  Mn  Mn19  1  0.500000  0.000000  0.000001  1
