# generated using pymatgen
data_KMn6P7O24
_symmetry_space_group_name_H-M   'P 1'
_cell_length_a   5.44373144
_cell_length_b   6.66167542
_cell_length_c   27.11762419
_cell_angle_alpha   90.00000000
_cell_angle_beta   90.00000000
_cell_angle_gamma   107.26171235
_symmetry_Int_Tables_number   1
_chemical_formula_structural   KMn6P7O24
_chemical_formula_sum   'K2 Mn12 P14 O48'
_cell_volume   939.11042840
_cell_formula_units_Z   2
loop_
 _symmetry_equiv_pos_site_id
 _symmetry_equiv_pos_as_xyz
  1  'x, y, z'
loop_
 _atom_site_type_symbol
 _atom_site_label
 _atom_site_symmetry_multiplicity
 _atom_site_fract_x
 _atom_site_fract_y
 _atom_site_fract_z
 _atom_site_occupancy
  O  O0  1  0.892300  0.798673  0.119422  1
  O  O1  1  0.107700  0.201327  0.619422  1
  O  O2  1  0.107700  0.201327  0.880578  1
  O  O3  1  0.892300  0.798673  0.380578  1
  O  O4  1  0.565095  0.942056  0.165719  1
  O  O5  1  0.434905  0.057944  0.665719  1
  O  O6  1  0.434905  0.057944  0.834281  1
  O  O7  1  0.565095  0.942056  0.334281  1
  O  O8  1  0.637873  0.599796  0.193840  1
  O  O9  1  0.362127  0.400204  0.693840  1
  O  O10  1  0.362127  0.400204  0.806160  1
  O  O11  1  0.637873  0.599796  0.306160  1
  O  O12  1  0.996059  0.939402  0.203642  1
  O  O13  1  0.003941  0.060598  0.703642  1
  O  O14  1  0.003941  0.060598  0.796358  1
  O  O15  1  0.996059  0.939402  0.296358  1
  O  O16  1  0.151061  0.780450  0.750000  1
  O  O17  1  0.848939  0.219550  0.250000  1
  O  O18  1  0.630800  0.997968  0.047683  1
  O  O19  1  0.676428  0.786122  0.750000  1
  O  O20  1  0.909985  0.175028  0.974300  1
  O  O21  1  0.090015  0.824972  0.474300  1
  O  O22  1  0.090015  0.824972  0.025700  1
  O  O23  1  0.909985  0.175028  0.525700  1
  O  O24  1  0.645494  0.369179  0.022142  1
  O  O25  1  0.354506  0.630821  0.522142  1
  O  O26  1  0.354506  0.630821  0.977858  1
  O  O27  1  0.645494  0.369179  0.477858  1
  O  O28  1  0.985293  0.383887  0.352257  1
  O  O29  1  0.014707  0.616113  0.852257  1
  O  O30  1  0.014707  0.616113  0.647743  1
  O  O31  1  0.985293  0.383887  0.147743  1
  O  O32  1  0.344681  0.232957  0.377858  1
  O  O33  1  0.655319  0.767043  0.877858  1
  O  O34  1  0.655319  0.767043  0.622142  1
  O  O35  1  0.344681  0.232957  0.122142  1
  O  O36  1  0.357719  0.601855  0.404763  1
  O  O37  1  0.642281  0.398145  0.904763  1
  O  O38  1  0.642281  0.398145  0.595237  1
  O  O39  1  0.357719  0.601855  0.095237  1
  O  O40  1  0.047957  0.289994  0.442620  1
  O  O41  1  0.952043  0.710006  0.942620  1
  O  O42  1  0.952043  0.710006  0.557380  1
  O  O43  1  0.047957  0.289994  0.057380  1
  O  O44  1  0.630800  0.997968  0.452317  1
  O  O45  1  0.369200  0.002032  0.952317  1
  O  O46  1  0.369200  0.002032  0.547683  1
  O  O47  1  0.323572  0.213878  0.250000  1
  P  P48  1  0.752092  0.808306  0.167812  1
  P  P49  1  0.247908  0.191694  0.667812  1
  P  P50  1  0.247908  0.191694  0.832188  1
  P  P51  1  0.752092  0.808306  0.332188  1
  P  P52  1  0.960446  0.907741  0.750000  1
  P  P53  1  0.039554  0.092259  0.250000  1
  P  P54  1  0.792326  0.205277  0.024376  1
  P  P55  1  0.207674  0.794723  0.524376  1
  P  P56  1  0.207674  0.794723  0.975624  1
  P  P57  1  0.792326  0.205277  0.475624  1
  P  P58  1  0.183133  0.381350  0.109018  1
  P  P59  1  0.816867  0.618650  0.609018  1
  P  P60  1  0.816867  0.618650  0.890982  1
  P  P61  1  0.183133  0.381350  0.390982  1
  K  K62  1  0.773817  0.375433  0.750000  1
  K  K63  1  0.226183  0.624567  0.250000  1
  Mn  Mn64  1  0.687192  0.685972  0.044853  1
  Mn  Mn65  1  0.312808  0.314028  0.544853  1
  Mn  Mn66  1  0.312808  0.314028  0.955147  1
  Mn  Mn67  1  0.687192  0.685972  0.455147  1
  Mn  Mn68  1  0.293296  0.912863  0.097519  1
  Mn  Mn69  1  0.706704  0.087137  0.597519  1
  Mn  Mn70  1  0.706704  0.087137  0.902481  1
  Mn  Mn71  1  0.293296  0.912863  0.402481  1
  Mn  Mn72  1  0.621365  0.278147  0.182670  1
  Mn  Mn73  1  0.378635  0.721853  0.682670  1
  Mn  Mn74  1  0.378635  0.721853  0.817330  1
  Mn  Mn75  1  0.621365  0.278147  0.317330  1
