# generated using pymatgen
data_Sr(AlS2)2
_symmetry_space_group_name_H-M   'P 1'
_cell_length_a   11.99332891
_cell_length_b   11.99332891
_cell_length_c   12.24695325
_cell_angle_alpha   104.74303390
_cell_angle_beta   104.74303389
_cell_angle_gamma   118.70290928
_symmetry_Int_Tables_number   1
_chemical_formula_structural   Sr(AlS2)2
_chemical_formula_sum   'Sr8 Al16 S32'
_cell_volume   1338.83009155
_cell_formula_units_Z   8
loop_
 _symmetry_equiv_pos_site_id
 _symmetry_equiv_pos_as_xyz
  1  'x, y, z'
loop_
 _atom_site_type_symbol
 _atom_site_label
 _atom_site_symmetry_multiplicity
 _atom_site_fract_x
 _atom_site_fract_y
 _atom_site_fract_z
 _atom_site_occupancy
  Al  Al0  1  0.891042  0.864858  0.999217  1
  Al  Al1  1  0.865641  0.391825  0.500783  1
  Al  Al2  1  0.135142  0.108958  0.500783  1
  Al  Al3  1  0.608175  0.134359  0.999217  1
  Al  Al4  1  0.108958  0.135142  0.000783  1
  Al  Al5  1  0.134359  0.608175  0.499217  1
  Al  Al6  1  0.864858  0.891042  0.499217  1
  Al  Al7  1  0.391825  0.865641  0.000783  1
  Al  Al8  1  0.031558  0.637121  0.000197  1
  Al  Al9  1  0.636925  0.531361  0.499803  1
  Al  Al10  1  0.362879  0.968442  0.499803  1
  Al  Al11  1  0.468639  0.363075  0.000197  1
  Al  Al12  1  0.968442  0.362879  0.999803  1
  Al  Al13  1  0.363075  0.468639  0.500197  1
  Al  Al14  1  0.637121  0.031558  0.500197  1
  Al  Al15  1  0.531361  0.636925  0.999803  1
  S  S16  1  0.310845  0.161426  0.001374  1
  S  S17  1  0.160052  0.809471  0.498626  1
  S  S18  1  0.838574  0.689155  0.498626  1
  S  S19  1  0.190529  0.839948  0.001374  1
  S  S20  1  0.689155  0.838574  0.998626  1
  S  S21  1  0.839948  0.190529  0.501374  1
  S  S22  1  0.161426  0.310845  0.501374  1
  S  S23  1  0.809471  0.160052  0.998626  1
  S  S24  1  0.918224  0.418852  0.338744  1
  S  S25  1  0.080108  0.079479  0.161256  1
  S  S26  1  0.581148  0.081776  0.161256  1
  S  S27  1  0.920521  0.919892  0.338744  1
  S  S28  1  0.081776  0.581148  0.661256  1
  S  S29  1  0.919892  0.920521  0.838744  1
  S  S30  1  0.418852  0.918224  0.838744  1
  S  S31  1  0.079479  0.080108  0.661256  1
  S  S32  1  0.418362  0.418367  0.338025  1
  S  S33  1  0.080342  0.580337  0.161975  1
  S  S34  1  0.581633  0.581638  0.161975  1
  S  S35  1  0.419663  0.919658  0.338025  1
  S  S36  1  0.581638  0.581633  0.661975  1
  S  S37  1  0.919658  0.419663  0.838025  1
  S  S38  1  0.418367  0.418362  0.838025  1
  S  S39  1  0.580337  0.080342  0.661975  1
  S  S40  1  0.643996  0.336241  0.998570  1
  S  S41  1  0.337671  0.145426  0.501430  1
  S  S42  1  0.663759  0.356004  0.501430  1
  S  S43  1  0.854574  0.662329  0.998570  1
  S  S44  1  0.356004  0.663759  0.001430  1
  S  S45  1  0.662329  0.854574  0.498570  1
  S  S46  1  0.336241  0.643996  0.498570  1
  S  S47  1  0.145426  0.337671  0.001430  1
  Sr  Sr48  1  0.873694  0.623694  0.247387  1
  Sr  Sr49  1  0.376306  0.126306  0.252613  1
  Sr  Sr50  1  0.126306  0.376306  0.752613  1
  Sr  Sr51  1  0.623694  0.873694  0.747387  1
  Sr  Sr52  1  0.625000  0.375000  0.750000  1
  Sr  Sr53  1  0.375000  0.625000  0.250000  1
  Sr  Sr54  1  0.125000  0.875000  0.750000  1
  Sr  Sr55  1  0.875000  0.125000  0.250000  1
