# generated using pymatgen
data_NaVPO5
_symmetry_space_group_name_H-M   'P 1'
_cell_length_a   6.65718584
_cell_length_b   7.08464711
_cell_length_c   8.57228133
_cell_angle_alpha   90.00000000
_cell_angle_beta   90.00000000
_cell_angle_gamma   114.81393887
_symmetry_Int_Tables_number   1
_chemical_formula_structural   NaVPO5
_chemical_formula_sum   'Na4 V4 P4 O20'
_cell_volume   366.97450039
_cell_formula_units_Z   4
loop_
 _symmetry_equiv_pos_site_id
 _symmetry_equiv_pos_as_xyz
  1  'x, y, z'
loop_
 _atom_site_type_symbol
 _atom_site_label
 _atom_site_symmetry_multiplicity
 _atom_site_fract_x
 _atom_site_fract_y
 _atom_site_fract_z
 _atom_site_occupancy
  O  O0  1  0.341620  0.123700  0.965216  1
  O  O1  1  0.658380  0.376300  0.465216  1
  O  O2  1  0.658380  0.876300  0.034784  1
  O  O3  1  0.341620  0.623700  0.534784  1
  O  O4  1  0.748599  0.748468  0.314143  1
  O  O5  1  0.251401  0.751532  0.814143  1
  O  O6  1  0.251401  0.251532  0.685857  1
  O  O7  1  0.748599  0.248468  0.185857  1
  O  O8  1  0.928944  0.396320  0.682367  1
  O  O9  1  0.071056  0.103680  0.182367  1
  O  O10  1  0.071056  0.603680  0.317633  1
  O  O11  1  0.928944  0.896320  0.817633  1
  O  O12  1  0.149528  0.871618  0.533907  1
  O  O13  1  0.850472  0.628382  0.033907  1
  O  O14  1  0.850472  0.128382  0.466093  1
  O  O15  1  0.149528  0.371618  0.966093  1
  O  O16  1  0.564276  0.096015  0.675229  1
  O  O17  1  0.435724  0.403985  0.175229  1
  O  O18  1  0.435724  0.903985  0.324771  1
  O  O19  1  0.564276  0.596015  0.824771  1
  Na  Na20  1  0.746178  0.730516  0.581229  1
  Na  Na21  1  0.253822  0.769484  0.081229  1
  Na  Na22  1  0.253822  0.269484  0.418771  1
  Na  Na23  1  0.746178  0.230516  0.918771  1
  P  P24  1  0.249988  0.251030  0.069104  1
  P  P25  1  0.750012  0.248970  0.569104  1
  P  P26  1  0.750012  0.748970  0.930896  1
  P  P27  1  0.249988  0.751030  0.430896  1
  V  V28  1  0.247071  0.514797  0.757226  1
  V  V29  1  0.752929  0.985203  0.257226  1
  V  V30  1  0.752929  0.485203  0.242774  1
  V  V31  1  0.247071  0.014797  0.742774  1
