# generated using pymatgen
data_Sr3(GeP2)2
_symmetry_space_group_name_H-M   'P 1'
_cell_length_a   7.31810549
_cell_length_b   7.50364721
_cell_length_c   18.27841510
_cell_angle_alpha   90.00000000
_cell_angle_beta   90.00000000
_cell_angle_gamma   112.04539042
_symmetry_Int_Tables_number   1
_chemical_formula_structural   Sr3(GeP2)2
_chemical_formula_sum   'Sr12 Ge8 P16'
_cell_volume   930.32845267
_cell_formula_units_Z   4
loop_
 _symmetry_equiv_pos_site_id
 _symmetry_equiv_pos_as_xyz
  1  'x, y, z'
loop_
 _atom_site_type_symbol
 _atom_site_label
 _atom_site_symmetry_multiplicity
 _atom_site_fract_x
 _atom_site_fract_y
 _atom_site_fract_z
 _atom_site_occupancy
  P  P0  1  0.738406  0.491145  0.568195  1
  P  P1  1  0.761594  0.508855  0.068195  1
  P  P2  1  0.261594  0.508855  0.431805  1
  P  P3  1  0.238406  0.491145  0.931805  1
  P  P4  1  0.257034  0.009917  0.560555  1
  P  P5  1  0.242966  0.990083  0.060555  1
  P  P6  1  0.742966  0.990083  0.439445  1
  P  P7  1  0.757034  0.009917  0.939445  1
  P  P8  1  0.218001  0.047069  0.815037  1
  P  P9  1  0.281999  0.952931  0.315037  1
  P  P10  1  0.781999  0.952931  0.184963  1
  P  P11  1  0.718001  0.047069  0.684963  1
  P  P12  1  0.281898  0.502729  0.200406  1
  P  P13  1  0.781898  0.502729  0.299594  1
  P  P14  1  0.718102  0.497271  0.799594  1
  P  P15  1  0.218102  0.497271  0.700406  1
  Ge  Ge16  1  0.473314  0.787702  0.372696  1
  Ge  Ge17  1  0.026686  0.212298  0.872696  1
  Ge  Ge18  1  0.526686  0.212298  0.627304  1
  Ge  Ge19  1  0.973314  0.787702  0.127304  1
  Ge  Ge20  1  0.591565  0.685629  0.258482  1
  Ge  Ge21  1  0.091565  0.685629  0.241518  1
  Ge  Ge22  1  0.408435  0.314371  0.741518  1
  Ge  Ge23  1  0.908435  0.314371  0.758482  1
  Sr  Sr24  1  0.988840  0.783766  0.684441  1
  Sr  Sr25  1  0.511160  0.216234  0.184441  1
  Sr  Sr26  1  0.011160  0.216234  0.315559  1
  Sr  Sr27  1  0.488840  0.783766  0.815559  1
  Sr  Sr28  1  0.004530  0.260716  0.558621  1
  Sr  Sr29  1  0.495470  0.739284  0.058621  1
  Sr  Sr30  1  0.995470  0.739284  0.441379  1
  Sr  Sr31  1  0.504530  0.260716  0.941379  1
  Sr  Sr32  1  0.488592  0.743678  0.563402  1
  Sr  Sr33  1  0.011408  0.256322  0.063402  1
  Sr  Sr34  1  0.511408  0.256322  0.436598  1
  Sr  Sr35  1  0.988592  0.743678  0.936598  1
