# generated using pymatgen
data_Te2MoW3(SeS2)2
_symmetry_space_group_name_H-M   'P 1'
_cell_length_a   3.30715035
_cell_length_b   3.30715443
_cell_length_c   37.66044231
_cell_angle_alpha   90.00019076
_cell_angle_beta   90.00000000
_cell_angle_gamma   119.99995934
_symmetry_Int_Tables_number   1
_chemical_formula_structural   Te2MoW3(SeS2)2
_chemical_formula_sum   'Te2 Mo1 W3 Se2 S4'
_cell_volume   356.71768407
_cell_formula_units_Z   1
loop_
 _symmetry_equiv_pos_site_id
 _symmetry_equiv_pos_as_xyz
  1  'x, y, z'
loop_
 _atom_site_type_symbol
 _atom_site_label
 _atom_site_symmetry_multiplicity
 _atom_site_fract_x
 _atom_site_fract_y
 _atom_site_fract_z
 _atom_site_occupancy
  Te  Te0  1  0.333361  0.666723  0.708638  1
  Te  Te1  1  0.333368  0.666736  0.606465  1
  Mo  Mo2  1  0.666689  0.333379  0.281806  1
  W  W3  1  0.333309  0.666618  0.093914  1
  W  W4  1  0.333304  0.666609  0.469645  1
  W  W5  1  0.666699  0.333397  0.657581  1
  Se  Se6  1  0.333350  0.666700  0.326435  1
  Se  Se7  1  0.333347  0.666696  0.237154  1
  S  S8  1  0.666643  0.333284  0.053194  1
  S  S9  1  0.666640  0.333279  0.428929  1
  S  S10  1  0.666645  0.333289  0.134625  1
  S  S11  1  0.666645  0.333289  0.510362  1
