# generated using pymatgen
data_Na5Tb(MoO4)4
_symmetry_space_group_name_H-M   'P 1'
_cell_length_a   10.03091259
_cell_length_b   10.03091259
_cell_length_c   10.03091259
_cell_angle_alpha   109.60842072
_cell_angle_beta   109.40266417
_cell_angle_gamma   109.40266422
_symmetry_Int_Tables_number   1
_chemical_formula_structural   Na5Tb(MoO4)4
_chemical_formula_sum   'Na10 Tb2 Mo8 O32'
_cell_volume   776.95806418
_cell_formula_units_Z   2
loop_
 _symmetry_equiv_pos_site_id
 _symmetry_equiv_pos_as_xyz
  1  'x, y, z'
loop_
 _atom_site_type_symbol
 _atom_site_label
 _atom_site_symmetry_multiplicity
 _atom_site_fract_x
 _atom_site_fract_y
 _atom_site_fract_z
 _atom_site_occupancy
  O  O0  1  0.153547  0.518783  0.006154  1
  O  O1  1  0.487371  0.506154  0.852607  1
  O  O2  1  0.012629  0.865236  0.018783  1
  O  O3  1  0.346453  0.352607  0.365236  1
  O  O4  1  0.846453  0.481217  0.993846  1
  O  O5  1  0.512629  0.493846  0.147393  1
  O  O6  1  0.987371  0.134764  0.981217  1
  O  O7  1  0.653547  0.647393  0.634764  1
  O  O8  1  0.921538  0.570832  0.771640  1
  O  O9  1  0.200809  0.271640  0.850102  1
  O  O10  1  0.299191  0.149293  0.070832  1
  O  O11  1  0.578462  0.350102  0.649293  1
  O  O12  1  0.078462  0.429168  0.228360  1
  O  O13  1  0.799191  0.728360  0.149898  1
  O  O14  1  0.700809  0.850707  0.929168  1
  O  O15  1  0.421538  0.649898  0.350707  1
  O  O16  1  0.868859  0.243559  0.671200  1
  O  O17  1  0.427640  0.171200  0.802341  1
  O  O18  1  0.072360  0.874700  0.743559  1
  O  O19  1  0.631141  0.302341  0.374700  1
  O  O20  1  0.644091  0.946727  0.657594  1
  O  O21  1  0.710867  0.157594  0.013504  1
  O  O22  1  0.789133  0.802637  0.446727  1
  O  O23  1  0.855909  0.513504  0.302637  1
  O  O24  1  0.355909  0.053273  0.342406  1
  O  O25  1  0.289133  0.842406  0.986496  1
  O  O26  1  0.210867  0.197363  0.553273  1
  O  O27  1  0.144091  0.486496  0.697363  1
  O  O28  1  0.368859  0.697659  0.625300  1
  O  O29  1  0.927640  0.125300  0.256441  1
  O  O30  1  0.572360  0.828800  0.197659  1
  O  O31  1  0.131141  0.756441  0.328800  1
  Na  Na32  1  0.667249  0.203389  0.778073  1
  Na  Na33  1  0.574684  0.278073  0.110824  1
  Na  Na34  1  0.925316  0.036140  0.703389  1
  Na  Na35  1  0.832751  0.610824  0.536140  1
  Na  Na36  1  0.332751  0.796611  0.221927  1
  Na  Na37  1  0.425316  0.721927  0.889176  1
  Na  Na38  1  0.074684  0.963860  0.296611  1
  Na  Na39  1  0.167249  0.389176  0.463860  1
  Na  Na40  1  0.750000  0.125000  0.375000  1
  Na  Na41  1  0.250000  0.875000  0.625000  1
  Mo  Mo42  1  0.524883  0.732335  0.569793  1
  Mo  Mo43  1  0.837458  0.069793  0.044910  1
  Mo  Mo44  1  0.024883  0.455090  0.792548  1
  Mo  Mo45  1  0.337458  0.292548  0.767665  1
  Mo  Mo46  1  0.162542  0.930207  0.955090  1
  Mo  Mo47  1  0.475117  0.267665  0.430207  1
  Mo  Mo48  1  0.975117  0.544910  0.207452  1
  Mo  Mo49  1  0.662542  0.707452  0.232335  1
  Tb  Tb50  1  0.250000  0.375000  0.125000  1
  Tb  Tb51  1  0.750000  0.625000  0.875000  1
