# generated using pymatgen
data_Yb(MnSi)2
_symmetry_space_group_name_H-M   'P 1'
_cell_length_a   3.93151129
_cell_length_b   3.93151128
_cell_length_c   5.87814455
_cell_angle_alpha   109.53713314
_cell_angle_beta   109.53713313
_cell_angle_gamma   89.99999995
_symmetry_Int_Tables_number   1
_chemical_formula_structural   Yb(MnSi)2
_chemical_formula_sum   'Yb1 Mn2 Si2'
_cell_volume   80.05387976
_cell_formula_units_Z   1
loop_
 _symmetry_equiv_pos_site_id
 _symmetry_equiv_pos_as_xyz
  1  'x, y, z'
loop_
 _atom_site_type_symbol
 _atom_site_label
 _atom_site_symmetry_multiplicity
 _atom_site_fract_x
 _atom_site_fract_y
 _atom_site_fract_z
 _atom_site_occupancy
  Si  Si0  1  0.623106  0.623106  0.246212  1
  Si  Si1  1  0.376894  0.376894  0.753788  1
  Mn  Mn2  1  0.250000  0.750000  0.500000  1
  Mn  Mn3  1  0.750000  0.250000  0.500000  1
  Yb  Yb4  1  0.000000  0.000000  0.000000  1
