# generated using pymatgen
data_Li4Yb5Ge4
_symmetry_space_group_name_H-M   'P 1'
_cell_length_a   3.92860641
_cell_length_b   8.91470817
_cell_length_c   8.91470817
_cell_angle_alpha   87.21710900
_cell_angle_beta   77.27075657
_cell_angle_gamma   77.27075648
_symmetry_Int_Tables_number   1
_chemical_formula_structural   Li4Yb5Ge4
_chemical_formula_sum   'Li4 Yb5 Ge4'
_cell_volume   297.05581709
_cell_formula_units_Z   1
loop_
 _symmetry_equiv_pos_site_id
 _symmetry_equiv_pos_as_xyz
  1  'x, y, z'
loop_
 _atom_site_type_symbol
 _atom_site_label
 _atom_site_symmetry_multiplicity
 _atom_site_fract_x
 _atom_site_fract_y
 _atom_site_fract_z
 _atom_site_occupancy
  Li  Li0  1  0.081477  0.317603  0.519444  1
  Li  Li1  1  0.600921  0.480556  0.317603  1
  Li  Li2  1  0.399079  0.519444  0.682397  1
  Li  Li3  1  0.918523  0.682397  0.480556  1
  Ge  Ge4  1  0.249551  0.310507  0.190391  1
  Ge  Ge5  1  0.750449  0.689493  0.809609  1
  Ge  Ge6  1  0.560058  0.190391  0.689493  1
  Ge  Ge7  1  0.439942  0.809609  0.310507  1
  Yb  Yb8  1  0.786809  0.083326  0.343056  1
  Yb  Yb9  1  0.129865  0.656944  0.083326  1
  Yb  Yb10  1  0.213191  0.916674  0.656944  1
  Yb  Yb11  1  0.500000  0.000000  0.000000  1
  Yb  Yb12  1  0.870135  0.343056  0.916674  1
