# generated using pymatgen
data_Sn2Sb2S5
_symmetry_space_group_name_H-M   'P 1'
_cell_length_a   3.96887650
_cell_length_b   11.52423801
_cell_length_c   20.60156382
_cell_angle_alpha   90.00000000
_cell_angle_beta   90.00000000
_cell_angle_gamma   90.00000000
_symmetry_Int_Tables_number   1
_chemical_formula_structural   Sn2Sb2S5
_chemical_formula_sum   'Sn8 Sb8 S20'
_cell_volume   942.28004125
_cell_formula_units_Z   4
loop_
 _symmetry_equiv_pos_site_id
 _symmetry_equiv_pos_as_xyz
  1  'x, y, z'
loop_
 _atom_site_type_symbol
 _atom_site_label
 _atom_site_symmetry_multiplicity
 _atom_site_fract_x
 _atom_site_fract_y
 _atom_site_fract_z
 _atom_site_occupancy
  S  S0  1  0.250000  0.424907  0.577915  1
  S  S1  1  0.750000  0.575093  0.422085  1
  S  S2  1  0.750000  0.924907  0.922085  1
  S  S3  1  0.250000  0.075093  0.077915  1
  S  S4  1  0.250000  0.369107  0.980467  1
  S  S5  1  0.750000  0.630893  0.019533  1
  S  S6  1  0.750000  0.869107  0.519533  1
  S  S7  1  0.250000  0.130893  0.480467  1
  S  S8  1  0.250000  0.746748  0.671720  1
  S  S9  1  0.750000  0.253252  0.328280  1
  S  S10  1  0.750000  0.246748  0.828280  1
  S  S11  1  0.250000  0.753252  0.171720  1
  S  S12  1  0.250000  0.824461  0.370599  1
  S  S13  1  0.750000  0.175539  0.629401  1
  S  S14  1  0.750000  0.324461  0.129401  1
  S  S15  1  0.250000  0.675539  0.870599  1
  S  S16  1  0.250000  0.503349  0.272876  1
  S  S17  1  0.750000  0.496651  0.727124  1
  S  S18  1  0.750000  0.003349  0.227124  1
  S  S19  1  0.250000  0.996651  0.772876  1
  Sn  Sn20  1  0.250000  0.163221  0.200406  1
  Sn  Sn21  1  0.750000  0.836779  0.799594  1
  Sn  Sn22  1  0.750000  0.663221  0.299594  1
  Sn  Sn23  1  0.250000  0.336779  0.700406  1
  Sn  Sn24  1  0.250000  0.496710  0.088734  1
  Sn  Sn25  1  0.750000  0.503290  0.911266  1
  Sn  Sn26  1  0.750000  0.996710  0.411266  1
  Sn  Sn27  1  0.250000  0.003290  0.588734  1
  Sb  Sb28  1  0.250000  0.375639  0.368248  1
  Sb  Sb29  1  0.750000  0.624361  0.631752  1
  Sb  Sb30  1  0.750000  0.875639  0.131752  1
  Sb  Sb31  1  0.250000  0.124361  0.868248  1
  Sb  Sb32  1  0.250000  0.709145  0.470026  1
  Sb  Sb33  1  0.750000  0.290855  0.529974  1
  Sb  Sb34  1  0.750000  0.209145  0.029974  1
  Sb  Sb35  1  0.250000  0.790855  0.970026  1
