# generated using pymatgen
data_ZrB
_symmetry_space_group_name_H-M   'P 1'
_cell_length_a   3.61310405
_cell_length_b   3.61184361
_cell_length_c   5.24055750
_cell_angle_alpha   89.98699919
_cell_angle_beta   90.00000000
_cell_angle_gamma   120.01154457
_symmetry_Int_Tables_number   1
_chemical_formula_structural   ZrB
_chemical_formula_sum   'Zr2 B2'
_cell_volume   59.21980586
_cell_formula_units_Z   2
loop_
 _symmetry_equiv_pos_site_id
 _symmetry_equiv_pos_as_xyz
  1  'x, y, z'
loop_
 _atom_site_type_symbol
 _atom_site_label
 _atom_site_symmetry_multiplicity
 _atom_site_fract_x
 _atom_site_fract_y
 _atom_site_fract_z
 _atom_site_occupancy
  Zr  Zr0  1  0.021137  0.042274  0.005187  1
  Zr  Zr1  1  0.688504  0.377008  0.504849  1
  B  B2  1  0.354386  0.708772  0.237835  1
  B  B3  1  0.354772  0.709544  0.773720  1
