# generated using pymatgen
data_LiUNbO6
_symmetry_space_group_name_H-M   'P 1'
_cell_length_a   6.51351054
_cell_length_b   7.64642795
_cell_length_c   10.39992123
_cell_angle_alpha   100.73518233
_cell_angle_beta   90.00000000
_cell_angle_gamma   90.00000000
_symmetry_Int_Tables_number   1
_chemical_formula_structural   LiUNbO6
_chemical_formula_sum   'Li4 U4 Nb4 O24'
_cell_volume   508.90382144
_cell_formula_units_Z   4
loop_
 _symmetry_equiv_pos_site_id
 _symmetry_equiv_pos_as_xyz
  1  'x, y, z'
loop_
 _atom_site_type_symbol
 _atom_site_label
 _atom_site_symmetry_multiplicity
 _atom_site_fract_x
 _atom_site_fract_y
 _atom_site_fract_z
 _atom_site_occupancy
  Li  Li0  1  0.997872  0.820579  0.001700  1
  Li  Li1  1  0.502128  0.320579  0.001699  1
  Li  Li2  1  0.002128  0.179421  0.998301  1
  Li  Li3  1  0.497873  0.679421  0.998300  1
  O  O4  1  0.660286  0.533624  0.125118  1
  O  O5  1  0.556246  0.284536  0.296330  1
  O  O6  1  0.943755  0.784537  0.296331  1
  O  O7  1  0.443755  0.715463  0.703669  1
  O  O8  1  0.749886  0.224739  0.901470  1
  O  O9  1  0.750114  0.724739  0.901470  1
  O  O10  1  0.250115  0.775262  0.098530  1
  O  O11  1  0.249886  0.275262  0.098530  1
  O  O12  1  0.160287  0.966375  0.874881  1
  O  O13  1  0.056245  0.215463  0.703670  1
  O  O14  1  0.839713  0.033624  0.125119  1
  O  O15  1  0.339713  0.466375  0.874881  1
  O  O16  1  0.218064  0.874759  0.512314  1
  O  O17  1  0.718063  0.625241  0.487686  1
  O  O18  1  0.449418  0.129871  0.697148  1
  O  O19  1  0.281937  0.374759  0.512314  1
  O  O20  1  0.830250  0.920512  0.687983  1
  O  O21  1  0.330251  0.579488  0.312017  1
  O  O22  1  0.169750  0.079488  0.312017  1
  O  O23  1  0.669750  0.420512  0.687984  1
  O  O24  1  0.050580  0.629871  0.697148  1
  O  O25  1  0.550581  0.870130  0.302852  1
  O  O26  1  0.949419  0.370130  0.302851  1
  O  O27  1  0.781937  0.125241  0.487685  1
  Nb  Nb28  1  0.750940  0.179751  0.722855  1
  Nb  Nb29  1  0.250939  0.320250  0.277145  1
  Nb  Nb30  1  0.249059  0.820250  0.277144  1
  Nb  Nb31  1  0.749060  0.679751  0.722856  1
  U  U32  1  0.299772  0.420972  0.693336  1
  U  U33  1  0.799772  0.079027  0.306664  1
  U  U34  1  0.700227  0.579027  0.306665  1
  U  U35  1  0.200227  0.920972  0.693335  1
