# generated using pymatgen
data_Sr6YSc(BO3)6
_symmetry_space_group_name_H-M   'P 1'
_cell_length_a   7.83183735
_cell_length_b   7.83183735
_cell_length_c   7.83183735
_cell_angle_alpha   105.12696101
_cell_angle_beta   105.12696096
_cell_angle_gamma   105.12696100
_symmetry_Int_Tables_number   1
_chemical_formula_structural   Sr6YSc(BO3)6
_chemical_formula_sum   'Sr6 Y1 Sc1 B6 O18'
_cell_volume   418.83528206
_cell_formula_units_Z   1
loop_
 _symmetry_equiv_pos_site_id
 _symmetry_equiv_pos_as_xyz
  1  'x, y, z'
loop_
 _atom_site_type_symbol
 _atom_site_label
 _atom_site_symmetry_multiplicity
 _atom_site_fract_x
 _atom_site_fract_y
 _atom_site_fract_z
 _atom_site_occupancy
  B  B0  1  0.043449  0.383182  0.292880  1
  B  B1  1  0.383182  0.292880  0.043449  1
  B  B2  1  0.292880  0.043449  0.383182  1
  B  B3  1  0.616818  0.707120  0.956551  1
  B  B4  1  0.707120  0.956551  0.616818  1
  B  B5  1  0.956551  0.616818  0.707120  1
  O  O6  1  0.496411  0.432839  0.219865  1
  O  O7  1  0.432839  0.219865  0.496411  1
  O  O8  1  0.023002  0.809007  0.734677  1
  O  O9  1  0.734677  0.023002  0.809007  1
  O  O10  1  0.809007  0.734677  0.023002  1
  O  O11  1  0.190993  0.265323  0.976998  1
  O  O12  1  0.976998  0.190993  0.265323  1
  O  O13  1  0.265323  0.976998  0.190993  1
  O  O14  1  0.060835  0.537064  0.809379  1
  O  O15  1  0.809379  0.060835  0.537064  1
  O  O16  1  0.537064  0.809379  0.060835  1
  O  O17  1  0.939165  0.462936  0.190621  1
  O  O18  1  0.190621  0.939165  0.462936  1
  O  O19  1  0.462936  0.190621  0.939165  1
  O  O20  1  0.780135  0.503589  0.567161  1
  O  O21  1  0.567161  0.780135  0.503589  1
  O  O22  1  0.503589  0.567161  0.780135  1
  O  O23  1  0.219865  0.496411  0.432839  1
  Sc  Sc24  1  0.500000  0.500000  0.500000  1
  Sr  Sr25  1  0.733967  0.355824  0.845733  1
  Sr  Sr26  1  0.355824  0.845733  0.733967  1
  Sr  Sr27  1  0.845733  0.733967  0.355824  1
  Sr  Sr28  1  0.266033  0.644176  0.154267  1
  Sr  Sr29  1  0.644176  0.154267  0.266033  1
  Sr  Sr30  1  0.154267  0.266033  0.644176  1
  Y  Y31  1  0.000000  0.000000  0.000000  1
