# generated using pymatgen
data_K5FeO4
_symmetry_space_group_name_H-M   'P 1'
_cell_length_a   6.78873201
_cell_length_b   11.52643736
_cell_length_c   20.58267429
_cell_angle_alpha   90.00000000
_cell_angle_beta   90.00000000
_cell_angle_gamma   90.00000000
_symmetry_Int_Tables_number   1
_chemical_formula_structural   K5FeO4
_chemical_formula_sum   'K40 Fe8 O32'
_cell_volume   1610.59208693
_cell_formula_units_Z   8
loop_
 _symmetry_equiv_pos_site_id
 _symmetry_equiv_pos_as_xyz
  1  'x, y, z'
loop_
 _atom_site_type_symbol
 _atom_site_label
 _atom_site_symmetry_multiplicity
 _atom_site_fract_x
 _atom_site_fract_y
 _atom_site_fract_z
 _atom_site_occupancy
  O  O0  1  0.745318  0.126910  0.628265  1
  O  O1  1  0.245318  0.873090  0.871736  1
  O  O2  1  0.754682  0.626910  0.371735  1
  O  O3  1  0.254682  0.373090  0.128264  1
  O  O4  1  0.254682  0.873090  0.371735  1
  O  O5  1  0.754682  0.126910  0.128264  1
  O  O6  1  0.245318  0.373090  0.628265  1
  O  O7  1  0.745318  0.626910  0.871736  1
  O  O8  1  0.740148  0.384683  0.796425  1
  O  O9  1  0.240147  0.615317  0.703575  1
  O  O10  1  0.759852  0.884684  0.203575  1
  O  O11  1  0.259853  0.115316  0.296426  1
  O  O12  1  0.259853  0.615317  0.203575  1
  O  O13  1  0.759852  0.384683  0.296426  1
  O  O14  1  0.240147  0.115316  0.796425  1
  O  O15  1  0.740148  0.884684  0.703575  1
  O  O16  1  0.704402  0.385936  0.948677  1
  O  O17  1  0.204403  0.614064  0.551322  1
  O  O18  1  0.795597  0.885936  0.051323  1
  O  O19  1  0.295598  0.114064  0.448678  1
  O  O20  1  0.295598  0.614064  0.051323  1
  O  O21  1  0.795597  0.385936  0.448678  1
  O  O22  1  0.204403  0.114064  0.948677  1
  O  O23  1  0.704402  0.885936  0.551322  1
  O  O24  1  0.605033  0.044088  0.882629  1
  O  O25  1  0.105034  0.955912  0.617371  1
  O  O26  1  0.894967  0.544088  0.117371  1
  O  O27  1  0.394967  0.455912  0.382629  1
  O  O28  1  0.394967  0.955912  0.117371  1
  O  O29  1  0.894967  0.044088  0.382629  1
  O  O30  1  0.105034  0.455912  0.882629  1
  O  O31  1  0.605033  0.544088  0.617371  1
  K  K32  1  0.075413  0.353275  0.001213  1
  K  K33  1  0.415746  0.063793  0.566035  1
  K  K34  1  0.584254  0.436207  0.066035  1
  K  K35  1  0.084253  0.563793  0.433965  1
  K  K36  1  0.084253  0.063793  0.066035  1
  K  K37  1  0.584254  0.936206  0.433965  1
  K  K38  1  0.415746  0.563793  0.933965  1
  K  K39  1  0.915747  0.436207  0.566035  1
  K  K40  1  0.927250  0.703134  0.634208  1
  K  K41  1  0.427249  0.296866  0.865792  1
  K  K42  1  0.572751  0.203134  0.365792  1
  K  K43  1  0.072750  0.796866  0.134208  1
  K  K44  1  0.072750  0.296866  0.365792  1
  K  K45  1  0.572751  0.703134  0.134208  1
  K  K46  1  0.427249  0.796866  0.634208  1
  K  K47  1  0.927250  0.203134  0.865792  1
  K  K48  1  0.610281  0.084082  0.752272  1
  K  K49  1  0.110282  0.915917  0.747728  1
  K  K50  1  0.889719  0.584082  0.247728  1
  K  K51  1  0.389718  0.415918  0.252272  1
  K  K52  1  0.389718  0.915917  0.247728  1
  K  K53  1  0.889719  0.084082  0.252272  1
  K  K54  1  0.110282  0.415918  0.752272  1
  K  K55  1  0.610281  0.584082  0.747728  1
  K  K56  1  0.605597  0.828125  0.825082  1
  K  K57  1  0.424586  0.853276  0.998787  1
  K  K58  1  0.575414  0.646725  0.498788  1
  K  K59  1  0.915747  0.936206  0.933965  1
  K  K60  1  0.075413  0.853276  0.498788  1
  K  K61  1  0.575414  0.146724  0.001213  1
  K  K62  1  0.424586  0.353275  0.501212  1
  K  K63  1  0.924587  0.646725  0.998787  1
  K  K64  1  0.605597  0.328124  0.674917  1
  K  K65  1  0.105597  0.671876  0.825082  1
  K  K66  1  0.894403  0.828125  0.325083  1
  K  K67  1  0.394404  0.171875  0.174918  1
  K  K68  1  0.394404  0.671876  0.325083  1
  K  K69  1  0.894403  0.328124  0.174918  1
  K  K70  1  0.105597  0.171875  0.674917  1
  K  K71  1  0.924587  0.146724  0.501212  1
  Fe  Fe72  1  0.821772  0.464610  0.875484  1
  Fe  Fe73  1  0.321773  0.535390  0.624516  1
  Fe  Fe74  1  0.678227  0.964609  0.124515  1
  Fe  Fe75  1  0.178228  0.035391  0.375484  1
  Fe  Fe76  1  0.178228  0.535390  0.124515  1
  Fe  Fe77  1  0.678227  0.464610  0.375484  1
  Fe  Fe78  1  0.321773  0.035391  0.875484  1
  Fe  Fe79  1  0.821772  0.964609  0.624516  1
