# generated using pymatgen
data_Te2MoW2(SeS)2
_symmetry_space_group_name_H-M   'P 1'
_cell_length_a   3.34925187
_cell_length_b   3.34924599
_cell_length_c   31.00619144
_cell_angle_alpha   89.99949158
_cell_angle_beta   90.00000000
_cell_angle_gamma   120.00005818
_symmetry_Int_Tables_number   1
_chemical_formula_structural   Te2MoW2(SeS)2
_chemical_formula_sum   'Te2 Mo1 W2 Se2 S2'
_cell_volume   301.21296129
_cell_formula_units_Z   1
loop_
 _symmetry_equiv_pos_site_id
 _symmetry_equiv_pos_as_xyz
  1  'x, y, z'
loop_
 _atom_site_type_symbol
 _atom_site_label
 _atom_site_symmetry_multiplicity
 _atom_site_fract_x
 _atom_site_fract_y
 _atom_site_fract_z
 _atom_site_occupancy
  Te  Te0  1  0.666649  0.333297  0.516914  1
  Te  Te1  1  0.666647  0.333294  0.639746  1
  Mo  Mo2  1  0.666692  0.333384  0.346956  1
  W  W3  1  0.333308  0.666615  0.115655  1
  W  W4  1  0.333309  0.666619  0.578365  1
  Se  Se5  1  0.333354  0.666709  0.400616  1
  Se  Se6  1  0.333354  0.666709  0.293273  1
  S  S7  1  0.666647  0.333293  0.066579  1
  S  S8  1  0.666641  0.333281  0.164737  1
