# generated using pymatgen
data_EuAg2
_symmetry_space_group_name_H-M   'P 1'
_cell_length_a   4.84412977
_cell_length_b   6.09536472
_cell_length_c   6.09536472
_cell_angle_alpha   75.98815375
_cell_angle_beta   66.58664717
_cell_angle_gamma   66.58664706
_symmetry_Int_Tables_number   1
_chemical_formula_structural   EuAg2
_chemical_formula_sum   'Eu2 Ag4'
_cell_volume   150.79865836
_cell_formula_units_Z   2
loop_
 _symmetry_equiv_pos_site_id
 _symmetry_equiv_pos_as_xyz
  1  'x, y, z'
loop_
 _atom_site_type_symbol
 _atom_site_label
 _atom_site_symmetry_multiplicity
 _atom_site_fract_x
 _atom_site_fract_y
 _atom_site_fract_z
 _atom_site_occupancy
  Ag  Ag0  1  0.836351  0.112775  0.214523  1
  Ag  Ag1  1  0.163649  0.887225  0.785477  1
  Ag  Ag2  1  0.163649  0.285477  0.387225  1
  Ag  Ag3  1  0.836351  0.714523  0.612775  1
  Eu  Eu4  1  0.457246  0.292754  0.792754  1
  Eu  Eu5  1  0.542754  0.707246  0.207246  1
