# generated using pymatgen
data_Sr3ZnRhO6
_symmetry_space_group_name_H-M   'P 1'
_cell_length_a   6.74637806
_cell_length_b   6.74637806
_cell_length_c   6.74637806
_cell_angle_alpha   91.93305752
_cell_angle_beta   91.93305750
_cell_angle_gamma   91.93305753
_symmetry_Int_Tables_number   1
_chemical_formula_structural   Sr3ZnRhO6
_chemical_formula_sum   'Sr6 Zn2 Rh2 O12'
_cell_volume   306.51575141
_cell_formula_units_Z   2
loop_
 _symmetry_equiv_pos_site_id
 _symmetry_equiv_pos_as_xyz
  1  'x, y, z'
loop_
 _atom_site_type_symbol
 _atom_site_label
 _atom_site_symmetry_multiplicity
 _atom_site_fract_x
 _atom_site_fract_y
 _atom_site_fract_z
 _atom_site_occupancy
  O  O0  1  0.785675  0.592376  0.459232  1
  O  O1  1  0.592376  0.459232  0.785675  1
  O  O2  1  0.459232  0.785675  0.592376  1
  O  O3  1  0.040768  0.907624  0.714325  1
  O  O4  1  0.907624  0.714325  0.040768  1
  O  O5  1  0.714325  0.040768  0.907624  1
  O  O6  1  0.214325  0.407624  0.540768  1
  O  O7  1  0.407624  0.540768  0.214325  1
  O  O8  1  0.540768  0.214325  0.407624  1
  O  O9  1  0.959232  0.092376  0.285675  1
  O  O10  1  0.285675  0.959232  0.092376  1
  O  O11  1  0.092376  0.285675  0.959232  1
  Zn  Zn12  1  0.250000  0.250000  0.250000  1
  Zn  Zn13  1  0.750000  0.750000  0.750000  1
  Sr  Sr14  1  0.250000  0.614350  0.885650  1
  Sr  Sr15  1  0.614350  0.885650  0.250000  1
  Sr  Sr16  1  0.114350  0.750000  0.385650  1
  Sr  Sr17  1  0.750000  0.385650  0.114350  1
  Sr  Sr18  1  0.385650  0.114350  0.750000  1
  Sr  Sr19  1  0.885650  0.250000  0.614350  1
  Rh  Rh20  1  0.000000  0.000000  0.000000  1
  Rh  Rh21  1  0.500000  0.500000  0.500000  1
