# generated using pymatgen
data_NdB4
_symmetry_space_group_name_H-M   'P 1'
_cell_length_a   4.11995758
_cell_length_b   7.23841713
_cell_length_c   7.23841713
_cell_angle_alpha   90.00000000
_cell_angle_beta   90.00000000
_cell_angle_gamma   90.00000000
_symmetry_Int_Tables_number   1
_chemical_formula_structural   NdB4
_chemical_formula_sum   'Nd4 B16'
_cell_volume   215.86386951
_cell_formula_units_Z   4
loop_
 _symmetry_equiv_pos_site_id
 _symmetry_equiv_pos_as_xyz
  1  'x, y, z'
loop_
 _atom_site_type_symbol
 _atom_site_label
 _atom_site_symmetry_multiplicity
 _atom_site_fract_x
 _atom_site_fract_y
 _atom_site_fract_z
 _atom_site_occupancy
  B  B0  1  0.500000  0.588011  0.911989  1
  B  B1  1  0.500000  0.088011  0.588011  1
  B  B2  1  0.500000  0.911989  0.411989  1
  B  B3  1  0.500000  0.411989  0.088011  1
  B  B4  1  0.500000  0.174220  0.038870  1
  B  B5  1  0.500000  0.961130  0.174220  1
  B  B6  1  0.500000  0.038870  0.825780  1
  B  B7  1  0.500000  0.825780  0.961130  1
  B  B8  1  0.500000  0.674220  0.461130  1
  B  B9  1  0.500000  0.325780  0.538870  1
  B  B10  1  0.500000  0.538870  0.674220  1
  B  B11  1  0.500000  0.461130  0.325780  1
  B  B12  1  0.204796  0.000000  0.000000  1
  B  B13  1  0.795204  0.500000  0.500000  1
  B  B14  1  0.795204  0.000000  0.000000  1
  B  B15  1  0.204796  0.500000  0.500000  1
  Nd  Nd16  1  0.000000  0.682853  0.182853  1
  Nd  Nd17  1  0.000000  0.817147  0.682853  1
  Nd  Nd18  1  0.000000  0.182853  0.317147  1
  Nd  Nd19  1  0.000000  0.317147  0.817147  1
