# generated using pymatgen
data_ZrAlPt2
_symmetry_space_group_name_H-M   'P 1'
_cell_length_a   4.54126001
_cell_length_b   4.54126000
_cell_length_c   8.25913908
_cell_angle_alpha   90.00000000
_cell_angle_beta   90.00000000
_cell_angle_gamma   119.99999997
_symmetry_Int_Tables_number   1
_chemical_formula_structural   ZrAlPt2
_chemical_formula_sum   'Zr2 Al2 Pt4'
_cell_volume   147.50887373
_cell_formula_units_Z   2
loop_
 _symmetry_equiv_pos_site_id
 _symmetry_equiv_pos_as_xyz
  1  'x, y, z'
loop_
 _atom_site_type_symbol
 _atom_site_label
 _atom_site_symmetry_multiplicity
 _atom_site_fract_x
 _atom_site_fract_y
 _atom_site_fract_z
 _atom_site_occupancy
  Al  Al0  1  0.000000  0.000000  0.250000  1
  Al  Al1  1  0.000000  0.000000  0.750000  1
  Zr  Zr2  1  0.333333  0.666667  0.250000  1
  Zr  Zr3  1  0.666667  0.333333  0.750000  1
  Pt  Pt4  1  0.666667  0.333333  0.083481  1
  Pt  Pt5  1  0.333333  0.666667  0.916519  1
  Pt  Pt6  1  0.333333  0.666667  0.583481  1
  Pt  Pt7  1  0.666667  0.333333  0.416519  1
