# generated using pymatgen
data_Li2Ca3N6
_symmetry_space_group_name_H-M   'P 1'
_cell_length_a   4.85958644
_cell_length_b   14.22210646
_cell_length_c   8.07305454
_cell_angle_alpha   90.00000000
_cell_angle_beta   90.00000000
_cell_angle_gamma   90.00000000
_symmetry_Int_Tables_number   1
_chemical_formula_structural   Li2Ca3N6
_chemical_formula_sum   'Li8 Ca12 N24'
_cell_volume   557.95750463
_cell_formula_units_Z   4
loop_
 _symmetry_equiv_pos_site_id
 _symmetry_equiv_pos_as_xyz
  1  'x, y, z'
loop_
 _atom_site_type_symbol
 _atom_site_label
 _atom_site_symmetry_multiplicity
 _atom_site_fract_x
 _atom_site_fract_y
 _atom_site_fract_z
 _atom_site_occupancy
  Li  Li0  1  0.500000  0.660157  0.000000  1
  Li  Li1  1  -0.000000  0.660157  0.000000  1
  Li  Li2  1  0.500000  0.339843  0.000000  1
  Li  Li3  1  0.000000  0.339843  0.000000  1
  Li  Li4  1  0.500000  0.161187  0.500000  1
  Li  Li5  1  -0.000000  0.161187  0.500000  1
  Li  Li6  1  0.500000  0.838813  0.500000  1
  Li  Li7  1  0.000000  0.838813  0.500000  1
  Ca  Ca8  1  0.250000  0.000000  0.681825  1
  Ca  Ca9  1  0.750000  0.000000  0.318175  1
  Ca  Ca10  1  0.250000  0.500000  0.181418  1
  Ca  Ca11  1  0.750000  0.500000  0.818582  1
  Ca  Ca12  1  0.250000  0.838116  0.158535  1
  Ca  Ca13  1  0.750000  0.838116  0.841465  1
  Ca  Ca14  1  0.750000  0.161884  0.841465  1
  Ca  Ca15  1  0.250000  0.161884  0.158535  1
  Ca  Ca16  1  0.250000  0.337189  0.659477  1
  Ca  Ca17  1  0.750000  0.337189  0.340523  1
  Ca  Ca18  1  0.750000  0.662811  0.340523  1
  Ca  Ca19  1  0.250000  0.662811  0.659477  1
  N  N20  1  0.250000  0.826877  0.711716  1
  N  N21  1  0.750000  0.826877  0.288284  1
  N  N22  1  0.750000  0.173123  0.288284  1
  N  N23  1  0.250000  0.173123  0.711716  1
  N  N24  1  0.250000  0.199505  0.866515  1
  N  N25  1  0.750000  0.199505  0.133485  1
  N  N26  1  0.750000  0.800495  0.133485  1
  N  N27  1  0.250000  0.800495  0.866515  1
  N  N28  1  0.250000  0.325729  0.213479  1
  N  N29  1  0.750000  0.325729  0.786521  1
  N  N30  1  0.750000  0.674271  0.786521  1
  N  N31  1  0.250000  0.674271  0.213479  1
  N  N32  1  0.250000  0.703765  0.367100  1
  N  N33  1  0.750000  0.703765  0.632900  1
  N  N34  1  0.750000  0.296235  0.632900  1
  N  N35  1  0.250000  0.296235  0.367100  1
  N  N36  1  0.250000  0.953750  0.388180  1
  N  N37  1  0.750000  0.953750  0.611820  1
  N  N38  1  0.750000  0.046250  0.611820  1
  N  N39  1  0.250000  0.046250  0.388180  1
  N  N40  1  0.250000  0.453609  0.888479  1
  N  N41  1  0.750000  0.453609  0.111521  1
  N  N42  1  0.750000  0.546391  0.111521  1
  N  N43  1  0.250000  0.546391  0.888479  1
