# generated using pymatgen
data_CaZn11
_symmetry_space_group_name_H-M   'P 1'
_cell_length_a   6.83849060
_cell_length_b   8.30506358
_cell_length_c   8.30506358
_cell_angle_alpha   80.24113973
_cell_angle_beta   65.68794580
_cell_angle_gamma   65.68794580
_symmetry_Int_Tables_number   1
_chemical_formula_structural   CaZn11
_chemical_formula_sum   'Ca2 Zn22'
_cell_volume   391.72818102
_cell_formula_units_Z   2
loop_
 _symmetry_equiv_pos_site_id
 _symmetry_equiv_pos_as_xyz
  1  'x, y, z'
loop_
 _atom_site_type_symbol
 _atom_site_label
 _atom_site_symmetry_multiplicity
 _atom_site_fract_x
 _atom_site_fract_y
 _atom_site_fract_z
 _atom_site_occupancy
  Ca  Ca0  1  0.375000  0.250000  0.750000  1
  Ca  Ca1  1  0.625000  0.750000  0.250000  1
  Zn  Zn2  1  0.277328  0.923201  0.666007  1
  Zn  Zn3  1  0.443335  0.833993  0.923201  1
  Zn  Zn4  1  0.200529  0.666007  0.576799  1
  Zn  Zn5  1  0.866536  0.576799  0.833993  1
  Zn  Zn6  1  0.799471  0.923201  0.833993  1
  Zn  Zn7  1  0.556665  0.576799  0.666007  1
  Zn  Zn8  1  0.722672  0.833993  0.576799  1
  Zn  Zn9  1  0.133465  0.666007  0.923201  1
  Zn  Zn10  1  0.722672  0.076799  0.333993  1
  Zn  Zn11  1  0.556665  0.166007  0.076799  1
  Zn  Zn12  1  0.799471  0.333993  0.423201  1
  Zn  Zn13  1  0.133465  0.423201  0.166007  1
  Zn  Zn14  1  0.200529  0.076799  0.166007  1
  Zn  Zn15  1  0.443335  0.423201  0.333993  1
  Zn  Zn16  1  0.277328  0.166007  0.423201  1
  Zn  Zn17  1  0.866536  0.333993  0.076799  1
  Zn  Zn18  1  0.000000  0.000000  0.000000  1
  Zn  Zn19  1  0.500000  0.500000  0.000000  1
  Zn  Zn20  1  0.000000  0.000000  0.500000  1
  Zn  Zn21  1  0.000000  0.500000  0.500000  1
  Zn  Zn22  1  0.125000  0.750000  0.250000  1
  Zn  Zn23  1  0.875000  0.250000  0.750000  1
