# generated using pymatgen
data_MoW(SeS)2
_symmetry_space_group_name_H-M   'P 1'
_cell_length_a   3.25389495
_cell_length_b   3.25387262
_cell_length_c   36.89224066
_cell_angle_alpha   89.99980078
_cell_angle_beta   89.99999759
_cell_angle_gamma   120.00021298
_symmetry_Int_Tables_number   1
_chemical_formula_structural   MoW(SeS)2
_chemical_formula_sum   'Mo2 W2 Se4 S4'
_cell_volume   338.27414715
_cell_formula_units_Z   2
loop_
 _symmetry_equiv_pos_site_id
 _symmetry_equiv_pos_as_xyz
  1  'x, y, z'
loop_
 _atom_site_type_symbol
 _atom_site_label
 _atom_site_symmetry_multiplicity
 _atom_site_fract_x
 _atom_site_fract_y
 _atom_site_fract_z
 _atom_site_occupancy
  Mo  Mo0  1  0.333311  0.666621  0.093918  1
  Mo  Mo1  1  0.333310  0.666620  0.469675  1
  W  W2  1  0.666688  0.333376  0.281775  1
  W  W3  1  0.666690  0.333381  0.657544  1
  Se  Se4  1  0.333351  0.666703  0.328099  1
  Se  Se5  1  0.666648  0.333295  0.423677  1
  Se  Se6  1  0.666648  0.333295  0.515684  1
  Se  Se7  1  0.333354  0.666709  0.235457  1
  S  S8  1  0.333358  0.666716  0.699542  1
  S  S9  1  0.666642  0.333284  0.052031  1
  S  S10  1  0.666646  0.333292  0.135808  1
  S  S11  1  0.333354  0.666708  0.615539  1
