# generated using pymatgen
data_Ag6Ge2O7
_symmetry_space_group_name_H-M   'P 1'
_cell_length_a   5.53357892
_cell_length_b   10.21137926
_cell_length_c   16.33759290
_cell_angle_alpha   90.00000000
_cell_angle_beta   89.78790449
_cell_angle_gamma   90.00000000
_symmetry_Int_Tables_number   1
_chemical_formula_structural   Ag6Ge2O7
_chemical_formula_sum   'Ag24 Ge8 O28'
_cell_volume   923.15708910
_cell_formula_units_Z   4
loop_
 _symmetry_equiv_pos_site_id
 _symmetry_equiv_pos_as_xyz
  1  'x, y, z'
loop_
 _atom_site_type_symbol
 _atom_site_label
 _atom_site_symmetry_multiplicity
 _atom_site_fract_x
 _atom_site_fract_y
 _atom_site_fract_z
 _atom_site_occupancy
  O  O0  1  0.448356  0.740389  0.311639  1
  O  O1  1  0.551644  0.240389  0.688361  1
  O  O2  1  0.863479  0.920474  0.309484  1
  O  O3  1  0.136521  0.420474  0.690516  1
  O  O4  1  0.893166  0.678350  0.216376  1
  O  O5  1  0.106834  0.178350  0.783624  1
  O  O6  1  0.098772  0.174888  0.606581  1
  O  O7  1  0.901228  0.674888  0.393419  1
  O  O8  1  0.558132  0.064356  0.540623  1
  O  O9  1  0.441868  0.564356  0.459377  1
  O  O10  1  0.123203  0.907529  0.550222  1
  O  O11  1  0.876797  0.407529  0.449778  1
  O  O12  1  0.135114  0.127825  0.435667  1
  O  O13  1  0.864886  0.627825  0.564333  1
  O  O14  1  0.559148  0.858453  0.873895  1
  O  O15  1  0.440852  0.358453  0.126105  1
  O  O16  1  0.504424  0.680934  0.733146  1
  O  O17  1  0.495576  0.180934  0.266854  1
  O  O18  1  0.919006  0.864071  0.739730  1
  O  O19  1  0.080994  0.364071  0.260270  1
  O  O20  1  0.887073  0.638481  0.848047  1
  O  O21  1  0.112927  0.138481  0.151953  1
  O  O22  1  0.151816  0.880464  0.080185  1
  O  O23  1  0.848184  0.380464  0.919815  1
  O  O24  1  0.437241  0.558100  0.931245  1
  O  O25  1  0.116636  0.105309  0.974867  1
  O  O26  1  0.883364  0.605309  0.025133  1
  O  O27  1  0.562759  0.058100  0.068755  1
  Ge  Ge28  1  0.764355  0.567927  0.469289  1
  Ge  Ge29  1  0.235645  0.067927  0.530711  1
  Ge  Ge30  1  0.227450  0.252340  0.694913  1
  Ge  Ge31  1  0.772550  0.752340  0.305087  1
  Ge  Ge32  1  0.284154  0.265555  0.204278  1
  Ge  Ge33  1  0.242739  0.047908  0.067038  1
  Ge  Ge34  1  0.757261  0.547908  0.932962  1
  Ge  Ge35  1  0.715846  0.765555  0.795722  1
  Ag  Ag36  1  0.826897  0.985134  0.928401  1
  Ag  Ag37  1  0.173103  0.485134  0.071599  1
  Ag  Ag38  1  0.719066  0.011208  0.421990  1
  Ag  Ag39  1  0.280934  0.511208  0.578010  1
  Ag  Ag40  1  0.715895  0.840585  0.572567  1
  Ag  Ag41  1  0.284105  0.340585  0.427433  1
  Ag  Ag42  1  0.315899  0.009058  0.825401  1
  Ag  Ag43  1  0.684101  0.509058  0.174599  1
  Ag  Ag44  1  0.276219  0.999112  0.325031  1
  Ag  Ag45  1  0.723781  0.499112  0.674969  1
  Ag  Ag46  1  0.303506  0.784209  0.452119  1
  Ag  Ag47  1  0.696494  0.284209  0.547881  1
  Ag  Ag48  1  0.685205  0.241568  0.008352  1
  Ag  Ag49  1  0.314795  0.741568  0.991648  1
  Ag  Ag50  1  0.256778  0.293746  0.910819  1
  Ag  Ag51  1  0.743222  0.793746  0.089181  1
  Ag  Ag52  1  0.291320  0.512987  0.805938  1
  Ag  Ag53  1  0.708680  0.012987  0.194062  1
  Ag  Ag54  1  0.277217  0.540873  0.294903  1
  Ag  Ag55  1  0.722783  0.040873  0.705097  1
  Ag  Ag56  1  0.278607  0.804005  0.656813  1
  Ag  Ag57  1  0.721393  0.304005  0.343187  1
  Ag  Ag58  1  0.305641  0.796638  0.190771  1
  Ag  Ag59  1  0.694359  0.296638  0.809229  1
