# generated using pymatgen
data_UMnO4
_symmetry_space_group_name_H-M   'P 1'
_cell_length_a   5.94870221
_cell_length_b   5.94870220
_cell_length_c   5.94870220
_cell_angle_alpha   107.85227021
_cell_angle_beta   109.63052022
_cell_angle_gamma   110.94569079
_symmetry_Int_Tables_number   1
_chemical_formula_structural   UMnO4
_chemical_formula_sum   'U2 Mn2 O8'
_cell_volume   161.92973085
_cell_formula_units_Z   2
loop_
 _symmetry_equiv_pos_site_id
 _symmetry_equiv_pos_as_xyz
  1  'x, y, z'
loop_
 _atom_site_type_symbol
 _atom_site_label
 _atom_site_symmetry_multiplicity
 _atom_site_fract_x
 _atom_site_fract_y
 _atom_site_fract_z
 _atom_site_occupancy
  O  O0  1  0.813236  0.486163  0.299397  1
  O  O1  1  0.186765  0.513837  0.700603  1
  O  O2  1  0.813236  0.013838  0.827073  1
  O  O3  1  0.186766  0.986163  0.172928  1
  O  O4  1  0.312785  0.543361  0.269424  1
  O  O5  1  0.273937  0.043360  0.730577  1
  O  O6  1  0.687216  0.456639  0.730576  1
  O  O7  1  0.726064  0.956640  0.269425  1
  Mn  Mn8  1  0.500000  1.000000  0.499999  1
  Mn  Mn9  1  0.500000  0.500001  0.000000  1
  U  U10  1  0.017444  0.250001  0.267444  1
  U  U11  1  0.982555  0.750000  0.732555  1
