# generated using pymatgen
data_Er3(In2Co)2
_symmetry_space_group_name_H-M   'P 1'
_cell_length_a   8.04050368
_cell_length_b   8.04050730
_cell_length_c   3.50360535
_cell_angle_alpha   90.00000000
_cell_angle_beta   90.00000000
_cell_angle_gamma   119.99791477
_symmetry_Int_Tables_number   1
_chemical_formula_structural   Er3(In2Co)2
_chemical_formula_sum   'Er3 In4 Co2'
_cell_volume   196.16505456
_cell_formula_units_Z   1
loop_
 _symmetry_equiv_pos_site_id
 _symmetry_equiv_pos_as_xyz
  1  'x, y, z'
loop_
 _atom_site_type_symbol
 _atom_site_label
 _atom_site_symmetry_multiplicity
 _atom_site_fract_x
 _atom_site_fract_y
 _atom_site_fract_z
 _atom_site_occupancy
  Er  Er0  1  0.258203  0.003904  0.499999  1
  Er  Er1  1  0.996071  0.254311  0.499999  1
  Er  Er2  1  0.745694  0.741803  0.499999  1
  In  In3  1  0.666652  0.333330  0.499999  1
  In  In4  1  0.044975  0.629390  0.000000  1
  In  In5  1  0.370626  0.415532  0.000000  1
  In  In6  1  0.584435  0.955081  0.000000  1
  Co  Co7  1  0.000008  0.000004  0.000000  1
  Co  Co8  1  0.333343  0.666647  0.499999  1
