# generated using pymatgen
data_Na2ZnGaF7
_symmetry_space_group_name_H-M   'P 1'
_cell_length_a   7.36000677
_cell_length_b   7.36000677
_cell_length_c   24.78614680
_cell_angle_alpha   81.83945279
_cell_angle_beta   81.83945278
_cell_angle_gamma   60.58486318
_symmetry_Int_Tables_number   1
_chemical_formula_structural   Na2ZnGaF7
_chemical_formula_sum   'Na16 Zn8 Ga8 F56'
_cell_volume   1153.65601857
_cell_formula_units_Z   8
loop_
 _symmetry_equiv_pos_site_id
 _symmetry_equiv_pos_as_xyz
  1  'x, y, z'
loop_
 _atom_site_type_symbol
 _atom_site_label
 _atom_site_symmetry_multiplicity
 _atom_site_fract_x
 _atom_site_fract_y
 _atom_site_fract_z
 _atom_site_occupancy
  F  F0  1  0.364884  0.812930  0.453131  1
  F  F1  1  0.187070  0.635116  0.046869  1
  F  F2  1  0.635116  0.187070  0.546869  1
  F  F3  1  0.812930  0.364884  0.953131  1
  F  F4  1  0.357618  0.972799  0.296831  1
  F  F5  1  0.027201  0.642382  0.203169  1
  F  F6  1  0.642382  0.027201  0.703169  1
  F  F7  1  0.972799  0.357618  0.796831  1
  F  F8  1  0.020311  0.142174  0.209537  1
  F  F9  1  0.857826  0.979689  0.290463  1
  F  F10  1  0.979689  0.857826  0.790463  1
  F  F11  1  0.142174  0.020311  0.709537  1
  F  F12  1  0.869345  0.789707  0.468308  1
  F  F13  1  0.210293  0.130655  0.031692  1
  F  F14  1  0.130655  0.210293  0.531692  1
  F  F15  1  0.789707  0.869345  0.968308  1
  F  F16  1  0.642962  0.304578  0.401532  1
  F  F17  1  0.695422  0.357038  0.098468  1
  F  F18  1  0.357038  0.695422  0.598468  1
  F  F19  1  0.304578  0.642962  0.901532  1
  F  F20  1  0.091253  0.465124  0.345053  1
  F  F21  1  0.858657  0.363807  0.293480  1
  F  F22  1  0.534876  0.908747  0.154947  1
  F  F23  1  0.465124  0.091253  0.845053  1
  F  F24  1  0.656862  0.701398  0.359368  1
  F  F25  1  0.298602  0.343138  0.140632  1
  F  F26  1  0.343138  0.298602  0.640632  1
  F  F27  1  0.701398  0.656862  0.859368  1
  F  F28  1  0.069134  0.074061  0.390890  1
  F  F29  1  0.925939  0.930866  0.109110  1
  F  F30  1  0.930866  0.925939  0.609110  1
  F  F31  1  0.074061  0.069134  0.890890  1
  F  F32  1  0.421152  0.252490  0.953242  1
  F  F33  1  0.747510  0.578848  0.546758  1
  F  F34  1  0.578848  0.747510  0.046758  1
  F  F35  1  0.252490  0.421152  0.453242  1
  F  F36  1  0.362742  0.477166  0.790355  1
  F  F37  1  0.522834  0.637258  0.709645  1
  F  F38  1  0.637258  0.522834  0.209645  1
  F  F39  1  0.477166  0.362742  0.290355  1
  F  F40  1  0.701076  0.271447  0.858656  1
  F  F41  1  0.728553  0.298924  0.641344  1
  F  F42  1  0.298924  0.728553  0.141344  1
  F  F43  1  0.271447  0.701076  0.358656  1
  F  F44  1  0.074831  0.459450  0.890108  1
  F  F45  1  0.540550  0.925169  0.609892  1
  F  F46  1  0.925169  0.540550  0.109892  1
  F  F47  1  0.459450  0.074831  0.390108  1
  F  F48  1  0.418529  0.865767  0.954926  1
  F  F49  1  0.134233  0.581471  0.545074  1
  F  F50  1  0.581471  0.134233  0.045074  1
  F  F51  1  0.865767  0.418529  0.454926  1
  F  F52  1  0.363807  0.858657  0.793480  1
  F  F53  1  0.141343  0.636193  0.706520  1
  F  F54  1  0.636193  0.141343  0.206520  1
  F  F55  1  0.908747  0.534876  0.654947  1
  Na  Na56  1  0.000000  0.000000  0.000000  1
  Na  Na57  1  0.000000  0.000000  0.500000  1
  Na  Na58  1  0.500000  0.500000  0.000000  1
  Na  Na59  1  0.500000  0.500000  0.500000  1
  Na  Na60  1  0.500000  0.000000  0.500000  1
  Na  Na61  1  0.000000  0.500000  0.000000  1
  Na  Na62  1  0.787635  0.212365  0.750000  1
  Na  Na63  1  0.212365  0.787635  0.250000  1
  Na  Na64  1  0.300644  0.204399  0.749827  1
  Na  Na65  1  0.795601  0.699356  0.750173  1
  Na  Na66  1  0.699356  0.795601  0.250173  1
  Na  Na67  1  0.204399  0.300644  0.249827  1
  Na  Na68  1  0.882223  0.865412  0.878230  1
  Na  Na69  1  0.134588  0.117777  0.621770  1
  Na  Na70  1  0.117777  0.134588  0.121770  1
  Na  Na71  1  0.865412  0.882223  0.378230  1
  Zn  Zn72  1  0.386298  0.369125  0.872160  1
  Zn  Zn73  1  0.630875  0.613702  0.627840  1
  Zn  Zn74  1  0.613702  0.630875  0.127840  1
  Zn  Zn75  1  0.369125  0.386298  0.372160  1
  Zn  Zn76  1  0.387718  0.865165  0.874196  1
  Zn  Zn77  1  0.134835  0.612282  0.625804  1
  Zn  Zn78  1  0.612282  0.134835  0.125804  1
  Zn  Zn79  1  0.865165  0.387718  0.374196  1
  Ga  Ga80  1  0.500000  0.000000  0.000000  1
  Ga  Ga81  1  0.000000  0.500000  0.500000  1
  Ga  Ga82  1  0.248608  0.751392  0.750000  1
  Ga  Ga83  1  0.751392  0.248608  0.250000  1
  Ga  Ga84  1  0.889552  0.363052  0.874769  1
  Ga  Ga85  1  0.636948  0.110448  0.625231  1
  Ga  Ga86  1  0.110448  0.636948  0.125231  1
  Ga  Ga87  1  0.363052  0.889552  0.374769  1
