# generated using pymatgen
data_TeMoWSeS2
_symmetry_space_group_name_H-M   'P 1'
_cell_length_a   3.30581086
_cell_length_b   3.30573508
_cell_length_c   37.61755044
_cell_angle_alpha   90.00016948
_cell_angle_beta   90.00000000
_cell_angle_gamma   120.00075833
_symmetry_Int_Tables_number   1
_chemical_formula_structural   TeMoWSeS2
_chemical_formula_sum   'Te2 Mo2 W2 Se2 S4'
_cell_volume   356.01137413
_cell_formula_units_Z   2
loop_
 _symmetry_equiv_pos_site_id
 _symmetry_equiv_pos_as_xyz
  1  'x, y, z'
loop_
 _atom_site_type_symbol
 _atom_site_label
 _atom_site_symmetry_multiplicity
 _atom_site_fract_x
 _atom_site_fract_y
 _atom_site_fract_z
 _atom_site_occupancy
  Te  Te0  1  0.333354  0.666709  0.332572  1
  Te  Te1  1  0.333351  0.666704  0.230989  1
  Mo  Mo2  1  0.333296  0.666592  0.093909  1
  Mo  Mo3  1  0.666691  0.333381  0.281788  1
  W  W4  1  0.333312  0.666624  0.469686  1
  W  W5  1  0.666694  0.333387  0.657537  1
  Se  Se6  1  0.333356  0.666713  0.702386  1
  Se  Se7  1  0.333352  0.666705  0.612697  1
  S  S8  1  0.666651  0.333302  0.053277  1
  S  S9  1  0.666643  0.333286  0.428930  1
  S  S10  1  0.666655  0.333308  0.134550  1
  S  S11  1  0.666645  0.333289  0.510427  1
