# generated using pymatgen
data_Sr2Si(S2O7)4
_symmetry_space_group_name_H-M   'P 1'
_cell_length_a   7.14614112
_cell_length_b   13.16920690
_cell_length_c   12.50069129
_cell_angle_alpha   90.00000000
_cell_angle_beta   97.07856511
_cell_angle_gamma   90.00000000
_symmetry_Int_Tables_number   1
_chemical_formula_structural   Sr2Si(S2O7)4
_chemical_formula_sum   'Sr4 Si2 S16 O56'
_cell_volume   1167.46108962
_cell_formula_units_Z   2
loop_
 _symmetry_equiv_pos_site_id
 _symmetry_equiv_pos_as_xyz
  1  'x, y, z'
loop_
 _atom_site_type_symbol
 _atom_site_label
 _atom_site_symmetry_multiplicity
 _atom_site_fract_x
 _atom_site_fract_y
 _atom_site_fract_z
 _atom_site_occupancy
  Sr  Sr0  1  0.799724  0.635139  0.159087  1
  Sr  Sr1  1  0.299724  0.864861  0.659087  1
  Sr  Sr2  1  0.200276  0.364861  0.840913  1
  Sr  Sr3  1  0.700276  0.135139  0.340913  1
  Si  Si4  1  0.500000  0.500000  0.500000  1
  Si  Si5  1  -0.000000  0.000000  0.000000  1
  S  S6  1  0.288017  0.529200  0.106999  1
  S  S7  1  0.788017  0.970800  0.606999  1
  S  S8  1  0.711983  0.470800  0.893001  1
  S  S9  1  0.211983  0.029200  0.393001  1
  S  S10  1  0.533256  0.416647  0.274571  1
  S  S11  1  0.033256  0.083353  0.774571  1
  S  S12  1  0.466744  0.583353  0.725429  1
  S  S13  1  0.966744  0.916647  0.225429  1
  S  S14  1  0.535595  0.714964  0.411869  1
  S  S15  1  0.035595  0.785036  0.911869  1
  S  S16  1  0.464405  0.285036  0.588131  1
  S  S17  1  0.964405  0.214964  0.088131  1
  S  S18  1  0.166073  0.644742  0.441786  1
  S  S19  1  0.666073  0.855258  0.941786  1
  S  S20  1  0.833927  0.355258  0.558214  1
  S  S21  1  0.333927  0.144742  0.058214  1
  O  O22  1  0.438396  0.474628  0.359481  1
  O  O23  1  0.938396  0.025372  0.859481  1
  O  O24  1  0.561604  0.525372  0.640519  1
  O  O25  1  0.061604  0.974628  0.140519  1
  O  O26  1  0.436336  0.603836  0.129008  1
  O  O27  1  0.936336  0.896164  0.629008  1
  O  O28  1  0.563664  0.396164  0.870992  1
  O  O29  1  0.063664  0.103836  0.370992  1
  O  O30  1  0.605489  0.618361  0.470325  1
  O  O31  1  0.105489  0.881639  0.970325  1
  O  O32  1  0.394511  0.381639  0.529675  1
  O  O33  1  0.894511  0.118361  0.029675  1
  O  O34  1  0.376058  0.418561  0.174616  1
  O  O35  1  0.876058  0.081439  0.674616  1
  O  O36  1  0.623942  0.581439  0.825384  1
  O  O37  1  0.123942  0.918561  0.325384  1
  O  O38  1  0.119926  0.548592  0.157207  1
  O  O39  1  0.619926  0.951408  0.657207  1
  O  O40  1  0.880074  0.451408  0.842793  1
  O  O41  1  0.380074  0.048592  0.342793  1
  O  O42  1  0.551869  0.310470  0.301055  1
  O  O43  1  0.051869  0.189530  0.801055  1
  O  O44  1  0.448131  0.689530  0.698945  1
  O  O45  1  0.948131  0.810470  0.198945  1
  O  O46  1  0.700488  0.469065  0.250870  1
  O  O47  1  0.200488  0.030935  0.750870  1
  O  O48  1  0.299512  0.530935  0.749130  1
  O  O49  1  0.799512  0.969065  0.249130  1
  O  O50  1  0.527351  0.797099  0.486199  1
  O  O51  1  0.027351  0.702901  0.986199  1
  O  O52  1  0.472649  0.202901  0.513801  1
  O  O53  1  0.972649  0.297099  0.013801  1
  O  O54  1  0.626226  0.730247  0.317219  1
  O  O55  1  0.126226  0.769753  0.817219  1
  O  O56  1  0.373774  0.269753  0.682781  1
  O  O57  1  0.873774  0.230247  0.182781  1
  O  O58  1  0.259206  0.488792  0.998906  1
  O  O59  1  0.759206  0.011208  0.498906  1
  O  O60  1  0.740794  0.511208  0.001094  1
  O  O61  1  0.240794  0.988792  0.501094  1
  O  O62  1  0.316545  0.685813  0.361816  1
  O  O63  1  0.816545  0.814187  0.861816  1
  O  O64  1  0.683455  0.314187  0.638184  1
  O  O65  1  0.183455  0.185813  0.138184  1
  O  O66  1  0.270681  0.555691  0.499984  1
  O  O67  1  0.770681  0.944309  -0.000016  1
  O  O68  1  0.729319  0.444309  0.500016  1
  O  O69  1  0.229319  0.055691  0.000016  1
  O  O70  1  0.009024  0.611684  0.368294  1
  O  O71  1  0.509024  0.888316  0.868294  1
  O  O72  1  0.990976  0.388316  0.631706  1
  O  O73  1  0.490976  0.111684  0.131706  1
  O  O74  1  0.136671  0.723381  0.517638  1
  O  O75  1  0.636671  0.776619  0.017638  1
  O  O76  1  0.863329  0.276619  0.482362  1
  O  O77  1  0.363329  0.223381  0.982362  1
