# generated using pymatgen
data_KSbO3
_symmetry_space_group_name_H-M   'P 1'
_cell_length_a   9.74887071
_cell_length_b   9.74887071
_cell_length_c   9.74887071
_cell_angle_alpha   90.00000000
_cell_angle_beta   90.00000000
_cell_angle_gamma   90.00000000
_symmetry_Int_Tables_number   1
_chemical_formula_structural   KSbO3
_chemical_formula_sum   'K12 Sb12 O36'
_cell_volume   926.53735291
_cell_formula_units_Z   12
loop_
 _symmetry_equiv_pos_site_id
 _symmetry_equiv_pos_as_xyz
  1  'x, y, z'
loop_
 _atom_site_type_symbol
 _atom_site_label
 _atom_site_symmetry_multiplicity
 _atom_site_fract_x
 _atom_site_fract_y
 _atom_site_fract_z
 _atom_site_occupancy
  O  O0  1  0.039587  0.753305  0.406519  1
  O  O1  1  0.039587  0.746695  0.093481  1
  O  O2  1  0.460413  0.753305  0.093481  1
  O  O3  1  0.746695  0.093481  0.039587  1
  O  O4  1  0.093481  0.460413  0.753305  1
  O  O5  1  0.093481  0.039587  0.746695  1
  O  O6  1  0.753305  0.406519  0.039587  1
  O  O7  1  0.406519  0.039587  0.753305  1
  O  O8  1  0.753305  0.093481  0.460413  1
  O  O9  1  0.746695  0.406519  0.460413  1
  O  O10  1  0.406519  0.460413  0.746695  1
  O  O11  1  0.460413  0.746695  0.406519  1
  O  O12  1  0.960413  0.246695  0.593481  1
  O  O13  1  0.960413  0.253305  0.906519  1
  O  O14  1  0.111903  0.750000  0.750000  1
  O  O15  1  0.539587  0.246695  0.906519  1
  O  O16  1  0.906519  0.539587  0.246695  1
  O  O17  1  0.906519  0.960413  0.253305  1
  O  O18  1  0.246695  0.593481  0.960413  1
  O  O19  1  0.593481  0.960413  0.246695  1
  O  O20  1  0.246695  0.906519  0.539587  1
  O  O21  1  0.253305  0.593481  0.539587  1
  O  O22  1  0.593481  0.539587  0.253305  1
  O  O23  1  0.539587  0.253305  0.593481  1
  O  O24  1  0.611903  0.250000  0.250000  1
  O  O25  1  0.250000  0.611903  0.250000  1
  O  O26  1  0.250000  0.250000  0.611903  1
  O  O27  1  0.250000  0.888097  0.250000  1
  O  O28  1  0.250000  0.250000  0.888097  1
  O  O29  1  0.888097  0.250000  0.250000  1
  O  O30  1  0.388097  0.750000  0.750000  1
  O  O31  1  0.750000  0.388097  0.750000  1
  O  O32  1  0.750000  0.750000  0.388097  1
  O  O33  1  0.750000  0.111903  0.750000  1
  O  O34  1  0.750000  0.750000  0.111903  1
  O  O35  1  0.253305  0.906519  0.960413  1
  K  K36  1  0.000000  0.000000  0.000000  1
  K  K37  1  0.500000  0.500000  0.000000  1
  K  K38  1  0.000000  0.500000  0.500000  1
  K  K39  1  0.500000  0.000000  0.500000  1
  K  K40  1  0.403054  0.403054  0.403054  1
  K  K41  1  0.096946  0.096946  0.403054  1
  K  K42  1  0.403054  0.096946  0.096946  1
  K  K43  1  0.096946  0.403054  0.096946  1
  K  K44  1  0.596946  0.596946  0.596946  1
  K  K45  1  0.903054  0.903054  0.596946  1
  K  K46  1  0.596946  0.903054  0.903054  1
  K  K47  1  0.903054  0.596946  0.903054  1
  Sb  Sb48  1  0.592675  0.750000  0.250000  1
  Sb  Sb49  1  0.250000  0.592675  0.750000  1
  Sb  Sb50  1  0.750000  0.250000  0.592675  1
  Sb  Sb51  1  0.250000  0.907325  0.750000  1
  Sb  Sb52  1  0.750000  0.250000  0.907325  1
  Sb  Sb53  1  0.907325  0.750000  0.250000  1
  Sb  Sb54  1  0.407325  0.250000  0.750000  1
  Sb  Sb55  1  0.750000  0.407325  0.250000  1
  Sb  Sb56  1  0.250000  0.750000  0.407325  1
  Sb  Sb57  1  0.750000  0.092675  0.250000  1
  Sb  Sb58  1  0.250000  0.750000  0.092675  1
  Sb  Sb59  1  0.092675  0.250000  0.750000  1
