# generated using pymatgen
data_Sr3Y2(BO3)4
_symmetry_space_group_name_H-M   'P 1'
_cell_length_a   7.54872763
_cell_length_b   15.79809702
_cell_length_c   8.72813442
_cell_angle_alpha   90.00000000
_cell_angle_beta   90.00000000
_cell_angle_gamma   90.00000000
_symmetry_Int_Tables_number   1
_chemical_formula_structural   Sr3Y2(BO3)4
_chemical_formula_sum   'Sr12 Y8 B16 O48'
_cell_volume   1040.87830905
_cell_formula_units_Z   4
loop_
 _symmetry_equiv_pos_site_id
 _symmetry_equiv_pos_as_xyz
  1  'x, y, z'
loop_
 _atom_site_type_symbol
 _atom_site_label
 _atom_site_symmetry_multiplicity
 _atom_site_fract_x
 _atom_site_fract_y
 _atom_site_fract_z
 _atom_site_occupancy
  Sr  Sr0  1  0.325650  0.375428  0.153275  1
  Sr  Sr1  1  0.825650  0.124573  0.346725  1
  Sr  Sr2  1  0.674350  0.875428  0.846725  1
  Sr  Sr3  1  0.174350  0.624572  0.653275  1
  Sr  Sr4  1  0.674350  0.624572  0.846725  1
  Sr  Sr5  1  0.174350  0.875428  0.653275  1
  Sr  Sr6  1  0.325650  0.124573  0.153275  1
  Sr  Sr7  1  0.825650  0.375428  0.346725  1
  Sr  Sr8  1  0.676487  0.250000  0.971576  1
  Sr  Sr9  1  0.176487  0.250000  0.528424  1
  Sr  Sr10  1  0.323513  0.750000  0.028424  1
  Sr  Sr11  1  0.823513  0.750000  0.471576  1
  Y  Y12  1  0.487849  0.417063  0.672117  1
  Y  Y13  1  0.987849  0.082937  0.827883  1
  Y  Y14  1  0.512151  0.917063  0.327883  1
  Y  Y15  1  0.012151  0.582937  0.172117  1
  Y  Y16  1  0.512151  0.582937  0.327883  1
  Y  Y17  1  0.012151  0.917063  0.172117  1
  Y  Y18  1  0.487849  0.082937  0.672117  1
  Y  Y19  1  0.987849  0.417063  0.827883  1
  B  B20  1  0.333547  0.538026  0.945812  1
  B  B21  1  0.833547  0.961974  0.554188  1
  B  B22  1  0.666453  0.038026  0.054188  1
  B  B23  1  0.166453  0.461974  0.445812  1
  B  B24  1  0.666453  0.461974  0.054188  1
  B  B25  1  0.166453  0.038026  0.445812  1
  B  B26  1  0.333547  0.961974  0.945812  1
  B  B27  1  0.833547  0.538026  0.554188  1
  B  B28  1  0.020465  0.250000  0.105996  1
  B  B29  1  0.520465  0.250000  0.394004  1
  B  B30  1  0.979535  0.750000  0.894004  1
  B  B31  1  0.479535  0.750000  0.605996  1
  B  B32  1  0.780311  0.250000  0.646854  1
  B  B33  1  0.280311  0.250000  0.853146  1
  B  B34  1  0.219689  0.750000  0.353146  1
  B  B35  1  0.719689  0.750000  0.146854  1
  O  O36  1  0.418321  0.587556  0.053184  1
  O  O37  1  0.918321  0.912444  0.446816  1
  O  O38  1  0.581679  0.087556  0.946816  1
  O  O39  1  0.081679  0.412444  0.553184  1
  O  O40  1  0.581679  0.412444  0.946816  1
  O  O41  1  0.081679  0.087556  0.553184  1
  O  O42  1  0.418321  0.912444  0.053184  1
  O  O43  1  0.918321  0.587556  0.446816  1
  O  O44  1  0.393455  0.536076  0.794502  1
  O  O45  1  0.893455  0.963924  0.705498  1
  O  O46  1  0.606545  0.036076  0.205498  1
  O  O47  1  0.106545  0.463925  0.294502  1
  O  O48  1  0.606545  0.463925  0.205498  1
  O  O49  1  0.106545  0.036076  0.294502  1
  O  O50  1  0.393455  0.963924  0.794502  1
  O  O51  1  0.893455  0.536076  0.705498  1
  O  O52  1  0.179481  0.493872  0.981964  1
  O  O53  1  0.679481  0.006128  0.518036  1
  O  O54  1  0.820519  0.993872  0.018036  1
  O  O55  1  0.320519  0.506128  0.481964  1
  O  O56  1  0.820519  0.506128  0.018036  1
  O  O57  1  0.320519  0.993872  0.481964  1
  O  O58  1  0.179481  0.006128  0.981964  1
  O  O59  1  0.679481  0.493872  0.518036  1
  O  O60  1  0.106186  0.250000  0.246572  1
  O  O61  1  0.606186  0.250000  0.253428  1
  O  O62  1  0.893814  0.750000  0.753428  1
  O  O63  1  0.393814  0.750000  0.746572  1
  O  O64  1  0.968180  0.326447  0.038754  1
  O  O65  1  0.468180  0.173553  0.461246  1
  O  O66  1  0.031820  0.826447  0.961246  1
  O  O67  1  0.531820  0.673553  0.538754  1
  O  O68  1  0.031820  0.673553  0.961246  1
  O  O69  1  0.531820  0.826447  0.538754  1
  O  O70  1  0.968180  0.173553  0.038754  1
  O  O71  1  0.468180  0.326447  0.461246  1
  O  O72  1  0.746608  0.327036  0.722298  1
  O  O73  1  0.246608  0.172964  0.777702  1
  O  O74  1  0.253392  0.827036  0.277703  1
  O  O75  1  0.753392  0.672964  0.222298  1
  O  O76  1  0.253392  0.672964  0.277703  1
  O  O77  1  0.753392  0.827036  0.222298  1
  O  O78  1  0.746608  0.172964  0.722298  1
  O  O79  1  0.246608  0.327036  0.777702  1
  O  O80  1  0.354666  0.250000  -0.006003  1
  O  O81  1  0.854666  0.250000  0.506003  1
  O  O82  1  0.645334  0.750000  0.006003  1
  O  O83  1  0.145334  0.750000  0.493997  1
