# generated using pymatgen
data_NaTbGeO4
_symmetry_space_group_name_H-M   'P 1'
_cell_length_a   5.34247451
_cell_length_b   6.54042545
_cell_length_c   11.56776589
_cell_angle_alpha   90.00000000
_cell_angle_beta   90.00000000
_cell_angle_gamma   90.00000000
_symmetry_Int_Tables_number   1
_chemical_formula_structural   NaTbGeO4
_chemical_formula_sum   'Na4 Tb4 Ge4 O16'
_cell_volume   404.20152643
_cell_formula_units_Z   4
loop_
 _symmetry_equiv_pos_site_id
 _symmetry_equiv_pos_as_xyz
  1  'x, y, z'
loop_
 _atom_site_type_symbol
 _atom_site_label
 _atom_site_symmetry_multiplicity
 _atom_site_fract_x
 _atom_site_fract_y
 _atom_site_fract_z
 _atom_site_occupancy
  O  O0  1  0.825188  0.750000  0.044894  1
  O  O1  1  0.325188  0.250000  0.455106  1
  O  O2  1  0.174812  0.250000  0.955106  1
  O  O3  1  0.674812  0.750000  0.544894  1
  O  O4  1  0.207837  0.043076  0.173699  1
  O  O5  1  0.707837  0.956924  0.326301  1
  O  O6  1  0.792163  0.543076  0.826301  1
  O  O7  1  0.292163  0.456924  0.673699  1
  O  O8  1  0.792163  0.956924  0.826301  1
  O  O9  1  0.292163  0.043076  0.673699  1
  O  O10  1  0.207837  0.456924  0.173699  1
  O  O11  1  0.707837  0.543076  0.326301  1
  O  O12  1  0.229377  0.750000  0.389272  1
  O  O13  1  0.729377  0.250000  0.110728  1
  O  O14  1  0.770623  0.250000  0.610728  1
  O  O15  1  0.270623  0.750000  0.889272  1
  Na  Na16  1  0.500000  0.000000  0.000000  1
  Na  Na17  1  0.000000  0.000000  0.500000  1
  Na  Na18  1  0.500000  0.500000  0.000000  1
  Na  Na19  1  0.000000  0.500000  0.500000  1
  Ge  Ge20  1  0.944865  0.750000  0.902784  1
  Ge  Ge21  1  0.444865  0.250000  0.597216  1
  Ge  Ge22  1  0.055135  0.250000  0.097216  1
  Ge  Ge23  1  0.555135  0.750000  0.402784  1
  Tb  Tb24  1  0.995909  0.750000  0.222162  1
  Tb  Tb25  1  0.495909  0.250000  0.277838  1
  Tb  Tb26  1  0.004091  0.250000  0.777838  1
  Tb  Tb27  1  0.504091  0.750000  0.722162  1
