# generated using pymatgen
data_FeAsO4
_symmetry_space_group_name_H-M   'P 1'
_cell_length_a   6.63167329
_cell_length_b   9.39862420
_cell_length_c   9.39862419
_cell_angle_alpha   71.49985789
_cell_angle_beta   69.34131521
_cell_angle_gamma   69.34131520
_symmetry_Int_Tables_number   1
_chemical_formula_structural   FeAsO4
_chemical_formula_sum   'Fe6 As6 O24'
_cell_volume   500.29419569
_cell_formula_units_Z   6
loop_
 _symmetry_equiv_pos_site_id
 _symmetry_equiv_pos_as_xyz
  1  'x, y, z'
loop_
 _atom_site_type_symbol
 _atom_site_label
 _atom_site_symmetry_multiplicity
 _atom_site_fract_x
 _atom_site_fract_y
 _atom_site_fract_z
 _atom_site_occupancy
  O  O0  1  0.976704  0.378294  0.621706  1
  O  O1  1  0.976704  0.121706  0.878294  1
  O  O2  1  0.023296  0.878294  0.121706  1
  O  O3  1  0.023296  0.621706  0.378294  1
  O  O4  1  0.582150  0.355873  0.855873  1
  O  O5  1  0.793896  0.144127  0.644127  1
  O  O6  1  0.417850  0.644127  0.144127  1
  O  O7  1  0.206104  0.855873  0.355873  1
  O  O8  1  0.403608  0.358512  0.422563  1
  O  O9  1  0.184683  0.141488  0.077437  1
  O  O10  1  0.596392  0.077437  0.141488  1
  O  O11  1  0.815317  0.422563  0.358512  1
  O  O12  1  0.806132  0.848231  0.619848  1
  O  O13  1  0.274211  0.651769  0.880152  1
  O  O14  1  0.193868  0.880152  0.651769  1
  O  O15  1  0.725789  0.619848  0.848231  1
  O  O16  1  0.193868  0.151769  0.380152  1
  O  O17  1  0.725789  0.348231  0.119848  1
  O  O18  1  0.806132  0.119848  0.348231  1
  O  O19  1  0.274211  0.380152  0.151769  1
  O  O20  1  0.184683  0.577437  0.641488  1
  O  O21  1  0.403608  0.922563  0.858512  1
  O  O22  1  0.815317  0.858512  0.922563  1
  O  O23  1  0.596392  0.641488  0.577437  1
  Fe  Fe24  1  0.500000  0.500000  0.000000  1
  Fe  Fe25  1  0.000000  0.000000  0.500000  1
  Fe  Fe26  1  0.885961  0.614039  0.614039  1
  Fe  Fe27  1  0.114039  0.885961  0.885961  1
  Fe  Fe28  1  0.114039  0.385961  0.385961  1
  Fe  Fe29  1  0.885961  0.114039  0.114039  1
  As  As30  1  0.820792  0.250000  0.750000  1
  As  As31  1  0.179208  0.750000  0.250000  1
  As  As32  1  0.323262  0.676738  0.676738  1
  As  As33  1  0.676738  0.823262  0.823262  1
  As  As34  1  0.676738  0.323262  0.323262  1
  As  As35  1  0.323262  0.176738  0.176738  1
