# generated using pymatgen
data_PrGa2Ni
_symmetry_space_group_name_H-M   'P 1'
_cell_length_a   4.22126767
_cell_length_b   4.21910064
_cell_length_c   9.01288027
_cell_angle_alpha   103.53619047
_cell_angle_beta   90.00000000
_cell_angle_gamma   90.00000000
_symmetry_Int_Tables_number   1
_chemical_formula_structural   PrGa2Ni
_chemical_formula_sum   'Pr2 Ga4 Ni2'
_cell_volume   156.06012285
_cell_formula_units_Z   2
loop_
 _symmetry_equiv_pos_site_id
 _symmetry_equiv_pos_as_xyz
  1  'x, y, z'
loop_
 _atom_site_type_symbol
 _atom_site_label
 _atom_site_symmetry_multiplicity
 _atom_site_fract_x
 _atom_site_fract_y
 _atom_site_fract_z
 _atom_site_occupancy
  Pr  Pr0  1  0.500000  0.357773  0.715546  1
  Pr  Pr1  1  0.500000  0.642227  0.284454  1
  Ga  Ga2  1  0.000000  0.209422  0.418843  1
  Ga  Ga3  1  0.000000  0.790578  0.581157  1
  Ga  Ga4  1  0.500000  0.000000  0.000000  1
  Ga  Ga5  1  0.000000  0.500000  0.000000  1
  Ni  Ni6  1  0.000000  0.072088  0.144177  1
  Ni  Ni7  1  0.000000  0.927912  0.855823  1
