# generated using pymatgen
data_La2CuSnO6
_symmetry_space_group_name_H-M   'P 1'
_cell_length_a   7.84485558
_cell_length_b   7.85643629
_cell_length_c   8.71626527
_cell_angle_alpha   91.90922469
_cell_angle_beta   90.00000000
_cell_angle_gamma   90.00000000
_symmetry_Int_Tables_number   1
_chemical_formula_structural   La2CuSnO6
_chemical_formula_sum   'La8 Cu4 Sn4 O24'
_cell_volume   536.90793894
_cell_formula_units_Z   4
loop_
 _symmetry_equiv_pos_site_id
 _symmetry_equiv_pos_as_xyz
  1  'x, y, z'
loop_
 _atom_site_type_symbol
 _atom_site_label
 _atom_site_symmetry_multiplicity
 _atom_site_fract_x
 _atom_site_fract_y
 _atom_site_fract_z
 _atom_site_occupancy
  O  O0  1  0.750000  0.530322  0.006965  1
  O  O1  1  0.250000  0.469678  0.993035  1
  O  O2  1  0.750000  0.477542  0.411368  1
  O  O3  1  0.250000  0.522458  0.588632  1
  O  O4  1  0.750000  0.079767  0.545549  1
  O  O5  1  0.250000  0.920233  0.454451  1
  O  O6  1  0.750000  0.964490  0.969751  1
  O  O7  1  0.250000  0.035510  0.030249  1
  O  O8  1  0.458354  0.247708  0.418223  1
  O  O9  1  0.958354  0.752292  0.581777  1
  O  O10  1  0.541646  0.752292  0.581777  1
  O  O11  1  0.041646  0.247708  0.418223  1
  O  O12  1  0.445837  0.561908  0.276607  1
  O  O13  1  0.945837  0.438092  0.723393  1
  O  O14  1  0.554163  0.438092  0.723393  1
  O  O15  1  0.054163  0.561908  0.276607  1
  O  O16  1  0.964406  0.248747  0.039706  1
  O  O17  1  0.464406  0.751253  0.960294  1
  O  O18  1  0.035594  0.751253  0.960294  1
  O  O19  1  0.535594  0.248747  0.039706  1
  O  O20  1  0.942645  0.943884  0.273078  1
  O  O21  1  0.442645  0.056116  0.726922  1
  O  O22  1  0.057355  0.056116  0.726922  1
  O  O23  1  0.557355  0.943884  0.273078  1
  Cu  Cu24  1  0.000000  0.000000  0.000000  1
  Cu  Cu25  1  0.500000  0.000000  0.000000  1
  Cu  Cu26  1  0.000000  0.500000  0.000000  1
  Cu  Cu27  1  0.500000  0.500000  0.000000  1
  Sn  Sn28  1  0.000000  0.000000  0.500000  1
  Sn  Sn29  1  0.500000  0.000000  0.500000  1
  Sn  Sn30  1  0.000000  0.500000  0.500000  1
  Sn  Sn31  1  0.500000  0.500000  0.500000  1
  La  La32  1  0.750000  0.715349  0.226741  1
  La  La33  1  0.250000  0.284651  0.773259  1
  La  La34  1  0.750000  0.203048  0.245546  1
  La  La35  1  0.250000  0.796952  0.754454  1
  La  La36  1  0.750000  0.229264  0.806215  1
  La  La37  1  0.250000  0.770736  0.193785  1
  La  La38  1  0.750000  0.714478  0.789503  1
  La  La39  1  0.250000  0.285522  0.210497  1
