# generated using pymatgen
data_TeMoWSeS2
_symmetry_space_group_name_H-M   'P 1'
_cell_length_a   3.31094156
_cell_length_b   3.31095823
_cell_length_c   37.78488551
_cell_angle_alpha   90.00167604
_cell_angle_beta   90.00000000
_cell_angle_gamma   119.99983345
_symmetry_Int_Tables_number   1
_chemical_formula_structural   TeMoWSeS2
_chemical_formula_sum   'Te2 Mo2 W2 Se2 S4'
_cell_volume   358.71925424
_cell_formula_units_Z   2
loop_
 _symmetry_equiv_pos_site_id
 _symmetry_equiv_pos_as_xyz
  1  'x, y, z'
loop_
 _atom_site_type_symbol
 _atom_site_label
 _atom_site_symmetry_multiplicity
 _atom_site_fract_x
 _atom_site_fract_y
 _atom_site_fract_z
 _atom_site_occupancy
  Te  Te0  1  0.333347  0.666695  0.708665  1
  Te  Te1  1  0.333353  0.666706  0.606925  1
  Mo  Mo2  1  0.333296  0.666591  0.093921  1
  Mo  Mo3  1  0.666671  0.333342  0.281798  1
  W  W4  1  0.333328  0.666657  0.469396  1
  W  W5  1  0.666679  0.333357  0.657797  1
  Se  Se6  1  0.666655  0.333309  0.424819  1
  Se  Se7  1  0.666663  0.333325  0.514087  1
  S  S8  1  0.333353  0.666707  0.322211  1
  S  S9  1  0.666646  0.333290  0.053478  1
  S  S10  1  0.666651  0.333300  0.134315  1
  S  S11  1  0.333360  0.666721  0.241336  1
