# generated using pymatgen
data_CsCa10(PO4)7
_symmetry_space_group_name_H-M   'P 1'
_cell_length_a   10.68431148
_cell_length_b   10.68431121
_cell_length_c   13.93751693
_cell_angle_alpha   67.46154304
_cell_angle_beta   67.46154283
_cell_angle_gamma   60.00055460
_symmetry_Int_Tables_number   1
_chemical_formula_structural   CsCa10(PO4)7
_chemical_formula_sum   'Cs2 Ca20 P14 O56'
_cell_volume   1235.57046431
_cell_formula_units_Z   2
loop_
 _symmetry_equiv_pos_site_id
 _symmetry_equiv_pos_as_xyz
  1  'x, y, z'
loop_
 _atom_site_type_symbol
 _atom_site_label
 _atom_site_symmetry_multiplicity
 _atom_site_fract_x
 _atom_site_fract_y
 _atom_site_fract_z
 _atom_site_occupancy
  Cs  Cs0  1  0.666285  0.666273  0.001153  1
  Cs  Cs1  1  0.166273  0.166285  0.501153  1
  Ca  Ca2  1  0.986788  0.986785  0.039643  1
  Ca  Ca3  1  0.486785  0.486788  0.539643  1
  Ca  Ca4  1  0.060899  0.049128  0.245352  1
  Ca  Ca5  1  0.644622  0.060900  0.245354  1
  Ca  Ca6  1  0.049132  0.644621  0.245351  1
  Ca  Ca7  1  0.549128  0.560899  0.745352  1
  Ca  Ca8  1  0.144621  0.549132  0.745351  1
  Ca  Ca9  1  0.560900  0.144622  0.745354  1
  Ca  Ca10  1  0.401041  0.830075  0.336990  1
  Ca  Ca11  1  0.431908  0.401029  0.336992  1
  Ca  Ca12  1  0.830079  0.431898  0.336993  1
  Ca  Ca13  1  0.330075  0.901042  0.836990  1
  Ca  Ca14  1  0.931898  0.330079  0.836993  1
  Ca  Ca15  1  0.901029  0.931908  0.836992  1
  Ca  Ca16  1  0.453156  0.054595  0.061627  1
  Ca  Ca17  1  0.430628  0.453160  0.061626  1
  Ca  Ca18  1  0.054595  0.430626  0.061630  1
  Ca  Ca19  1  0.554595  0.953156  0.561627  1
  Ca  Ca20  1  0.930626  0.554595  0.561630  1
  Ca  Ca21  1  0.953160  0.930628  0.561626  1
  P  P22  1  0.255808  0.255799  0.232592  1
  P  P23  1  0.755799  0.755808  0.732592  1
  P  P24  1  0.173464  0.673096  0.442127  1
  P  P25  1  0.711309  0.173466  0.442139  1
  P  P26  1  0.673104  0.711302  0.442135  1
  P  P27  1  0.173096  0.673464  0.942127  1
  P  P28  1  0.211302  0.173104  0.942135  1
  P  P29  1  0.673466  0.211309  0.942139  1
  P  P30  1  0.298505  0.764407  0.136411  1
  P  P31  1  0.800690  0.298482  0.136420  1
  P  P32  1  0.764393  0.800695  0.136430  1
  P  P33  1  0.264407  0.798505  0.636411  1
  P  P34  1  0.300695  0.264393  0.636430  1
  P  P35  1  0.798482  0.300690  0.636420  1
  O  O36  1  0.297513  0.297519  0.107477  1
  O  O37  1  0.797519  0.797513  0.607477  1
  O  O38  1  0.256654  0.097572  0.271255  1
  O  O39  1  0.374511  0.256636  0.271274  1
  O  O40  1  0.097576  0.374495  0.271276  1
  O  O41  1  0.597572  0.756654  0.771255  1
  O  O42  1  0.874495  0.597576  0.771276  1
  O  O43  1  0.756636  0.874511  0.771274  1
  O  O44  1  0.347273  0.608108  0.410903  1
  O  O45  1  0.633715  0.347276  0.410907  1
  O  O46  1  0.608106  0.633719  0.410902  1
  O  O47  1  0.108108  0.847273  0.910903  1
  O  O48  1  0.133719  0.108106  0.910902  1
  O  O49  1  0.847276  0.133715  0.910907  1
  O  O50  1  0.125215  0.587385  0.404656  1
  O  O51  1  0.882735  0.125216  0.404681  1
  O  O52  1  0.587395  0.882732  0.404670  1
  O  O53  1  0.087385  0.625215  0.904656  1
  O  O54  1  0.382732  0.087395  0.904670  1
  O  O55  1  0.625216  0.382735  0.904681  1
  O  O56  1  0.109492  0.650784  0.565154  1
  O  O57  1  0.674525  0.109494  0.565160  1
  O  O58  1  0.650814  0.674533  0.565156  1
  O  O59  1  0.150784  0.609492  0.065154  1
  O  O60  1  0.174533  0.150814  0.065156  1
  O  O61  1  0.609494  0.174525  0.065160  1
  O  O62  1  0.113235  0.842903  0.391828  1
  O  O63  1  0.652044  0.113247  0.391817  1
  O  O64  1  0.842910  0.652024  0.391823  1
  O  O65  1  0.342903  0.613235  0.891828  1
  O  O66  1  0.152024  0.342910  0.891823  1
  O  O67  1  0.613247  0.152044  0.891817  1
  O  O68  1  0.332093  0.596285  0.192960  1
  O  O69  1  0.878676  0.332065  0.192966  1
  O  O70  1  0.596270  0.878684  0.192971  1
  O  O71  1  0.096285  0.832093  0.692960  1
  O  O72  1  0.378684  0.096270  0.692971  1
  O  O73  1  0.832065  0.378676  0.692966  1
  O  O74  1  0.124688  0.850300  0.168193  1
  O  O75  1  0.856833  0.124663  0.168204  1
  O  O76  1  0.850283  0.856830  0.168219  1
  O  O77  1  0.350300  0.624688  0.668193  1
  O  O78  1  0.356830  0.350283  0.668219  1
  O  O79  1  0.624663  0.356833  0.668204  1
  O  O80  1  0.368380  0.830070  0.173231  1
  O  O81  1  0.628332  0.368352  0.173243  1
  O  O82  1  0.830043  0.628335  0.173248  1
  O  O83  1  0.330070  0.868380  0.673231  1
  O  O84  1  0.128335  0.330043  0.673248  1
  O  O85  1  0.868352  0.128332  0.673243  1
  O  O86  1  0.354865  0.776080  0.014887  1
  O  O87  1  0.854178  0.354844  0.014894  1
  O  O88  1  0.776080  0.854189  0.014901  1
  O  O89  1  0.276080  0.854865  0.514887  1
  O  O90  1  0.354189  0.276080  0.514901  1
  O  O91  1  0.854844  0.354178  0.514894  1
