# generated using pymatgen
data_Ba3MgSb2O9
_symmetry_space_group_name_H-M   'P 1'
_cell_length_a   5.93388619
_cell_length_b   5.93388618
_cell_length_c   14.65841752
_cell_angle_alpha   90.00000000
_cell_angle_beta   90.00000000
_cell_angle_gamma   119.99999998
_symmetry_Int_Tables_number   1
_chemical_formula_structural   Ba3MgSb2O9
_chemical_formula_sum   'Ba6 Mg2 Sb4 O18'
_cell_volume   446.98828804
_cell_formula_units_Z   2
loop_
 _symmetry_equiv_pos_site_id
 _symmetry_equiv_pos_as_xyz
  1  'x, y, z'
loop_
 _atom_site_type_symbol
 _atom_site_label
 _atom_site_symmetry_multiplicity
 _atom_site_fract_x
 _atom_site_fract_y
 _atom_site_fract_z
 _atom_site_occupancy
  O  O0  1  0.169091  0.830909  0.083694  1
  O  O1  1  0.169091  0.338181  0.083694  1
  O  O2  1  0.661819  0.830909  0.083694  1
  O  O3  1  0.338181  0.169091  0.583694  1
  O  O4  1  0.830909  0.661819  0.916306  1
  O  O5  1  0.830909  0.169091  0.583694  1
  O  O6  1  0.830909  0.661819  0.583694  1
  O  O7  1  0.169091  0.830909  0.416306  1
  O  O8  1  0.661819  0.830909  0.416306  1
  O  O9  1  0.338181  0.169091  0.916306  1
  O  O10  1  0.830909  0.169091  0.916306  1
  O  O11  1  0.169091  0.338181  0.416306  1
  O  O12  1  0.481675  0.963349  0.250000  1
  O  O13  1  0.518325  0.481675  0.750000  1
  O  O14  1  0.963349  0.481675  0.750000  1
  O  O15  1  0.036651  0.518325  0.250000  1
  O  O16  1  0.481675  0.518325  0.250000  1
  O  O17  1  0.518325  0.036651  0.750000  1
  Mg  Mg18  1  0.000000  0.000000  0.000000  1
  Mg  Mg19  1  0.000000  0.000000  0.500000  1
  Sb  Sb20  1  0.666667  0.333333  0.651497  1
  Sb  Sb21  1  0.333333  0.666667  0.151497  1
  Sb  Sb22  1  0.666667  0.333333  0.848503  1
  Sb  Sb23  1  0.333333  0.666667  0.348503  1
  Ba  Ba24  1  0.333333  0.666667  0.587909  1
  Ba  Ba25  1  0.666667  0.333333  0.087909  1
  Ba  Ba26  1  0.666667  0.333333  0.412091  1
  Ba  Ba27  1  0.333333  0.666667  0.912091  1
  Ba  Ba28  1  0.000000  0.000000  0.750000  1
  Ba  Ba29  1  0.000000  0.000000  0.250000  1
