# generated using pymatgen
data_NbSeOF7
_symmetry_space_group_name_H-M   'P 1'
_cell_length_a   7.28815738
_cell_length_b   8.11137572
_cell_length_c   11.41734576
_cell_angle_alpha   90.00000000
_cell_angle_beta   90.00000000
_cell_angle_gamma   90.00000000
_symmetry_Int_Tables_number   1
_chemical_formula_structural   NbSeOF7
_chemical_formula_sum   'Nb4 Se4 O4 F28'
_cell_volume   674.95903309
_cell_formula_units_Z   4
loop_
 _symmetry_equiv_pos_site_id
 _symmetry_equiv_pos_as_xyz
  1  'x, y, z'
loop_
 _atom_site_type_symbol
 _atom_site_label
 _atom_site_symmetry_multiplicity
 _atom_site_fract_x
 _atom_site_fract_y
 _atom_site_fract_z
 _atom_site_occupancy
  O  O0  1  0.487972  0.750000  0.984518  1
  O  O1  1  0.012027  0.750000  0.484517  1
  O  O2  1  0.512027  0.250000  0.015482  1
  O  O3  1  0.987973  0.250000  0.515483  1
  F  F4  1  0.635368  0.750000  0.483216  1
  F  F5  1  0.800106  0.406851  0.095347  1
  F  F6  1  0.300106  0.593150  0.404653  1
  F  F7  1  0.199894  0.906851  0.904653  1
  F  F8  1  0.300106  0.906851  0.404653  1
  F  F9  1  0.800106  0.093150  0.095347  1
  F  F10  1  0.699893  0.406851  0.595347  1
  F  F11  1  0.199894  0.593150  0.904653  1
  F  F12  1  0.864631  0.750000  0.983216  1
  F  F13  1  0.364632  0.250000  0.516784  1
  F  F14  1  0.135368  0.250000  0.016784  1
  F  F15  1  0.699893  0.093150  0.595347  1
  F  F16  1  0.885351  0.750000  0.736298  1
  F  F17  1  0.385351  0.250000  0.763701  1
  F  F18  1  0.114649  0.250000  0.263702  1
  F  F19  1  0.614650  0.750000  0.236299  1
  F  F20  1  0.189508  0.010423  0.637525  1
  F  F21  1  0.999808  0.250000  0.759270  1
  F  F22  1  0.500192  0.250000  0.259269  1
  F  F23  1  0.000191  0.750000  0.240731  1
  F  F24  1  0.689508  0.510422  0.862475  1
  F  F25  1  0.189508  0.489578  0.637525  1
  F  F26  1  0.310491  0.010423  0.137525  1
  F  F27  1  0.810492  0.989578  0.362475  1
  F  F28  1  0.310491  0.489578  0.137525  1
  F  F29  1  0.810492  0.510422  0.362475  1
  F  F30  1  0.689508  0.989578  0.862475  1
  F  F31  1  0.499808  0.750000  0.740731  1
  Se  Se32  1  0.263066  0.750000  0.003212  1
  Se  Se33  1  0.763066  0.250000  0.496788  1
  Se  Se34  1  0.736935  0.250000  0.996788  1
  Se  Se35  1  0.236934  0.750000  0.503212  1
  Nb  Nb36  1  0.698823  0.750000  0.850748  1
  Nb  Nb37  1  0.198823  0.250000  0.649252  1
  Nb  Nb38  1  0.301176  0.250000  0.149252  1
  Nb  Nb39  1  0.801176  0.750000  0.350748  1
