# generated using pymatgen
data_Te4MoW3S4
_symmetry_space_group_name_H-M   'P 1'
_cell_length_a   3.35655281
_cell_length_b   3.35656110
_cell_length_c   38.36234942
_cell_angle_alpha   89.99975851
_cell_angle_beta   90.00000000
_cell_angle_gamma   119.99991842
_symmetry_Int_Tables_number   1
_chemical_formula_structural   Te4MoW3S4
_chemical_formula_sum   'Te4 Mo1 W3 S4'
_cell_volume   374.30379197
_cell_formula_units_Z   1
loop_
 _symmetry_equiv_pos_site_id
 _symmetry_equiv_pos_as_xyz
  1  'x, y, z'
loop_
 _atom_site_type_symbol
 _atom_site_label
 _atom_site_symmetry_multiplicity
 _atom_site_fract_x
 _atom_site_fract_y
 _atom_site_fract_z
 _atom_site_occupancy
  Te  Te0  1  0.333352  0.666705  0.331088  1
  Te  Te1  1  0.333360  0.666721  0.707143  1
  Te  Te2  1  0.333353  0.666707  0.232512  1
  Te  Te3  1  0.333357  0.666715  0.607938  1
  Mo  Mo4  1  0.666689  0.333379  0.281792  1
  W  W5  1  0.333309  0.666619  0.093918  1
  W  W6  1  0.333311  0.666622  0.469655  1
  W  W7  1  0.666691  0.333382  0.657545  1
  S  S8  1  0.666642  0.333283  0.054319  1
  S  S9  1  0.666646  0.333292  0.430054  1
  S  S10  1  0.666645  0.333289  0.133533  1
  S  S11  1  0.666644  0.333288  0.509252  1
