# generated using pymatgen
data_Er3Ge4
_symmetry_space_group_name_H-M   'P 1'
_cell_length_a   4.03572210
_cell_length_b   5.68019393
_cell_length_c   14.22629435
_cell_angle_alpha   90.00000000
_cell_angle_beta   90.00000000
_cell_angle_gamma   110.80846662
_symmetry_Int_Tables_number   1
_chemical_formula_structural   Er3Ge4
_chemical_formula_sum   'Er6 Ge8'
_cell_volume   304.84737207
_cell_formula_units_Z   2
loop_
 _symmetry_equiv_pos_site_id
 _symmetry_equiv_pos_as_xyz
  1  'x, y, z'
loop_
 _atom_site_type_symbol
 _atom_site_label
 _atom_site_symmetry_multiplicity
 _atom_site_fract_x
 _atom_site_fract_y
 _atom_site_fract_z
 _atom_site_occupancy
  Ge  Ge0  1  0.379522  0.759045  0.391626  1
  Ge  Ge1  1  0.620478  0.240955  0.608374  1
  Ge  Ge2  1  0.620478  0.240955  0.891626  1
  Ge  Ge3  1  0.379522  0.759045  0.108374  1
  Ge  Ge4  1  0.223080  0.446160  0.250000  1
  Ge  Ge5  1  0.776920  0.553840  0.750000  1
  Ge  Ge6  1  0.000000  0.000000  0.000000  1
  Ge  Ge7  1  0.000000  0.000000  0.500000  1
  Er  Er8  1  0.330846  0.661692  0.596854  1
  Er  Er9  1  0.669154  0.338308  0.403146  1
  Er  Er10  1  0.669154  0.338308  0.096854  1
  Er  Er11  1  0.330846  0.661692  0.903146  1
  Er  Er12  1  0.952433  0.904865  0.250000  1
  Er  Er13  1  0.047567  0.095135  0.750000  1
