# generated using pymatgen
data_Rb2MnSO4F3
_symmetry_space_group_name_H-M   'P 1'
_cell_length_a   7.47577484
_cell_length_b   8.94597059
_cell_length_c   11.38050763
_cell_angle_alpha   90.00000000
_cell_angle_beta   90.00000000
_cell_angle_gamma   92.52835963
_symmetry_Int_Tables_number   1
_chemical_formula_structural   Rb2MnSO4F3
_chemical_formula_sum   'Rb8 Mn4 S4 O16 F12'
_cell_volume   760.36536372
_cell_formula_units_Z   4
loop_
 _symmetry_equiv_pos_site_id
 _symmetry_equiv_pos_as_xyz
  1  'x, y, z'
loop_
 _atom_site_type_symbol
 _atom_site_label
 _atom_site_symmetry_multiplicity
 _atom_site_fract_x
 _atom_site_fract_y
 _atom_site_fract_z
 _atom_site_occupancy
  O  O0  1  0.179811  0.106164  0.596878  1
  O  O1  1  0.820189  0.393836  0.096878  1
  O  O2  1  0.820189  0.893837  0.403122  1
  O  O3  1  0.179811  0.606164  0.903122  1
  O  O4  1  0.337717  0.107907  0.407485  1
  O  O5  1  0.662283  0.392093  0.907485  1
  O  O6  1  0.662283  0.892093  0.592515  1
  O  O7  1  0.337717  0.607907  0.092515  1
  O  O8  1  0.394987  0.305262  0.554768  1
  O  O9  1  0.605013  0.194738  0.054768  1
  O  O10  1  0.605013  0.694738  0.445231  1
  O  O11  1  0.394987  0.805262  0.945231  1
  O  O12  1  0.889213  0.212472  0.944174  1
  O  O13  1  0.889213  0.712471  0.555826  1
  O  O14  1  0.110787  0.787529  0.055826  1
  O  O15  1  0.110787  0.287528  0.444174  1
  F  F16  1  0.520788  0.554991  0.658641  1
  F  F17  1  0.479211  0.945009  0.158641  1
  F  F18  1  0.479211  0.445009  0.341359  1
  F  F19  1  0.520789  0.054991  0.841359  1
  F  F20  1  0.023090  0.953900  0.840810  1
  F  F21  1  0.976910  0.546101  0.340810  1
  F  F22  1  0.763682  0.398817  0.501244  1
  F  F23  1  0.023090  0.453899  0.659190  1
  F  F24  1  0.763682  0.898818  0.998756  1
  F  F25  1  0.236318  0.601182  0.498756  1
  F  F26  1  0.236318  0.101182  0.001244  1
  F  F27  1  0.976910  0.046101  0.159190  1
  S  S28  1  0.252997  0.196794  0.498802  1
  S  S29  1  0.747003  0.303206  0.998802  1
  S  S30  1  0.747003  0.803207  0.501198  1
  S  S31  1  0.252997  0.696793  0.001198  1
  Mn  Mn32  1  0.000000  0.500000  0.500000  1
  Mn  Mn33  1  0.000000  0.000000  0.000000  1
  Mn  Mn34  1  0.500000  0.500000  0.500000  1
  Mn  Mn35  1  0.500000  0.000000  0.000000  1
  Rb  Rb36  1  0.300036  0.327684  0.808887  1
  Rb  Rb37  1  0.699963  0.172316  0.308887  1
  Rb  Rb38  1  0.699963  0.672316  0.191113  1
  Rb  Rb39  1  0.300036  0.827684  0.691113  1
  Rb  Rb40  1  0.806959  0.167574  0.690475  1
  Rb  Rb41  1  0.193041  0.332426  0.190475  1
  Rb  Rb42  1  0.193041  0.832426  0.309525  1
  Rb  Rb43  1  0.806959  0.667574  0.809524  1
