# generated using pymatgen
data_MoWSe3S
_symmetry_space_group_name_H-M   'P 1'
_cell_length_a   3.29318783
_cell_length_b   3.29318759
_cell_length_c   37.39409132
_cell_angle_alpha   89.99793144
_cell_angle_beta   90.00000000
_cell_angle_gamma   120.00000227
_symmetry_Int_Tables_number   1
_chemical_formula_structural   MoWSe3S
_chemical_formula_sum   'Mo2 W2 Se6 S2'
_cell_volume   351.20976149
_cell_formula_units_Z   2
loop_
 _symmetry_equiv_pos_site_id
 _symmetry_equiv_pos_as_xyz
  1  'x, y, z'
loop_
 _atom_site_type_symbol
 _atom_site_label
 _atom_site_symmetry_multiplicity
 _atom_site_fract_x
 _atom_site_fract_y
 _atom_site_fract_z
 _atom_site_occupancy
  Mo  Mo0  1  0.333309  0.666619  0.093909  1
  Mo  Mo1  1  0.333308  0.666616  0.469667  1
  W  W2  1  0.666685  0.333371  0.281769  1
  W  W3  1  0.666687  0.333373  0.657571  1
  Se  Se4  1  0.333349  0.666698  0.327074  1
  Se  Se5  1  0.333394  0.666790  0.702861  1
  Se  Se6  1  0.666648  0.333295  0.424603  1
  Se  Se7  1  0.666632  0.333263  0.514713  1
  Se  Se8  1  0.333348  0.666697  0.236494  1
  Se  Se9  1  0.333350  0.666701  0.612260  1
  S  S10  1  0.666645  0.333289  0.052908  1
  S  S11  1  0.666645  0.333289  0.134918  1
