# generated using pymatgen
data_PrVO4
_symmetry_space_group_name_H-M   'P 1'
_cell_length_a   6.22082913
_cell_length_b   6.22082913
_cell_length_c   6.22082913
_cell_angle_alpha   106.04202439
_cell_angle_beta   106.04202438
_cell_angle_gamma   116.57156863
_symmetry_Int_Tables_number   1
_chemical_formula_structural   PrVO4
_chemical_formula_sum   'Pr2 V2 O8'
_cell_volume   183.16044526
_cell_formula_units_Z   2
loop_
 _symmetry_equiv_pos_site_id
 _symmetry_equiv_pos_as_xyz
  1  'x, y, z'
loop_
 _atom_site_type_symbol
 _atom_site_label
 _atom_site_symmetry_multiplicity
 _atom_site_fract_x
 _atom_site_fract_y
 _atom_site_fract_z
 _atom_site_occupancy
  O  O0  1  0.794984  0.365588  0.070604  1
  O  O1  1  0.794983  0.724379  0.429395  1
  O  O2  1  0.634412  0.205016  0.429396  1
  O  O3  1  0.205016  0.275619  0.570604  1
  O  O4  1  0.205016  0.634413  0.929396  1
  O  O5  1  0.275620  0.205016  0.070603  1
  O  O6  1  0.365588  0.794985  0.570603  1
  O  O7  1  0.724380  0.794985  0.929396  1
  V  V8  1  0.625000  0.375000  0.250000  1
  V  V9  1  0.375000  0.625001  0.750000  1
  Pr  Pr10  1  0.875000  0.125001  0.749999  1
  Pr  Pr11  1  0.125000  0.875000  0.250000  1
