# generated using pymatgen
data_Sr
_symmetry_space_group_name_H-M   'P 1'
_cell_length_a   3.99898895
_cell_length_b   5.63626839
_cell_length_c   5.63626839
_cell_angle_alpha   82.76235144
_cell_angle_beta   69.22156934
_cell_angle_gamma   69.22156949
_symmetry_Int_Tables_number   1
_chemical_formula_structural   Sr
_chemical_formula_sum   Sr2
_cell_volume   111.05009494
_cell_formula_units_Z   2
loop_
 _symmetry_equiv_pos_site_id
 _symmetry_equiv_pos_as_xyz
  1  'x, y, z'
loop_
 _atom_site_type_symbol
 _atom_site_label
 _atom_site_symmetry_multiplicity
 _atom_site_fract_x
 _atom_site_fract_y
 _atom_site_fract_z
 _atom_site_occupancy
  Sr  Sr0  1  0.624891  0.250000  0.250000  1
  Sr  Sr1  1  0.375109  0.750000  0.750000  1
