# generated using pymatgen
data_Te4MoW3(SeS)2
_symmetry_space_group_name_H-M   'P 1'
_cell_length_a   3.40211394
_cell_length_b   3.40201956
_cell_length_c   40.09765192
_cell_angle_alpha   89.99854681
_cell_angle_beta   90.00000000
_cell_angle_gamma   120.00091769
_symmetry_Int_Tables_number   1
_chemical_formula_structural   Te4MoW3(SeS)2
_chemical_formula_sum   'Te4 Mo1 W3 Se2 S2'
_cell_volume   401.91222650
_cell_formula_units_Z   1
loop_
 _symmetry_equiv_pos_site_id
 _symmetry_equiv_pos_as_xyz
  1  'x, y, z'
loop_
 _atom_site_type_symbol
 _atom_site_label
 _atom_site_symmetry_multiplicity
 _atom_site_fract_x
 _atom_site_fract_y
 _atom_site_fract_z
 _atom_site_occupancy
  Te  Te0  1  0.333296  0.666593  0.327761  1
  Te  Te1  1  0.666665  0.333328  0.423903  1
  Te  Te2  1  0.666654  0.333307  0.517745  1
  Te  Te3  1  0.333357  0.666716  0.233883  1
  Mo  Mo4  1  0.333306  0.666612  0.093685  1
  W  W5  1  0.333307  0.666615  0.470814  1
  W  W6  1  0.666661  0.333322  0.280864  1
  W  W7  1  0.666709  0.333417  0.657581  1
  Se  Se8  1  0.666680  0.333360  0.052600  1
  Se  Se9  1  0.666622  0.333244  0.134698  1
  S  S10  1  0.333375  0.666751  0.695137  1
  S  S11  1  0.333367  0.666736  0.620077  1
