# generated using pymatgen
data_RbEuPO4
_symmetry_space_group_name_H-M   'P 1'
_cell_length_a   5.52971951
_cell_length_b   7.70994489
_cell_length_c   10.42869783
_cell_angle_alpha   90.00000000
_cell_angle_beta   90.00000000
_cell_angle_gamma   90.00000000
_symmetry_Int_Tables_number   1
_chemical_formula_structural   RbEuPO4
_chemical_formula_sum   'Rb4 Eu4 P4 O16'
_cell_volume   444.61535835
_cell_formula_units_Z   4
loop_
 _symmetry_equiv_pos_site_id
 _symmetry_equiv_pos_as_xyz
  1  'x, y, z'
loop_
 _atom_site_type_symbol
 _atom_site_label
 _atom_site_symmetry_multiplicity
 _atom_site_fract_x
 _atom_site_fract_y
 _atom_site_fract_z
 _atom_site_occupancy
  O  O0  1  0.250000  0.793363  0.472748  1
  O  O1  1  0.750000  0.206637  0.527252  1
  O  O2  1  0.250000  0.293363  0.027252  1
  O  O3  1  0.750000  0.706637  0.972748  1
  O  O4  1  0.250000  0.502860  0.582607  1
  O  O5  1  0.750000  0.497140  0.417393  1
  O  O6  1  0.250000  0.002860  0.917393  1
  O  O7  1  0.750000  0.997140  0.082607  1
  O  O8  1  0.016907  0.252788  0.817050  1
  O  O9  1  0.516907  0.747212  0.182950  1
  O  O10  1  0.483093  0.752788  0.682950  1
  O  O11  1  0.983093  0.247212  0.317050  1
  O  O12  1  0.016907  0.752788  0.682950  1
  O  O13  1  0.516907  0.247212  0.317050  1
  O  O14  1  0.483093  0.252788  0.817050  1
  O  O15  1  0.983093  0.747212  0.182950  1
  P  P16  1  0.250000  0.202826  0.893144  1
  P  P17  1  0.750000  0.797174  0.106856  1
  P  P18  1  0.750000  0.297174  0.393144  1
  P  P19  1  0.250000  0.702826  0.606856  1
  Rb  Rb20  1  0.250000  0.642292  0.930740  1
  Rb  Rb21  1  0.250000  0.142292  0.569260  1
  Rb  Rb22  1  0.750000  0.357708  0.069260  1
  Rb  Rb23  1  0.750000  0.857708  0.430740  1
  Eu  Eu24  1  0.250000  0.534131  0.326344  1
  Eu  Eu25  1  0.750000  0.465869  0.673655  1
  Eu  Eu26  1  0.250000  0.034131  0.173655  1
  Eu  Eu27  1  0.750000  0.965869  0.826345  1
