# generated using pymatgen
data_Li3Nd2(BO3)3
_symmetry_space_group_name_H-M   'P 1'
_cell_length_a   5.84481765
_cell_length_b   8.92125639
_cell_length_c   14.22914747
_cell_angle_alpha   90.00000000
_cell_angle_beta   90.00000000
_cell_angle_gamma   103.95565756
_symmetry_Int_Tables_number   1
_chemical_formula_structural   Li3Nd2(BO3)3
_chemical_formula_sum   'Li12 Nd8 B12 O36'
_cell_volume   720.05164862
_cell_formula_units_Z   4
loop_
 _symmetry_equiv_pos_site_id
 _symmetry_equiv_pos_as_xyz
  1  'x, y, z'
loop_
 _atom_site_type_symbol
 _atom_site_label
 _atom_site_symmetry_multiplicity
 _atom_site_fract_x
 _atom_site_fract_y
 _atom_site_fract_z
 _atom_site_occupancy
  Li  Li0  1  0.070895  0.496881  0.334909  1
  Li  Li1  1  0.840953  0.791471  0.112314  1
  Li  Li2  1  0.659047  0.708529  0.612314  1
  Li  Li3  1  0.159047  0.208529  0.887686  1
  Li  Li4  1  0.340953  0.291471  0.387686  1
  Li  Li5  1  0.570895  0.996881  0.165091  1
  Li  Li6  1  0.929105  0.503119  0.665091  1
  Li  Li7  1  0.429105  0.003119  0.834909  1
  Li  Li8  1  0.708611  0.289744  0.284996  1
  Li  Li9  1  0.791389  0.210256  0.784996  1
  Li  Li10  1  0.291389  0.710256  0.715004  1
  Li  Li11  1  0.208611  0.789744  0.215004  1
  B  B12  1  0.750487  0.013524  0.984522  1
  B  B13  1  0.404151  0.517994  0.176875  1
  B  B14  1  0.095849  0.982006  0.676875  1
  B  B15  1  0.595849  0.482006  0.823125  1
  B  B16  1  0.904151  0.017994  0.323125  1
  B  B17  1  0.749513  0.486476  0.484522  1
  B  B18  1  0.250487  0.513524  0.515478  1
  B  B19  1  0.249513  0.986476  0.015478  1
  B  B20  1  0.912720  0.528191  0.163204  1
  B  B21  1  0.587280  0.971809  0.663204  1
  B  B22  1  0.087280  0.471809  0.836796  1
  B  B23  1  0.412720  0.028191  0.336796  1
  O  O24  1  0.226997  0.919965  0.103543  1
  O  O25  1  0.195583  0.353680  0.507344  1
  O  O26  1  0.695583  0.853680  0.992656  1
  O  O27  1  0.804417  0.646320  0.492656  1
  O  O28  1  0.726997  0.419965  0.396457  1
  O  O29  1  0.304417  0.146320  0.007344  1
  O  O30  1  0.773003  0.080035  0.896457  1
  O  O31  1  0.273003  0.580035  0.603543  1
  O  O32  1  0.864439  0.368295  0.168193  1
  O  O33  1  0.635561  0.131705  0.668193  1
  O  O34  1  0.135561  0.631705  0.831807  1
  O  O35  1  0.364439  0.868295  0.331807  1
  O  O36  1  0.931289  0.593232  0.074031  1
  O  O37  1  0.568711  0.906768  0.574031  1
  O  O38  1  0.068711  0.406768  0.925969  1
  O  O39  1  0.431289  0.093232  0.425969  1
  O  O40  1  0.936619  0.621262  0.242046  1
  O  O41  1  0.563381  0.878738  0.742046  1
  O  O42  1  0.063381  0.378738  0.757954  1
  O  O43  1  0.436619  0.121262  0.257954  1
  O  O44  1  0.388583  0.430760  0.094830  1
  O  O45  1  0.111417  0.069240  0.594830  1
  O  O46  1  0.611417  0.569240  0.905170  1
  O  O47  1  0.888583  0.930760  0.405170  1
  O  O48  1  0.350758  0.445798  0.262536  1
  O  O49  1  0.149242  0.054202  0.762536  1
  O  O50  1  0.649242  0.554202  0.737464  1
  O  O51  1  0.284324  0.606522  0.435818  1
  O  O52  1  0.465212  0.678096  0.169128  1
  O  O53  1  0.034788  0.821904  0.669128  1
  O  O54  1  0.534788  0.321904  0.830872  1
  O  O55  1  0.965212  0.178096  0.330872  1
  O  O56  1  0.784324  0.106522  0.064182  1
  O  O57  1  0.715676  0.393478  0.564182  1
  O  O58  1  0.215676  0.893478  0.935818  1
  O  O59  1  0.850758  0.945798  0.237464  1
  Nd  Nd60  1  0.188182  0.841412  0.496794  1
  Nd  Nd61  1  0.311818  0.658588  0.996794  1
  Nd  Nd62  1  0.811818  0.158588  0.503206  1
  Nd  Nd63  1  0.688182  0.341412  0.003206  1
  Nd  Nd64  1  0.633374  0.692359  0.336278  1
  Nd  Nd65  1  0.866626  0.807641  0.836278  1
  Nd  Nd66  1  0.366626  0.307641  0.663722  1
  Nd  Nd67  1  0.133374  0.192359  0.163722  1
