# generated using pymatgen
data_Li(CN)2
_symmetry_space_group_name_H-M   'P 1'
_cell_length_a   3.47650772
_cell_length_b   6.28324858
_cell_length_c   6.28325017
_cell_angle_alpha   105.89639920
_cell_angle_beta   95.82340933
_cell_angle_gamma   95.82345591
_symmetry_Int_Tables_number   1
_chemical_formula_structural   Li(CN)2
_chemical_formula_sum   'Li2 C4 N4'
_cell_volume   130.11619466
_cell_formula_units_Z   2
loop_
 _symmetry_equiv_pos_site_id
 _symmetry_equiv_pos_as_xyz
  1  'x, y, z'
loop_
 _atom_site_type_symbol
 _atom_site_label
 _atom_site_symmetry_multiplicity
 _atom_site_fract_x
 _atom_site_fract_y
 _atom_site_fract_z
 _atom_site_occupancy
  Li  Li0  1  0.500000  0.360162  0.639838  1
  Li  Li1  1  0.500000  0.639838  0.360162  1
  C  C2  1  1.000000  0.117289  0.882711  1
  C  C3  1  0.189619  0.143559  0.143558  1
  C  C4  1  0.000000  0.882710  0.117290  1
  C  C5  1  0.810380  0.856440  0.856440  1
  N  N6  1  0.645142  0.703513  0.703514  1
  N  N7  1  1.000000  0.762714  0.237287  1
  N  N8  1  0.000000  0.237287  0.762713  1
  N  N9  1  0.354860  0.296488  0.296488  1
