# generated using pymatgen
data_Cu8SiS6
_symmetry_space_group_name_H-M   'P 1'
_cell_length_a   6.89228363
_cell_length_b   7.00637327
_cell_length_c   9.67039345
_cell_angle_alpha   90.00000000
_cell_angle_beta   90.00000000
_cell_angle_gamma   90.00000000
_symmetry_Int_Tables_number   1
_chemical_formula_structural   Cu8SiS6
_chemical_formula_sum   'Si2 Cu16 S12'
_cell_volume   466.98244672
_cell_formula_units_Z   2
loop_
 _symmetry_equiv_pos_site_id
 _symmetry_equiv_pos_as_xyz
  1  'x, y, z'
loop_
 _atom_site_type_symbol
 _atom_site_label
 _atom_site_symmetry_multiplicity
 _atom_site_fract_x
 _atom_site_fract_y
 _atom_site_fract_z
 _atom_site_occupancy
  Si  Si0  1  0.748867  0.000000  0.489258  1
  Si  Si1  1  0.251133  0.500000  0.989258  1
  S  S2  1  0.787157  0.500000  0.255316  1
  S  S3  1  0.212843  0.000000  0.755316  1
  S  S4  1  0.494380  0.500000  0.856172  1
  S  S5  1  0.505620  0.000000  0.356172  1
  S  S6  1  0.004386  0.500000  0.854342  1
  S  S7  1  0.995614  0.000000  0.354342  1
  S  S8  1  0.245649  0.245385  0.108131  1
  S  S9  1  0.754351  0.254615  0.608131  1
  S  S10  1  0.754351  0.745385  0.608131  1
  S  S11  1  0.245649  0.754615  0.108131  1
  S  S12  1  0.728923  0.000000  0.999712  1
  S  S13  1  0.271077  0.500000  0.499712  1
  Cu  Cu14  1  0.273345  0.000000  0.522749  1
  Cu  Cu15  1  0.726655  0.500000  0.022749  1
  Cu  Cu16  1  0.604161  0.500000  0.468260  1
  Cu  Cu17  1  0.395839  0.000000  0.968260  1
  Cu  Cu18  1  0.845667  0.209142  0.847439  1
  Cu  Cu19  1  0.154333  0.290858  0.347439  1
  Cu  Cu20  1  0.154333  0.709142  0.347439  1
  Cu  Cu21  1  0.845667  0.790858  0.847439  1
  Cu  Cu22  1  0.888456  0.207365  0.145732  1
  Cu  Cu23  1  0.111544  0.292635  0.645732  1
  Cu  Cu24  1  0.111544  0.707365  0.645732  1
  Cu  Cu25  1  0.888456  0.792635  0.145732  1
  Cu  Cu26  1  0.475225  0.202665  0.740243  1
  Cu  Cu27  1  0.524775  0.297335  0.240243  1
  Cu  Cu28  1  0.524775  0.702666  0.240243  1
  Cu  Cu29  1  0.475225  0.797334  0.740243  1
