# generated using pymatgen
data_TeMoWSeS2
_symmetry_space_group_name_H-M   'P 1'
_cell_length_a   3.30390053
_cell_length_b   3.30389381
_cell_length_c   37.62313273
_cell_angle_alpha   89.99971909
_cell_angle_beta   90.00000000
_cell_angle_gamma   120.00006737
_symmetry_Int_Tables_number   1
_chemical_formula_structural   TeMoWSeS2
_chemical_formula_sum   'Te2 Mo2 W2 Se2 S4'
_cell_volume   355.66271196
_cell_formula_units_Z   2
loop_
 _symmetry_equiv_pos_site_id
 _symmetry_equiv_pos_as_xyz
  1  'x, y, z'
loop_
 _atom_site_type_symbol
 _atom_site_label
 _atom_site_symmetry_multiplicity
 _atom_site_fract_x
 _atom_site_fract_y
 _atom_site_fract_z
 _atom_site_occupancy
  Te  Te0  1  0.666648  0.333295  0.418866  1
  Te  Te1  1  0.666646  0.333292  0.520437  1
  Mo  Mo2  1  0.333309  0.666617  0.093927  1
  Mo  Mo3  1  0.333310  0.666620  0.469664  1
  W  W4  1  0.666692  0.333384  0.281779  1
  W  W5  1  0.666688  0.333376  0.657571  1
  Se  Se6  1  0.666647  0.333292  0.049296  1
  Se  Se7  1  0.666646  0.333291  0.138553  1
  S  S8  1  0.333352  0.666705  0.322557  1
  S  S9  1  0.333352  0.666705  0.698340  1
  S  S10  1  0.333358  0.666717  0.240998  1
  S  S11  1  0.333352  0.666706  0.616760  1
