# generated using pymatgen
data_KNa4GaO4
_symmetry_space_group_name_H-M   'P 1'
_cell_length_a   6.03818469
_cell_length_b   10.66154191
_cell_length_c   18.91911015
_cell_angle_alpha   90.00000000
_cell_angle_beta   90.00000000
_cell_angle_gamma   90.00000000
_symmetry_Int_Tables_number   1
_chemical_formula_structural   KNa4GaO4
_chemical_formula_sum   'K8 Na32 Ga8 O32'
_cell_volume   1217.94342949
_cell_formula_units_Z   8
loop_
 _symmetry_equiv_pos_site_id
 _symmetry_equiv_pos_as_xyz
  1  'x, y, z'
loop_
 _atom_site_type_symbol
 _atom_site_label
 _atom_site_symmetry_multiplicity
 _atom_site_fract_x
 _atom_site_fract_y
 _atom_site_fract_z
 _atom_site_occupancy
  O  O0  1  0.290889  0.129042  0.709533  1
  O  O1  1  0.790889  0.870958  0.790467  1
  O  O2  1  0.209111  0.629042  0.290467  1
  O  O3  1  0.709111  0.370958  0.209533  1
  O  O4  1  0.709111  0.870958  0.290467  1
  O  O5  1  0.209111  0.129042  0.209533  1
  O  O6  1  0.790889  0.370958  0.709533  1
  O  O7  1  0.290889  0.629042  0.790467  1
  O  O8  1  0.701689  0.632168  0.136002  1
  O  O9  1  0.201689  0.367832  0.363998  1
  O  O10  1  0.201689  0.867832  0.136002  1
  O  O11  1  0.701689  0.132168  0.363998  1
  O  O12  1  0.298311  0.367832  0.863998  1
  O  O13  1  0.798311  0.632168  0.636002  1
  O  O14  1  0.387703  0.464272  0.626012  1
  O  O15  1  0.887703  0.535728  0.873988  1
  O  O16  1  0.112297  0.964272  0.373988  1
  O  O17  1  0.612297  0.035728  0.126012  1
  O  O18  1  0.612297  0.535728  0.373988  1
  O  O19  1  0.112297  0.464272  0.126012  1
  O  O20  1  0.798311  0.132168  0.863998  1
  O  O21  1  0.887703  0.035728  0.626012  1
  O  O22  1  0.387703  0.964272  0.873988  1
  O  O23  1  0.334001  0.614217  0.950703  1
  O  O24  1  0.834001  0.385783  0.549297  1
  O  O25  1  0.165999  0.114217  0.049297  1
  O  O26  1  0.665999  0.885783  0.450703  1
  O  O27  1  0.665999  0.385783  0.049297  1
  O  O28  1  0.165999  0.614217  0.450703  1
  O  O29  1  0.834001  0.885783  0.950703  1
  O  O30  1  0.334001  0.114217  0.549297  1
  O  O31  1  0.298311  0.867832  0.636002  1
  Na  Na32  1  0.438959  0.929677  0.746917  1
  Na  Na33  1  0.938959  0.070323  0.753083  1
  Na  Na34  1  0.061041  0.429677  0.253083  1
  Na  Na35  1  0.561041  0.570323  0.246917  1
  Na  Na36  1  0.561041  0.070323  0.253083  1
  Na  Na37  1  0.061041  0.929677  0.246917  1
  Na  Na38  1  0.938959  0.570323  0.746917  1
  Na  Na39  1  0.438959  0.429677  0.753083  1
  Na  Na40  1  0.422541  0.676293  0.677559  1
  Na  Na41  1  0.577459  0.823707  0.177559  1
  Na  Na42  1  0.077459  0.176293  0.322441  1
  Na  Na43  1  0.077459  0.676293  0.177559  1
  Na  Na44  1  0.577459  0.323707  0.322441  1
  Na  Na45  1  0.422541  0.176293  0.822441  1
  Na  Na46  1  0.922541  0.823707  0.677559  1
  Na  Na47  1  0.610566  0.194748  0.646816  1
  Na  Na48  1  0.110566  0.805252  0.853184  1
  Na  Na49  1  0.889434  0.694748  0.353184  1
  Na  Na50  1  0.389434  0.805252  0.353184  1
  Na  Na51  1  0.889434  0.194748  0.146816  1
  Na  Na52  1  0.110566  0.305252  0.646816  1
  Na  Na53  1  0.610566  0.694748  0.853184  1
  Na  Na54  1  0.904295  0.445455  0.433273  1
  Na  Na55  1  0.404295  0.554545  0.066727  1
  Na  Na56  1  0.595705  0.945455  0.566727  1
  Na  Na57  1  0.095705  0.054545  0.933273  1
  Na  Na58  1  0.095705  0.554545  0.566727  1
  Na  Na59  1  0.595705  0.445455  0.933273  1
  Na  Na60  1  0.404295  0.054545  0.433273  1
  Na  Na61  1  0.904295  0.945455  0.066727  1
  Na  Na62  1  0.922541  0.323707  0.822441  1
  Na  Na63  1  0.389434  0.305252  0.146816  1
  K  K64  1  0.409734  0.342399  0.497647  1
  K  K65  1  0.909734  0.657601  0.002353  1
  K  K66  1  0.090266  0.842399  0.502353  1
  K  K67  1  0.590266  0.157601  0.997647  1
  K  K68  1  0.590266  0.657601  0.502353  1
  K  K69  1  0.090266  0.342399  0.997647  1
  K  K70  1  0.909734  0.157601  0.497647  1
  K  K71  1  0.409734  0.842399  0.002353  1
  Ga  Ga72  1  0.699792  0.462625  0.628132  1
  Ga  Ga73  1  0.199792  0.537375  0.871868  1
  Ga  Ga74  1  0.800208  0.962625  0.371868  1
  Ga  Ga75  1  0.300208  0.037375  0.128132  1
  Ga  Ga76  1  0.300208  0.537375  0.371868  1
  Ga  Ga77  1  0.800208  0.462625  0.128132  1
  Ga  Ga78  1  0.199792  0.037375  0.628132  1
  Ga  Ga79  1  0.699792  0.962625  0.871868  1
