# generated using pymatgen
data_BaV2(CoO4)2
_symmetry_space_group_name_H-M   'P 1'
_cell_length_a   8.51086739
_cell_length_b   9.91269410
_cell_length_c   9.91269410
_cell_angle_alpha   79.38019806
_cell_angle_beta   64.57740509
_cell_angle_gamma   64.57740507
_symmetry_Int_Tables_number   1
_chemical_formula_structural   BaV2(CoO4)2
_chemical_formula_sum   'Ba4 V8 Co8 O32'
_cell_volume   682.16975369
_cell_formula_units_Z   4
loop_
 _symmetry_equiv_pos_site_id
 _symmetry_equiv_pos_as_xyz
  1  'x, y, z'
loop_
 _atom_site_type_symbol
 _atom_site_label
 _atom_site_symmetry_multiplicity
 _atom_site_fract_x
 _atom_site_fract_y
 _atom_site_fract_z
 _atom_site_occupancy
  O  O0  1  0.349226  0.584923  0.408909  1
  O  O1  1  0.343058  0.915077  0.091091  1
  O  O2  1  0.258134  0.091091  0.584923  1
  O  O3  1  0.934149  0.408909  0.915077  1
  O  O4  1  0.150774  0.091091  0.915077  1
  O  O5  1  0.565851  0.584923  0.091091  1
  O  O6  1  0.241866  0.915077  0.408909  1
  O  O7  1  0.156942  0.408909  0.584923  1
  O  O8  1  0.650774  0.415077  0.591091  1
  O  O9  1  0.656942  0.084923  0.908909  1
  O  O10  1  0.741866  0.908909  0.415077  1
  O  O11  1  0.065851  0.591091  0.084923  1
  O  O12  1  0.849226  0.908909  0.084923  1
  O  O13  1  0.434149  0.415077  0.908909  1
  O  O14  1  0.758134  0.084923  0.591091  1
  O  O15  1  0.843058  0.591091  0.415077  1
  O  O16  1  0.726655  0.230781  0.084933  1
  O  O17  1  0.042368  0.269219  0.415067  1
  O  O18  1  0.311588  0.415067  0.230781  1
  O  O19  1  0.957435  0.084933  0.269219  1
  O  O20  1  0.542368  0.915067  0.769219  1
  O  O21  1  0.811588  0.730781  0.915067  1
  O  O22  1  0.457435  0.769219  0.584933  1
  O  O23  1  0.226655  0.584933  0.730781  1
  O  O24  1  0.042565  0.915067  0.730781  1
  O  O25  1  0.688412  0.584933  0.769219  1
  O  O26  1  0.957632  0.730781  0.584933  1
  O  O27  1  0.273345  0.769219  0.915067  1
  O  O28  1  0.457632  0.084933  0.230781  1
  O  O29  1  0.188412  0.269219  0.084933  1
  O  O30  1  0.542565  0.230781  0.415067  1
  O  O31  1  0.773345  0.415067  0.269219  1
  V  V32  1  0.250000  0.420662  0.079338  1
  V  V33  1  0.329338  0.920662  0.920662  1
  V  V34  1  0.750000  0.579338  0.920662  1
  V  V35  1  0.250000  0.920662  0.579338  1
  V  V36  1  0.170662  0.579338  0.579338  1
  V  V37  1  0.670662  0.079338  0.079338  1
  V  V38  1  0.750000  0.079338  0.420662  1
  V  V39  1  0.829338  0.420662  0.420662  1
  Co  Co40  1  0.043488  0.750000  0.913024  1
  Co  Co41  1  0.206512  0.086976  0.250000  1
  Co  Co42  1  0.793488  0.913024  0.750000  1
  Co  Co43  1  0.543488  0.413024  0.250000  1
  Co  Co44  1  0.956512  0.250000  0.086976  1
  Co  Co45  1  0.706512  0.750000  0.586976  1
  Co  Co46  1  0.456512  0.586976  0.750000  1
  Co  Co47  1  0.293488  0.250000  0.413024  1
  Ba  Ba48  1  0.125000  0.750000  0.250000  1
  Ba  Ba49  1  0.875000  0.250000  0.750000  1
  Ba  Ba50  1  0.625000  0.750000  0.250000  1
  Ba  Ba51  1  0.375000  0.250000  0.750000  1
