# generated using pymatgen
data_HfN2
_symmetry_space_group_name_H-M   'P 1'
_cell_length_a   3.25689704
_cell_length_b   3.25693492
_cell_length_c   7.60669903
_cell_angle_alpha   90.00000000
_cell_angle_beta   90.00000000
_cell_angle_gamma   119.99961530
_symmetry_Int_Tables_number   1
_chemical_formula_structural   HfN2
_chemical_formula_sum   'Hf2 N4'
_cell_volume   69.87819171
_cell_formula_units_Z   2
loop_
 _symmetry_equiv_pos_site_id
 _symmetry_equiv_pos_as_xyz
  1  'x, y, z'
loop_
 _atom_site_type_symbol
 _atom_site_label
 _atom_site_symmetry_multiplicity
 _atom_site_fract_x
 _atom_site_fract_y
 _atom_site_fract_z
 _atom_site_occupancy
  Hf  Hf0  1  0.666691  0.333381  0.250000  1
  Hf  Hf1  1  0.333309  0.666619  0.750000  1
  N  N2  1  0.000004  0.000008  0.405925  1
  N  N3  1  0.999996  0.999992  0.594075  1
  N  N4  1  0.999996  0.999992  0.905925  1
  N  N5  1  0.000004  0.000008  0.094075  1
