# generated using pymatgen
data_CsK4GaO4
_symmetry_space_group_name_H-M   'P 1'
_cell_length_a   6.77827592
_cell_length_b   11.74513629
_cell_length_c   21.15704518
_cell_angle_alpha   90.00000000
_cell_angle_beta   90.00000000
_cell_angle_gamma   90.00000000
_symmetry_Int_Tables_number   1
_chemical_formula_structural   CsK4GaO4
_chemical_formula_sum   'Cs8 K32 Ga8 O32'
_cell_volume   1684.34990978
_cell_formula_units_Z   8
loop_
 _symmetry_equiv_pos_site_id
 _symmetry_equiv_pos_as_xyz
  1  'x, y, z'
loop_
 _atom_site_type_symbol
 _atom_site_label
 _atom_site_symmetry_multiplicity
 _atom_site_fract_x
 _atom_site_fract_y
 _atom_site_fract_z
 _atom_site_occupancy
  O  O0  1  0.276421  0.882699  0.202815  1
  O  O1  1  0.776421  0.117301  0.297185  1
  O  O2  1  0.223579  0.382699  0.797185  1
  O  O3  1  0.723579  0.617301  0.702815  1
  O  O4  1  0.723579  0.117301  0.797185  1
  O  O5  1  0.223579  0.882699  0.702815  1
  O  O6  1  0.776421  0.617301  0.202815  1
  O  O7  1  0.276421  0.382699  0.297185  1
  O  O8  1  0.315524  0.395688  0.443726  1
  O  O9  1  0.815524  0.604312  0.056274  1
  O  O10  1  0.815524  0.104312  0.443726  1
  O  O11  1  0.315524  0.895688  0.056274  1
  O  O12  1  0.684476  0.604312  0.556274  1
  O  O13  1  0.184476  0.395688  0.943726  1
  O  O14  1  0.085550  0.537829  0.621239  1
  O  O15  1  0.585550  0.462171  0.878761  1
  O  O16  1  0.414450  0.037829  0.378761  1
  O  O17  1  0.914450  0.962171  0.121239  1
  O  O18  1  0.914450  0.462171  0.378761  1
  O  O19  1  0.414450  0.537829  0.121239  1
  O  O20  1  0.184476  0.895688  0.556274  1
  O  O21  1  0.585550  0.962171  0.621239  1
  O  O22  1  0.085550  0.037829  0.878761  1
  O  O23  1  0.721337  0.377939  0.635918  1
  O  O24  1  0.221337  0.622061  0.864082  1
  O  O25  1  0.778663  0.877939  0.364082  1
  O  O26  1  0.278663  0.122061  0.135918  1
  O  O27  1  0.278663  0.622061  0.364082  1
  O  O28  1  0.778663  0.377939  0.135918  1
  O  O29  1  0.221337  0.122061  0.635918  1
  O  O30  1  0.721337  0.877939  0.864082  1
  O  O31  1  0.684476  0.104312  0.943726  1
  K  K32  1  0.586935  0.923474  0.748009  1
  K  K33  1  0.086935  0.076526  0.751991  1
  K  K34  1  0.913065  0.423474  0.251991  1
  K  K35  1  0.413065  0.576526  0.248009  1
  K  K36  1  0.413065  0.076526  0.251991  1
  K  K37  1  0.913065  0.923474  0.248009  1
  K  K38  1  0.086935  0.576526  0.748009  1
  K  K39  1  0.586935  0.423474  0.751991  1
  K  K40  1  0.407627  0.942068  0.932668  1
  K  K41  1  0.592373  0.557932  0.432668  1
  K  K42  1  0.092373  0.442068  0.067332  1
  K  K43  1  0.092373  0.942068  0.432668  1
  K  K44  1  0.592373  0.057932  0.067332  1
  K  K45  1  0.407627  0.442068  0.567332  1
  K  K46  1  0.907627  0.557932  0.932668  1
  K  K47  1  0.088142  0.325560  0.677589  1
  K  K48  1  0.588142  0.674440  0.822411  1
  K  K49  1  0.411858  0.825560  0.322411  1
  K  K50  1  0.911858  0.674440  0.322411  1
  K  K51  1  0.411858  0.325560  0.177589  1
  K  K52  1  0.588142  0.174440  0.677589  1
  K  K53  1  0.088142  0.825560  0.822411  1
  K  K54  1  0.410180  0.702765  0.639780  1
  K  K55  1  0.910180  0.297235  0.860220  1
  K  K56  1  0.089820  0.202765  0.360220  1
  K  K57  1  0.589820  0.797235  0.139780  1
  K  K58  1  0.589820  0.297235  0.360220  1
  K  K59  1  0.089820  0.702765  0.139780  1
  K  K60  1  0.910180  0.797235  0.639780  1
  K  K61  1  0.410180  0.202765  0.860220  1
  K  K62  1  0.907627  0.057932  0.567332  1
  K  K63  1  0.911858  0.174440  0.177589  1
  Ga  Ga64  1  0.803922  0.533932  0.628381  1
  Ga  Ga65  1  0.303922  0.466068  0.871619  1
  Ga  Ga66  1  0.696078  0.033932  0.371619  1
  Ga  Ga67  1  0.196078  0.966068  0.128381  1
  Ga  Ga68  1  0.196078  0.466068  0.371619  1
  Ga  Ga69  1  0.696078  0.533932  0.128381  1
  Ga  Ga70  1  0.303922  0.966068  0.628381  1
  Ga  Ga71  1  0.803922  0.033932  0.871619  1
  Cs  Cs72  1  0.421964  0.154660  0.501859  1
  Cs  Cs73  1  0.921964  0.845340  0.998141  1
  Cs  Cs74  1  0.078036  0.654660  0.498141  1
  Cs  Cs75  1  0.578036  0.345340  0.001859  1
  Cs  Cs76  1  0.578036  0.845340  0.498141  1
  Cs  Cs77  1  0.078036  0.154660  0.001859  1
  Cs  Cs78  1  0.921964  0.345340  0.501859  1
  Cs  Cs79  1  0.421964  0.654660  0.998141  1
