# generated using pymatgen
data_Te2W3(SeS)2
_symmetry_space_group_name_H-M   'P 1'
_cell_length_a   3.34809675
_cell_length_b   3.34810029
_cell_length_c   31.02272889
_cell_angle_alpha   90.00015755
_cell_angle_beta   90.00000000
_cell_angle_gamma   119.99996508
_symmetry_Int_Tables_number   1
_chemical_formula_structural   Te2W3(SeS)2
_chemical_formula_sum   'Te2 W3 Se2 S2'
_cell_volume   301.16690127
_cell_formula_units_Z   1
loop_
 _symmetry_equiv_pos_site_id
 _symmetry_equiv_pos_as_xyz
  1  'x, y, z'
loop_
 _atom_site_type_symbol
 _atom_site_label
 _atom_site_symmetry_multiplicity
 _atom_site_fract_x
 _atom_site_fract_y
 _atom_site_fract_z
 _atom_site_occupancy
  Te  Te0  1  0.666648  0.333295  0.516974  1
  Te  Te1  1  0.666648  0.333294  0.639710  1
  W  W2  1  0.333310  0.666620  0.115659  1
  W  W3  1  0.333311  0.666623  0.578371  1
  W  W4  1  0.666690  0.333380  0.346949  1
  Se  Se5  1  0.333350  0.666701  0.400796  1
  Se  Se6  1  0.333351  0.666703  0.293071  1
  S  S7  1  0.666646  0.333292  0.066623  1
  S  S8  1  0.666646  0.333292  0.164689  1
