# generated using pymatgen
data_Fe2PO5
_symmetry_space_group_name_H-M   'P 1'
_cell_length_a   5.41845261
_cell_length_b   5.41845260
_cell_length_c   7.39922663
_cell_angle_alpha   111.47836845
_cell_angle_beta   111.47836840
_cell_angle_gamma   89.99999996
_symmetry_Int_Tables_number   1
_chemical_formula_structural   Fe2PO5
_chemical_formula_sum   'Fe4 P2 O10'
_cell_volume   185.84607929
_cell_formula_units_Z   2
loop_
 _symmetry_equiv_pos_site_id
 _symmetry_equiv_pos_as_xyz
  1  'x, y, z'
loop_
 _atom_site_type_symbol
 _atom_site_label
 _atom_site_symmetry_multiplicity
 _atom_site_fract_x
 _atom_site_fract_y
 _atom_site_fract_z
 _atom_site_occupancy
  O  O0  1  0.625000  0.375000  0.250000  1
  O  O1  1  0.375000  0.625000  0.750000  1
  O  O2  1  0.807468  0.819826  0.614935  1
  O  O3  1  0.704891  0.192532  0.885065  1
  O  O4  1  0.180174  0.192532  0.885065  1
  O  O5  1  0.192532  0.180174  0.385065  1
  O  O6  1  0.807468  0.295109  0.614935  1
  O  O7  1  0.819826  0.807468  0.114935  1
  O  O8  1  0.295109  0.807468  0.114935  1
  O  O9  1  0.192532  0.704891  0.385065  1
  P  P10  1  0.875000  0.125000  0.750000  1
  P  P11  1  0.125000  0.875000  0.250000  1
  Fe  Fe12  1  0.500000  0.000000  0.000000  1
  Fe  Fe13  1  0.500000  0.500000  0.500000  1
  Fe  Fe14  1  0.000000  0.500000  0.500000  1
  Fe  Fe15  1  0.500000  0.500000  0.000000  1
