# generated using pymatgen
data_EuCdPd
_symmetry_space_group_name_H-M   'P 1'
_cell_length_a   4.39299291
_cell_length_b   7.48171819
_cell_length_c   8.79733582
_cell_angle_alpha   90.00000000
_cell_angle_beta   90.00000000
_cell_angle_gamma   90.00000000
_symmetry_Int_Tables_number   1
_chemical_formula_structural   EuCdPd
_chemical_formula_sum   'Eu4 Cd4 Pd4'
_cell_volume   289.14322371
_cell_formula_units_Z   4
loop_
 _symmetry_equiv_pos_site_id
 _symmetry_equiv_pos_as_xyz
  1  'x, y, z'
loop_
 _atom_site_type_symbol
 _atom_site_label
 _atom_site_symmetry_multiplicity
 _atom_site_fract_x
 _atom_site_fract_y
 _atom_site_fract_z
 _atom_site_occupancy
  Pd  Pd0  1  0.750000  0.240488  0.871056  1
  Pd  Pd1  1  0.250000  0.259512  0.371056  1
  Pd  Pd2  1  0.750000  0.740488  0.628944  1
  Pd  Pd3  1  0.250000  0.759512  0.128944  1
  Cd  Cd4  1  0.250000  0.140681  0.062102  1
  Cd  Cd5  1  0.750000  0.359319  0.562102  1
  Cd  Cd6  1  0.250000  0.640681  0.437897  1
  Cd  Cd7  1  0.750000  0.859319  0.937898  1
  Eu  Eu8  1  0.250000  0.535896  0.819250  1
  Eu  Eu9  1  0.750000  0.464104  0.180750  1
  Eu  Eu10  1  0.250000  0.035896  0.680750  1
  Eu  Eu11  1  0.750000  0.964104  0.319250  1
