# generated using pymatgen
data_Ca3In2(SiO4)3
_symmetry_space_group_name_H-M   'P 1'
_cell_length_a   10.80102417
_cell_length_b   10.80102418
_cell_length_c   10.80102418
_cell_angle_alpha   109.47122062
_cell_angle_beta   109.47122063
_cell_angle_gamma   109.47122066
_symmetry_Int_Tables_number   1
_chemical_formula_structural   Ca3In2(SiO4)3
_chemical_formula_sum   'Ca12 In8 Si12 O48'
_cell_volume   970.00265689
_cell_formula_units_Z   4
loop_
 _symmetry_equiv_pos_site_id
 _symmetry_equiv_pos_as_xyz
  1  'x, y, z'
loop_
 _atom_site_type_symbol
 _atom_site_label
 _atom_site_symmetry_multiplicity
 _atom_site_fract_x
 _atom_site_fract_y
 _atom_site_fract_z
 _atom_site_occupancy
  O  O0  1  0.714138  0.701595  0.092856  1
  O  O1  1  0.701595  0.108739  0.987457  1
  O  O2  1  0.621282  0.714138  0.512543  1
  O  O3  1  0.512543  0.621282  0.714138  1
  O  O4  1  0.092856  0.878718  0.391261  1
  O  O5  1  0.391261  0.092856  0.878718  1
  O  O6  1  0.108739  0.987457  0.701595  1
  O  O7  1  0.621282  0.407144  0.108739  1
  O  O8  1  0.512543  0.391261  0.798405  1
  O  O9  1  0.878718  0.987457  0.785862  1
  O  O10  1  0.407144  0.108739  0.621282  1
  O  O11  1  0.798405  0.512543  0.391261  1
  O  O12  1  0.987457  0.785862  0.878718  1
  O  O13  1  0.092856  0.714138  0.701595  1
  O  O14  1  0.701595  0.092856  0.714138  1
  O  O15  1  0.108739  0.621282  0.407144  1
  O  O16  1  0.798405  0.785862  0.407144  1
  O  O17  1  0.391261  0.798405  0.512543  1
  O  O18  1  0.407144  0.798405  0.785862  1
  O  O19  1  0.785862  0.878718  0.987457  1
  O  O20  1  0.785862  0.407144  0.798405  1
  O  O21  1  0.878718  0.391261  0.092856  1
  O  O22  1  0.987457  0.701595  0.108739  1
  O  O23  1  0.714138  0.512543  0.621282  1
  O  O24  1  0.285862  0.298405  0.907144  1
  O  O25  1  0.298405  0.891261  0.012543  1
  O  O26  1  0.378718  0.285862  0.487457  1
  O  O27  1  0.487457  0.378718  0.285862  1
  O  O28  1  0.907144  0.121282  0.608739  1
  O  O29  1  0.608739  0.907144  0.121282  1
  O  O30  1  0.891261  0.012543  0.298405  1
  O  O31  1  0.378718  0.592856  0.891261  1
  O  O32  1  0.487457  0.608739  0.201595  1
  O  O33  1  0.121282  0.012543  0.214138  1
  O  O34  1  0.592856  0.891261  0.378718  1
  O  O35  1  0.201595  0.487457  0.608739  1
  O  O36  1  0.012543  0.214138  0.121282  1
  O  O37  1  0.907144  0.285862  0.298405  1
  O  O38  1  0.298405  0.907144  0.285862  1
  O  O39  1  0.891261  0.378718  0.592856  1
  O  O40  1  0.201595  0.214138  0.592856  1
  O  O41  1  0.608739  0.201595  0.487457  1
  O  O42  1  0.592856  0.201595  0.214138  1
  O  O43  1  0.214138  0.121282  0.012543  1
  O  O44  1  0.214138  0.592856  0.201595  1
  O  O45  1  0.121282  0.608739  0.907144  1
  O  O46  1  0.012543  0.298405  0.891261  1
  O  O47  1  0.285862  0.487457  0.378718  1
  Si  Si48  1  0.250000  0.125000  0.875000  1
  Si  Si49  1  0.625000  0.750000  0.375000  1
  Si  Si50  1  0.250000  0.625000  0.375000  1
  Si  Si51  1  0.375000  0.625000  0.750000  1
  Si  Si52  1  0.750000  0.375000  0.625000  1
  Si  Si53  1  0.875000  0.125000  0.750000  1
  Si  Si54  1  0.125000  0.875000  0.250000  1
  Si  Si55  1  0.125000  0.750000  0.875000  1
  Si  Si56  1  0.625000  0.375000  0.250000  1
  Si  Si57  1  0.375000  0.250000  0.625000  1
  Si  Si58  1  0.750000  0.875000  0.125000  1
  Si  Si59  1  0.875000  0.250000  0.125000  1
  Ca  Ca60  1  0.875000  0.625000  0.250000  1
  Ca  Ca61  1  0.625000  0.875000  0.750000  1
  Ca  Ca62  1  0.875000  0.750000  0.625000  1
  Ca  Ca63  1  0.625000  0.250000  0.875000  1
  Ca  Ca64  1  0.750000  0.625000  0.875000  1
  Ca  Ca65  1  0.750000  0.125000  0.375000  1
  Ca  Ca66  1  0.125000  0.375000  0.750000  1
  Ca  Ca67  1  0.375000  0.125000  0.250000  1
  Ca  Ca68  1  0.125000  0.250000  0.375000  1
  Ca  Ca69  1  0.375000  0.750000  0.125000  1
  Ca  Ca70  1  0.250000  0.875000  0.625000  1
  Ca  Ca71  1  0.250000  0.375000  0.125000  1
  In  In72  1  0.500000  0.500000  0.500000  1
  In  In73  1  0.500000  0.500000  0.000000  1
  In  In74  1  0.500000  0.000000  0.500000  1
  In  In75  1  0.500000  0.000000  0.000000  1
  In  In76  1  0.000000  0.000000  0.500000  1
  In  In77  1  0.000000  0.500000  0.000000  1
  In  In78  1  0.000000  0.000000  0.000000  1
  In  In79  1  0.000000  0.500000  0.500000  1
