# generated using pymatgen
data_Mg3(PO4)2
_symmetry_space_group_name_H-M   'P 1'
_cell_length_a   5.12237252
_cell_length_b   7.73264424
_cell_length_c   8.34038616
_cell_angle_alpha   90.00000000
_cell_angle_beta   90.00000000
_cell_angle_gamma   94.23571448
_symmetry_Int_Tables_number   1
_chemical_formula_structural   Mg3(PO4)2
_chemical_formula_sum   'Mg6 P4 O16'
_cell_volume   329.45606466
_cell_formula_units_Z   2
loop_
 _symmetry_equiv_pos_site_id
 _symmetry_equiv_pos_as_xyz
  1  'x, y, z'
loop_
 _atom_site_type_symbol
 _atom_site_label
 _atom_site_symmetry_multiplicity
 _atom_site_fract_x
 _atom_site_fract_y
 _atom_site_fract_z
 _atom_site_occupancy
  O  O0  1  0.545731  0.856646  0.424545  1
  O  O1  1  0.954269  0.643354  0.924545  1
  O  O2  1  0.454269  0.143354  0.575455  1
  O  O3  1  0.045731  0.356646  0.075455  1
  O  O4  1  0.440455  0.762791  0.137365  1
  O  O5  1  0.059545  0.737209  0.637365  1
  O  O6  1  0.559545  0.237209  0.862635  1
  O  O7  1  0.940455  0.262791  0.362635  1
  O  O8  1  0.803199  0.626074  0.301793  1
  O  O9  1  0.696801  0.873926  0.801793  1
  O  O10  1  0.815232  0.061964  0.144757  1
  O  O11  1  0.684768  0.438036  0.644757  1
  O  O12  1  0.184768  0.938036  0.855243  1
  O  O13  1  0.315232  0.561964  0.355243  1
  O  O14  1  0.303199  0.126074  0.198207  1
  O  O15  1  0.196801  0.373926  0.698207  1
  Mg  Mg16  1  0.092218  0.608239  0.144129  1
  Mg  Mg17  1  0.407782  0.891761  0.644129  1
  Mg  Mg18  1  0.907782  0.391761  0.855871  1
  Mg  Mg19  1  0.592218  0.108239  0.355871  1
  Mg  Mg20  1  0.000000  0.500000  0.500000  1
  Mg  Mg21  1  0.500000  0.000000  0.000000  1
  P  P22  1  0.032829  0.201629  0.194575  1
  P  P23  1  0.467171  0.298371  0.694575  1
  P  P24  1  0.967171  0.798371  0.805425  1
  P  P25  1  0.532829  0.701629  0.305425  1
