# generated using pymatgen
data_RbLiZn2O3
_symmetry_space_group_name_H-M   'P 1'
_cell_length_a   3.47434620
_cell_length_b   10.49877284
_cell_length_c   10.49877284
_cell_angle_alpha   90.00000000
_cell_angle_beta   90.00000000
_cell_angle_gamma   90.00000000
_symmetry_Int_Tables_number   1
_chemical_formula_structural   RbLiZn2O3
_chemical_formula_sum   'Rb4 Li4 Zn8 O12'
_cell_volume   382.95713863
_cell_formula_units_Z   4
loop_
 _symmetry_equiv_pos_site_id
 _symmetry_equiv_pos_as_xyz
  1  'x, y, z'
loop_
 _atom_site_type_symbol
 _atom_site_label
 _atom_site_symmetry_multiplicity
 _atom_site_fract_x
 _atom_site_fract_y
 _atom_site_fract_z
 _atom_site_occupancy
  Li  Li0  1  0.500000  0.798372  0.798372  1
  Li  Li1  1  0.500000  0.201628  0.201628  1
  Li  Li2  1  0.000000  0.701628  0.298372  1
  Li  Li3  1  0.000000  0.298372  0.701628  1
  O  O4  1  0.500000  0.155300  0.386150  1
  O  O5  1  0.500000  0.613850  0.844700  1
  O  O6  1  0.500000  0.386150  0.155300  1
  O  O7  1  0.000000  0.344700  0.886150  1
  O  O8  1  0.000000  0.858378  0.858378  1
  O  O9  1  0.500000  0.641622  0.358378  1
  O  O10  1  0.500000  0.358378  0.641622  1
  O  O11  1  0.000000  0.141622  0.141622  1
  O  O12  1  0.500000  0.844700  0.613850  1
  O  O13  1  0.000000  0.113850  0.655300  1
  O  O14  1  0.000000  0.886150  0.344700  1
  O  O15  1  0.000000  0.655300  0.113850  1
  Zn  Zn16  1  0.000000  0.073102  0.328349  1
  Zn  Zn17  1  0.000000  0.926898  0.671651  1
  Zn  Zn18  1  0.500000  0.828349  0.426898  1
  Zn  Zn19  1  0.500000  0.171651  0.573102  1
  Zn  Zn20  1  0.000000  0.328349  0.073102  1
  Zn  Zn21  1  0.500000  0.426898  0.828349  1
  Zn  Zn22  1  0.500000  0.573102  0.171651  1
  Zn  Zn23  1  0.000000  0.671651  0.926898  1
  Rb  Rb24  1  0.000000  0.390289  0.390289  1
  Rb  Rb25  1  0.500000  0.109711  0.890289  1
  Rb  Rb26  1  0.500000  0.890289  0.109711  1
  Rb  Rb27  1  0.000000  0.609711  0.609711  1
