# generated using pymatgen
data_Ba2Ca(PdO2)3
_symmetry_space_group_name_H-M   'P 1'
_cell_length_a   7.31242563
_cell_length_b   7.31242562
_cell_length_c   8.82222622
_cell_angle_alpha   107.87460019
_cell_angle_beta   107.87460021
_cell_angle_gamma   105.03354693
_symmetry_Int_Tables_number   1
_chemical_formula_structural   Ba2Ca(PdO2)3
_chemical_formula_sum   'Ba4 Ca2 Pd6 O12'
_cell_volume   393.39383061
_cell_formula_units_Z   2
loop_
 _symmetry_equiv_pos_site_id
 _symmetry_equiv_pos_as_xyz
  1  'x, y, z'
loop_
 _atom_site_type_symbol
 _atom_site_label
 _atom_site_symmetry_multiplicity
 _atom_site_fract_x
 _atom_site_fract_y
 _atom_site_fract_z
 _atom_site_occupancy
  O  O0  1  0.468760  0.702564  0.796760  1
  O  O1  1  0.905804  0.672000  0.203240  1
  O  O2  1  0.297436  0.531240  0.203240  1
  O  O3  1  0.328000  0.094196  0.796760  1
  O  O4  1  0.531240  0.297436  0.203240  1
  O  O5  1  0.094196  0.328000  0.796760  1
  O  O6  1  0.922109  0.687278  0.609387  1
  O  O7  1  0.672000  0.905804  0.203240  1
  O  O8  1  0.687278  0.922109  0.609387  1
  O  O9  1  0.312722  0.077891  0.390613  1
  O  O10  1  0.077891  0.312722  0.390613  1
  O  O11  1  0.702564  0.468760  0.796760  1
  Ca  Ca12  1  0.670630  0.670630  0.341259  1
  Ca  Ca13  1  0.329370  0.329370  0.658741  1
  Pd  Pd14  1  0.006466  0.006466  0.696396  1
  Pd  Pd15  1  0.310070  0.310070  0.303604  1
  Pd  Pd16  1  0.689930  0.689930  0.696396  1
  Pd  Pd17  1  0.993534  0.993534  0.303604  1
  Pd  Pd18  1  0.674660  0.674660  0.000000  1
  Pd  Pd19  1  0.325340  0.325340  0.000000  1
  Ba  Ba20  1  0.750000  0.250000  0.500000  1
  Ba  Ba21  1  0.250000  0.750000  0.500000  1
  Ba  Ba22  1  0.767020  0.232980  0.000000  1
  Ba  Ba23  1  0.232980  0.767020  0.000000  1
