# generated using pymatgen
data_Te6MoW3S2
_symmetry_space_group_name_H-M   'P 1'
_cell_length_a   3.45158979
_cell_length_b   3.45159423
_cell_length_c   39.41352445
_cell_angle_alpha   89.99981127
_cell_angle_beta   90.00000000
_cell_angle_gamma   119.99995759
_symmetry_Int_Tables_number   1
_chemical_formula_structural   Te6MoW3S2
_chemical_formula_sum   'Te6 Mo1 W3 S2'
_cell_volume   406.64459006
_cell_formula_units_Z   1
loop_
 _symmetry_equiv_pos_site_id
 _symmetry_equiv_pos_as_xyz
  1  'x, y, z'
loop_
 _atom_site_type_symbol
 _atom_site_label
 _atom_site_symmetry_multiplicity
 _atom_site_fract_x
 _atom_site_fract_y
 _atom_site_fract_z
 _atom_site_occupancy
  Te  Te0  1  0.333349  0.666700  0.328984  1
  Te  Te1  1  0.333352  0.666704  0.704792  1
  Te  Te2  1  0.666648  0.333294  0.422695  1
  Te  Te3  1  0.666646  0.333291  0.516607  1
  Te  Te4  1  0.333362  0.666725  0.234503  1
  Te  Te5  1  0.333356  0.666712  0.610341  1
  Mo  Mo6  1  0.333310  0.666621  0.469676  1
  W  W7  1  0.333311  0.666622  0.093934  1
  W  W8  1  0.666689  0.333379  0.281751  1
  W  W9  1  0.666687  0.333373  0.657591  1
  S  S10  1  0.666647  0.333292  0.056031  1
  S  S11  1  0.666643  0.333286  0.131843  1
