# generated using pymatgen
data_RbV3O8
_symmetry_space_group_name_H-M   'P 1'
_cell_length_a   5.13471936
_cell_length_b   8.20028113
_cell_length_c   8.71696564
_cell_angle_alpha   90.00000000
_cell_angle_beta   90.00000000
_cell_angle_gamma   98.94476870
_symmetry_Int_Tables_number   1
_chemical_formula_structural   RbV3O8
_chemical_formula_sum   'Rb2 V6 O16'
_cell_volume   362.57413169
_cell_formula_units_Z   2
loop_
 _symmetry_equiv_pos_site_id
 _symmetry_equiv_pos_as_xyz
  1  'x, y, z'
loop_
 _atom_site_type_symbol
 _atom_site_label
 _atom_site_symmetry_multiplicity
 _atom_site_fract_x
 _atom_site_fract_y
 _atom_site_fract_z
 _atom_site_occupancy
  O  O0  1  0.878066  0.287650  0.603588  1
  O  O1  1  0.121934  0.712350  0.103588  1
  O  O2  1  0.121934  0.712350  0.396412  1
  O  O3  1  0.878066  0.287650  0.896412  1
  O  O4  1  0.577604  0.825651  0.555356  1
  O  O5  1  0.422396  0.174349  0.055356  1
  O  O6  1  0.422396  0.174349  0.444644  1
  O  O7  1  0.577604  0.825651  0.944644  1
  O  O8  1  0.912796  0.586872  0.750000  1
  O  O9  1  0.087204  0.413128  0.250000  1
  O  O10  1  0.410458  0.256178  0.750000  1
  O  O11  1  0.589542  0.743822  0.250000  1
  O  O12  1  0.326083  0.496711  0.910552  1
  O  O13  1  0.673917  0.503289  0.410552  1
  O  O14  1  0.673917  0.503289  0.089448  1
  O  O15  1  0.326083  0.496711  0.589448  1
  V  V16  1  0.554053  0.324499  0.556880  1
  V  V17  1  0.445947  0.675501  0.056880  1
  V  V18  1  0.445947  0.675501  0.443120  1
  V  V19  1  0.554053  0.324499  0.943120  1
  V  V20  1  0.922004  0.567091  0.250000  1
  V  V21  1  0.077996  0.432909  0.750000  1
  Rb  Rb22  1  0.950693  0.055828  0.250000  1
  Rb  Rb23  1  0.049307  0.944172  0.750000  1
