# generated using pymatgen
data_Na2Zn3S4
_symmetry_space_group_name_H-M   'P 1'
_cell_length_a   5.81026280
_cell_length_b   8.72099455
_cell_length_c   8.72099489
_cell_angle_alpha   71.39545257
_cell_angle_beta   70.54179059
_cell_angle_gamma   70.54178782
_symmetry_Int_Tables_number   1
_chemical_formula_structural   Na2Zn3S4
_chemical_formula_sum   'Na4 Zn6 S8'
_cell_volume   381.95571610
_cell_formula_units_Z   2
loop_
 _symmetry_equiv_pos_site_id
 _symmetry_equiv_pos_as_xyz
  1  'x, y, z'
loop_
 _atom_site_type_symbol
 _atom_site_label
 _atom_site_symmetry_multiplicity
 _atom_site_fract_x
 _atom_site_fract_y
 _atom_site_fract_z
 _atom_site_occupancy
  Na  Na0  1  0.739846  0.625947  0.374053  1
  Na  Na1  1  0.260154  0.374053  0.625947  1
  Na  Na2  1  0.760154  0.125947  0.874053  1
  Na  Na3  1  0.239846  0.874053  0.125947  1
  Zn  Zn4  1  0.750000  0.750000  0.750000  1
  Zn  Zn5  1  0.250000  0.250000  0.250000  1
  Zn  Zn6  1  0.250000  0.967407  0.532593  1
  Zn  Zn7  1  0.250000  0.532593  0.967407  1
  Zn  Zn8  1  0.750000  0.032593  0.467407  1
  Zn  Zn9  1  0.750000  0.467407  0.032593  1
  S  S10  1  0.587585  0.007053  0.270844  1
  S  S11  1  0.134518  0.270844  0.007053  1
  S  S12  1  0.912415  0.229156  0.492947  1
  S  S13  1  0.365482  0.492947  0.229156  1
  S  S14  1  0.412415  0.992947  0.729156  1
  S  S15  1  0.865482  0.729156  0.992947  1
  S  S16  1  0.087585  0.770844  0.507053  1
  S  S17  1  0.634518  0.507053  0.770844  1
