# generated using pymatgen
data_Sm2Be2GeO7
_symmetry_space_group_name_H-M   'P 1'
_cell_length_a   4.89055388
_cell_length_b   7.56553295
_cell_length_c   7.56553295
_cell_angle_alpha   90.00000000
_cell_angle_beta   90.00000000
_cell_angle_gamma   90.00000000
_symmetry_Int_Tables_number   1
_chemical_formula_structural   Sm2Be2GeO7
_chemical_formula_sum   'Sm4 Be4 Ge2 O14'
_cell_volume   279.92204491
_cell_formula_units_Z   2
loop_
 _symmetry_equiv_pos_site_id
 _symmetry_equiv_pos_as_xyz
  1  'x, y, z'
loop_
 _atom_site_type_symbol
 _atom_site_label
 _atom_site_symmetry_multiplicity
 _atom_site_fract_x
 _atom_site_fract_y
 _atom_site_fract_z
 _atom_site_occupancy
  Be  Be0  1  0.042969  0.366181  0.133819  1
  Be  Be1  1  0.957031  0.866181  0.366181  1
  Be  Be2  1  0.042969  0.633819  0.866181  1
  Be  Be3  1  0.957031  0.133819  0.633819  1
  O  O4  1  0.790824  0.920680  0.172933  1
  O  O5  1  0.209176  0.172933  0.079320  1
  O  O6  1  0.209176  0.579320  0.672933  1
  O  O7  1  0.209176  0.420680  0.327067  1
  O  O8  1  0.790824  0.327067  0.579320  1
  O  O9  1  0.790824  0.672933  0.420680  1
  O  O10  1  0.822609  0.000000  0.500000  1
  O  O11  1  0.177391  0.500000  0.000000  1
  O  O12  1  0.281713  0.141658  0.641658  1
  O  O13  1  0.718287  0.641658  0.858342  1
  O  O14  1  0.718287  0.358342  0.141658  1
  O  O15  1  0.281713  0.858342  0.358342  1
  O  O16  1  0.790824  0.079320  0.827067  1
  O  O17  1  0.209176  0.827067  0.920680  1
  Ge  Ge18  1  0.000000  0.500000  0.500000  1
  Ge  Ge19  1  0.000000  0.000000  0.000000  1
  Sm  Sm20  1  0.504408  0.659034  0.159034  1
  Sm  Sm21  1  0.495592  0.159034  0.340966  1
  Sm  Sm22  1  0.495592  0.840966  0.659034  1
  Sm  Sm23  1  0.504408  0.340966  0.840966  1
