# generated using pymatgen
data_Te2Mo(WS2)2
_symmetry_space_group_name_H-M   'P 1'
_cell_length_a   3.30167519
_cell_length_b   3.30170701
_cell_length_c   30.54439527
_cell_angle_alpha   89.99971575
_cell_angle_beta   90.00000000
_cell_angle_gamma   119.99968114
_symmetry_Int_Tables_number   1
_chemical_formula_structural   Te2Mo(WS2)2
_chemical_formula_sum   'Te2 Mo1 W2 S4'
_cell_volume   288.36094217
_cell_formula_units_Z   1
loop_
 _symmetry_equiv_pos_site_id
 _symmetry_equiv_pos_as_xyz
  1  'x, y, z'
loop_
 _atom_site_type_symbol
 _atom_site_label
 _atom_site_symmetry_multiplicity
 _atom_site_fract_x
 _atom_site_fract_y
 _atom_site_fract_z
 _atom_site_occupancy
  Te  Te0  1  0.666645  0.333289  0.515226  1
  Te  Te1  1  0.666643  0.333286  0.641452  1
  Mo  Mo2  1  0.333302  0.666604  0.115653  1
  W  W3  1  0.333311  0.666622  0.578365  1
  W  W4  1  0.666691  0.333382  0.346940  1
  S  S5  1  0.333356  0.666713  0.397239  1
  S  S6  1  0.666650  0.333298  0.065580  1
  S  S7  1  0.666652  0.333302  0.165734  1
  S  S8  1  0.333351  0.666704  0.296654  1
