# generated using pymatgen
data_Zn2SiO4
_symmetry_space_group_name_H-M   'P 1'
_cell_length_a   5.81779715
_cell_length_b   7.77725950
_cell_length_c   7.77725950
_cell_angle_alpha   66.43559337
_cell_angle_beta   68.03586306
_cell_angle_gamma   68.03586306
_symmetry_Int_Tables_number   1
_chemical_formula_structural   Zn2SiO4
_chemical_formula_sum   'Zn8 Si4 O16'
_cell_volume   288.51864750
_cell_formula_units_Z   4
loop_
 _symmetry_equiv_pos_site_id
 _symmetry_equiv_pos_as_xyz
  1  'x, y, z'
loop_
 _atom_site_type_symbol
 _atom_site_label
 _atom_site_symmetry_multiplicity
 _atom_site_fract_x
 _atom_site_fract_y
 _atom_site_fract_z
 _atom_site_occupancy
  Zn  Zn0  1  0.500000  0.500000  0.500000  1
  Zn  Zn1  1  0.000000  -0.000000  -0.000000  1
  Zn  Zn2  1  0.750000  0.218271  0.281729  1
  Zn  Zn3  1  0.250000  0.781729  0.718271  1
  Zn  Zn4  1  0.875472  0.624528  0.124528  1
  Zn  Zn5  1  0.624528  0.375472  0.875472  1
  Zn  Zn6  1  0.375472  0.624528  0.124528  1
  Zn  Zn7  1  0.124528  0.375472  0.875472  1
  Si  Si8  1  0.620750  0.996280  0.762220  1
  Si  Si9  1  0.379250  0.003720  0.237780  1
  Si  Si10  1  0.120750  0.262220  0.496280  1
  Si  Si11  1  0.879250  0.737780  0.503720  1
  O  O12  1  0.750000  0.462387  0.037613  1
  O  O13  1  0.250000  0.537613  0.962387  1
  O  O14  1  0.750000  0.963761  0.536239  1
  O  O15  1  0.250000  0.036239  0.463761  1
  O  O16  1  0.987333  0.755792  0.269541  1
  O  O17  1  0.012667  0.244208  0.730459  1
  O  O18  1  0.487333  0.769541  0.255792  1
  O  O19  1  0.512667  0.230459  0.744208  1
  O  O20  1  0.887466  0.368438  0.385525  1
  O  O21  1  0.641428  0.631562  0.614475  1
  O  O22  1  0.387466  0.885525  0.868438  1
  O  O23  1  0.141428  0.114475  0.131562  1
  O  O24  1  0.112534  0.631562  0.614475  1
  O  O25  1  0.358572  0.368438  0.385525  1
  O  O26  1  0.612534  0.114475  0.131562  1
  O  O27  1  0.858572  0.885525  0.868438  1
