# generated using pymatgen
data_KNd2CuS4
_symmetry_space_group_name_H-M   'P 1'
_cell_length_a   4.07319719
_cell_length_b   7.25824566
_cell_length_c   14.03878108
_cell_angle_alpha   90.00000000
_cell_angle_beta   90.00000000
_cell_angle_gamma   106.29548208
_symmetry_Int_Tables_number   1
_chemical_formula_structural   KNd2CuS4
_chemical_formula_sum   'K2 Nd4 Cu2 S8'
_cell_volume   398.37277707
_cell_formula_units_Z   2
loop_
 _symmetry_equiv_pos_site_id
 _symmetry_equiv_pos_as_xyz
  1  'x, y, z'
loop_
 _atom_site_type_symbol
 _atom_site_label
 _atom_site_symmetry_multiplicity
 _atom_site_fract_x
 _atom_site_fract_y
 _atom_site_fract_z
 _atom_site_occupancy
  S  S0  1  0.000000  0.000000  0.500000  1
  S  S1  1  0.000000  0.000000  0.000000  1
  S  S2  1  0.262763  0.525525  0.115105  1
  S  S3  1  0.737237  0.474475  0.884895  1
  S  S4  1  0.429918  0.859836  0.750000  1
  S  S5  1  0.262763  0.525525  0.384895  1
  S  S6  1  0.570082  0.140164  0.250000  1
  S  S7  1  0.737237  0.474475  0.615105  1
  K  K8  1  0.892368  0.784735  0.250000  1
  K  K9  1  0.107632  0.215265  0.750000  1
  Cu  Cu10  1  0.837602  0.675204  0.750000  1
  Cu  Cu11  1  0.162398  0.324796  0.250000  1
  Nd  Nd12  1  0.365390  0.730779  0.937475  1
  Nd  Nd13  1  0.634610  0.269221  0.437475  1
  Nd  Nd14  1  0.365390  0.730779  0.562525  1
  Nd  Nd15  1  0.634610  0.269221  0.062525  1
