# generated using pymatgen
data_CaAl2SiO6
_symmetry_space_group_name_H-M   'P 1'
_cell_length_a   5.32304641
_cell_length_b   6.53807640
_cell_length_c   6.53807640
_cell_angle_alpha   83.59345047
_cell_angle_beta   78.11572278
_cell_angle_gamma   78.11572278
_symmetry_Int_Tables_number   1
_chemical_formula_structural   CaAl2SiO6
_chemical_formula_sum   'Ca2 Al4 Si2 O12'
_cell_volume   217.32215270
_cell_formula_units_Z   2
loop_
 _symmetry_equiv_pos_site_id
 _symmetry_equiv_pos_as_xyz
  1  'x, y, z'
loop_
 _atom_site_type_symbol
 _atom_site_label
 _atom_site_symmetry_multiplicity
 _atom_site_fract_x
 _atom_site_fract_y
 _atom_site_fract_z
 _atom_site_occupancy
  Ca  Ca0  1  0.241173  0.323277  0.696500  1
  Ca  Ca1  1  0.741173  0.696500  0.323277  1
  Al  Al2  1  0.208463  0.809387  0.612980  1
  Al  Al3  1  0.708463  0.612980  0.809387  1
  Al  Al4  1  0.261172  0.908730  0.089423  1
  Al  Al5  1  0.761172  0.089423  0.908730  1
  Si  Si6  1  0.283630  0.381104  0.189469  1
  Si  Si7  1  0.783630  0.189469  0.381104  1
  O  O8  1  0.122834  0.974924  0.827907  1
  O  O9  1  0.320077  0.910427  0.357938  1
  O  O10  1  0.972310  0.660810  0.610425  1
  O  O11  1  0.374957  0.200223  0.020956  1
  O  O12  1  0.202335  0.624195  0.110481  1
  O  O13  1  0.513050  0.356900  0.333945  1
  O  O14  1  0.874957  0.020956  0.200223  1
  O  O15  1  0.702335  0.110481  0.624195  1
  O  O16  1  0.013050  0.333945  0.356900  1
  O  O17  1  0.622834  0.827907  0.974924  1
  O  O18  1  0.820077  0.357938  0.910427  1
  O  O19  1  0.472310  0.610425  0.660810  1
