# generated using pymatgen
data_MnB4O7
_symmetry_space_group_name_H-M   'P 1'
_cell_length_a   8.23395084
_cell_length_b   8.81024355
_cell_length_c   14.18691046
_cell_angle_alpha   90.00000000
_cell_angle_beta   90.00000000
_cell_angle_gamma   90.00000000
_symmetry_Int_Tables_number   1
_chemical_formula_structural   MnB4O7
_chemical_formula_sum   'Mn8 B32 O56'
_cell_volume   1029.16263839
_cell_formula_units_Z   8
loop_
 _symmetry_equiv_pos_site_id
 _symmetry_equiv_pos_as_xyz
  1  'x, y, z'
loop_
 _atom_site_type_symbol
 _atom_site_label
 _atom_site_symmetry_multiplicity
 _atom_site_fract_x
 _atom_site_fract_y
 _atom_site_fract_z
 _atom_site_occupancy
  B  B0  1  0.187051  0.139857  0.461612  1
  B  B1  1  0.687052  0.360143  0.538388  1
  B  B2  1  0.812948  0.639856  0.038388  1
  B  B3  1  0.312948  0.860144  0.961612  1
  B  B4  1  0.812948  0.860144  0.538388  1
  B  B5  1  0.312948  0.639856  0.461612  1
  B  B6  1  0.187051  0.360143  0.961612  1
  B  B7  1  0.687052  0.139857  0.038388  1
  B  B8  1  0.993719  0.072677  0.335738  1
  B  B9  1  0.493719  0.427324  0.664263  1
  B  B10  1  0.006281  0.572677  0.164263  1
  B  B11  1  0.506281  0.927323  0.835738  1
  B  B12  1  0.006281  0.927323  0.664263  1
  B  B13  1  0.506281  0.572677  0.335738  1
  B  B14  1  0.993719  0.427324  0.835738  1
  B  B15  1  0.493719  0.072677  0.164263  1
  B  B16  1  0.028604  0.335386  0.265763  1
  B  B17  1  0.528605  0.164613  0.734236  1
  B  B18  1  0.971395  0.835386  0.234237  1
  B  B19  1  0.471396  0.664614  0.765763  1
  B  B20  1  0.971395  0.664614  0.734236  1
  B  B21  1  0.471396  0.835386  0.265763  1
  B  B22  1  0.028604  0.164613  0.765763  1
  B  B23  1  0.528605  0.335386  0.234237  1
  B  B24  1  0.935643  0.290815  0.433323  1
  B  B25  1  0.435642  0.209184  0.566677  1
  B  B26  1  0.064357  0.790816  0.066677  1
  B  B27  1  0.564357  0.709184  0.933323  1
  B  B28  1  0.064357  0.709184  0.566677  1
  B  B29  1  0.564357  0.790816  0.433323  1
  B  B30  1  0.935643  0.209184  0.933323  1
  B  B31  1  0.435642  0.290815  0.066677  1
  O  O32  1  0.145516  0.051070  0.387664  1
  O  O33  1  0.645515  0.448931  0.612337  1
  O  O34  1  0.854485  0.551070  0.112336  1
  O  O35  1  0.354485  0.948930  0.887664  1
  O  O36  1  0.854485  0.948930  0.612337  1
  O  O37  1  0.354485  0.551070  0.387664  1
  O  O38  1  0.145516  0.448931  0.887664  1
  O  O39  1  0.645515  0.051070  0.112336  1
  O  O40  1  0.084688  0.257048  0.491072  1
  O  O41  1  0.584689  0.242951  0.508929  1
  O  O42  1  0.915311  0.757049  0.008928  1
  O  O43  1  0.415311  0.742951  0.991071  1
  O  O44  1  0.915311  0.742951  0.508929  1
  O  O45  1  0.415311  0.757049  0.491072  1
  O  O46  1  0.084688  0.242951  0.991071  1
  O  O47  1  0.584689  0.257048  0.008928  1
  O  O48  1  0.033001  0.179088  0.251504  1
  O  O49  1  0.533002  0.320913  0.748496  1
  O  O50  1  0.966998  0.679088  0.248496  1
  O  O51  1  0.466999  0.820912  0.751504  1
  O  O52  1  0.966998  0.820912  0.748496  1
  O  O53  1  0.466999  0.679088  0.251504  1
  O  O54  1  0.033001  0.320913  0.751504  1
  O  O55  1  0.533002  0.179088  0.248496  1
  O  O56  1  0.982539  0.392976  0.352601  1
  O  O57  1  0.482539  0.107023  0.647399  1
  O  O58  1  0.017461  0.892976  0.147399  1
  O  O59  1  0.517461  0.607024  0.852601  1
  O  O60  1  0.017461  0.607024  0.647399  1
  O  O61  1  0.517461  0.892976  0.352601  1
  O  O62  1  0.982539  0.107023  0.852601  1
  O  O63  1  0.482539  0.392976  0.147399  1
  O  O64  1  0.832372  0.385331  0.492138  1
  O  O65  1  0.332372  0.114669  0.507862  1
  O  O66  1  0.167627  0.885331  0.007862  1
  O  O67  1  0.667627  0.614669  0.992138  1
  O  O68  1  0.167627  0.614669  0.507862  1
  O  O69  1  0.667627  0.885331  0.492138  1
  O  O70  1  0.832372  0.114669  0.992138  1
  O  O71  1  0.332372  0.385331  0.007862  1
  O  O72  1  0.869832  0.151322  0.394504  1
  O  O73  1  0.369833  0.348678  0.605496  1
  O  O74  1  0.130167  0.651323  0.105496  1
  O  O75  1  0.630167  0.848677  0.894504  1
  O  O76  1  0.130167  0.848677  0.605496  1
  O  O77  1  0.630167  0.651323  0.394504  1
  O  O78  1  0.869832  0.348678  0.894504  1
  O  O79  1  0.369833  0.151322  0.105496  1
  O  O80  1  0.571689  0.428157  0.306395  1
  O  O81  1  0.071689  0.071842  0.693604  1
  O  O82  1  0.428310  0.928158  0.193604  1
  O  O83  1  0.928310  0.571842  0.806396  1
  O  O84  1  0.428310  0.571842  0.693604  1
  O  O85  1  0.928310  0.928158  0.306395  1
  O  O86  1  0.571689  0.071842  0.806396  1
  O  O87  1  0.071689  0.428157  0.193604  1
  Mn  Mn88  1  0.618606  0.107842  0.386743  1
  Mn  Mn89  1  0.118606  0.392157  0.613257  1
  Mn  Mn90  1  0.381393  0.607842  0.113257  1
  Mn  Mn91  1  0.881394  0.892157  0.886743  1
  Mn  Mn92  1  0.381393  0.892157  0.613257  1
  Mn  Mn93  1  0.881394  0.607842  0.386743  1
  Mn  Mn94  1  0.618606  0.392157  0.886743  1
  Mn  Mn95  1  0.118606  0.107842  0.113257  1
