# generated using pymatgen
data_Ce(P3Os)4
_symmetry_space_group_name_H-M   'P 1'
_cell_length_a   7.02829779
_cell_length_b   7.02829779
_cell_length_c   7.02829779
_cell_angle_alpha   109.47122063
_cell_angle_beta   109.47122063
_cell_angle_gamma   109.47122063
_symmetry_Int_Tables_number   1
_chemical_formula_structural   Ce(P3Os)4
_chemical_formula_sum   'Ce1 P12 Os4'
_cell_volume   267.25668175
_cell_formula_units_Z   1
loop_
 _symmetry_equiv_pos_site_id
 _symmetry_equiv_pos_as_xyz
  1  'x, y, z'
loop_
 _atom_site_type_symbol
 _atom_site_label
 _atom_site_symmetry_multiplicity
 _atom_site_fract_x
 _atom_site_fract_y
 _atom_site_fract_z
 _atom_site_occupancy
  Ce  Ce0  1  0.000000  0.000000  0.000000  1
  P  P1  1  0.856842  0.644888  0.501730  1
  P  P2  1  0.143158  0.355112  0.498270  1
  P  P3  1  0.143158  0.644888  0.788046  1
  P  P4  1  0.856842  0.355112  0.211954  1
  P  P5  1  0.644888  0.501730  0.856842  1
  P  P6  1  0.355112  0.498270  0.143158  1
  P  P7  1  0.644888  0.788046  0.143158  1
  P  P8  1  0.355112  0.211954  0.856842  1
  P  P9  1  0.501730  0.856842  0.644888  1
  P  P10  1  0.498270  0.143158  0.355112  1
  P  P11  1  0.788046  0.143158  0.644888  1
  P  P12  1  0.211954  0.856842  0.355112  1
  Os  Os13  1  0.500000  0.500000  0.500000  1
  Os  Os14  1  0.500000  -0.000000  -0.000000  1
  Os  Os15  1  0.000000  0.500000  0.000000  1
  Os  Os16  1  -0.000000  -0.000000  0.500000  1
