# generated using pymatgen
data_HoGa2Ni
_symmetry_space_group_name_H-M   'P 1'
_cell_length_a   4.12020493
_cell_length_b   5.43358216
_cell_length_c   6.64980181
_cell_angle_alpha   90.00000000
_cell_angle_beta   90.00000000
_cell_angle_gamma   112.28058334
_symmetry_Int_Tables_number   1
_chemical_formula_structural   HoGa2Ni
_chemical_formula_sum   'Ho2 Ga4 Ni2'
_cell_volume   137.75719017
_cell_formula_units_Z   2
loop_
 _symmetry_equiv_pos_site_id
 _symmetry_equiv_pos_as_xyz
  1  'x, y, z'
loop_
 _atom_site_type_symbol
 _atom_site_label
 _atom_site_symmetry_multiplicity
 _atom_site_fract_x
 _atom_site_fract_y
 _atom_site_fract_z
 _atom_site_occupancy
  Ho  Ho0  1  0.428866  0.857733  0.250000  1
  Ho  Ho1  1  0.571134  0.142267  0.750000  1
  Ga  Ga2  1  0.143335  0.286671  0.054726  1
  Ga  Ga3  1  0.856665  0.713329  0.945274  1
  Ga  Ga4  1  0.856665  0.713329  0.554726  1
  Ga  Ga5  1  0.143335  0.286671  0.445274  1
  Ni  Ni6  1  0.712825  0.425651  0.250000  1
  Ni  Ni7  1  0.287175  0.574349  0.750000  1
