# generated using pymatgen
data_Ca(GaSe2)2
_symmetry_space_group_name_H-M   'P 1'
_cell_length_a   12.43271955
_cell_length_b   12.43271955
_cell_length_c   12.47352692
_cell_angle_alpha   105.40870801
_cell_angle_beta   105.40870801
_cell_angle_gamma   117.83004979
_symmetry_Int_Tables_number   1
_chemical_formula_structural   Ca(GaSe2)2
_chemical_formula_sum   'Ca8 Ga16 Se32'
_cell_volume   1461.94776890
_cell_formula_units_Z   8
loop_
 _symmetry_equiv_pos_site_id
 _symmetry_equiv_pos_as_xyz
  1  'x, y, z'
loop_
 _atom_site_type_symbol
 _atom_site_label
 _atom_site_symmetry_multiplicity
 _atom_site_fract_x
 _atom_site_fract_y
 _atom_site_fract_z
 _atom_site_occupancy
  Ca  Ca0  1  0.875000  0.125000  0.250000  1
  Ca  Ca1  1  0.125000  0.875000  0.750000  1
  Ca  Ca2  1  0.375000  0.625000  0.250000  1
  Ca  Ca3  1  0.625000  0.375000  0.750000  1
  Ca  Ca4  1  0.622888  0.872888  0.745775  1
  Ca  Ca5  1  0.127112  0.377112  0.754225  1
  Ca  Ca6  1  0.377112  0.127112  0.254225  1
  Ca  Ca7  1  0.872888  0.622888  0.245775  1
  Ga  Ga8  1  0.030504  0.639410  0.000335  1
  Ga  Ga9  1  0.639074  0.530168  0.499665  1
  Ga  Ga10  1  0.360590  0.969496  0.499665  1
  Ga  Ga11  1  0.469832  0.360926  0.000335  1
  Ga  Ga12  1  0.969496  0.360590  0.999665  1
  Ga  Ga13  1  0.360926  0.469832  0.500335  1
  Ga  Ga14  1  0.639410  0.030504  0.500335  1
  Ga  Ga15  1  0.530168  0.639074  0.999665  1
  Ga  Ga16  1  0.388304  0.865627  0.001284  1
  Ga  Ga17  1  0.864343  0.887021  0.498716  1
  Ga  Ga18  1  0.134373  0.611696  0.498716  1
  Ga  Ga19  1  0.112979  0.135657  0.001284  1
  Ga  Ga20  1  0.611696  0.134373  0.998716  1
  Ga  Ga21  1  0.135657  0.112979  0.501284  1
  Ga  Ga22  1  0.865627  0.388304  0.501284  1
  Ga  Ga23  1  0.887021  0.864343  0.998716  1
  Se  Se24  1  0.911149  0.411682  0.325943  1
  Se  Se25  1  0.085739  0.085206  0.174057  1
  Se  Se26  1  0.588318  0.088851  0.174057  1
  Se  Se27  1  0.914794  0.914261  0.325943  1
  Se  Se28  1  0.088851  0.588318  0.674057  1
  Se  Se29  1  0.914261  0.914794  0.825943  1
  Se  Se30  1  0.411682  0.911149  0.825943  1
  Se  Se31  1  0.085206  0.085739  0.674057  1
  Se  Se32  1  0.411176  0.410744  0.324960  1
  Se  Se33  1  0.085784  0.586216  0.175040  1
  Se  Se34  1  0.589256  0.588824  0.175040  1
  Se  Se35  1  0.413784  0.914216  0.324960  1
  Se  Se36  1  0.588824  0.589256  0.675040  1
  Se  Se37  1  0.914216  0.413784  0.824960  1
  Se  Se38  1  0.410744  0.411176  0.824960  1
  Se  Se39  1  0.586216  0.085784  0.675040  1
  Se  Se40  1  0.659248  0.345700  0.997180  1
  Se  Se41  1  0.348520  0.162068  0.502820  1
  Se  Se42  1  0.654300  0.340752  0.502820  1
  Se  Se43  1  0.837932  0.651480  0.997180  1
  Se  Se44  1  0.340752  0.654300  0.002820  1
  Se  Se45  1  0.651480  0.837932  0.497180  1
  Se  Se46  1  0.345700  0.659248  0.497180  1
  Se  Se47  1  0.162068  0.348520  0.002820  1
  Se  Se48  1  0.318239  0.150443  0.002603  1
  Se  Se49  1  0.147840  0.815636  0.497397  1
  Se  Se50  1  0.849557  0.681761  0.497397  1
  Se  Se51  1  0.184364  0.852160  0.002603  1
  Se  Se52  1  0.681761  0.849557  0.997397  1
  Se  Se53  1  0.852160  0.184364  0.502603  1
  Se  Se54  1  0.150443  0.318239  0.502603  1
  Se  Se55  1  0.815636  0.147840  0.997397  1
