# generated using pymatgen
data_Nd2Ge5Rh3
_symmetry_space_group_name_H-M   'P 1'
_cell_length_a   6.07166546
_cell_length_b   8.49156226
_cell_length_c   8.49156226
_cell_angle_alpha   91.16741624
_cell_angle_beta   111.06273099
_cell_angle_gamma   111.06273103
_symmetry_Int_Tables_number   1
_chemical_formula_structural   Nd2Ge5Rh3
_chemical_formula_sum   'Nd4 Ge10 Rh6'
_cell_volume   375.59677614
_cell_formula_units_Z   2
loop_
 _symmetry_equiv_pos_site_id
 _symmetry_equiv_pos_as_xyz
  1  'x, y, z'
loop_
 _atom_site_type_symbol
 _atom_site_label
 _atom_site_symmetry_multiplicity
 _atom_site_fract_x
 _atom_site_fract_y
 _atom_site_fract_z
 _atom_site_occupancy
  Ge  Ge0  1  0.250000  0.499193  0.500807  1
  Ge  Ge1  1  0.750000  0.500807  0.499193  1
  Ge  Ge2  1  0.160493  0.061263  0.259763  1
  Ge  Ge3  1  0.339507  0.740237  0.938737  1
  Ge  Ge4  1  0.839507  0.938737  0.740237  1
  Ge  Ge5  1  0.660493  0.259763  0.061263  1
  Ge  Ge6  1  0.250000  0.777625  0.222375  1
  Ge  Ge7  1  0.750000  0.776221  0.223779  1
  Ge  Ge8  1  0.250000  0.223779  0.776221  1
  Ge  Ge9  1  0.750000  0.222375  0.777625  1
  Rh  Rh10  1  0.750000  0.000108  0.999892  1
  Rh  Rh11  1  0.105136  0.466230  0.747250  1
  Rh  Rh12  1  0.605136  0.747250  0.466230  1
  Rh  Rh13  1  0.894864  0.533770  0.252750  1
  Rh  Rh14  1  0.250000  0.999892  0.000108  1
  Rh  Rh15  1  0.394864  0.252750  0.533770  1
  Nd  Nd16  1  0.231094  0.864645  0.598215  1
  Nd  Nd17  1  0.268906  0.401785  0.135355  1
  Nd  Nd18  1  0.768906  0.135355  0.401785  1
  Nd  Nd19  1  0.731094  0.598215  0.864645  1
