# generated using pymatgen
data_Pr(NO5)3
_symmetry_space_group_name_H-M   'P 1'
_cell_length_a   9.06636859
_cell_length_b   11.50173627
_cell_length_c   6.62223339
_cell_angle_alpha   91.07052856
_cell_angle_beta   112.23518493
_cell_angle_gamma   109.13246448
_symmetry_Int_Tables_number   1
_chemical_formula_structural   Pr(NO5)3
_chemical_formula_sum   'Pr2 N6 O30'
_cell_volume   595.80572710
_cell_formula_units_Z   2
loop_
 _symmetry_equiv_pos_site_id
 _symmetry_equiv_pos_as_xyz
  1  'x, y, z'
loop_
 _atom_site_type_symbol
 _atom_site_label
 _atom_site_symmetry_multiplicity
 _atom_site_fract_x
 _atom_site_fract_y
 _atom_site_fract_z
 _atom_site_occupancy
  Pr  Pr0  1  0.885312  0.716866  0.821170  1
  Pr  Pr1  1  0.114688  0.283134  0.178830  1
  N  N2  1  0.664597  0.835561  0.920460  1
  N  N3  1  0.335403  0.164439  0.079540  1
  N  N4  1  0.671633  0.486483  0.928087  1
  N  N5  1  0.328367  0.513517  0.071913  1
  N  N6  1  0.764120  0.184230  0.825120  1
  N  N7  1  0.235880  0.815770  0.174880  1
  O  O8  1  0.572815  0.875636  0.974318  1
  O  O9  1  0.427185  0.124364  0.025682  1
  O  O10  1  0.815336  0.845693  0.059470  1
  O  O11  1  0.184664  0.154307  0.940530  1
  O  O12  1  0.617861  0.781206  0.724044  1
  O  O13  1  0.382139  0.218794  0.275956  1
  O  O14  1  0.824225  0.558432  0.061642  1
  O  O15  1  0.175775  0.441568  0.938358  1
  O  O16  1  0.620886  0.509167  0.729436  1
  O  O17  1  0.379114  0.490833  0.270564  1
  O  O18  1  0.582987  0.402826  0.989888  1
  O  O19  1  0.417013  0.597174  0.010112  1
  O  O20  1  0.839454  0.300978  0.912649  1
  O  O21  1  0.160546  0.699022  0.087351  1
  O  O22  1  0.629555  0.145686  0.660659  1
  O  O23  1  0.370445  0.854314  0.339341  1
  O  O24  1  0.842314  0.111252  0.920460  1
  O  O25  1  0.157686  0.888748  0.079540  1
  O  O26  1  0.866946  0.951079  0.561567  1
  O  O27  1  0.133054  0.048921  0.438433  1
  O  O28  1  0.773676  0.685612  0.427678  1
  O  O29  1  0.226324  0.314388  0.572322  1
  O  O30  1  0.872926  0.478596  0.565044  1
  O  O31  1  0.127074  0.521404  0.434956  1
  O  O32  1  0.901342  0.228651  0.354642  1
  O  O33  1  0.098658  0.771349  0.645358  1
  O  O34  1  0.785394  0.007610  0.444015  1
  O  O35  1  0.214606  0.992390  0.555985  1
  O  O36  1  0.788232  0.374838  0.455549  1
  O  O37  1  0.211768  0.625162  0.544450  1
