# generated using pymatgen
data_Sc2P7Ru12
_symmetry_space_group_name_H-M   'P 1'
_cell_length_a   9.36185393
_cell_length_b   9.36185393
_cell_length_c   3.91757700
_cell_angle_alpha   90.00000000
_cell_angle_beta   90.00000000
_cell_angle_gamma   120.00000003
_symmetry_Int_Tables_number   1
_chemical_formula_structural   Sc2P7Ru12
_chemical_formula_sum   'Sc2 P7 Ru12'
_cell_volume   297.35270552
_cell_formula_units_Z   1
loop_
 _symmetry_equiv_pos_site_id
 _symmetry_equiv_pos_as_xyz
  1  'x, y, z'
loop_
 _atom_site_type_symbol
 _atom_site_label
 _atom_site_symmetry_multiplicity
 _atom_site_fract_x
 _atom_site_fract_y
 _atom_site_fract_z
 _atom_site_occupancy
  P  P0  1  0.597517  0.717909  0.500000  1
  P  P1  1  0.000000  0.000000  0.000000  1
  P  P2  1  0.282091  0.879608  0.500000  1
  P  P3  1  0.120392  0.402483  0.500000  1
  P  P4  1  0.882210  0.573010  0.000000  1
  P  P5  1  0.426990  0.309200  0.000000  1
  P  P6  1  0.690800  0.117790  0.000000  1
  Sc  Sc7  1  0.666667  0.333333  0.500000  1
  Sc  Sc8  1  0.333333  0.666667  0.000000  1
  Ru  Ru9  1  0.553759  0.946630  0.500000  1
  Ru  Ru10  1  0.392872  0.446241  0.500000  1
  Ru  Ru11  1  0.913639  0.122708  0.500000  1
  Ru  Ru12  1  0.209069  0.086361  0.500000  1
  Ru  Ru13  1  0.877292  0.790931  0.500000  1
  Ru  Ru14  1  0.726008  0.890696  0.000000  1
  Ru  Ru15  1  0.109304  0.835311  0.000000  1
  Ru  Ru16  1  0.164689  0.273992  0.000000  1
  Ru  Ru17  1  0.427483  0.068545  0.000000  1
  Ru  Ru18  1  0.931455  0.358939  0.000000  1
  Ru  Ru19  1  0.641061  0.572517  0.000000  1
  Ru  Ru20  1  0.053370  0.607128  0.500000  1
