# generated using pymatgen
data_K2SnO3
_symmetry_space_group_name_H-M   'P 1'
_cell_length_a   5.84354236
_cell_length_b   7.16193659
_cell_length_c   10.51894564
_cell_angle_alpha   90.00000000
_cell_angle_beta   90.00000000
_cell_angle_gamma   90.00000000
_symmetry_Int_Tables_number   1
_chemical_formula_structural   K2SnO3
_chemical_formula_sum   'K8 Sn4 O12'
_cell_volume   440.22923385
_cell_formula_units_Z   4
loop_
 _symmetry_equiv_pos_site_id
 _symmetry_equiv_pos_as_xyz
  1  'x, y, z'
loop_
 _atom_site_type_symbol
 _atom_site_label
 _atom_site_symmetry_multiplicity
 _atom_site_fract_x
 _atom_site_fract_y
 _atom_site_fract_z
 _atom_site_occupancy
  K  K0  1  0.765591  0.386202  0.911828  1
  K  K1  1  0.265591  0.113798  0.911828  1
  K  K2  1  0.234409  0.613798  0.411828  1
  K  K3  1  0.265591  0.113798  0.588172  1
  K  K4  1  0.765591  0.386202  0.588172  1
  K  K5  1  0.734409  0.886202  0.088172  1
  K  K6  1  0.734409  0.886202  0.411828  1
  K  K7  1  0.234409  0.613798  0.088172  1
  Sn  Sn8  1  0.730110  0.840136  0.750000  1
  Sn  Sn9  1  0.769890  0.340136  0.250000  1
  Sn  Sn10  1  0.230110  0.659864  0.750000  1
  Sn  Sn11  1  0.269890  0.159864  0.250000  1
  O  O12  1  0.489032  0.730254  0.620524  1
  O  O13  1  0.989032  0.769746  0.620524  1
  O  O14  1  0.010968  0.230254  0.379476  1
  O  O15  1  0.510968  0.269746  0.379476  1
  O  O16  1  0.168470  0.391567  0.750000  1
  O  O17  1  0.831530  0.608433  0.250000  1
  O  O18  1  0.331530  0.891567  0.250000  1
  O  O19  1  0.668470  0.108433  0.750000  1
  O  O20  1  0.010968  0.230254  0.120524  1
  O  O21  1  0.510968  0.269746  0.120524  1
  O  O22  1  0.989032  0.769746  0.879476  1
  O  O23  1  0.489032  0.730254  0.879476  1
