# generated using pymatgen
data_Sm9Ga4
_symmetry_space_group_name_H-M   'P 1'
_cell_length_a   5.12766432
_cell_length_b   8.82328415
_cell_length_c   8.82328415
_cell_angle_alpha   85.15650714
_cell_angle_beta   73.10757327
_cell_angle_gamma   73.10757320
_symmetry_Int_Tables_number   1
_chemical_formula_structural   Sm9Ga4
_chemical_formula_sum   'Sm9 Ga4'
_cell_volume   365.48508286
_cell_formula_units_Z   1
loop_
 _symmetry_equiv_pos_site_id
 _symmetry_equiv_pos_as_xyz
  1  'x, y, z'
loop_
 _atom_site_type_symbol
 _atom_site_label
 _atom_site_symmetry_multiplicity
 _atom_site_fract_x
 _atom_site_fract_y
 _atom_site_fract_z
 _atom_site_occupancy
  Ga  Ga0  1  0.387163  0.880995  0.344680  1
  Ga  Ga1  1  0.731842  0.655320  0.880995  1
  Ga  Ga2  1  0.268158  0.344680  0.119005  1
  Ga  Ga3  1  0.612837  0.119005  0.655320  1
  Sm  Sm4  1  0.500000  0.000000  0.000000  1
  Sm  Sm5  1  0.124057  0.280734  0.471151  1
  Sm  Sm6  1  0.595209  0.528849  0.280734  1
  Sm  Sm7  1  0.404791  0.471151  0.719266  1
  Sm  Sm8  1  0.875943  0.719266  0.528849  1
  Sm  Sm9  1  0.184509  0.925675  0.705306  1
  Sm  Sm10  1  0.889815  0.294694  0.925675  1
  Sm  Sm11  1  0.110185  0.705306  0.074325  1
  Sm  Sm12  1  0.815491  0.074325  0.294694  1
