# generated using pymatgen
data_Te2MoWSeS
_symmetry_space_group_name_H-M   'P 1'
_cell_length_a   3.39903447
_cell_length_b   3.39898520
_cell_length_c   38.74635103
_cell_angle_alpha   90.00045242
_cell_angle_beta   90.00004509
_cell_angle_gamma   120.00027531
_symmetry_Int_Tables_number   1
_chemical_formula_structural   Te2MoWSeS
_chemical_formula_sum   'Te4 Mo2 W2 Se2 S2'
_cell_volume   387.67257361
_cell_formula_units_Z   2
loop_
 _symmetry_equiv_pos_site_id
 _symmetry_equiv_pos_as_xyz
  1  'x, y, z'
loop_
 _atom_site_type_symbol
 _atom_site_label
 _atom_site_symmetry_multiplicity
 _atom_site_fract_x
 _atom_site_fract_y
 _atom_site_fract_z
 _atom_site_occupancy
  Te  Te0  1  0.333362  0.666725  0.330061  1
  Te  Te1  1  0.333356  0.666713  0.706139  1
  Te  Te2  1  0.333352  0.666704  0.233447  1
  Te  Te3  1  0.333349  0.666699  0.608947  1
  Mo  Mo4  1  0.333310  0.666620  0.093980  1
  Mo  Mo5  1  0.666693  0.333386  0.281808  1
  W  W6  1  0.333313  0.666624  0.469636  1
  W  W7  1  0.666688  0.333378  0.657540  1
  Se  Se8  1  0.666634  0.333268  0.426943  1
  Se  Se9  1  0.666651  0.333302  0.512370  1
  S  S10  1  0.666644  0.333287  0.055148  1
  S  S11  1  0.666647  0.333294  0.132729  1
