# generated using pymatgen
data_Te2Mo3W(SeS2)2
_symmetry_space_group_name_H-M   'P 1'
_cell_length_a   3.31055255
_cell_length_b   3.31055112
_cell_length_c   37.63057286
_cell_angle_alpha   90.00020886
_cell_angle_beta   90.00000000
_cell_angle_gamma   120.00001419
_symmetry_Int_Tables_number   1
_chemical_formula_structural   Te2Mo3W(SeS2)2
_chemical_formula_sum   'Te2 Mo3 W1 Se2 S4'
_cell_volume   357.16770544
_cell_formula_units_Z   1
loop_
 _symmetry_equiv_pos_site_id
 _symmetry_equiv_pos_as_xyz
  1  'x, y, z'
loop_
 _atom_site_type_symbol
 _atom_site_label
 _atom_site_symmetry_multiplicity
 _atom_site_fract_x
 _atom_site_fract_y
 _atom_site_fract_z
 _atom_site_occupancy
  Te  Te0  1  0.333350  0.666700  0.332945  1
  Te  Te1  1  0.333349  0.666699  0.230651  1
  Mo  Mo2  1  0.333305  0.666610  0.093899  1
  Mo  Mo3  1  0.333308  0.666616  0.469686  1
  Mo  Mo4  1  0.666692  0.333385  0.657532  1
  W  W5  1  0.666687  0.333373  0.281803  1
  Se  Se6  1  0.333365  0.666731  0.702174  1
  Se  Se7  1  0.333350  0.666701  0.612889  1
  S  S8  1  0.666656  0.333311  0.053310  1
  S  S9  1  0.666642  0.333284  0.429080  1
  S  S10  1  0.666655  0.333309  0.134508  1
  S  S11  1  0.666641  0.333281  0.510272  1
