# generated using pymatgen
data_Ce2Fe2Si2C
_symmetry_space_group_name_H-M   'P 1'
_cell_length_a   3.97383216
_cell_length_b   5.75007493
_cell_length_c   5.67495512
_cell_angle_alpha   75.66052173
_cell_angle_beta   69.50533643
_cell_angle_gamma   69.78486350
_symmetry_Int_Tables_number   1
_chemical_formula_structural   Ce2Fe2Si2C
_chemical_formula_sum   'Ce2 Fe2 Si2 C1'
_cell_volume   112.79221455
_cell_formula_units_Z   1
loop_
 _symmetry_equiv_pos_site_id
 _symmetry_equiv_pos_as_xyz
  1  'x, y, z'
loop_
 _atom_site_type_symbol
 _atom_site_label
 _atom_site_symmetry_multiplicity
 _atom_site_fract_x
 _atom_site_fract_y
 _atom_site_fract_z
 _atom_site_occupancy
  Ce  Ce0  1  0.436878  0.827915  0.298328  1
  Ce  Ce1  1  0.563122  0.172085  0.701672  1
  Fe  Fe2  1  0.802717  0.311611  0.082955  1
  Fe  Fe3  1  0.197283  0.688389  0.917045  1
  Si  Si4  1  0.836565  0.607041  0.719829  1
  Si  Si5  1  0.163435  0.392959  0.280171  1
  C  C6  1  -0.000000  0.000000  -0.000000  1
