# generated using pymatgen
data_Ba2Mn(PO4)2
_symmetry_space_group_name_H-M   'P 1'
_cell_length_a   5.41325311
_cell_length_b   9.11716030
_cell_length_c   16.44473372
_cell_angle_alpha   90.00000000
_cell_angle_beta   90.35895612
_cell_angle_gamma   90.00000000
_symmetry_Int_Tables_number   1
_chemical_formula_structural   Ba2Mn(PO4)2
_chemical_formula_sum   'Ba8 Mn4 P8 O32'
_cell_volume   811.58917717
_cell_formula_units_Z   4
loop_
 _symmetry_equiv_pos_site_id
 _symmetry_equiv_pos_as_xyz
  1  'x, y, z'
loop_
 _atom_site_type_symbol
 _atom_site_label
 _atom_site_symmetry_multiplicity
 _atom_site_fract_x
 _atom_site_fract_y
 _atom_site_fract_z
 _atom_site_occupancy
  O  O0  1  0.837536  0.989461  0.736498  1
  O  O1  1  0.662464  0.489460  0.763502  1
  O  O2  1  0.162464  0.010539  0.263501  1
  O  O3  1  0.337537  0.510539  0.236498  1
  O  O4  1  0.453530  0.887615  0.665773  1
  O  O5  1  0.046470  0.387614  0.834227  1
  O  O6  1  0.546469  0.112386  0.334226  1
  O  O7  1  0.953531  0.612386  0.165774  1
  O  O8  1  0.858492  0.739056  0.669632  1
  O  O9  1  0.641509  0.239056  0.830368  1
  O  O10  1  0.141509  0.260944  0.330368  1
  O  O11  1  0.358492  0.760945  0.169632  1
  O  O12  1  0.828832  0.967623  0.582311  1
  O  O13  1  0.671170  0.467622  0.917689  1
  O  O14  1  0.171169  0.032378  0.417689  1
  O  O15  1  0.328831  0.532377  0.082311  1
  O  O16  1  0.476861  0.851677  0.876504  1
  O  O17  1  0.023137  0.351678  0.623496  1
  O  O18  1  0.523138  0.148323  0.123496  1
  O  O19  1  0.976862  0.648322  0.376504  1
  O  O20  1  0.790379  0.598043  0.514041  1
  O  O21  1  0.709621  0.098044  0.985959  1
  O  O22  1  0.209622  0.401956  0.485959  1
  O  O23  1  0.290378  0.901956  0.014041  1
  O  O24  1  0.520829  0.698588  0.399300  1
  O  O25  1  0.979170  0.198588  0.100700  1
  O  O26  1  0.168782  0.060001  0.888962  1
  O  O27  1  0.020829  0.801412  0.899299  1
  O  O28  1  0.668783  0.439999  0.388962  1
  O  O29  1  0.831217  0.939999  0.111038  1
  O  O30  1  0.331218  0.560001  0.611038  1
  O  O31  1  0.479170  0.301412  0.600701  1
  P  P32  1  0.741451  0.895924  0.663027  1
  P  P33  1  0.758549  0.395924  0.836973  1
  P  P34  1  0.258550  0.104077  0.336973  1
  P  P35  1  0.241450  0.604076  0.163027  1
  P  P36  1  0.239728  0.904608  0.922086  1
  P  P37  1  0.739729  0.595392  0.422086  1
  P  P38  1  0.760271  0.095392  0.077914  1
  P  P39  1  0.260272  0.404608  0.577914  1
  Mn  Mn40  1  0.768301  0.017873  0.864367  1
  Mn  Mn41  1  0.731698  0.517873  0.635633  1
  Mn  Mn42  1  0.268303  0.482127  0.364368  1
  Mn  Mn43  1  0.231698  0.982127  0.135633  1
  Ba  Ba44  1  0.239821  0.657393  0.770425  1
  Ba  Ba45  1  0.260179  0.157394  0.729575  1
  Ba  Ba46  1  0.760178  0.342607  0.229575  1
  Ba  Ba47  1  0.739822  0.842606  0.270425  1
  Ba  Ba48  1  0.796295  0.202128  0.479471  1
  Ba  Ba49  1  0.703705  0.702129  0.020529  1
  Ba  Ba50  1  0.203706  0.797871  0.520529  1
  Ba  Ba51  1  0.296294  0.297871  0.979471  1
