# generated using pymatgen
data_MnSe2O5
_symmetry_space_group_name_H-M   'P 1'
_cell_length_a   6.00981854
_cell_length_b   6.88169637
_cell_length_c   6.88169637
_cell_angle_alpha   107.06817245
_cell_angle_beta   105.28654517
_cell_angle_gamma   105.28654520
_symmetry_Int_Tables_number   1
_chemical_formula_structural   MnSe2O5
_chemical_formula_sum   'Mn2 Se4 O10'
_cell_volume   243.84241418
_cell_formula_units_Z   2
loop_
 _symmetry_equiv_pos_site_id
 _symmetry_equiv_pos_as_xyz
  1  'x, y, z'
loop_
 _atom_site_type_symbol
 _atom_site_label
 _atom_site_symmetry_multiplicity
 _atom_site_fract_x
 _atom_site_fract_y
 _atom_site_fract_z
 _atom_site_occupancy
  O  O0  1  0.250000  0.575397  0.424603  1
  O  O1  1  0.750000  0.424603  0.575397  1
  O  O2  1  0.227334  0.973159  0.404195  1
  O  O3  1  0.272666  0.595805  0.026841  1
  O  O4  1  0.772666  0.026841  0.595805  1
  O  O5  1  0.727334  0.404195  0.973159  1
  O  O6  1  0.840111  0.784099  0.915085  1
  O  O7  1  0.659889  0.084915  0.215901  1
  O  O8  1  0.159889  0.215901  0.084915  1
  O  O9  1  0.340111  0.915085  0.784099  1
  Mn  Mn10  1  0.250000  0.917530  0.082470  1
  Mn  Mn11  1  0.750000  0.082470  0.917530  1
  Se  Se12  1  0.132518  0.796701  0.518147  1
  Se  Se13  1  0.367482  0.481853  0.203299  1
  Se  Se14  1  0.867482  0.203299  0.481853  1
  Se  Se15  1  0.632518  0.518147  0.796701  1
