# generated using pymatgen
data_La4Al6O15
_symmetry_space_group_name_H-M   'P 1'
_cell_length_a   5.06000761
_cell_length_b   6.95949514
_cell_length_c   21.22585307
_cell_angle_alpha   87.03149515
_cell_angle_beta   90.13821872
_cell_angle_gamma   68.80892143
_symmetry_Int_Tables_number   1
_chemical_formula_structural   La4Al6O15
_chemical_formula_sum   'La8 Al12 O30'
_cell_volume   695.81218458
_cell_formula_units_Z   2
loop_
 _symmetry_equiv_pos_site_id
 _symmetry_equiv_pos_as_xyz
  1  'x, y, z'
loop_
 _atom_site_type_symbol
 _atom_site_label
 _atom_site_symmetry_multiplicity
 _atom_site_fract_x
 _atom_site_fract_y
 _atom_site_fract_z
 _atom_site_occupancy
  La  La0  1  0.326922  0.725905  0.798923  1
  La  La1  1  0.353873  0.713827  0.602013  1
  La  La2  1  0.951556  0.723284  0.298856  1
  La  La3  1  0.928405  0.713015  0.101575  1
  La  La4  1  0.072729  0.288376  0.898430  1
  La  La5  1  0.050230  0.276721  0.701232  1
  La  La6  1  0.646828  0.284947  0.398550  1
  La  La7  1  0.675049  0.274945  0.201437  1
  Al  Al8  1  0.793547  0.830057  0.914211  1
  Al  Al9  1  0.806857  0.842774  0.694763  1
  Al  Al10  1  0.346738  0.673784  0.973809  1
  Al  Al11  1  0.380027  0.826813  0.414335  1
  Al  Al12  1  0.351407  0.841126  0.194460  1
  Al  Al13  1  0.981159  0.671727  0.473939  1
  Al  Al14  1  0.016334  0.327365  0.526652  1
  Al  Al15  1  0.650143  0.159755  0.805596  1
  Al  Al16  1  0.618520  0.171993  0.586222  1
  Al  Al17  1  0.654152  0.328098  0.026269  1
  Al  Al18  1  0.194306  0.157010  0.305611  1
  Al  Al19  1  0.207334  0.171606  0.085891  1
  O  O20  1  0.867001  0.941420  0.620264  1
  O  O21  1  0.439331  0.839219  0.919476  1
  O  O22  1  0.457257  0.850595  0.697579  1
  O  O23  1  0.978073  0.765402  0.987866  1
  O  O24  1  0.191557  0.939954  0.119955  1
  O  O25  1  0.723661  0.838371  0.419771  1
  O  O26  1  0.984102  0.636109  0.862735  1
  O  O27  1  0.693540  0.849124  0.197350  1
  O  O28  1  0.259560  0.762995  0.487919  1
  O  O29  1  0.083415  0.602432  0.707686  1
  O  O30  1  0.894412  0.591347  0.550915  1
  O  O31  1  0.481851  0.409254  0.949775  1
  O  O32  1  0.383309  0.631857  0.363086  1
  O  O33  1  0.316395  0.600275  0.207815  1
  O  O34  1  0.685604  0.400554  0.792400  1
  O  O35  1  0.615545  0.366515  0.637613  1
  O  O36  1  0.519074  0.592706  0.050264  1
  O  O37  1  0.101929  0.407750  0.449627  1
  O  O38  1  0.918198  0.397481  0.292493  1
  O  O39  1  0.738015  0.236115  0.512617  1
  O  O40  1  0.308159  0.151630  0.802678  1
  O  O41  1  0.016331  0.365504  0.137334  1
  O  O42  1  0.274293  0.161263  0.580858  1
  O  O43  1  0.809486  0.061602  0.880197  1
  O  O44  1  0.875393  0.001221  0.750242  1
  O  O45  1  0.022845  0.236458  0.012207  1
  O  O46  1  0.543934  0.149208  0.302835  1
  O  O47  1  0.561396  0.162702  0.080593  1
  O  O48  1  0.132670  0.057300  0.379850  1
  O  O49  1  0.126257  0.998961  0.249948  1
