# generated using pymatgen
data_BaSbTe3
_symmetry_space_group_name_H-M   'P 1'
_cell_length_a   4.61707245
_cell_length_b   17.35766688
_cell_length_c   18.35850183
_cell_angle_alpha   90.00000000
_cell_angle_beta   90.00000000
_cell_angle_gamma   90.00000000
_symmetry_Int_Tables_number   1
_chemical_formula_structural   BaSbTe3
_chemical_formula_sum   'Ba8 Sb8 Te24'
_cell_volume   1471.27981211
_cell_formula_units_Z   8
loop_
 _symmetry_equiv_pos_site_id
 _symmetry_equiv_pos_as_xyz
  1  'x, y, z'
loop_
 _atom_site_type_symbol
 _atom_site_label
 _atom_site_symmetry_multiplicity
 _atom_site_fract_x
 _atom_site_fract_y
 _atom_site_fract_z
 _atom_site_occupancy
  Sb  Sb0  1  0.025404  0.531176  0.949550  1
  Sb  Sb1  1  0.525404  0.468824  0.550450  1
  Sb  Sb2  1  0.474596  0.031176  0.050450  1
  Sb  Sb3  1  0.974596  0.968824  0.449550  1
  Sb  Sb4  1  0.979124  0.882309  0.220918  1
  Sb  Sb5  1  0.479124  0.117691  0.279082  1
  Sb  Sb6  1  0.520876  0.382309  0.779082  1
  Sb  Sb7  1  0.020876  0.617691  0.720918  1
  Te  Te8  1  0.002145  0.725102  0.275385  1
  Te  Te9  1  0.502145  0.274898  0.224615  1
  Te  Te10  1  0.497855  0.225102  0.724615  1
  Te  Te11  1  0.997855  0.774898  0.775385  1
  Te  Te12  1  0.941545  0.538324  0.441852  1
  Te  Te13  1  0.441545  0.461676  0.058148  1
  Te  Te14  1  0.558455  0.038324  0.558148  1
  Te  Te15  1  0.058455  0.961676  0.941852  1
  Te  Te16  1  0.529512  0.931165  0.341963  1
  Te  Te17  1  0.029512  0.068835  0.158037  1
  Te  Te18  1  0.970488  0.431165  0.658037  1
  Te  Te19  1  0.470488  0.568835  0.841963  1
  Te  Te20  1  0.462845  0.986808  0.808677  1
  Te  Te21  1  0.962845  0.013192  0.691323  1
  Te  Te22  1  0.037155  0.486808  0.191323  1
  Te  Te23  1  0.537155  0.513192  0.308677  1
  Te  Te24  1  0.488192  0.647306  0.618394  1
  Te  Te25  1  0.988192  0.352694  0.881606  1
  Te  Te26  1  0.011808  0.147306  0.381606  1
  Te  Te27  1  0.511808  0.852694  0.118394  1
  Te  Te28  1  0.989089  0.817042  0.517027  1
  Te  Te29  1  0.489089  0.182958  0.982973  1
  Te  Te30  1  0.510911  0.317042  0.482973  1
  Te  Te31  1  0.010911  0.682958  0.017027  1
  Ba  Ba32  1  0.508350  0.790151  0.916294  1
  Ba  Ba33  1  0.008350  0.209849  0.583706  1
  Ba  Ba34  1  0.991650  0.290151  0.083706  1
  Ba  Ba35  1  0.491650  0.709849  0.416294  1
  Ba  Ba36  1  0.512574  0.646027  0.154503  1
  Ba  Ba37  1  0.012574  0.353973  0.345497  1
  Ba  Ba38  1  0.987426  0.146027  0.845497  1
  Ba  Ba39  1  0.487426  0.853973  0.654503  1
