# generated using pymatgen
data_ZnAg2GeO4
_symmetry_space_group_name_H-M   'P 1'
_cell_length_a   5.63768386
_cell_length_b   5.68643561
_cell_length_c   7.20325937
_cell_angle_alpha   90.00000000
_cell_angle_beta   90.57140074
_cell_angle_gamma   90.00000000
_symmetry_Int_Tables_number   1
_chemical_formula_structural   ZnAg2GeO4
_chemical_formula_sum   'Zn2 Ag4 Ge2 O8'
_cell_volume   230.91295568
_cell_formula_units_Z   2
loop_
 _symmetry_equiv_pos_site_id
 _symmetry_equiv_pos_as_xyz
  1  'x, y, z'
loop_
 _atom_site_type_symbol
 _atom_site_label
 _atom_site_symmetry_multiplicity
 _atom_site_fract_x
 _atom_site_fract_y
 _atom_site_fract_z
 _atom_site_occupancy
  O  O0  1  0.187041  0.293273  0.783266  1
  O  O1  1  0.687041  0.706727  0.283266  1
  O  O2  1  0.152929  0.797120  0.448579  1
  O  O3  1  0.652929  0.202880  0.948579  1
  O  O4  1  0.580833  0.614218  0.717964  1
  O  O5  1  0.575452  0.148838  0.546722  1
  O  O6  1  0.080833  0.385782  0.217964  1
  O  O7  1  0.075452  0.851162  0.046722  1
  Zn  Zn8  1  0.500550  0.811151  0.498852  1
  Zn  Zn9  1  0.000550  0.188849  0.998852  1
  Ge  Ge10  1  0.999017  0.686634  0.249503  1
  Ge  Ge11  1  0.499017  0.313366  0.749503  1
  Ag  Ag12  1  0.993794  0.194941  0.503927  1
  Ag  Ag13  1  0.493794  0.805059  0.003927  1
  Ag  Ag14  1  0.504383  0.304928  0.243188  1
  Ag  Ag15  1  0.004383  0.695072  0.743188  1
