# generated using pymatgen
data_BaGaCu2
_symmetry_space_group_name_H-M   'P 1'
_cell_length_a   4.31139462
_cell_length_b   4.31139435
_cell_length_c   6.20291375
_cell_angle_alpha   69.66370105
_cell_angle_beta   69.66370350
_cell_angle_gamma   60.00000198
_symmetry_Int_Tables_number   1
_chemical_formula_structural   BaGaCu2
_chemical_formula_sum   'Ba1 Ga1 Cu2'
_cell_volume   91.46050477
_cell_formula_units_Z   1
loop_
 _symmetry_equiv_pos_site_id
 _symmetry_equiv_pos_as_xyz
  1  'x, y, z'
loop_
 _atom_site_type_symbol
 _atom_site_label
 _atom_site_symmetry_multiplicity
 _atom_site_fract_x
 _atom_site_fract_y
 _atom_site_fract_z
 _atom_site_occupancy
  Ba  Ba0  1  -0.000000  -0.000000  -0.000000  1
  Ga  Ga1  1  0.500000  0.500000  0.500000  1
  Cu  Cu2  1  0.812079  0.812079  0.563763  1
  Cu  Cu3  1  0.187921  0.187921  0.436237  1
