# generated using pymatgen
data_MoW3(Se3S)2
_symmetry_space_group_name_H-M   'P 1'
_cell_length_a   3.28655875
_cell_length_b   3.28654665
_cell_length_c   37.40321494
_cell_angle_alpha   90.00007636
_cell_angle_beta   90.00000000
_cell_angle_gamma   120.00012168
_symmetry_Int_Tables_number   1
_chemical_formula_structural   MoW3(Se3S)2
_chemical_formula_sum   'Mo1 W3 Se6 S2'
_cell_volume   349.88089871
_cell_formula_units_Z   1
loop_
 _symmetry_equiv_pos_site_id
 _symmetry_equiv_pos_as_xyz
  1  'x, y, z'
loop_
 _atom_site_type_symbol
 _atom_site_label
 _atom_site_symmetry_multiplicity
 _atom_site_fract_x
 _atom_site_fract_y
 _atom_site_fract_z
 _atom_site_occupancy
  Mo  Mo0  1  0.666689  0.333379  0.281789  1
  W  W1  1  0.333312  0.666623  0.093921  1
  W  W2  1  0.333309  0.666619  0.469657  1
  W  W3  1  0.666689  0.333378  0.657548  1
  Se  Se4  1  0.333354  0.666708  0.326864  1
  Se  Se5  1  0.333352  0.666705  0.702900  1
  Se  Se6  1  0.666647  0.333293  0.424314  1
  Se  Se7  1  0.666647  0.333293  0.515003  1
  Se  Se8  1  0.333351  0.666704  0.236723  1
  Se  Se9  1  0.333357  0.666715  0.612180  1
  S  S10  1  0.666646  0.333292  0.052733  1
  S  S11  1  0.666646  0.333292  0.135117  1
