# generated using pymatgen
data_LiPr2OsO6
_symmetry_space_group_name_H-M   'P 1'
_cell_length_a   5.51420149
_cell_length_b   5.85547569
_cell_length_c   7.85179595
_cell_angle_alpha   90.00000000
_cell_angle_beta   90.49379532
_cell_angle_gamma   90.00000000
_symmetry_Int_Tables_number   1
_chemical_formula_structural   LiPr2OsO6
_chemical_formula_sum   'Li2 Pr4 Os2 O12'
_cell_volume   253.51151410
_cell_formula_units_Z   2
loop_
 _symmetry_equiv_pos_site_id
 _symmetry_equiv_pos_as_xyz
  1  'x, y, z'
loop_
 _atom_site_type_symbol
 _atom_site_label
 _atom_site_symmetry_multiplicity
 _atom_site_fract_x
 _atom_site_fract_y
 _atom_site_fract_z
 _atom_site_occupancy
  Li  Li0  1  0.000000  0.000000  0.000000  1
  Li  Li1  1  0.500000  0.500000  0.500000  1
  O  O2  1  0.182035  0.286505  0.447257  1
  O  O3  1  0.317965  0.786505  0.052743  1
  O  O4  1  0.096732  0.030654  0.743270  1
  O  O5  1  0.403268  0.530654  0.756730  1
  O  O6  1  0.817965  0.713495  0.552743  1
  O  O7  1  0.682035  0.213495  0.947257  1
  O  O8  1  0.206419  0.313180  0.047303  1
  O  O9  1  0.293581  0.813180  0.452697  1
  O  O10  1  0.793581  0.686820  0.952697  1
  O  O11  1  0.706419  0.186820  0.547303  1
  O  O12  1  0.596732  0.469346  0.243270  1
  O  O13  1  0.903268  0.969346  0.256730  1
  Pr  Pr14  1  0.983695  0.431553  0.751296  1
  Pr  Pr15  1  0.516305  0.931553  0.748704  1
  Pr  Pr16  1  0.016305  0.568447  0.248704  1
  Pr  Pr17  1  0.483695  0.068447  0.251296  1
  Os  Os18  1  0.000000  0.000000  0.500000  1
  Os  Os19  1  0.500000  0.500000  0.000000  1
