# generated using pymatgen
data_Na6Si2O7
_symmetry_space_group_name_H-M   'P 1'
_cell_length_a   5.88493755
_cell_length_b   11.73072769
_cell_length_c   23.45858933
_cell_angle_alpha   89.61972220
_cell_angle_beta   88.77023891
_cell_angle_gamma   88.79256827
_symmetry_Int_Tables_number   1
_chemical_formula_structural   Na6Si2O7
_chemical_formula_sum   'Na48 Si16 O56'
_cell_volume   1618.69082809
_cell_formula_units_Z   8
loop_
 _symmetry_equiv_pos_site_id
 _symmetry_equiv_pos_as_xyz
  1  'x, y, z'
loop_
 _atom_site_type_symbol
 _atom_site_label
 _atom_site_symmetry_multiplicity
 _atom_site_fract_x
 _atom_site_fract_y
 _atom_site_fract_z
 _atom_site_occupancy
  Na  Na0  1  0.246839  0.008083  0.762848  1
  Na  Na1  1  0.753161  0.991917  0.237152  1
  Na  Na2  1  0.379976  0.981578  0.623417  1
  Na  Na3  1  0.620024  0.018422  0.376583  1
  Na  Na4  1  0.747980  0.994297  0.727581  1
  Na  Na5  1  0.252020  0.005703  0.272419  1
  Na  Na6  1  0.637171  0.024684  0.859334  1
  Na  Na7  1  0.362829  0.975316  0.140666  1
  Na  Na8  1  0.752533  0.474623  0.992656  1
  Na  Na9  1  0.247467  0.525377  0.007344  1
  Na  Na10  1  0.251908  0.962000  0.494575  1
  Na  Na11  1  0.748092  0.038000  0.505425  1
  Na  Na12  1  0.257411  0.474305  0.749156  1
  Na  Na13  1  0.742589  0.525695  0.250844  1
  Na  Na14  1  0.388662  0.496878  0.877797  1
  Na  Na15  1  0.611338  0.503122  0.122203  1
  Na  Na16  1  0.881557  0.259442  0.746742  1
  Na  Na17  1  0.118443  0.740558  0.253258  1
  Na  Na18  1  0.755353  0.490615  0.494342  1
  Na  Na19  1  0.244647  0.509385  0.505658  1
  Na  Na20  1  0.247997  0.982772  0.999900  1
  Na  Na21  1  0.752003  0.017228  0.000100  1
  Na  Na22  1  0.878457  0.725366  0.987631  1
  Na  Na23  1  0.121543  0.274634  0.012369  1
  Na  Na24  1  0.392747  0.211013  0.686803  1
  Na  Na25  1  0.607253  0.788987  0.313197  1
  Na  Na26  1  0.108312  0.748513  0.752103  1
  Na  Na27  1  0.891688  0.251487  0.247897  1
  Na  Na28  1  0.749088  0.527724  0.764701  1
  Na  Na29  1  0.250912  0.472276  0.235299  1
  Na  Na30  1  0.859903  0.769693  0.483096  1
  Na  Na31  1  0.140097  0.230307  0.516904  1
  Na  Na32  1  0.430826  0.764101  0.923379  1
  Na  Na33  1  0.569174  0.235899  0.076621  1
  Na  Na34  1  0.105040  0.152606  0.897222  1
  Na  Na35  1  0.894960  0.847394  0.102778  1
  Na  Na36  1  0.583689  0.782486  0.804873  1
  Na  Na37  1  0.416311  0.217514  0.195127  1
  Na  Na38  1  0.618785  0.520428  0.640055  1
  Na  Na39  1  0.381215  0.479572  0.359945  1
  Na  Na40  1  0.910900  0.379475  0.869230  1
  Na  Na41  1  0.089100  0.620525  0.130770  1
  Na  Na42  1  0.896299  0.874734  0.599562  1
  Na  Na43  1  0.103701  0.125266  0.400438  1
  Na  Na44  1  0.603212  0.292713  0.578566  1
  Na  Na45  1  0.396788  0.707287  0.421434  1
  Na  Na46  1  0.077379  0.646823  0.623562  1
  Na  Na47  1  0.922621  0.353177  0.376438  1
  Si  Si48  1  0.442262  0.253960  0.815581  1
  Si  Si49  1  0.557738  0.746040  0.184419  1
  Si  Si50  1  0.560907  0.249712  0.948273  1
  Si  Si51  1  0.439093  0.750288  0.051727  1
  Si  Si52  1  0.062814  0.892184  0.867815  1
  Si  Si53  1  0.937186  0.107816  0.132185  1
  Si  Si54  1  0.937504  0.628656  0.875838  1
  Si  Si55  1  0.062496  0.371344  0.124162  1
  Si  Si56  1  0.559656  0.747831  0.684493  1
  Si  Si57  1  0.440344  0.252169  0.315507  1
  Si  Si58  1  0.433862  0.753386  0.550891  1
  Si  Si59  1  0.566138  0.246614  0.449109  1
  Si  Si60  1  0.939598  0.125226  0.625901  1
  Si  Si61  1  0.060402  0.874774  0.374099  1
  Si  Si62  1  0.065825  0.394422  0.629969  1
  Si  Si63  1  0.934175  0.605578  0.370031  1
  O  O64  1  0.543445  0.151733  0.773516  1
  O  O65  1  0.456555  0.848267  0.226484  1
  O  O66  1  0.165802  0.270969  0.812345  1
  O  O67  1  0.834198  0.729031  0.187655  1
  O  O68  1  0.576470  0.373944  0.806070  1
  O  O69  1  0.423530  0.626056  0.193930  1
  O  O70  1  0.492697  0.203553  0.882435  1
  O  O71  1  0.507303  0.796447  0.117565  1
  O  O72  1  0.452790  0.152380  0.991558  1
  O  O73  1  0.547210  0.847620  0.008442  1
  O  O74  1  0.838090  0.256426  0.950060  1
  O  O75  1  0.161910  0.743574  0.049940  1
  O  O76  1  0.439270  0.374043  0.960853  1
  O  O77  1  0.560730  0.625957  0.039147  1
  O  O78  1  0.913987  0.905244  0.809202  1
  O  O79  1  0.086013  0.094756  0.190798  1
  O  O80  1  0.334527  0.907730  0.853348  1
  O  O81  1  0.665473  0.092270  0.146652  1
  O  O82  1  0.969441  0.977319  0.918802  1
  O  O83  1  0.030559  0.022681  0.081198  1
  O  O84  1  0.041743  0.757736  0.894154  1
  O  O85  1  0.958257  0.242264  0.105846  1
  O  O86  1  0.054225  0.584894  0.815695  1
  O  O87  1  0.945775  0.415106  0.184305  1
  O  O88  1  0.017482  0.546217  0.928703  1
  O  O89  1  0.982518  0.453783  0.071297  1
  O  O90  1  0.660541  0.642176  0.872548  1
  O  O91  1  0.339459  0.357824  0.127452  1
  O  O92  1  0.836958  0.756719  0.678633  1
  O  O93  1  0.163042  0.243281  0.321367  1
  O  O94  1  0.441987  0.868568  0.706027  1
  O  O95  1  0.558013  0.131432  0.293973  1
  O  O96  1  0.474806  0.642190  0.725225  1
  O  O97  1  0.525194  0.357810  0.274775  1
  O  O98  1  0.462747  0.708709  0.619304  1
  O  O99  1  0.537253  0.291291  0.380696  1
  O  O100  1  0.160000  0.773403  0.542827  1
  O  O101  1  0.840000  0.226597  0.457173  1
  O  O102  1  0.573474  0.872549  0.542102  1
  O  O103  1  0.426526  0.127451  0.457898  1
  O  O104  1  0.535413  0.652246  0.508991  1
  O  O105  1  0.464587  0.347754  0.491009  1
  O  O106  1  0.062360  0.097078  0.686571  1
  O  O107  1  0.937640  0.902922  0.313429  1
  O  O108  1  0.662865  0.112883  0.629161  1
  O  O109  1  0.337135  0.887117  0.370839  1
  O  O110  1  0.054233  0.051169  0.572889  1
  O  O111  1  0.945767  0.948831  0.427111  1
  O  O112  1  0.985104  0.263469  0.608237  1
  O  O113  1  0.014896  0.736531  0.391763  1
  O  O114  1  0.342103  0.387717  0.637521  1
  O  O115  1  0.657897  0.612283  0.362479  1
  O  O116  1  0.935575  0.428080  0.690150  1
  O  O117  1  0.064425  0.571920  0.309850  1
  O  O118  1  0.973503  0.478799  0.578558  1
  O  O119  1  0.026497  0.521201  0.421442  1
