# generated using pymatgen
data_Ca(ScS2)2
_symmetry_space_group_name_H-M   'P 1'
_cell_length_a   3.74398831
_cell_length_b   11.56776292
_cell_length_c   13.53231494
_cell_angle_alpha   90.00000000
_cell_angle_beta   90.00000000
_cell_angle_gamma   90.00000000
_symmetry_Int_Tables_number   1
_chemical_formula_structural   Ca(ScS2)2
_chemical_formula_sum   'Ca4 Sc8 S16'
_cell_volume   586.07872959
_cell_formula_units_Z   4
loop_
 _symmetry_equiv_pos_site_id
 _symmetry_equiv_pos_as_xyz
  1  'x, y, z'
loop_
 _atom_site_type_symbol
 _atom_site_label
 _atom_site_symmetry_multiplicity
 _atom_site_fract_x
 _atom_site_fract_y
 _atom_site_fract_z
 _atom_site_occupancy
  S  S0  1  0.250000  0.091412  0.075002  1
  S  S1  1  0.750000  0.908588  0.924998  1
  S  S2  1  0.250000  0.591412  0.424998  1
  S  S3  1  0.750000  0.408588  0.575002  1
  S  S4  1  0.250000  0.967068  0.715040  1
  S  S5  1  0.750000  0.032932  0.284960  1
  S  S6  1  0.250000  0.467068  0.784960  1
  S  S7  1  0.750000  0.532932  0.215040  1
  S  S8  1  0.250000  0.374245  0.032880  1
  S  S9  1  0.750000  0.625755  0.967120  1
  S  S10  1  0.250000  0.874245  0.467120  1
  S  S11  1  0.750000  0.125755  0.532880  1
  S  S12  1  0.750000  0.202181  0.830712  1
  S  S13  1  0.250000  0.797819  0.169288  1
  S  S14  1  0.750000  0.702181  0.669288  1
  S  S15  1  0.250000  0.297819  0.330712  1
  Ca  Ca16  1  0.750000  0.760190  0.332963  1
  Ca  Ca17  1  0.250000  0.239810  0.667037  1
  Ca  Ca18  1  0.750000  0.260190  0.167037  1
  Ca  Ca19  1  0.250000  0.739810  0.832963  1
  Sc  Sc20  1  0.250000  0.085314  0.403312  1
  Sc  Sc21  1  0.750000  0.914686  0.596688  1
  Sc  Sc22  1  0.250000  0.585314  0.096688  1
  Sc  Sc23  1  0.750000  0.414686  0.903312  1
  Sc  Sc24  1  0.750000  0.442340  0.388057  1
  Sc  Sc25  1  0.250000  0.557660  0.611943  1
  Sc  Sc26  1  0.750000  0.942340  0.111943  1
  Sc  Sc27  1  0.250000  0.057660  0.888057  1
