# generated using pymatgen
data_CePd
_symmetry_space_group_name_H-M   'P 1'
_cell_length_a   3.83072520
_cell_length_b   4.51624091
_cell_length_c   5.85275281
_cell_angle_alpha   90.00000000
_cell_angle_beta   70.89754341
_cell_angle_gamma   90.00000000
_symmetry_Int_Tables_number   1
_chemical_formula_structural   CePd
_chemical_formula_sum   'Ce2 Pd2'
_cell_volume   95.67977865
_cell_formula_units_Z   2
loop_
 _symmetry_equiv_pos_site_id
 _symmetry_equiv_pos_as_xyz
  1  'x, y, z'
loop_
 _atom_site_type_symbol
 _atom_site_label
 _atom_site_symmetry_multiplicity
 _atom_site_fract_x
 _atom_site_fract_y
 _atom_site_fract_z
 _atom_site_occupancy
  Ce  Ce0  1  0.136915  0.750000  0.726170  1
  Ce  Ce1  1  0.863085  0.250000  0.273830  1
  Pd  Pd2  1  0.410453  0.750000  0.179095  1
  Pd  Pd3  1  0.589547  0.250000  0.820905  1
