# generated using pymatgen
data_LiGdGe
_symmetry_space_group_name_H-M   'P 1'
_cell_length_a   7.15159779
_cell_length_b   7.15159778
_cell_length_c   4.30508128
_cell_angle_alpha   90.00000000
_cell_angle_beta   90.00000000
_cell_angle_gamma   119.99999998
_symmetry_Int_Tables_number   1
_chemical_formula_structural   LiGdGe
_chemical_formula_sum   'Li3 Gd3 Ge3'
_cell_volume   190.68571069
_cell_formula_units_Z   3
loop_
 _symmetry_equiv_pos_site_id
 _symmetry_equiv_pos_as_xyz
  1  'x, y, z'
loop_
 _atom_site_type_symbol
 _atom_site_label
 _atom_site_symmetry_multiplicity
 _atom_site_fract_x
 _atom_site_fract_y
 _atom_site_fract_z
 _atom_site_occupancy
  Li  Li0  1  0.232745  0.000000  0.500000  1
  Li  Li1  1  0.767255  0.767255  0.500000  1
  Li  Li2  1  0.000000  0.232745  0.500000  1
  Ge  Ge3  1  0.333333  0.666667  0.500000  1
  Ge  Ge4  1  0.666667  0.333333  0.500000  1
  Ge  Ge5  1  0.000000  0.000000  0.000000  1
  Gd  Gd6  1  0.000000  0.577382  0.000000  1
  Gd  Gd7  1  0.577382  0.000000  0.000000  1
  Gd  Gd8  1  0.422618  0.422618  0.000000  1
