# generated using pymatgen
data_Tm3Ni7B2
_symmetry_space_group_name_H-M   'P 1'
_cell_length_a   5.02816616
_cell_length_b   5.02837584
_cell_length_c   14.23462913
_cell_angle_alpha   89.99821934
_cell_angle_beta   90.00150709
_cell_angle_gamma   120.01090029
_symmetry_Int_Tables_number   1
_chemical_formula_structural   Tm3Ni7B2
_chemical_formula_sum   'Tm6 Ni14 B4'
_cell_volume   311.64949444
_cell_formula_units_Z   2
loop_
 _symmetry_equiv_pos_site_id
 _symmetry_equiv_pos_as_xyz
  1  'x, y, z'
loop_
 _atom_site_type_symbol
 _atom_site_label
 _atom_site_symmetry_multiplicity
 _atom_site_fract_x
 _atom_site_fract_y
 _atom_site_fract_z
 _atom_site_occupancy
  Tm  Tm0  1  0.333338  0.666658  0.532418  1
  Tm  Tm1  1  0.666664  0.333336  0.032291  1
  Tm  Tm2  1  0.666668  0.333325  0.467739  1
  Tm  Tm3  1  0.333337  0.666658  0.967585  1
  Tm  Tm4  1  0.333326  0.666669  0.749973  1
  Tm  Tm5  1  0.666662  0.333331  0.250019  1
  Ni  Ni6  1  0.999996  -0.000001  -0.000105  1
  Ni  Ni7  1  -0.000003  0.999998  0.500097  1
  Ni  Ni8  1  0.165818  0.331624  0.148099  1
  Ni  Ni9  1  0.834187  0.668395  0.648152  1
  Ni  Ni10  1  0.668379  0.834191  0.148094  1
  Ni  Ni11  1  0.165813  0.834172  0.148113  1
  Ni  Ni12  1  0.834190  0.165798  0.648151  1
  Ni  Ni13  1  0.331603  0.165812  0.648147  1
  Ni  Ni14  1  0.834180  0.668360  0.851842  1
  Ni  Ni15  1  0.834169  0.165829  0.851849  1
  Ni  Ni16  1  0.331629  0.165834  0.851852  1
  Ni  Ni17  1  0.668413  0.834212  0.351902  1
  Ni  Ni18  1  0.165776  0.834212  0.351882  1
  Ni  Ni19  1  0.165785  0.331574  0.351898  1
  B  B20  1  0.333331  0.666668  0.250019  1
  B  B21  1  0.666655  0.333336  0.749980  1
  B  B22  1  0.000007  0.999985  0.250001  1
  B  B23  1  0.999977  0.000020  0.750000  1
