# generated using pymatgen
data_BaV4O9
_symmetry_space_group_name_H-M   'P 1'
_cell_length_a   5.09013396
_cell_length_b   7.91066014
_cell_length_c   9.58032365
_cell_angle_alpha   111.60190894
_cell_angle_beta   90.00000000
_cell_angle_gamma   90.00000000
_symmetry_Int_Tables_number   1
_chemical_formula_structural   BaV4O9
_chemical_formula_sum   'Ba2 V8 O18'
_cell_volume   358.66991427
_cell_formula_units_Z   2
loop_
 _symmetry_equiv_pos_site_id
 _symmetry_equiv_pos_as_xyz
  1  'x, y, z'
loop_
 _atom_site_type_symbol
 _atom_site_label
 _atom_site_symmetry_multiplicity
 _atom_site_fract_x
 _atom_site_fract_y
 _atom_site_fract_z
 _atom_site_occupancy
  O  O0  1  0.024309  0.500000  0.250000  1
  O  O1  1  0.975691  0.500000  0.750000  1
  O  O2  1  0.903002  0.325810  0.974802  1
  O  O3  1  0.903002  0.674190  0.525198  1
  O  O4  1  0.096998  0.674190  0.025198  1
  O  O5  1  0.096998  0.325810  0.474802  1
  O  O6  1  0.422457  0.412478  0.850903  1
  O  O7  1  0.422457  0.587522  0.649097  1
  O  O8  1  0.577543  0.587522  0.149097  1
  O  O9  1  0.577543  0.412478  0.350903  1
  O  O10  1  0.126760  0.118653  0.660548  1
  O  O11  1  0.126760  0.881347  0.839452  1
  O  O12  1  0.873240  0.881347  0.339452  1
  O  O13  1  0.873240  0.118653  0.160548  1
  O  O14  1  0.565038  0.230258  0.564560  1
  O  O15  1  0.565038  0.769742  0.935440  1
  O  O16  1  0.434962  0.769742  0.435440  1
  O  O17  1  0.434962  0.230258  0.064560  1
  V  V18  1  0.742421  0.307105  0.153117  1
  V  V19  1  0.742421  0.692895  0.346883  1
  V  V20  1  0.257579  0.692895  0.846883  1
  V  V21  1  0.257579  0.307105  0.653117  1
  V  V22  1  0.243160  0.448124  0.055103  1
  V  V23  1  0.243160  0.551876  0.444897  1
  V  V24  1  0.756840  0.551876  0.944897  1
  V  V25  1  0.756840  0.448124  0.555103  1
  Ba  Ba26  1  0.329779  0.000000  0.250000  1
  Ba  Ba27  1  0.670221  0.000000  0.750000  1
