# generated using pymatgen
data_TbO3
_symmetry_space_group_name_H-M   'P 1'
_cell_length_a   3.44779858
_cell_length_b   6.55324194
_cell_length_c   6.55324193
_cell_angle_alpha   120.00000205
_cell_angle_beta   90.00000000
_cell_angle_gamma   90.00000000
_symmetry_Int_Tables_number   1
_chemical_formula_structural   TbO3
_chemical_formula_sum   'Tb2 O6'
_cell_volume   128.22860345
_cell_formula_units_Z   2
loop_
 _symmetry_equiv_pos_site_id
 _symmetry_equiv_pos_as_xyz
  1  'x, y, z'
loop_
 _atom_site_type_symbol
 _atom_site_label
 _atom_site_symmetry_multiplicity
 _atom_site_fract_x
 _atom_site_fract_y
 _atom_site_fract_z
 _atom_site_occupancy
  Tb  Tb0  1  0.750000  0.666667  0.333333  1
  Tb  Tb1  1  0.250000  0.333333  0.666667  1
  O  O2  1  0.750000  0.573418  0.631966  1
  O  O3  1  0.250000  0.426582  0.368034  1
  O  O4  1  0.750000  0.058548  0.426582  1
  O  O5  1  0.250000  0.941452  0.573418  1
  O  O6  1  0.750000  0.368034  0.941452  1
  O  O7  1  0.250000  0.631966  0.058548  1
