# generated using pymatgen
data_SrV3P4O17
_symmetry_space_group_name_H-M   'P 1'
_cell_length_a   7.55661332
_cell_length_b   10.25788929
_cell_length_c   16.65760114
_cell_angle_alpha   90.00000000
_cell_angle_beta   90.00000000
_cell_angle_gamma   90.00000000
_symmetry_Int_Tables_number   1
_chemical_formula_structural   SrV3P4O17
_chemical_formula_sum   'Sr4 V12 P16 O68'
_cell_volume   1291.21233398
_cell_formula_units_Z   4
loop_
 _symmetry_equiv_pos_site_id
 _symmetry_equiv_pos_as_xyz
  1  'x, y, z'
loop_
 _atom_site_type_symbol
 _atom_site_label
 _atom_site_symmetry_multiplicity
 _atom_site_fract_x
 _atom_site_fract_y
 _atom_site_fract_z
 _atom_site_occupancy
  O  O0  1  0.498202  0.436847  0.966800  1
  O  O1  1  0.998202  0.063154  0.033200  1
  O  O2  1  0.501798  0.936847  0.533200  1
  O  O3  1  0.001798  0.563153  0.466800  1
  O  O4  1  0.500096  0.372542  0.722953  1
  O  O5  1  0.000096  0.127458  0.277047  1
  O  O6  1  0.499904  0.872542  0.777047  1
  O  O7  1  0.999904  0.627458  0.222953  1
  O  O8  1  0.236611  0.862319  0.613954  1
  O  O9  1  0.736611  0.637681  0.386046  1
  O  O10  1  0.763389  0.362319  0.886046  1
  O  O11  1  0.263389  0.137681  0.113954  1
  O  O12  1  0.211615  0.750727  0.765769  1
  O  O13  1  0.711616  0.749272  0.234231  1
  O  O14  1  0.788385  0.250728  0.734232  1
  O  O15  1  0.288385  0.249273  0.265769  1
  O  O16  1  0.279986  0.612921  0.540457  1
  O  O17  1  0.779986  0.887078  0.459543  1
  O  O18  1  0.720013  0.112922  0.959543  1
  O  O19  1  0.220014  0.387079  0.040457  1
  O  O20  1  0.218273  0.495720  0.711595  1
  O  O21  1  0.718273  0.004279  0.288405  1
  O  O22  1  0.781727  0.995721  0.788405  1
  O  O23  1  0.281727  0.504279  0.211595  1
  O  O24  1  0.001113  0.774422  0.978894  1
  O  O25  1  0.813526  0.664527  0.099496  1
  O  O26  1  0.686475  0.335473  0.599496  1
  O  O27  1  0.186475  0.164528  0.400505  1
  O  O28  1  0.228006  0.576742  0.939978  1
  O  O29  1  0.728006  0.923257  0.060022  1
  O  O30  1  0.771993  0.076743  0.560022  1
  O  O31  1  0.271994  0.423258  0.439978  1
  O  O32  1  0.998972  0.329681  0.163598  1
  O  O33  1  0.498971  0.170319  0.836402  1
  O  O34  1  0.001029  0.829681  0.336402  1
  O  O35  1  0.501029  0.670319  0.663598  1
  O  O36  1  0.715942  0.250994  0.264316  1
  O  O37  1  0.215942  0.249005  0.735684  1
  O  O38  1  0.284058  0.750995  0.235684  1
  O  O39  1  0.784058  0.749005  0.764316  1
  O  O40  1  0.498941  0.332554  0.144635  1
  O  O41  1  0.998941  0.167446  0.855365  1
  O  O42  1  0.501059  0.832554  0.355365  1
  O  O43  1  0.001059  0.667446  0.644635  1
  O  O44  1  0.735646  0.143442  0.112699  1
  O  O45  1  0.235647  0.356558  0.887301  1
  O  O46  1  0.264353  0.643442  0.387301  1
  O  O47  1  0.764353  0.856557  0.612699  1
  O  O48  1  0.719870  0.503966  0.207388  1
  O  O49  1  0.219870  0.996034  0.792612  1
  O  O50  1  0.280131  0.003966  0.292612  1
  O  O51  1  0.780131  0.496034  0.707388  1
  O  O52  1  0.777733  0.388682  0.039338  1
  O  O53  1  0.277733  0.111318  0.960662  1
  O  O54  1  0.222267  0.888682  0.460662  1
  O  O55  1  0.722267  0.611318  0.539338  1
  O  O56  1  0.302708  0.341200  0.600422  1
  O  O57  1  0.802708  0.158800  0.399578  1
  O  O58  1  0.697292  0.841199  0.899578  1
  O  O59  1  0.197292  0.658800  0.100422  1
  O  O60  1  0.236479  0.080908  0.559035  1
  O  O61  1  0.736480  0.419092  0.440965  1
  O  O62  1  0.763521  0.580908  0.940965  1
  O  O63  1  0.263521  0.919092  0.059035  1
  O  O64  1  0.498887  0.225578  0.478894  1
  O  O65  1  0.998886  0.274423  0.521105  1
  O  O66  1  0.501113  0.725577  0.021105  1
  O  O67  1  0.313526  0.835473  0.900505  1
  P  P68  1  0.292959  0.939945  0.539110  1
  P  P69  1  0.792959  0.560055  0.460890  1
  P  P70  1  0.707041  0.439944  0.960890  1
  P  P71  1  0.207041  0.060055  0.039110  1
  P  P72  1  0.302969  0.862142  0.811775  1
  P  P73  1  0.802969  0.637858  0.188225  1
  P  P74  1  0.697032  0.362142  0.688225  1
  P  P75  1  0.197032  0.137858  0.311774  1
  P  P76  1  0.289099  0.437659  0.961089  1
  P  P77  1  0.789099  0.062341  0.038911  1
  P  P78  1  0.710901  0.937659  0.538911  1
  P  P79  1  0.210901  0.562341  0.461089  1
  P  P80  1  0.301443  0.363691  0.689647  1
  P  P81  1  0.801443  0.136309  0.310352  1
  P  P82  1  0.698557  0.863691  0.810353  1
  P  P83  1  0.198557  0.636309  0.189648  1
  V  V84  1  0.222936  0.676250  0.650256  1
  V  V85  1  0.722937  0.823750  0.349744  1
  V  V86  1  0.777064  0.176250  0.849744  1
  V  V87  1  0.277064  0.323749  0.150256  1
  V  V88  1  0.217224  0.751586  0.997632  1
  V  V89  1  0.717224  0.748414  0.002367  1
  V  V90  1  0.782776  0.251586  0.502367  1
  V  V91  1  0.282776  0.248413  0.497633  1
  V  V92  1  0.723341  0.674549  0.652123  1
  V  V93  1  0.223341  0.825451  0.347877  1
  V  V94  1  0.276659  0.174549  0.847877  1
  V  V95  1  0.776660  0.325451  0.152123  1
  Sr  Sr96  1  0.994876  0.563192  0.821596  1
  Sr  Sr97  1  0.494876  0.936809  0.178404  1
  Sr  Sr98  1  0.005124  0.063191  0.678404  1
  Sr  Sr99  1  0.505124  0.436809  0.321596  1
