# generated using pymatgen
data_MoWSe3S
_symmetry_space_group_name_H-M   'P 1'
_cell_length_a   3.28673050
_cell_length_b   3.28667199
_cell_length_c   37.35901404
_cell_angle_alpha   89.99950425
_cell_angle_beta   90.00000000
_cell_angle_gamma   120.00058886
_symmetry_Int_Tables_number   1
_chemical_formula_structural   MoWSe3S
_chemical_formula_sum   'Mo2 W2 Se6 S2'
_cell_volume   349.49737617
_cell_formula_units_Z   2
loop_
 _symmetry_equiv_pos_site_id
 _symmetry_equiv_pos_as_xyz
  1  'x, y, z'
loop_
 _atom_site_type_symbol
 _atom_site_label
 _atom_site_symmetry_multiplicity
 _atom_site_fract_x
 _atom_site_fract_y
 _atom_site_fract_z
 _atom_site_occupancy
  Mo  Mo0  1  0.333306  0.666612  0.093918  1
  Mo  Mo1  1  0.333314  0.666628  0.469641  1
  W  W2  1  0.666693  0.333385  0.281787  1
  W  W3  1  0.666692  0.333384  0.657552  1
  Se  Se4  1  0.333357  0.666715  0.702960  1
  Se  Se5  1  0.666642  0.333283  0.048792  1
  Se  Se6  1  0.666652  0.333303  0.424527  1
  Se  Se7  1  0.666622  0.333244  0.139061  1
  Se  Se8  1  0.666649  0.333297  0.514784  1
  Se  Se9  1  0.333356  0.666713  0.612122  1
  S  S10  1  0.333359  0.666719  0.323060  1
  S  S11  1  0.333358  0.666717  0.240545  1
