# generated using pymatgen
data_Te2Mo2W(SeS)2
_symmetry_space_group_name_H-M   'P 1'
_cell_length_a   3.34609060
_cell_length_b   3.34607347
_cell_length_c   30.94477033
_cell_angle_alpha   90.00051085
_cell_angle_beta   90.00001126
_cell_angle_gamma   120.00014260
_symmetry_Int_Tables_number   1
_chemical_formula_structural   Te2Mo2W(SeS)2
_chemical_formula_sum   'Te2 Mo2 W1 Se2 S2'
_cell_volume   300.04779478
_cell_formula_units_Z   1
loop_
 _symmetry_equiv_pos_site_id
 _symmetry_equiv_pos_as_xyz
  1  'x, y, z'
loop_
 _atom_site_type_symbol
 _atom_site_label
 _atom_site_symmetry_multiplicity
 _atom_site_fract_x
 _atom_site_fract_y
 _atom_site_fract_z
 _atom_site_occupancy
  Te  Te0  1  0.666641  0.333282  0.517113  1
  Te  Te1  1  0.666649  0.333298  0.639523  1
  Mo  Mo2  1  0.333307  0.666614  0.115652  1
  Mo  Mo3  1  0.333311  0.666621  0.578323  1
  W  W4  1  0.666692  0.333385  0.346965  1
  Se  Se5  1  0.666645  0.333290  0.061833  1
  Se  Se6  1  0.666642  0.333283  0.169474  1
  S  S7  1  0.333358  0.666716  0.396155  1
  S  S8  1  0.333355  0.666710  0.297802  1
