# generated using pymatgen
data_MoW3(Se3S)2
_symmetry_space_group_name_H-M   'P 1'
_cell_length_a   3.28672049
_cell_length_b   3.28667447
_cell_length_c   37.38919945
_cell_angle_alpha   89.99997324
_cell_angle_beta   90.00000000
_cell_angle_gamma   120.00046326
_symmetry_Int_Tables_number   1
_chemical_formula_structural   MoW3(Se3S)2
_chemical_formula_sum   'Mo1 W3 Se6 S2'
_cell_volume   349.77940508
_cell_formula_units_Z   1
loop_
 _symmetry_equiv_pos_site_id
 _symmetry_equiv_pos_as_xyz
  1  'x, y, z'
loop_
 _atom_site_type_symbol
 _atom_site_label
 _atom_site_symmetry_multiplicity
 _atom_site_fract_x
 _atom_site_fract_y
 _atom_site_fract_z
 _atom_site_occupancy
  Mo  Mo0  1  0.333311  0.666622  0.093909  1
  W  W1  1  0.333310  0.666619  0.469664  1
  W  W2  1  0.666689  0.333378  0.281813  1
  W  W3  1  0.666690  0.333381  0.657534  1
  Se  Se4  1  0.333359  0.666718  0.327161  1
  Se  Se5  1  0.333354  0.666709  0.702902  1
  Se  Se6  1  0.666648  0.333295  0.048825  1
  Se  Se7  1  0.666649  0.333297  0.139003  1
  Se  Se8  1  0.333350  0.666700  0.236452  1
  Se  Se9  1  0.333354  0.666708  0.612159  1
  S  S10  1  0.666645  0.333289  0.428452  1
  S  S11  1  0.666642  0.333283  0.510874  1
