# generated using pymatgen
data_EuCoGe3
_symmetry_space_group_name_H-M   'P 1'
_cell_length_a   4.32864577
_cell_length_b   4.32864578
_cell_length_c   5.83559457
_cell_angle_alpha   111.77008522
_cell_angle_beta   111.77008521
_cell_angle_gamma   89.99999994
_symmetry_Int_Tables_number   1
_chemical_formula_structural   EuCoGe3
_chemical_formula_sum   'Eu1 Co1 Ge3'
_cell_volume   93.09486691
_cell_formula_units_Z   1
loop_
 _symmetry_equiv_pos_site_id
 _symmetry_equiv_pos_as_xyz
  1  'x, y, z'
loop_
 _atom_site_type_symbol
 _atom_site_label
 _atom_site_symmetry_multiplicity
 _atom_site_fract_x
 _atom_site_fract_y
 _atom_site_fract_z
 _atom_site_occupancy
  Co  Co0  1  0.657269  0.657269  0.314538  1
  Ge  Ge1  1  0.427403  0.427403  0.854806  1
  Ge  Ge2  1  0.250541  0.750541  0.501082  1
  Ge  Ge3  1  0.750541  0.250541  0.501082  1
  Eu  Eu4  1  0.997347  0.997347  0.994694  1
