# generated using pymatgen
data_NaZnAsO4
_symmetry_space_group_name_H-M   'P 1'
_cell_length_a   8.41876701
_cell_length_b   9.10296939
_cell_length_c   15.97420547
_cell_angle_alpha   90.20761148
_cell_angle_beta   90.00000000
_cell_angle_gamma   90.00000000
_symmetry_Int_Tables_number   1
_chemical_formula_structural   NaZnAsO4
_chemical_formula_sum   'Na12 Zn12 As12 O48'
_cell_volume   1224.18763396
_cell_formula_units_Z   12
loop_
 _symmetry_equiv_pos_site_id
 _symmetry_equiv_pos_as_xyz
  1  'x, y, z'
loop_
 _atom_site_type_symbol
 _atom_site_label
 _atom_site_symmetry_multiplicity
 _atom_site_fract_x
 _atom_site_fract_y
 _atom_site_fract_z
 _atom_site_occupancy
  O  O0  1  0.757477  0.768734  0.296576  1
  O  O1  1  0.257477  0.731266  0.203424  1
  O  O2  1  0.242523  0.231266  0.703424  1
  O  O3  1  0.742523  0.268734  0.796576  1
  O  O4  1  0.754613  0.075599  0.294297  1
  O  O5  1  0.254613  0.424401  0.205703  1
  O  O6  1  0.245387  0.924401  0.705703  1
  O  O7  1  0.745387  0.575599  0.794297  1
  O  O8  1  0.766449  0.920678  0.483177  1
  O  O9  1  0.266449  0.579322  0.016823  1
  O  O10  1  0.233551  0.079322  0.516823  1
  O  O11  1  0.733551  0.420678  0.983177  1
  O  O12  1  0.774886  0.265880  0.133015  1
  O  O13  1  0.274886  0.234120  0.366985  1
  O  O14  1  0.225114  0.734120  0.866985  1
  O  O15  1  0.725114  0.765880  0.633015  1
  O  O16  1  0.449281  0.973839  0.393618  1
  O  O17  1  0.949281  0.526161  0.106382  1
  O  O18  1  0.550719  0.026161  0.606382  1
  O  O19  1  0.050719  0.473839  0.893618  1
  O  O20  1  0.543597  0.822534  0.952779  1
  O  O21  1  0.128281  0.955748  0.361117  1
  O  O22  1  0.871719  0.044252  0.638883  1
  O  O23  1  0.371719  0.455748  0.861117  1
  O  O24  1  0.633679  0.267055  0.449995  1
  O  O25  1  0.133679  0.232945  0.050005  1
  O  O26  1  0.366321  0.732945  0.550005  1
  O  O27  1  0.866321  0.767055  0.949995  1
  O  O28  1  0.279680  0.087971  0.186880  1
  O  O29  1  0.779680  0.412029  0.313120  1
  O  O30  1  0.720320  0.912029  0.813120  1
  O  O31  1  0.220320  0.587971  0.686880  1
  O  O32  1  0.761028  0.060880  0.966530  1
  O  O33  1  0.261028  0.439120  0.533470  1
  O  O34  1  0.238972  0.939120  0.033470  1
  O  O35  1  0.738972  0.560880  0.466530  1
  O  O36  1  0.861099  0.422989  0.652081  1
  O  O37  1  0.361099  0.077011  0.847919  1
  O  O38  1  0.138901  0.577011  0.347919  1
  O  O39  1  0.638901  0.922989  0.152081  1
  O  O40  1  0.541099  0.428598  0.684928  1
  O  O41  1  0.041099  0.071402  0.815072  1
  O  O42  1  0.458901  0.571402  0.315072  1
  O  O43  1  0.958901  0.928598  0.184928  1
  O  O44  1  0.956403  0.322534  0.452779  1
  O  O45  1  0.456403  0.177466  0.047221  1
  O  O46  1  0.043597  0.677466  0.547221  1
  O  O47  1  0.628281  0.544252  0.138883  1
  Na  Na48  1  0.030431  0.772879  0.070369  1
  Na  Na49  1  0.530431  0.727121  0.429631  1
  Na  Na50  1  0.969569  0.227121  0.929631  1
  Na  Na51  1  0.469569  0.272879  0.570369  1
  Na  Na52  1  0.462773  0.736109  0.088038  1
  Na  Na53  1  0.962773  0.763891  0.411962  1
  Na  Na54  1  0.537227  0.263891  0.911962  1
  Na  Na55  1  0.037227  0.236109  0.588038  1
  Na  Na56  1  0.459503  0.256709  0.254804  1
  Na  Na57  1  0.959503  0.243291  0.245196  1
  Na  Na58  1  0.540497  0.743291  0.745196  1
  Na  Na59  1  0.040497  0.756709  0.754804  1
  Zn  Zn60  1  0.663133  0.064704  0.407860  1
  Zn  Zn61  1  0.163133  0.435296  0.092140  1
  Zn  Zn62  1  0.336867  0.935296  0.592140  1
  Zn  Zn63  1  0.836867  0.564704  0.907860  1
  Zn  Zn64  1  0.666861  0.096769  0.079305  1
  Zn  Zn65  1  0.166861  0.403231  0.420695  1
  Zn  Zn66  1  0.333139  0.903231  0.920695  1
  Zn  Zn67  1  0.833139  0.596769  0.579305  1
  Zn  Zn68  1  0.170542  0.921172  0.241361  1
  Zn  Zn69  1  0.670542  0.578828  0.258639  1
  Zn  Zn70  1  0.829458  0.078828  0.758639  1
  Zn  Zn71  1  0.329458  0.421172  0.741361  1
  As  As72  1  0.270650  0.061130  0.410877  1
  As  As73  1  0.770650  0.438870  0.089123  1
  As  As74  1  0.729350  0.938870  0.589123  1
  As  As75  1  0.229350  0.561130  0.910877  1
  As  As76  1  0.723203  0.892249  0.920532  1
  As  As77  1  0.223203  0.607751  0.579468  1
  As  As78  1  0.276797  0.107751  0.079468  1
  As  As79  1  0.776797  0.392249  0.420532  1
  As  As80  1  0.775540  0.920327  0.232705  1
  As  As81  1  0.275540  0.579673  0.267295  1
  As  As82  1  0.224460  0.079673  0.767295  1
  As  As83  1  0.724460  0.420327  0.732705  1
