# generated using pymatgen
data_RbSm(PO3)4
_symmetry_space_group_name_H-M   'P 1'
_cell_length_a   7.65417459
_cell_length_b   7.65417458
_cell_length_c   10.74471861
_cell_angle_alpha   101.01846587
_cell_angle_beta   101.01846588
_cell_angle_gamma   116.72503095
_symmetry_Int_Tables_number   1
_chemical_formula_structural   RbSm(PO3)4
_chemical_formula_sum   'Rb2 Sm2 P8 O24'
_cell_volume   523.59735021
_cell_formula_units_Z   2
loop_
 _symmetry_equiv_pos_site_id
 _symmetry_equiv_pos_as_xyz
  1  'x, y, z'
loop_
 _atom_site_type_symbol
 _atom_site_label
 _atom_site_symmetry_multiplicity
 _atom_site_fract_x
 _atom_site_fract_y
 _atom_site_fract_z
 _atom_site_occupancy
  O  O0  1  0.204565  0.691150  0.386349  1
  O  O1  1  0.308850  0.795435  0.113651  1
  O  O2  1  0.795435  0.308850  0.613651  1
  O  O3  1  0.691150  0.204565  0.886349  1
  O  O4  1  0.899950  0.515882  0.104962  1
  O  O5  1  0.484118  0.100050  0.395038  1
  O  O6  1  0.100050  0.484118  0.895038  1
  O  O7  1  0.515882  0.899950  0.604962  1
  O  O8  1  0.840722  0.860964  0.090491  1
  O  O9  1  0.139036  0.159278  0.409509  1
  O  O10  1  0.159278  0.139036  0.909509  1
  O  O11  1  0.860964  0.840722  0.590491  1
  O  O12  1  0.474152  0.724967  0.947240  1
  O  O13  1  0.275033  0.525848  0.552760  1
  O  O14  1  0.525848  0.275033  0.052760  1
  O  O15  1  0.724967  0.474152  0.447240  1
  O  O16  1  0.489460  0.359012  0.591485  1
  O  O17  1  0.640988  0.510540  0.908515  1
  O  O18  1  0.510540  0.640988  0.408515  1
  O  O19  1  0.359012  0.489460  0.091485  1
  O  O20  1  0.746242  0.830735  0.838440  1
  O  O21  1  0.169265  0.253758  0.661560  1
  O  O22  1  0.253758  0.169265  0.161560  1
  O  O23  1  0.830735  0.746242  0.338440  1
  P  P24  1  0.749187  0.695300  0.449814  1
  P  P25  1  0.304700  0.250813  0.050186  1
  P  P26  1  0.250813  0.304700  0.550186  1
  P  P27  1  0.695300  0.749187  0.949814  1
  P  P28  1  0.292817  0.619579  0.012139  1
  P  P29  1  0.380421  0.707183  0.487861  1
  P  P30  1  0.707183  0.380421  0.987861  1
  P  P31  1  0.619579  0.292817  0.512139  1
  Rb  Rb32  1  0.807395  0.192605  0.250000  1
  Rb  Rb33  1  0.192605  0.807395  0.750000  1
  Sm  Sm34  1  0.122667  0.877333  0.250000  1
  Sm  Sm35  1  0.877333  0.122667  0.750000  1
