# generated using pymatgen
data_Na5AsO5
_symmetry_space_group_name_H-M   'P 1'
_cell_length_a   6.03695377
_cell_length_b   6.50431754
_cell_length_c   16.62694238
_cell_angle_alpha   90.00000000
_cell_angle_beta   90.00000000
_cell_angle_gamma   90.00000000
_symmetry_Int_Tables_number   1
_chemical_formula_structural   Na5AsO5
_chemical_formula_sum   'Na20 As4 O20'
_cell_volume   652.87791390
_cell_formula_units_Z   4
loop_
 _symmetry_equiv_pos_site_id
 _symmetry_equiv_pos_as_xyz
  1  'x, y, z'
loop_
 _atom_site_type_symbol
 _atom_site_label
 _atom_site_symmetry_multiplicity
 _atom_site_fract_x
 _atom_site_fract_y
 _atom_site_fract_z
 _atom_site_occupancy
  O  O0  1  0.427012  0.750000  0.941827  1
  O  O1  1  0.427012  0.250000  0.558173  1
  O  O2  1  0.572988  0.250000  0.058173  1
  O  O3  1  0.572988  0.750000  0.441827  1
  O  O4  1  0.743717  0.250000  0.324147  1
  O  O5  1  0.743717  0.750000  0.175853  1
  O  O6  1  0.110715  0.750000  0.479879  1
  O  O7  1  0.110715  0.250000  0.020121  1
  O  O8  1  0.889285  0.250000  0.520121  1
  O  O9  1  0.889285  0.750000  0.979879  1
  O  O10  1  0.744330  0.464715  0.654950  1
  O  O11  1  0.744330  0.535285  0.845050  1
  O  O12  1  0.255670  0.964715  0.345050  1
  O  O13  1  0.255670  0.035285  0.154950  1
  O  O14  1  0.255670  0.535285  0.345050  1
  O  O15  1  0.255670  0.464715  0.154950  1
  O  O16  1  0.744330  0.035285  0.654950  1
  O  O17  1  0.744330  0.964715  0.845050  1
  O  O18  1  0.256283  0.750000  0.675853  1
  O  O19  1  0.256283  0.250000  0.824147  1
  Na  Na20  1  0.558502  0.750000  0.589333  1
  Na  Na21  1  0.558502  0.250000  0.910667  1
  Na  Na22  1  0.441498  0.250000  0.410667  1
  Na  Na23  1  0.441498  0.750000  0.089333  1
  Na  Na24  1  0.424069  0.500000  0.750000  1
  Na  Na25  1  0.575931  0.000000  0.250000  1
  Na  Na26  1  0.866079  0.494250  0.414619  1
  Na  Na27  1  0.866079  0.505750  0.085381  1
  Na  Na28  1  0.133921  0.994250  0.585381  1
  Na  Na29  1  0.133921  0.005750  0.914619  1
  Na  Na30  1  0.133921  0.505750  0.585381  1
  Na  Na31  1  0.133921  0.494250  0.914619  1
  Na  Na32  1  0.866079  0.005750  0.414619  1
  Na  Na33  1  0.866079  0.994250  0.085381  1
  Na  Na34  1  0.086744  0.750000  0.230070  1
  Na  Na35  1  0.086744  0.250000  0.269930  1
  Na  Na36  1  0.913256  0.250000  0.769930  1
  Na  Na37  1  0.913256  0.750000  0.730070  1
  Na  Na38  1  0.575931  0.500000  0.250000  1
  Na  Na39  1  0.424069  0.000000  0.750000  1
  As  As40  1  0.306622  0.750000  0.404060  1
  As  As41  1  0.306622  0.250000  0.095940  1
  As  As42  1  0.693378  0.250000  0.595940  1
  As  As43  1  0.693378  0.750000  0.904060  1
