# generated using pymatgen
data_Te2MoW3(Se2S)2
_symmetry_space_group_name_H-M   'P 1'
_cell_length_a   3.34561505
_cell_length_b   3.34541025
_cell_length_c   39.70672709
_cell_angle_alpha   89.99902416
_cell_angle_beta   90.00000000
_cell_angle_gamma   120.00202517
_symmetry_Int_Tables_number   1
_chemical_formula_structural   Te2MoW3(Se2S)2
_chemical_formula_sum   'Te2 Mo1 W3 Se4 S2'
_cell_volume   384.86747649
_cell_formula_units_Z   1
loop_
 _symmetry_equiv_pos_site_id
 _symmetry_equiv_pos_as_xyz
  1  'x, y, z'
loop_
 _atom_site_type_symbol
 _atom_site_label
 _atom_site_symmetry_multiplicity
 _atom_site_fract_x
 _atom_site_fract_y
 _atom_site_fract_z
 _atom_site_occupancy
  Te  Te0  1  0.666701  0.333401  0.421503  1
  Te  Te1  1  0.666723  0.333444  0.517556  1
  Mo  Mo2  1  0.333363  0.666726  0.093907  1
  W  W3  1  0.333387  0.666774  0.469534  1
  W  W4  1  0.666638  0.333277  0.280983  1
  W  W5  1  0.666645  0.333289  0.658501  1
  Se  Se6  1  0.333280  0.666561  0.323136  1
  Se  Se7  1  0.333320  0.666642  0.700647  1
  Se  Se8  1  0.333286  0.666572  0.238798  1
  Se  Se9  1  0.333323  0.666647  0.616357  1
  S  S10  1  0.666656  0.333311  0.055687  1
  S  S11  1  0.666678  0.333356  0.132140  1
