# generated using pymatgen
data_W2SeS3
_symmetry_space_group_name_H-M   'P 1'
_cell_length_a   3.22192053
_cell_length_b   3.22256814
_cell_length_c   38.31015362
_cell_angle_alpha   90.09363382
_cell_angle_beta   90.00000000
_cell_angle_gamma   119.99335260
_symmetry_Int_Tables_number   1
_chemical_formula_structural   W2SeS3
_chemical_formula_sum   'W4 Se2 S6'
_cell_volume   344.50043292
_cell_formula_units_Z   2
loop_
 _symmetry_equiv_pos_site_id
 _symmetry_equiv_pos_as_xyz
  1  'x, y, z'
loop_
 _atom_site_type_symbol
 _atom_site_label
 _atom_site_symmetry_multiplicity
 _atom_site_fract_x
 _atom_site_fract_y
 _atom_site_fract_z
 _atom_site_occupancy
  W  W0  1  0.333948  0.667896  0.092751  1
  W  W1  1  0.335258  0.670516  0.469567  1
  W  W2  1  0.662400  0.324801  0.280679  1
  W  W3  1  0.668464  0.336929  0.659906  1
  Se  Se4  1  0.668157  0.336313  0.424689  1
  Se  Se5  1  0.669227  0.338453  0.514483  1
  S  S6  1  0.329374  0.658748  0.321427  1
  S  S7  1  0.335495  0.670991  0.700679  1
  S  S8  1  0.666873  0.333745  0.051993  1
  S  S9  1  0.667917  0.335833  0.133509  1
  S  S10  1  0.328380  0.656760  0.239908  1
  S  S11  1  0.334507  0.669016  0.619157  1
