# generated using pymatgen
data_Nd2NiO4
_symmetry_space_group_name_H-M   'P 1'
_cell_length_a   5.68694651
_cell_length_b   5.42255476
_cell_length_c   6.67075754
_cell_angle_alpha   113.98154045
_cell_angle_beta   90.00000000
_cell_angle_gamma   90.00000000
_symmetry_Int_Tables_number   1
_chemical_formula_structural   Nd2NiO4
_chemical_formula_sum   'Nd4 Ni2 O8'
_cell_volume   187.95361268
_cell_formula_units_Z   2
loop_
 _symmetry_equiv_pos_site_id
 _symmetry_equiv_pos_as_xyz
  1  'x, y, z'
loop_
 _atom_site_type_symbol
 _atom_site_label
 _atom_site_symmetry_multiplicity
 _atom_site_fract_x
 _atom_site_fract_y
 _atom_site_fract_z
 _atom_site_occupancy
  Nd  Nd0  1  0.517378  0.136995  0.273990  1
  Nd  Nd1  1  0.017378  0.363005  0.726010  1
  Nd  Nd2  1  0.982622  0.636995  0.273990  1
  Nd  Nd3  1  0.482622  0.863005  0.726010  1
  Ni  Ni4  1  0.000000  0.000000  0.000000  1
  Ni  Ni5  1  0.500000  0.500000  0.000000  1
  O  O6  1  0.750000  0.229171  0.958342  1
  O  O7  1  0.928645  0.179708  0.359416  1
  O  O8  1  0.250000  0.270829  0.041658  1
  O  O9  1  0.428645  0.320292  0.640584  1
  O  O10  1  0.750000  0.729171  0.958342  1
  O  O11  1  0.071355  0.820292  0.640584  1
  O  O12  1  0.250000  0.770829  0.041658  1
  O  O13  1  0.571355  0.679708  0.359416  1
