# generated using pymatgen
data_Nb5Pt3O
_symmetry_space_group_name_H-M   'P 1'
_cell_length_a   8.09051650
_cell_length_b   8.09051650
_cell_length_c   5.12729496
_cell_angle_alpha   90.00000000
_cell_angle_beta   90.00000000
_cell_angle_gamma   120.00000000
_symmetry_Int_Tables_number   1
_chemical_formula_structural   Nb5Pt3O
_chemical_formula_sum   'Nb10 Pt6 O2'
_cell_volume   290.65073774
_cell_formula_units_Z   2
loop_
 _symmetry_equiv_pos_site_id
 _symmetry_equiv_pos_as_xyz
  1  'x, y, z'
loop_
 _atom_site_type_symbol
 _atom_site_label
 _atom_site_symmetry_multiplicity
 _atom_site_fract_x
 _atom_site_fract_y
 _atom_site_fract_z
 _atom_site_occupancy
  O  O0  1  0.000000  0.000000  0.500000  1
  O  O1  1  0.000000  0.000000  0.000000  1
  Nb  Nb2  1  0.761932  0.000000  0.750001  1
  Nb  Nb3  1  0.333334  0.666667  0.500000  1
  Nb  Nb4  1  0.238068  0.000000  0.250001  1
  Nb  Nb5  1  0.238068  0.238068  0.750001  1
  Nb  Nb6  1  0.999999  0.761932  0.750001  1
  Nb  Nb7  1  0.000000  0.238068  0.250001  1
  Nb  Nb8  1  0.761932  0.761932  0.250001  1
  Nb  Nb9  1  0.666667  0.333333  0.000000  1
  Nb  Nb10  1  0.666667  0.333333  0.500000  1
  Nb  Nb11  1  0.333334  0.666667  0.000000  1
  Pt  Pt12  1  0.000001  0.404425  0.750001  1
  Pt  Pt13  1  0.000001  0.595576  0.250001  1
  Pt  Pt14  1  0.404424  0.404425  0.250001  1
  Pt  Pt15  1  0.404425  0.000000  0.750001  1
  Pt  Pt16  1  0.595576  0.595576  0.750001  1
  Pt  Pt17  1  0.595575  0.000000  0.250001  1
