# generated using pymatgen
data_RbMgPO4
_symmetry_space_group_name_H-M   'P 1'
_cell_length_a   26.96596410
_cell_length_b   9.45383642
_cell_length_c   5.40083123
_cell_angle_alpha   90.00000000
_cell_angle_beta   90.00000000
_cell_angle_gamma   90.00000000
_symmetry_Int_Tables_number   1
_chemical_formula_structural   RbMgPO4
_chemical_formula_sum   'Rb12 Mg12 P12 O48'
_cell_volume   1376.84369992
_cell_formula_units_Z   12
loop_
 _symmetry_equiv_pos_site_id
 _symmetry_equiv_pos_as_xyz
  1  'x, y, z'
loop_
 _atom_site_type_symbol
 _atom_site_label
 _atom_site_symmetry_multiplicity
 _atom_site_fract_x
 _atom_site_fract_y
 _atom_site_fract_z
 _atom_site_occupancy
  Rb  Rb0  1  0.501020  0.201736  0.247685  1
  Rb  Rb1  1  0.498980  0.798264  0.747685  1
  Rb  Rb2  1  0.998980  0.701736  0.747685  1
  Rb  Rb3  1  0.001020  0.298264  0.247685  1
  Rb  Rb4  1  0.665013  0.309648  0.239621  1
  Rb  Rb5  1  0.334987  0.690352  0.739621  1
  Rb  Rb6  1  0.834987  0.809648  0.739621  1
  Rb  Rb7  1  0.165013  0.190352  0.239621  1
  Rb  Rb8  1  0.674073  0.689845  0.713930  1
  Rb  Rb9  1  0.325927  0.310155  0.213930  1
  Rb  Rb10  1  0.825927  0.189845  0.213930  1
  Rb  Rb11  1  0.174073  0.810155  0.713930  1
  Mg  Mg12  1  0.600660  0.913296  0.234357  1
  Mg  Mg13  1  0.399340  0.086704  0.734357  1
  Mg  Mg14  1  0.899340  0.413296  0.734357  1
  Mg  Mg15  1  0.100660  0.586704  0.234357  1
  Mg  Mg16  1  0.781947  0.594120  0.247214  1
  Mg  Mg17  1  0.218053  0.405880  0.747214  1
  Mg  Mg18  1  0.718053  0.094120  0.747214  1
  Mg  Mg19  1  0.281947  0.905880  0.247214  1
  Mg  Mg20  1  0.551981  0.442347  0.765666  1
  Mg  Mg21  1  0.448019  0.557653  0.265666  1
  Mg  Mg22  1  0.948019  0.942347  0.265666  1
  Mg  Mg23  1  0.051981  0.057653  0.765666  1
  P  P24  1  0.591811  0.103066  0.746788  1
  P  P25  1  0.408189  0.896934  0.246788  1
  P  P26  1  0.908189  0.603066  0.246788  1
  P  P27  1  0.091811  0.396934  0.746788  1
  P  P28  1  0.773097  0.410462  0.741405  1
  P  P29  1  0.226903  0.589538  0.241405  1
  P  P30  1  0.726903  0.910462  0.241405  1
  P  P31  1  0.273097  0.089538  0.741405  1
  P  P32  1  0.569581  0.573888  0.220088  1
  P  P33  1  0.430419  0.426112  0.720088  1
  P  P34  1  0.930419  0.073888  0.720088  1
  P  P35  1  0.069581  0.926112  0.220088  1
  O  O36  1  0.562052  0.238695  0.805964  1
  O  O37  1  0.437948  0.761305  0.305964  1
  O  O38  1  0.937948  0.738695  0.305964  1
  O  O39  1  0.062052  0.261305  0.805964  1
  O  O40  1  0.743842  0.280271  0.836108  1
  O  O41  1  0.256158  0.719729  0.336108  1
  O  O42  1  0.756158  0.780271  0.336108  1
  O  O43  1  0.243842  0.219729  0.836108  1
  O  O44  1  0.567668  0.732318  0.289176  1
  O  O45  1  0.432332  0.267682  0.789176  1
  O  O46  1  0.932332  0.232318  0.789176  1
  O  O47  1  0.067668  0.767682  0.289176  1
  O  O48  1  0.647906  0.130701  0.785267  1
  O  O49  1  0.352094  0.869299  0.285267  1
  O  O50  1  0.852094  0.630701  0.285267  1
  O  O51  1  0.147906  0.369299  0.785267  1
  O  O52  1  0.828939  0.372744  0.744040  1
  O  O53  1  0.171061  0.627256  0.244040  1
  O  O54  1  0.671061  0.872744  0.244040  1
  O  O55  1  0.328939  0.127256  0.744040  1
  O  O56  1  0.517282  0.523671  0.122260  1
  O  O57  1  0.482718  0.476329  0.622260  1
  O  O58  1  0.982718  0.023671  0.622260  1
  O  O59  1  0.017282  0.976329  0.122260  1
  O  O60  1  0.574290  0.982893  0.922616  1
  O  O61  1  0.425710  0.017107  0.422616  1
  O  O62  1  0.925710  0.482893  0.422616  1
  O  O63  1  0.074290  0.517107  0.922616  1
  O  O64  1  0.762537  0.539814  0.912011  1
  O  O65  1  0.237463  0.460186  0.412011  1
  O  O66  1  0.737463  0.039814  0.412011  1
  O  O67  1  0.262537  0.960186  0.912011  1
  O  O68  1  0.586456  0.487345  0.448093  1
  O  O69  1  0.413544  0.512655  0.948093  1
  O  O70  1  0.913544  0.987345  0.948093  1
  O  O71  1  0.086456  0.012655  0.448093  1
  O  O72  1  0.581850  0.057299  0.475139  1
  O  O73  1  0.418150  0.942701  0.975139  1
  O  O74  1  0.918150  0.557299  0.975139  1
  O  O75  1  0.081850  0.442701  0.475139  1
  O  O76  1  0.756111  0.448675  0.473721  1
  O  O77  1  0.243889  0.551325  0.973721  1
  O  O78  1  0.743889  0.948675  0.973721  1
  O  O79  1  0.256111  0.051325  0.473721  1
  O  O80  1  0.603800  0.541947  0.994550  1
  O  O81  1  0.396200  0.458053  0.494550  1
  O  O82  1  0.896200  0.041947  0.494550  1
  O  O83  1  0.103800  0.958053  0.994550  1
