# generated using pymatgen
data_Cs3SbSe4
_symmetry_space_group_name_H-M   'P 1'
_cell_length_a   10.42683000
_cell_length_b   10.86888049
_cell_length_c   12.19263883
_cell_angle_alpha   90.00000000
_cell_angle_beta   90.00000000
_cell_angle_gamma   90.00000000
_symmetry_Int_Tables_number   1
_chemical_formula_structural   Cs3SbSe4
_chemical_formula_sum   'Cs12 Sb4 Se16'
_cell_volume   1381.76699730
_cell_formula_units_Z   4
loop_
 _symmetry_equiv_pos_site_id
 _symmetry_equiv_pos_as_xyz
  1  'x, y, z'
loop_
 _atom_site_type_symbol
 _atom_site_label
 _atom_site_symmetry_multiplicity
 _atom_site_fract_x
 _atom_site_fract_y
 _atom_site_fract_z
 _atom_site_occupancy
  Se  Se0  1  0.647550  0.968373  0.078403  1
  Se  Se1  1  0.147550  0.531627  0.421597  1
  Se  Se2  1  0.852450  0.468373  0.921597  1
  Se  Se3  1  0.352450  0.031627  0.578403  1
  Se  Se4  1  0.352450  0.031627  0.921597  1
  Se  Se5  1  0.852450  0.468373  0.578403  1
  Se  Se6  1  0.147550  0.531627  0.078403  1
  Se  Se7  1  0.647550  0.968373  0.421597  1
  Se  Se8  1  0.015222  0.085807  0.750000  1
  Se  Se9  1  0.808708  0.250237  0.250000  1
  Se  Se10  1  0.484778  0.585807  0.250000  1
  Se  Se11  1  0.984778  0.914193  0.250000  1
  Se  Se12  1  0.191292  0.749763  0.750000  1
  Se  Se13  1  0.691292  0.750237  0.750000  1
  Se  Se14  1  0.308708  0.249763  0.250000  1
  Se  Se15  1  0.515222  0.414193  0.750000  1
  Sb  Sb16  1  0.769832  0.021681  0.250000  1
  Sb  Sb17  1  0.730168  0.521681  0.750000  1
  Sb  Sb18  1  0.269832  0.478319  0.250000  1
  Sb  Sb19  1  0.230168  0.978319  0.750000  1
  Cs  Cs20  1  0.057291  0.197350  0.043766  1
  Cs  Cs21  1  0.643714  0.079280  0.750000  1
  Cs  Cs22  1  0.356286  0.920720  0.250000  1
  Cs  Cs23  1  0.856286  0.579280  0.250000  1
  Cs  Cs24  1  0.143714  0.420720  0.750000  1
  Cs  Cs25  1  0.557291  0.302650  0.456234  1
  Cs  Cs26  1  0.442709  0.697350  0.956234  1
  Cs  Cs27  1  0.942709  0.802650  0.543766  1
  Cs  Cs28  1  0.942709  0.802650  0.956234  1
  Cs  Cs29  1  0.442709  0.697350  0.543766  1
  Cs  Cs30  1  0.557291  0.302650  0.043766  1
  Cs  Cs31  1  0.057291  0.197350  0.456234  1
