# generated using pymatgen
data_Te2Mo3W(SeS2)2
_symmetry_space_group_name_H-M   'P 1'
_cell_length_a   3.30557310
_cell_length_b   3.30543124
_cell_length_c   38.65057802
_cell_angle_alpha   89.99973698
_cell_angle_beta   90.00000000
_cell_angle_gamma   120.00141971
_symmetry_Int_Tables_number   1
_chemical_formula_structural   Te2Mo3W(SeS2)2
_chemical_formula_sum   'Te2 Mo3 W1 Se2 S4'
_cell_volume   365.72555234
_cell_formula_units_Z   1
loop_
 _symmetry_equiv_pos_site_id
 _symmetry_equiv_pos_as_xyz
  1  'x, y, z'
loop_
 _atom_site_type_symbol
 _atom_site_label
 _atom_site_symmetry_multiplicity
 _atom_site_fract_x
 _atom_site_fract_y
 _atom_site_fract_z
 _atom_site_occupancy
  Te  Te0  1  0.333471  0.666942  0.330281  1
  Te  Te1  1  0.333400  0.666801  0.231237  1
  Mo  Mo2  1  0.333307  0.666615  0.092970  1
  Mo  Mo3  1  0.333195  0.666390  0.471291  1
  Mo  Mo4  1  0.666779  0.333558  0.280750  1
  W  W5  1  0.666706  0.333411  0.657905  1
  Se  Se6  1  0.666529  0.333056  0.427846  1
  Se  Se7  1  0.666518  0.333036  0.514694  1
  S  S8  1  0.333344  0.666689  0.697591  1
  S  S9  1  0.666723  0.333445  0.053414  1
  S  S10  1  0.666657  0.333312  0.132565  1
  S  S11  1  0.333372  0.666746  0.618203  1
