# generated using pymatgen
data_Te2Mo3W(Se2S)2
_symmetry_space_group_name_H-M   'P 1'
_cell_length_a   3.34707860
_cell_length_b   3.34707975
_cell_length_c   38.09716854
_cell_angle_alpha   90.00027744
_cell_angle_beta   90.00000000
_cell_angle_gamma   119.99998867
_symmetry_Int_Tables_number   1
_chemical_formula_structural   Te2Mo3W(Se2S)2
_chemical_formula_sum   'Te2 Mo3 W1 Se4 S2'
_cell_volume   369.61990531
_cell_formula_units_Z   1
loop_
 _symmetry_equiv_pos_site_id
 _symmetry_equiv_pos_as_xyz
  1  'x, y, z'
loop_
 _atom_site_type_symbol
 _atom_site_label
 _atom_site_symmetry_multiplicity
 _atom_site_fract_x
 _atom_site_fract_y
 _atom_site_fract_z
 _atom_site_occupancy
  Te  Te0  1  0.666649  0.333297  0.419547  1
  Te  Te1  1  0.666651  0.333301  0.519680  1
  Mo  Mo2  1  0.333309  0.666619  0.093925  1
  Mo  Mo3  1  0.666676  0.333352  0.281788  1
  Mo  Mo4  1  0.666687  0.333374  0.657587  1
  W  W5  1  0.333315  0.666630  0.469630  1
  Se  Se6  1  0.333352  0.666706  0.701345  1
  Se  Se7  1  0.666641  0.333281  0.050168  1
  Se  Se8  1  0.666643  0.333285  0.137690  1
  Se  Se9  1  0.333351  0.666702  0.613803  1
  S  S10  1  0.333365  0.666731  0.321596  1
  S  S11  1  0.333360  0.666721  0.241990  1
