# generated using pymatgen
data_PrLuSe3
_symmetry_space_group_name_H-M   'P 1'
_cell_length_a   4.04905358
_cell_length_b   6.88341664
_cell_length_c   9.99265166
_cell_angle_alpha   90.00000000
_cell_angle_beta   90.00000000
_cell_angle_gamma   107.10456973
_symmetry_Int_Tables_number   1
_chemical_formula_structural   PrLuSe3
_chemical_formula_sum   'Pr2 Lu2 Se6'
_cell_volume   266.18986984
_cell_formula_units_Z   2
loop_
 _symmetry_equiv_pos_site_id
 _symmetry_equiv_pos_as_xyz
  1  'x, y, z'
loop_
 _atom_site_type_symbol
 _atom_site_label
 _atom_site_symmetry_multiplicity
 _atom_site_fract_x
 _atom_site_fract_y
 _atom_site_fract_z
 _atom_site_occupancy
  Se  Se0  1  0.914682  0.829365  0.250000  1
  Se  Se1  1  0.085318  0.170635  0.750000  1
  Se  Se2  1  0.357269  0.714537  0.561303  1
  Se  Se3  1  0.642731  0.285463  0.438697  1
  Se  Se4  1  0.357269  0.714537  0.938697  1
  Se  Se5  1  0.642731  0.285463  0.061303  1
  Pr  Pr6  1  0.748013  0.496026  0.750000  1
  Pr  Pr7  1  0.251987  0.503974  0.250000  1
  Lu  Lu8  1  0.000000  0.000000  0.000000  1
  Lu  Lu9  1  0.000000  0.000000  0.500000  1
