# generated using pymatgen
data_La3BN2O3
_symmetry_space_group_name_H-M   'P 1'
_cell_length_a   12.74864817
_cell_length_b   3.71984916
_cell_length_c   11.06722999
_cell_angle_alpha   90.00000000
_cell_angle_beta   90.00000000
_cell_angle_gamma   90.00000000
_symmetry_Int_Tables_number   1
_chemical_formula_structural   La3BN2O3
_chemical_formula_sum   'La12 B4 N8 O12'
_cell_volume   524.84178110
_cell_formula_units_Z   4
loop_
 _symmetry_equiv_pos_site_id
 _symmetry_equiv_pos_as_xyz
  1  'x, y, z'
loop_
 _atom_site_type_symbol
 _atom_site_label
 _atom_site_symmetry_multiplicity
 _atom_site_fract_x
 _atom_site_fract_y
 _atom_site_fract_z
 _atom_site_occupancy
  La  La0  1  0.383931  0.250000  0.417510  1
  La  La1  1  0.883931  0.250000  0.082490  1
  La  La2  1  0.616069  0.750000  0.582490  1
  La  La3  1  0.116069  0.750000  0.917510  1
  La  La4  1  0.627660  0.250000  0.275199  1
  La  La5  1  0.127660  0.250000  0.224801  1
  La  La6  1  0.372340  0.750000  0.724801  1
  La  La7  1  0.872340  0.750000  0.775199  1
  La  La8  1  0.385290  0.750000  0.110917  1
  La  La9  1  0.885290  0.750000  0.389083  1
  La  La10  1  0.614710  0.250000  0.889083  1
  La  La11  1  0.114710  0.250000  0.610917  1
  B  B12  1  0.709602  0.750000  0.081629  1
  B  B13  1  0.209602  0.750000  0.418371  1
  B  B14  1  0.290398  0.250000  0.918371  1
  B  B15  1  0.790398  0.250000  0.581629  1
  N  N16  1  0.733029  0.250000  0.467448  1
  N  N17  1  0.233029  0.250000  0.032552  1
  N  N18  1  0.266971  0.750000  0.532552  1
  N  N19  1  0.766971  0.750000  0.967448  1
  N  N20  1  0.761509  0.750000  0.199776  1
  N  N21  1  0.261509  0.750000  0.300224  1
  N  N22  1  0.238491  0.250000  0.800224  1
  N  N23  1  0.738491  0.250000  0.699776  1
  O  O24  1  0.466823  0.250000  0.609870  1
  O  O25  1  0.966823  0.250000  0.890130  1
  O  O26  1  0.533177  0.750000  0.390130  1
  O  O27  1  0.033177  0.750000  0.109870  1
  O  O28  1  0.446010  0.250000  0.210553  1
  O  O29  1  0.946010  0.250000  0.289447  1
  O  O30  1  0.553990  0.750000  0.789447  1
  O  O31  1  0.053990  0.750000  0.710553  1
  O  O32  1  0.596169  0.750000  0.078696  1
  O  O33  1  0.096169  0.750000  0.421304  1
  O  O34  1  0.403831  0.250000  0.921304  1
  O  O35  1  0.903831  0.250000  0.578696  1
