# generated using pymatgen
data_OsN2
_symmetry_space_group_name_H-M   'P 1'
_cell_length_a   4.42613813
_cell_length_b   4.42613813
_cell_length_c   2.66935685
_cell_angle_alpha   90.00000000
_cell_angle_beta   90.00000000
_cell_angle_gamma   90.00000000
_symmetry_Int_Tables_number   1
_chemical_formula_structural   OsN2
_chemical_formula_sum   'Os2 N4'
_cell_volume   52.29456589
_cell_formula_units_Z   2
loop_
 _symmetry_equiv_pos_site_id
 _symmetry_equiv_pos_as_xyz
  1  'x, y, z'
loop_
 _atom_site_type_symbol
 _atom_site_label
 _atom_site_symmetry_multiplicity
 _atom_site_fract_x
 _atom_site_fract_y
 _atom_site_fract_z
 _atom_site_occupancy
  Os  Os0  1  0.500000  0.500000  0.000000  1
  Os  Os1  1  0.000000  0.000000  0.000000  1
  N  N2  1  0.387746  0.887746  0.500000  1
  N  N3  1  0.612254  0.112254  0.500000  1
  N  N4  1  0.112254  0.387746  0.500000  1
  N  N5  1  0.887746  0.612254  0.500000  1
