# generated using pymatgen
data_Rb5SiAs3
_symmetry_space_group_name_H-M   'P 1'
_cell_length_a   5.72284846
_cell_length_b   14.42962189
_cell_length_c   15.87823483
_cell_angle_alpha   90.00000000
_cell_angle_beta   90.00000000
_cell_angle_gamma   90.00000000
_symmetry_Int_Tables_number   1
_chemical_formula_structural   Rb5SiAs3
_chemical_formula_sum   'Rb20 Si4 As12'
_cell_volume   1311.20144070
_cell_formula_units_Z   4
loop_
 _symmetry_equiv_pos_site_id
 _symmetry_equiv_pos_as_xyz
  1  'x, y, z'
loop_
 _atom_site_type_symbol
 _atom_site_label
 _atom_site_symmetry_multiplicity
 _atom_site_fract_x
 _atom_site_fract_y
 _atom_site_fract_z
 _atom_site_occupancy
  Si  Si0  1  0.750000  0.738813  0.424526  1
  Si  Si1  1  0.250000  0.261187  0.575474  1
  Si  Si2  1  0.750000  0.238813  0.075474  1
  Si  Si3  1  0.250000  0.761187  0.924526  1
  As  As4  1  0.250000  0.812628  0.063135  1
  As  As5  1  0.750000  0.187372  0.936865  1
  As  As6  1  0.250000  0.312628  0.436865  1
  As  As7  1  0.750000  0.687372  0.563135  1
  As  As8  1  0.250000  0.601857  0.903091  1
  As  As9  1  0.750000  0.398143  0.096909  1
  As  As10  1  0.250000  0.101857  0.596909  1
  As  As11  1  0.750000  0.898143  0.403091  1
  As  As12  1  0.750000  0.634996  0.311838  1
  As  As13  1  0.250000  0.365004  0.688162  1
  As  As14  1  0.750000  0.134996  0.188162  1
  As  As15  1  0.250000  0.865004  0.811838  1
  Rb  Rb16  1  0.750000  0.947646  0.647397  1
  Rb  Rb17  1  0.250000  0.052354  0.352603  1
  Rb  Rb18  1  0.750000  0.447646  0.852603  1
  Rb  Rb19  1  0.250000  0.552354  0.147397  1
  Rb  Rb20  1  0.250000  0.776707  0.285331  1
  Rb  Rb21  1  0.750000  0.223293  0.714669  1
  Rb  Rb22  1  0.250000  0.276707  0.214669  1
  Rb  Rb23  1  0.750000  0.723293  0.785331  1
  Rb  Rb24  1  0.250000  0.350340  0.961425  1
  Rb  Rb25  1  0.750000  0.649660  0.038575  1
  Rb  Rb26  1  0.250000  0.850340  0.538575  1
  Rb  Rb27  1  0.750000  0.149660  0.461425  1
  Rb  Rb28  1  0.250000  0.112763  0.818901  1
  Rb  Rb29  1  0.750000  0.887237  0.181099  1
  Rb  Rb30  1  0.250000  0.612763  0.681099  1
  Rb  Rb31  1  0.750000  0.387237  0.318901  1
  Rb  Rb32  1  0.250000  0.067108  0.058054  1
  Rb  Rb33  1  0.750000  0.932892  0.941946  1
  Rb  Rb34  1  0.250000  0.567108  0.441946  1
  Rb  Rb35  1  0.750000  0.432892  0.558054  1
