# generated using pymatgen
data_Ca4Al6TeO12
_symmetry_space_group_name_H-M   'P 1'
_cell_length_a   7.99788710
_cell_length_b   7.99788709
_cell_length_c   7.99788709
_cell_angle_alpha   109.47122060
_cell_angle_beta   109.47122059
_cell_angle_gamma   109.47122065
_symmetry_Int_Tables_number   1
_chemical_formula_structural   Ca4Al6TeO12
_chemical_formula_sum   'Ca4 Al6 Te1 O12'
_cell_volume   393.82557542
_cell_formula_units_Z   1
loop_
 _symmetry_equiv_pos_site_id
 _symmetry_equiv_pos_as_xyz
  1  'x, y, z'
loop_
 _atom_site_type_symbol
 _atom_site_label
 _atom_site_symmetry_multiplicity
 _atom_site_fract_x
 _atom_site_fract_y
 _atom_site_fract_z
 _atom_site_occupancy
  O  O0  1  0.414922  0.714331  0.000000  1
  O  O1  1  0.285669  0.285669  0.700591  1
  O  O2  1  0.585078  0.299409  0.585078  1
  O  O3  1  0.299409  0.585078  0.585078  1
  O  O4  1  0.714331  0.000000  0.414922  1
  O  O5  1  0.285669  0.700591  0.285669  1
  O  O6  1  0.700591  0.285669  0.285669  1
  O  O7  1  0.000000  0.714331  0.414922  1
  O  O8  1  0.714331  0.414922  0.000000  1
  O  O9  1  0.000000  0.414922  0.714331  1
  O  O10  1  0.585078  0.585078  0.299409  1
  O  O11  1  0.414922  0.000000  0.714331  1
  Al  Al12  1  0.250000  0.750000  0.500000  1
  Al  Al13  1  0.750000  0.250000  0.500000  1
  Al  Al14  1  0.250000  0.500000  0.750000  1
  Al  Al15  1  0.750000  0.500000  0.250000  1
  Al  Al16  1  0.500000  0.250000  0.750000  1
  Al  Al17  1  0.500000  0.750000  0.250000  1
  Ca  Ca18  1  0.390369  0.390369  0.390369  1
  Ca  Ca19  1  0.000000  0.000000  0.609631  1
  Ca  Ca20  1  0.609631  0.000000  0.000000  1
  Ca  Ca21  1  0.000000  0.609631  0.000000  1
  Te  Te22  1  0.000000  0.000000  0.000000  1
