# generated using pymatgen
data_SmSnF7
_symmetry_space_group_name_H-M   'P 1'
_cell_length_a   5.74959511
_cell_length_b   9.15795623
_cell_length_c   11.41801681
_cell_angle_alpha   107.45184973
_cell_angle_beta   90.00000000
_cell_angle_gamma   90.00000000
_symmetry_Int_Tables_number   1
_chemical_formula_structural   SmSnF7
_chemical_formula_sum   'Sm4 Sn4 F28'
_cell_volume   573.53630303
_cell_formula_units_Z   4
loop_
 _symmetry_equiv_pos_site_id
 _symmetry_equiv_pos_as_xyz
  1  'x, y, z'
loop_
 _atom_site_type_symbol
 _atom_site_label
 _atom_site_symmetry_multiplicity
 _atom_site_fract_x
 _atom_site_fract_y
 _atom_site_fract_z
 _atom_site_occupancy
  F  F0  1  0.045084  0.828316  0.545211  1
  F  F1  1  0.545084  0.671684  0.954789  1
  F  F2  1  0.954916  0.171684  0.454789  1
  F  F3  1  0.454916  0.328316  0.045211  1
  F  F4  1  0.952307  0.371582  0.080103  1
  F  F5  1  0.452307  0.128418  0.419897  1
  F  F6  1  0.047693  0.628418  0.919897  1
  F  F7  1  0.547693  0.871582  0.580103  1
  F  F8  1  0.268636  0.622205  0.140323  1
  F  F9  1  0.768636  0.877795  0.359677  1
  F  F10  1  0.731364  0.377795  0.859677  1
  F  F11  1  0.231364  0.122205  0.640323  1
  F  F12  1  0.259820  0.919221  0.946460  1
  F  F13  1  0.759820  0.580779  0.553540  1
  F  F14  1  0.740180  0.080779  0.053540  1
  F  F15  1  0.240180  0.419221  0.446460  1
  F  F16  1  0.956262  0.585391  0.329718  1
  F  F17  1  0.456262  0.914609  0.170282  1
  F  F18  1  0.043738  0.414609  0.670282  1
  F  F19  1  0.543738  0.085391  0.829718  1
  F  F20  1  0.980634  0.871722  0.141259  1
  F  F21  1  0.480634  0.628278  0.358741  1
  F  F22  1  0.019366  0.128278  0.858741  1
  F  F23  1  0.519366  0.371722  0.641259  1
  F  F24  1  0.918938  0.796846  0.766715  1
  F  F25  1  0.418938  0.703154  0.733285  1
  F  F26  1  0.081062  0.203154  0.233285  1
  F  F27  1  0.581062  0.296846  0.266715  1
  Sn  Sn28  1  0.756007  0.729953  0.457038  1
  Sn  Sn29  1  0.256007  0.770047  0.042962  1
  Sn  Sn30  1  0.243993  0.270047  0.542962  1
  Sn  Sn31  1  0.743993  0.229953  0.957038  1
  Sm  Sm32  1  0.242031  0.922225  0.734568  1
  Sm  Sm33  1  0.742031  0.577775  0.765432  1
  Sm  Sm34  1  0.757969  0.077775  0.265432  1
  Sm  Sm35  1  0.257969  0.422225  0.234568  1
