# generated using pymatgen
data_TmCd2
_symmetry_space_group_name_H-M   'P 1'
_cell_length_a   5.40618735
_cell_length_b   5.40614172
_cell_length_c   3.20116352
_cell_angle_alpha   89.99999995
_cell_angle_beta   89.82040618
_cell_angle_gamma   119.99972040
_symmetry_Int_Tables_number   1
_chemical_formula_structural   TmCd2
_chemical_formula_sum   'Tm1 Cd2'
_cell_volume   81.02431864
_cell_formula_units_Z   1
loop_
 _symmetry_equiv_pos_site_id
 _symmetry_equiv_pos_as_xyz
  1  'x, y, z'
loop_
 _atom_site_type_symbol
 _atom_site_label
 _atom_site_symmetry_multiplicity
 _atom_site_fract_x
 _atom_site_fract_y
 _atom_site_fract_z
 _atom_site_occupancy
  Tm  Tm0  1  0.000000  0.000000  -0.000000  1
  Cd  Cd1  1  0.666597  0.333299  0.952799  1
  Cd  Cd2  1  0.333402  0.666701  0.047201  1
