# generated using pymatgen
data_TmBO3
_symmetry_space_group_name_H-M   'P 1'
_cell_length_a   6.56371376
_cell_length_b   6.56371376
_cell_length_c   8.68624315
_cell_angle_alpha   90.00000000
_cell_angle_beta   90.00000000
_cell_angle_gamma   120.00000000
_symmetry_Int_Tables_number   1
_chemical_formula_structural   TmBO3
_chemical_formula_sum   'Tm6 B6 O18'
_cell_volume   324.08720162
_cell_formula_units_Z   6
loop_
 _symmetry_equiv_pos_site_id
 _symmetry_equiv_pos_as_xyz
  1  'x, y, z'
loop_
 _atom_site_type_symbol
 _atom_site_label
 _atom_site_symmetry_multiplicity
 _atom_site_fract_x
 _atom_site_fract_y
 _atom_site_fract_z
 _atom_site_occupancy
  B  B0  1  0.333298  0.266619  0.750000  1
  B  B1  1  0.733381  0.066679  0.750000  1
  B  B2  1  0.933321  0.666702  0.750000  1
  B  B3  1  0.933321  0.266619  0.250000  1
  B  B4  1  0.733381  0.666702  0.250000  1
  B  B5  1  0.333298  0.066679  0.250000  1
  O  O6  1  0.646035  0.979399  0.897212  1
  O  O7  1  0.333364  0.353965  0.897212  1
  O  O8  1  0.646035  0.979399  0.602788  1
  O  O9  1  0.333364  0.353965  0.602788  1
  O  O10  1  0.333364  0.979399  0.397212  1
  O  O11  1  0.020601  0.666636  0.602788  1
  O  O12  1  0.333202  0.271953  0.250000  1
  O  O13  1  0.938751  0.666798  0.250000  1
  O  O14  1  0.728047  0.061249  0.250000  1
  O  O15  1  0.728047  0.666798  0.750000  1
  O  O16  1  0.938751  0.271953  0.750000  1
  O  O17  1  0.333202  0.061249  0.750000  1
  O  O18  1  0.333364  0.979399  0.102788  1
  O  O19  1  0.646035  0.666636  0.397212  1
  O  O20  1  0.020601  0.353965  0.397212  1
  O  O21  1  0.020601  0.353965  0.102788  1
  O  O22  1  0.646035  0.666636  0.102788  1
  O  O23  1  0.020601  0.666636  0.897212  1
  Tm  Tm24  1  0.666667  0.333333  0.500000  1
  Tm  Tm25  1  0.666667  0.333333  0.000000  1
  Tm  Tm26  1  0.333333  0.666667  0.500000  1
  Tm  Tm27  1  0.333333  0.666667  0.000000  1
  Tm  Tm28  1  0.000000  0.000000  0.500000  1
  Tm  Tm29  1  0.000000  0.000000  0.000000  1
