# generated using pymatgen
data_Te2MoWSe2
_symmetry_space_group_name_H-M   'P 1'
_cell_length_a   3.43761973
_cell_length_b   3.43760949
_cell_length_c   39.09831135
_cell_angle_alpha   90.00029264
_cell_angle_beta   90.00001000
_cell_angle_gamma   120.00008579
_symmetry_Int_Tables_number   1
_chemical_formula_structural   Te2MoWSe2
_chemical_formula_sum   'Te4 Mo2 W2 Se4'
_cell_volume   400.13139609
_cell_formula_units_Z   2
loop_
 _symmetry_equiv_pos_site_id
 _symmetry_equiv_pos_as_xyz
  1  'x, y, z'
loop_
 _atom_site_type_symbol
 _atom_site_label
 _atom_site_symmetry_multiplicity
 _atom_site_fract_x
 _atom_site_fract_y
 _atom_site_fract_z
 _atom_site_occupancy
  Te  Te0  1  0.333361  0.666722  0.329497  1
  Te  Te1  1  0.333354  0.666709  0.704958  1
  Te  Te2  1  0.333355  0.666711  0.234072  1
  Te  Te3  1  0.333355  0.666711  0.610120  1
  Mo  Mo4  1  0.333310  0.666620  0.093917  1
  Mo  Mo5  1  0.666691  0.333383  0.657536  1
  W  W6  1  0.333312  0.666623  0.469685  1
  W  W7  1  0.666695  0.333390  0.281831  1
  Se  Se8  1  0.666644  0.333287  0.052105  1
  Se  Se9  1  0.666628  0.333256  0.427688  1
  Se  Se10  1  0.666650  0.333299  0.135732  1
  Se  Se11  1  0.666645  0.333290  0.511607  1
