# generated using pymatgen
data_In2Se3
_symmetry_space_group_name_H-M   'P 1'
_cell_length_a   4.01847152
_cell_length_b   4.01836753
_cell_length_c   9.78868835
_cell_angle_alpha   90.00005373
_cell_angle_beta   89.99944136
_cell_angle_gamma   119.99942218
_symmetry_Int_Tables_number   1
_chemical_formula_structural   In2Se3
_chemical_formula_sum   'In2 Se3'
_cell_volume   136.88889358
_cell_formula_units_Z   1
loop_
 _symmetry_equiv_pos_site_id
 _symmetry_equiv_pos_as_xyz
  1  'x, y, z'
loop_
 _atom_site_type_symbol
 _atom_site_label
 _atom_site_symmetry_multiplicity
 _atom_site_fract_x
 _atom_site_fract_y
 _atom_site_fract_z
 _atom_site_occupancy
  In  In0  1  0.666673  0.333336  0.192689  1
  In  In1  1  0.333327  0.666664  0.807311  1
  Se  Se2  1  -0.000000  0.000000  -0.000000  1
  Se  Se3  1  0.666630  0.333315  0.670193  1
  Se  Se4  1  0.333370  0.666685  0.329807  1
