# generated using pymatgen
data_RbB(CN)4
_symmetry_space_group_name_H-M   'P 1'
_cell_length_a   7.29834773
_cell_length_b   7.29834773
_cell_length_c   9.14748903
_cell_angle_alpha   113.51107286
_cell_angle_beta   113.51107292
_cell_angle_gamma   90.00000000
_symmetry_Int_Tables_number   1
_chemical_formula_structural   RbB(CN)4
_chemical_formula_sum   'Rb2 B2 C8 N8'
_cell_volume   402.30240176
_cell_formula_units_Z   2
loop_
 _symmetry_equiv_pos_site_id
 _symmetry_equiv_pos_as_xyz
  1  'x, y, z'
loop_
 _atom_site_type_symbol
 _atom_site_label
 _atom_site_symmetry_multiplicity
 _atom_site_fract_x
 _atom_site_fract_y
 _atom_site_fract_z
 _atom_site_occupancy
  B  B0  1  0.125000  0.375000  0.250000  1
  B  B1  1  0.875000  0.625000  0.750000  1
  C  C2  1  0.215051  0.414463  0.130974  1
  C  C3  1  0.716511  0.715051  0.630974  1
  C  C4  1  0.914463  0.415923  0.630974  1
  C  C5  1  0.915923  0.216511  0.130974  1
  C  C6  1  0.784949  0.585537  0.869026  1
  C  C7  1  0.283489  0.284949  0.369026  1
  C  C8  1  0.085537  0.584077  0.369026  1
  C  C9  1  0.084077  0.783489  0.869026  1
  N  N10  1  0.285392  0.446412  0.047310  1
  N  N11  1  0.600898  0.785392  0.547310  1
  N  N12  1  0.946412  0.261917  0.547310  1
  N  N13  1  0.761917  0.100898  0.047310  1
  N  N14  1  0.714608  0.553588  0.952690  1
  N  N15  1  0.399102  0.214608  0.452690  1
  N  N16  1  0.053588  0.738083  0.452690  1
  N  N17  1  0.238083  0.899102  0.952690  1
  Rb  Rb18  1  0.625000  0.875000  0.250000  1
  Rb  Rb19  1  0.375000  0.125000  0.750000  1
