# generated using pymatgen
data_Na2ZnB6O11
_symmetry_space_group_name_H-M   'P 1'
_cell_length_a   6.60260944
_cell_length_b   6.60260944
_cell_length_c   11.44783235
_cell_angle_alpha   96.22843214
_cell_angle_beta   105.15313913
_cell_angle_gamma   111.01839147
_symmetry_Int_Tables_number   1
_chemical_formula_structural   Na2ZnB6O11
_chemical_formula_sum   'Na4 Zn2 B12 O22'
_cell_volume   438.18477194
_cell_formula_units_Z   2
loop_
 _symmetry_equiv_pos_site_id
 _symmetry_equiv_pos_as_xyz
  1  'x, y, z'
loop_
 _atom_site_type_symbol
 _atom_site_label
 _atom_site_symmetry_multiplicity
 _atom_site_fract_x
 _atom_site_fract_y
 _atom_site_fract_z
 _atom_site_occupancy
  Na  Na0  1  0.272694  0.451515  0.901650  1
  Na  Na1  1  0.950135  0.628956  0.401650  1
  Na  Na2  1  0.669326  0.339421  0.832903  1
  Na  Na3  1  0.993482  0.163578  0.332903  1
  Zn  Zn4  1  0.354851  0.026019  0.117240  1
  Zn  Zn5  1  0.591221  0.762389  0.617240  1
  B  B6  1  0.914742  0.154113  0.021431  1
  B  B7  1  0.367318  0.106689  0.521431  1
  B  B8  1  0.353666  0.600186  0.355260  1
  B  B9  1  0.255074  0.001594  0.855260  1
  B  B10  1  0.146687  0.569443  0.133001  1
  B  B11  1  0.063558  0.986314  0.633001  1
  B  B12  1  0.882752  0.806707  0.103025  1
  B  B13  1  0.796318  0.220273  0.603025  1
  B  B14  1  0.590520  0.185966  0.380152  1
  B  B15  1  0.694186  0.789632  0.880152  1
  B  B16  1  0.575911  0.683078  0.213500  1
  B  B17  1  0.030421  0.637588  0.713500  1
  O  O18  1  0.969626  0.056204  0.117581  1
  O  O19  1  0.561377  0.147955  0.617581  1
  O  O20  1  0.151991  0.521220  0.255961  1
  O  O21  1  0.234740  0.103969  0.755961  1
  O  O22  1  0.987545  0.378154  0.029615  1
  O  O23  1  0.151461  0.042070  0.529615  1
  O  O24  1  0.565485  0.664256  0.333003  1
  O  O25  1  0.168747  0.767518  0.833003  1
  O  O26  1  0.779791  0.023789  0.901682  1
  O  O27  1  0.377893  0.121891  0.401682  1
  O  O28  1  0.091687  0.764599  0.118865  1
  O  O29  1  0.854266  0.027178  0.618865  1
  O  O30  1  0.362729  0.132952  0.970525  1
  O  O31  1  0.337573  0.607797  0.470525  1
  O  O32  1  0.380871  0.639210  0.117394  1
  O  O33  1  0.978184  0.736523  0.617394  1
  O  O34  1  0.792292  0.752079  0.205838  1
  O  O35  1  0.953760  0.413546  0.705838  1
  O  O36  1  0.607701  0.175615  0.265058  1
  O  O37  1  0.589443  0.657358  0.765058  1
  O  O38  1  0.712752  0.688432  0.979897  1
  O  O39  1  0.791465  0.267145  0.479897  1
