# generated using pymatgen
data_Ga3Ni5
_symmetry_space_group_name_H-M   'P 1'
_cell_length_a   3.73662316
_cell_length_b   5.06170272
_cell_length_c   5.06170273
_cell_angle_alpha   96.12556686
_cell_angle_beta   90.00000000
_cell_angle_gamma   90.00000000
_symmetry_Int_Tables_number   1
_chemical_formula_structural   Ga3Ni5
_chemical_formula_sum   'Ga3 Ni5'
_cell_volume   95.18879517
_cell_formula_units_Z   1
loop_
 _symmetry_equiv_pos_site_id
 _symmetry_equiv_pos_as_xyz
  1  'x, y, z'
loop_
 _atom_site_type_symbol
 _atom_site_label
 _atom_site_symmetry_multiplicity
 _atom_site_fract_x
 _atom_site_fract_y
 _atom_site_fract_z
 _atom_site_occupancy
  Ni  Ni0  1  0.500000  0.775081  0.775081  1
  Ni  Ni1  1  0.500000  0.224919  0.224919  1
  Ni  Ni2  1  0.000000  0.000000  0.500000  1
  Ni  Ni3  1  0.000000  0.500000  0.500000  1
  Ni  Ni4  1  0.000000  0.500000  0.000000  1
  Ga  Ga5  1  0.500000  0.718602  0.281398  1
  Ga  Ga6  1  0.500000  0.281398  0.718602  1
  Ga  Ga7  1  0.000000  0.000000  0.000000  1
