# generated using pymatgen
data_Ba4LiCu(CO5)2
_symmetry_space_group_name_H-M   'P 1'
_cell_length_a   5.83662115
_cell_length_b   5.83662115
_cell_length_c   8.79005487
_cell_angle_alpha   109.39029780
_cell_angle_beta   109.39029777
_cell_angle_gamma   89.99999999
_symmetry_Int_Tables_number   1
_chemical_formula_structural   Ba4LiCu(CO5)2
_chemical_formula_sum   'Ba4 Li1 Cu1 C2 O10'
_cell_volume   264.38488321
_cell_formula_units_Z   1
loop_
 _symmetry_equiv_pos_site_id
 _symmetry_equiv_pos_as_xyz
  1  'x, y, z'
loop_
 _atom_site_type_symbol
 _atom_site_label
 _atom_site_symmetry_multiplicity
 _atom_site_fract_x
 _atom_site_fract_y
 _atom_site_fract_z
 _atom_site_occupancy
  Li  Li0  1  0.500000  0.500000  0.000000  1
  C  C1  1  0.271594  0.271594  0.543188  1
  C  C2  1  0.728406  0.728406  0.456812  1
  O  O3  1  0.369132  0.093852  0.462984  1
  O  O4  1  0.356463  0.356463  0.712926  1
  O  O5  1  0.630868  0.630868  0.537016  1
  O  O6  1  0.093852  0.369132  0.462984  1
  O  O7  1  0.906148  0.906148  0.537016  1
  O  O8  1  0.770205  0.225940  0.996144  1
  O  O9  1  0.229795  0.229795  0.003856  1
  O  O10  1  0.774060  0.774060  0.003856  1
  O  O11  1  0.225940  0.770205  0.996144  1
  O  O12  1  0.643537  0.643537  0.287074  1
  Cu  Cu13  1  0.000000  0.000000  0.000000  1
  Ba  Ba14  1  0.117485  0.617485  0.234970  1
  Ba  Ba15  1  0.382515  0.882515  0.765030  1
  Ba  Ba16  1  0.882515  0.382515  0.765030  1
  Ba  Ba17  1  0.617485  0.117485  0.234970  1
