# generated using pymatgen
data_HoPS4
_symmetry_space_group_name_H-M   'P 1'
_cell_length_a   10.77405496
_cell_length_b   10.77405496
_cell_length_c   12.19970127
_cell_angle_alpha   116.20412449
_cell_angle_beta   116.20412448
_cell_angle_gamma   90.00000000
_symmetry_Int_Tables_number   1
_chemical_formula_structural   HoPS4
_chemical_formula_sum   'Ho8 P8 S32'
_cell_volume   1106.07239807
_cell_formula_units_Z   8
loop_
 _symmetry_equiv_pos_site_id
 _symmetry_equiv_pos_as_xyz
  1  'x, y, z'
loop_
 _atom_site_type_symbol
 _atom_site_label
 _atom_site_symmetry_multiplicity
 _atom_site_fract_x
 _atom_site_fract_y
 _atom_site_fract_z
 _atom_site_occupancy
  P  P0  1  0.288074  0.250000  0.500000  1
  P  P1  1  0.788074  0.250000  0.500000  1
  P  P2  1  0.750000  0.788074  0.000000  1
  P  P3  1  0.250000  0.711926  0.000000  1
  P  P4  1  0.711926  0.750000  0.500000  1
  P  P5  1  0.211926  0.750000  0.500000  1
  P  P6  1  0.250000  0.211926  0.000000  1
  P  P7  1  0.750000  0.288074  0.000000  1
  S  S8  1  0.083827  0.611122  0.994029  1
  S  S9  1  0.910202  0.882908  0.994029  1
  S  S10  1  0.611122  0.910202  0.494029  1
  S  S11  1  0.882908  0.083827  0.494029  1
  S  S12  1  0.416173  0.617092  0.005971  1
  S  S13  1  0.589798  0.888878  0.005971  1
  S  S14  1  0.888878  0.416173  0.505971  1
  S  S15  1  0.617092  0.589798  0.505971  1
  S  S16  1  0.344193  0.404531  0.180519  1
  S  S17  1  0.275988  0.344193  0.680519  1
  S  S18  1  0.404531  0.836327  0.680519  1
  S  S19  1  0.663673  0.095469  0.819481  1
  S  S20  1  0.155807  0.224012  0.819481  1
  S  S21  1  0.224012  0.663673  0.319481  1
  S  S22  1  0.095469  0.155807  0.319481  1
  S  S23  1  0.836327  0.275988  0.180519  1
  S  S24  1  0.655807  0.595469  0.819481  1
  S  S25  1  0.724012  0.655807  0.319481  1
  S  S26  1  0.595469  0.163673  0.319481  1
  S  S27  1  0.336327  0.904531  0.180519  1
  S  S28  1  0.844193  0.775988  0.180519  1
  S  S29  1  0.775988  0.336327  0.680519  1
  S  S30  1  0.904531  0.844193  0.680519  1
  S  S31  1  0.163673  0.724012  0.819481  1
  S  S32  1  0.089798  0.117092  0.005971  1
  S  S33  1  0.388878  0.089798  0.505971  1
  S  S34  1  0.117092  0.916173  0.505971  1
  S  S35  1  0.583827  0.382908  0.994029  1
  S  S36  1  0.410202  0.111122  0.994029  1
  S  S37  1  0.111122  0.583827  0.494029  1
  S  S38  1  0.382908  0.410202  0.494029  1
  S  S39  1  0.916173  0.388878  0.005971  1
  Ho  Ho40  1  0.875000  0.125000  0.750000  1
  Ho  Ho41  1  0.125000  0.875000  0.250000  1
  Ho  Ho42  1  0.625000  0.375000  0.250000  1
  Ho  Ho43  1  0.375000  0.625000  0.750000  1
  Ho  Ho44  1  0.625000  0.875000  0.250000  1
  Ho  Ho45  1  0.875000  0.625000  0.750000  1
  Ho  Ho46  1  0.375000  0.125000  0.750000  1
  Ho  Ho47  1  0.125000  0.375000  0.250000  1
