# generated using pymatgen
data_AgAsS2
_symmetry_space_group_name_H-M   'P 1'
_cell_length_a   8.70629601
_cell_length_b   8.70629600
_cell_length_c   8.70629601
_cell_angle_alpha   106.81611210
_cell_angle_beta   106.81611208
_cell_angle_gamma   106.81611209
_symmetry_Int_Tables_number   1
_chemical_formula_structural   AgAsS2
_chemical_formula_sum   'Ag6 As6 S12'
_cell_volume   552.33281474
_cell_formula_units_Z   6
loop_
 _symmetry_equiv_pos_site_id
 _symmetry_equiv_pos_as_xyz
  1  'x, y, z'
loop_
 _atom_site_type_symbol
 _atom_site_label
 _atom_site_symmetry_multiplicity
 _atom_site_fract_x
 _atom_site_fract_y
 _atom_site_fract_z
 _atom_site_occupancy
  S  S0  1  0.935417  0.652152  0.857705  1
  S  S1  1  0.652152  0.857705  0.935417  1
  S  S2  1  0.857705  0.935417  0.652152  1
  S  S3  1  0.064583  0.347848  0.142295  1
  S  S4  1  0.347848  0.142295  0.064583  1
  S  S5  1  0.142295  0.064583  0.347848  1
  S  S6  1  0.757785  0.614553  0.151851  1
  S  S7  1  0.614553  0.151851  0.757785  1
  S  S8  1  0.848149  0.242215  0.385447  1
  S  S9  1  0.242215  0.385447  0.848149  1
  S  S10  1  0.385447  0.848149  0.242215  1
  S  S11  1  0.151851  0.757785  0.614553  1
  As  As12  1  0.659346  0.582592  0.870613  1
  As  As13  1  0.129387  0.340654  0.417408  1
  As  As14  1  0.340654  0.417408  0.129387  1
  As  As15  1  0.582592  0.870613  0.659346  1
  As  As16  1  0.870613  0.659346  0.582592  1
  As  As17  1  0.417408  0.129387  0.340654  1
  Ag  Ag18  1  0.270459  0.096767  0.677857  1
  Ag  Ag19  1  0.096767  0.677857  0.270459  1
  Ag  Ag20  1  0.677857  0.270459  0.096767  1
  Ag  Ag21  1  0.729541  0.903233  0.322143  1
  Ag  Ag22  1  0.903233  0.322143  0.729541  1
  Ag  Ag23  1  0.322143  0.729541  0.903233  1
