# generated using pymatgen
data_LaPPt
_symmetry_space_group_name_H-M   'P 1'
_cell_length_a   4.24774972
_cell_length_b   8.20809929
_cell_length_c   7.33276735
_cell_angle_alpha   90.00000000
_cell_angle_beta   90.00000000
_cell_angle_gamma   90.00000000
_symmetry_Int_Tables_number   1
_chemical_formula_structural   LaPPt
_chemical_formula_sum   'La4 P4 Pt4'
_cell_volume   255.66391050
_cell_formula_units_Z   4
loop_
 _symmetry_equiv_pos_site_id
 _symmetry_equiv_pos_as_xyz
  1  'x, y, z'
loop_
 _atom_site_type_symbol
 _atom_site_label
 _atom_site_symmetry_multiplicity
 _atom_site_fract_x
 _atom_site_fract_y
 _atom_site_fract_z
 _atom_site_occupancy
  La  La0  1  0.250000  0.499846  0.750093  1
  La  La1  1  0.250000  0.999846  0.749907  1
  La  La2  1  0.750000  0.500154  0.249907  1
  La  La3  1  0.750000  0.000154  0.250093  1
  P  P4  1  0.250000  0.250961  0.085548  1
  P  P5  1  0.750000  0.749039  0.914452  1
  P  P6  1  0.750000  0.249039  0.585548  1
  P  P7  1  0.250000  0.750961  0.414452  1
  Pt  Pt8  1  0.250000  0.749792  0.080285  1
  Pt  Pt9  1  0.750000  0.750208  0.580285  1
  Pt  Pt10  1  0.250000  0.249792  0.419715  1
  Pt  Pt11  1  0.750000  0.250208  0.919715  1
