# generated using pymatgen
data_Te2Mo(WSe2)2
_symmetry_space_group_name_H-M   'P 1'
_cell_length_a   3.40162090
_cell_length_b   3.40158990
_cell_length_c   31.44009018
_cell_angle_alpha   90.00007961
_cell_angle_beta   90.00000000
_cell_angle_gamma   120.00030145
_symmetry_Int_Tables_number   1
_chemical_formula_structural   Te2Mo(WSe2)2
_chemical_formula_sum   'Te2 Mo1 W2 Se4'
_cell_volume   315.05107102
_cell_formula_units_Z   1
loop_
 _symmetry_equiv_pos_site_id
 _symmetry_equiv_pos_as_xyz
  1  'x, y, z'
loop_
 _atom_site_type_symbol
 _atom_site_label
 _atom_site_symmetry_multiplicity
 _atom_site_fract_x
 _atom_site_fract_y
 _atom_site_fract_z
 _atom_site_occupancy
  Te  Te0  1  0.666648  0.333295  0.518457  1
  Te  Te1  1  0.666647  0.333293  0.638169  1
  Mo  Mo2  1  0.333310  0.666620  0.115656  1
  W  W3  1  0.333312  0.666624  0.578324  1
  W  W4  1  0.666689  0.333377  0.346966  1
  Se  Se5  1  0.333354  0.666710  0.399567  1
  Se  Se6  1  0.666636  0.333270  0.063166  1
  Se  Se7  1  0.666649  0.333297  0.168158  1
  Se  Se8  1  0.333356  0.666713  0.294377  1
