# generated using pymatgen
data_Ca10Ge16(B2O17)3
_symmetry_space_group_name_H-M   'P 1'
_cell_length_a   15.28853444
_cell_length_b   26.68680363
_cell_length_c   4.78334072
_cell_angle_alpha   90.00000000
_cell_angle_beta   90.00000000
_cell_angle_gamma   90.00000000
_symmetry_Int_Tables_number   1
_chemical_formula_structural   Ca10Ge16(B2O17)3
_chemical_formula_sum   'Ca20 Ge32 B12 O102'
_cell_volume   1951.61313718
_cell_formula_units_Z   2
loop_
 _symmetry_equiv_pos_site_id
 _symmetry_equiv_pos_as_xyz
  1  'x, y, z'
loop_
 _atom_site_type_symbol
 _atom_site_label
 _atom_site_symmetry_multiplicity
 _atom_site_fract_x
 _atom_site_fract_y
 _atom_site_fract_z
 _atom_site_occupancy
  Ca  Ca0  1  0.861039  0.353358  0.505388  1
  Ca  Ca1  1  0.138961  0.646642  0.505388  1
  Ca  Ca2  1  0.638961  0.853358  0.505388  1
  Ca  Ca3  1  0.361039  0.146642  0.505388  1
  Ca  Ca4  1  0.255739  0.424070  0.537134  1
  Ca  Ca5  1  0.744261  0.575930  0.537134  1
  Ca  Ca6  1  0.244261  0.924070  0.537134  1
  Ca  Ca7  1  0.755739  0.075930  0.537134  1
  Ca  Ca8  1  0.384310  0.295608  0.517647  1
  Ca  Ca9  1  0.615690  0.704392  0.517647  1
  Ca  Ca10  1  0.115690  0.795608  0.517647  1
  Ca  Ca11  1  0.884310  0.204392  0.517647  1
  Ca  Ca12  1  0.146281  0.223329  0.519491  1
  Ca  Ca13  1  0.853719  0.776671  0.519491  1
  Ca  Ca14  1  0.353719  0.723329  0.519491  1
  Ca  Ca15  1  0.646281  0.276671  0.519491  1
  Ca  Ca16  1  0.506976  0.400427  0.506816  1
  Ca  Ca17  1  0.493024  0.599573  0.506816  1
  Ca  Ca18  1  0.993024  0.900427  0.506816  1
  Ca  Ca19  1  0.006976  0.099573  0.506816  1
  Ge  Ge20  1  0.041108  0.422442  0.026686  1
  Ge  Ge21  1  0.958892  0.577558  0.026686  1
  Ge  Ge22  1  0.458892  0.922442  0.026686  1
  Ge  Ge23  1  0.541108  0.077558  0.026686  1
  Ge  Ge24  1  0.080583  0.346274  0.526625  1
  Ge  Ge25  1  0.919417  0.653726  0.526625  1
  Ge  Ge26  1  0.419417  0.846274  0.526625  1
  Ge  Ge27  1  0.580583  0.153726  0.526625  1
  Ge  Ge28  1  0.214931  0.323027  0.030905  1
  Ge  Ge29  1  0.785069  0.676973  0.030905  1
  Ge  Ge30  1  0.285069  0.823027  0.030905  1
  Ge  Ge31  1  0.714931  0.176973  0.030905  1
  Ge  Ge32  1  0.715341  0.450756  0.525203  1
  Ge  Ge33  1  0.284659  0.549244  0.525203  1
  Ge  Ge34  1  0.784659  0.950756  0.525203  1
  Ge  Ge35  1  0.215341  0.049244  0.525203  1
  Ge  Ge36  1  0.990793  0.284467  0.018666  1
  Ge  Ge37  1  0.009207  0.715533  0.018666  1
  Ge  Ge38  1  0.509207  0.784467  0.018666  1
  Ge  Ge39  1  0.490793  0.215533  0.018666  1
  Ge  Ge40  1  0.853210  0.474829  0.023118  1
  Ge  Ge41  1  0.146790  0.525171  0.023118  1
  Ge  Ge42  1  0.646790  0.974829  0.023118  1
  Ge  Ge43  1  0.353210  0.025171  0.023118  1
  Ge  Ge44  1  0.688502  0.370391  0.025578  1
  Ge  Ge45  1  0.311498  0.629609  0.025578  1
  Ge  Ge46  1  0.811498  0.870391  0.025578  1
  Ge  Ge47  1  0.188502  0.129609  0.025578  1
  Ge  Ge48  1  0.392717  0.493941  0.017702  1
  Ge  Ge49  1  0.607283  0.506059  0.017702  1
  Ge  Ge50  1  0.107283  0.993941  0.017702  1
  Ge  Ge51  1  0.892717  0.006059  0.017702  1
  B  B52  1  0.799262  0.277219  0.055016  1
  B  B53  1  0.200738  0.722781  0.055016  1
  B  B54  1  0.700738  0.777219  0.055016  1
  B  B55  1  0.299262  0.222781  0.055016  1
  B  B56  1  0.019320  0.178091  0.988783  1
  B  B57  1  0.980680  0.821909  0.988783  1
  B  B58  1  0.480680  0.678091  0.988783  1
  B  B59  1  0.519320  0.321909  0.988783  1
  B  B60  1  0.376650  0.381000  0.998140  1
  B  B61  1  0.623350  0.619000  0.998140  1
  B  B62  1  0.123350  0.881000  0.998140  1
  B  B63  1  0.876650  0.119000  0.998140  1
  O  O64  1  0.981909  0.331773  0.760167  1
  O  O65  1  0.018091  0.668227  0.760167  1
  O  O66  1  0.518091  0.831773  0.760167  1
  O  O67  1  0.481909  0.168227  0.760167  1
  O  O68  1  0.177172  0.363917  0.296348  1
  O  O69  1  0.822828  0.636083  0.296348  1
  O  O70  1  0.322828  0.863917  0.296348  1
  O  O71  1  0.677172  0.136083  0.296348  1
  O  O72  1  0.146997  0.301252  0.757898  1
  O  O73  1  0.853003  0.698748  0.757898  1
  O  O74  1  0.353003  0.801252  0.757898  1
  O  O75  1  0.646997  0.198748  0.757898  1
  O  O76  1  0.106480  0.469904  0.191166  1
  O  O77  1  0.893520  0.530096  0.191166  1
  O  O78  1  0.393520  0.969904  0.191166  1
  O  O79  1  0.606480  0.030096  0.191166  1
  O  O80  1  0.315529  0.493365  0.296079  1
  O  O81  1  0.684471  0.506635  0.296079  1
  O  O82  1  0.184471  0.993365  0.296079  1
  O  O83  1  0.815529  0.006635  0.296079  1
  O  O84  1  0.754684  0.396299  0.757470  1
  O  O85  1  0.245316  0.603701  0.757470  1
  O  O86  1  0.745316  0.896299  0.757470  1
  O  O87  1  0.254684  0.103701  0.757470  1
  O  O88  1  0.067713  0.288548  0.293330  1
  O  O89  1  0.932287  0.711452  0.293330  1
  O  O90  1  0.432287  0.788548  0.293330  1
  O  O91  1  0.567713  0.211452  0.293330  1
  O  O92  1  0.005257  0.228077  0.832326  1
  O  O93  1  0.994743  0.771923  0.832326  1
  O  O94  1  0.494743  0.728077  0.832326  1
  O  O95  1  0.505257  0.271923  0.832326  1
  O  O96  1  0.261282  0.269668  0.202221  1
  O  O97  1  0.738718  0.730332  0.202221  1
  O  O98  1  0.238718  0.769668  0.202221  1
  O  O99  1  0.761282  0.230332  0.202221  1
  O  O100  1  0.500000  0.500000  0.182761  1
  O  O101  1  -0.000000  0.000000  0.182761  1
  O  O102  1  0.111539  0.400901  0.756097  1
  O  O103  1  0.888461  0.599099  0.756097  1
  O  O104  1  0.388461  0.900901  0.756097  1
  O  O105  1  0.611539  0.099099  0.756097  1
  O  O106  1  0.001713  0.382267  0.295833  1
  O  O107  1  0.998287  0.617733  0.295833  1
  O  O108  1  0.498287  0.882267  0.295833  1
  O  O109  1  0.501713  0.117733  0.295833  1
  O  O110  1  0.813134  0.434557  0.291565  1
  O  O111  1  0.186866  0.565443  0.291565  1
  O  O112  1  0.686866  0.934557  0.291565  1
  O  O113  1  0.313134  0.065443  0.291565  1
  O  O114  1  0.779242  0.495802  0.757565  1
  O  O115  1  0.220758  0.504198  0.757565  1
  O  O116  1  0.720758  0.995802  0.757565  1
  O  O117  1  0.279242  0.004198  0.757565  1
  O  O118  1  0.383707  0.434411  0.851497  1
  O  O119  1  0.616293  0.565589  0.851497  1
  O  O120  1  0.116293  0.934411  0.851497  1
  O  O121  1  0.883707  0.065589  0.851497  1
  O  O122  1  0.644297  0.408455  0.294634  1
  O  O123  1  0.355703  0.591545  0.294634  1
  O  O124  1  0.855703  0.908455  0.294634  1
  O  O125  1  0.144297  0.091545  0.294634  1
  O  O126  1  0.747585  0.321443  0.200218  1
  O  O127  1  0.252415  0.678557  0.200218  1
  O  O128  1  0.752415  0.821443  0.200218  1
  O  O129  1  0.247585  0.178557  0.200218  1
  O  O130  1  0.888662  0.281727  0.201818  1
  O  O131  1  0.111338  0.718273  0.201818  1
  O  O132  1  0.611338  0.781727  0.201818  1
  O  O133  1  0.388662  0.218273  0.201818  1
  O  O134  1  0.943317  0.444166  0.860024  1
  O  O135  1  0.056683  0.555834  0.860024  1
  O  O136  1  0.556683  0.944166  0.860024  1
  O  O137  1  0.443317  0.055834  0.860024  1
  O  O138  1  0.602663  0.341401  0.838959  1
  O  O139  1  0.397337  0.658599  0.838959  1
  O  O140  1  0.897337  0.841401  0.838959  1
  O  O141  1  0.102663  0.158599  0.838959  1
  O  O142  1  0.296953  0.357528  0.848806  1
  O  O143  1  0.703047  0.642472  0.848806  1
  O  O144  1  0.203047  0.857528  0.848806  1
  O  O145  1  0.796953  0.142472  0.848806  1
  O  O146  1  0.388804  0.541044  0.754353  1
  O  O147  1  0.611196  0.458956  0.754353  1
  O  O148  1  0.111196  0.041044  0.754353  1
  O  O149  1  0.888804  0.958956  0.754353  1
  O  O150  1  0.799084  0.277587  0.765528  1
  O  O151  1  0.200916  0.722413  0.765528  1
  O  O152  1  0.700916  0.777587  0.765528  1
  O  O153  1  0.299084  0.222413  0.765528  1
  O  O154  1  0.024637  0.181148  0.280349  1
  O  O155  1  0.975363  0.818852  0.280349  1
  O  O156  1  0.475363  0.681148  0.280349  1
  O  O157  1  0.524637  0.318852  0.280349  1
  O  O158  1  0.950119  0.145955  0.868389  1
  O  O159  1  0.049881  0.854045  0.868389  1
  O  O160  1  0.549881  0.645955  0.868389  1
  O  O161  1  0.450119  0.354045  0.868389  1
  O  O162  1  0.371624  0.382024  0.289680  1
  O  O163  1  0.628376  0.617976  0.289680  1
  O  O164  1  0.128376  0.882024  0.289680  1
  O  O165  1  0.871624  0.117976  0.289680  1
