# generated using pymatgen
data_WSeS
_symmetry_space_group_name_H-M   'P 1'
_cell_length_a   3.25431725
_cell_length_b   3.25433110
_cell_length_c   36.89402558
_cell_angle_alpha   89.99992493
_cell_angle_beta   89.99999712
_cell_angle_gamma   119.99985765
_symmetry_Int_Tables_number   1
_chemical_formula_structural   WSeS
_chemical_formula_sum   'W4 Se4 S4'
_cell_volume   338.38330166
_cell_formula_units_Z   4
loop_
 _symmetry_equiv_pos_site_id
 _symmetry_equiv_pos_as_xyz
  1  'x, y, z'
loop_
 _atom_site_type_symbol
 _atom_site_label
 _atom_site_symmetry_multiplicity
 _atom_site_fract_x
 _atom_site_fract_y
 _atom_site_fract_z
 _atom_site_occupancy
  W  W0  1  0.333310  0.666620  0.093901  1
  W  W1  1  0.333308  0.666616  0.469658  1
  W  W2  1  0.666692  0.333384  0.281800  1
  W  W3  1  0.666690  0.333380  0.657557  1
  Se  Se4  1  0.333353  0.666706  0.703805  1
  Se  Se5  1  0.666647  0.333294  0.047653  1
  Se  Se6  1  0.666649  0.333297  0.140159  1
  Se  Se7  1  0.333351  0.666703  0.611299  1
  S  S8  1  0.333358  0.666716  0.323772  1
  S  S9  1  0.666642  0.333284  0.427686  1
  S  S10  1  0.666645  0.333289  0.511631  1
  S  S11  1  0.333355  0.666711  0.239827  1
