# generated using pymatgen
data_SmCrS3
_symmetry_space_group_name_H-M   'P 1'
_cell_length_a   3.76185029
_cell_length_b   7.79520045
_cell_length_c   12.90226878
_cell_angle_alpha   90.00000000
_cell_angle_beta   90.00000000
_cell_angle_gamma   90.00000000
_symmetry_Int_Tables_number   1
_chemical_formula_structural   SmCrS3
_chemical_formula_sum   'Sm4 Cr4 S12'
_cell_volume   378.35099481
_cell_formula_units_Z   4
loop_
 _symmetry_equiv_pos_site_id
 _symmetry_equiv_pos_as_xyz
  1  'x, y, z'
loop_
 _atom_site_type_symbol
 _atom_site_label
 _atom_site_symmetry_multiplicity
 _atom_site_fract_x
 _atom_site_fract_y
 _atom_site_fract_z
 _atom_site_occupancy
  S  S0  1  0.250000  0.992222  0.393052  1
  S  S1  1  0.750000  0.007778  0.606948  1
  S  S2  1  0.250000  0.492222  0.106948  1
  S  S3  1  0.750000  0.507778  0.893052  1
  S  S4  1  0.250000  0.842841  0.992232  1
  S  S5  1  0.750000  0.157159  0.007768  1
  S  S6  1  0.250000  0.342841  0.507768  1
  S  S7  1  0.750000  0.657159  0.492232  1
  S  S8  1  0.750000  0.806078  0.213642  1
  S  S9  1  0.250000  0.193922  0.786358  1
  S  S10  1  0.750000  0.306078  0.286358  1
  S  S11  1  0.250000  0.693922  0.713642  1
  Cr  Cr12  1  0.250000  0.835778  0.550233  1
  Cr  Cr13  1  0.750000  0.164221  0.449767  1
  Cr  Cr14  1  0.250000  0.335778  0.949767  1
  Cr  Cr15  1  0.750000  0.664222  0.050233  1
  Sm  Sm16  1  0.250000  0.585559  0.327235  1
  Sm  Sm17  1  0.750000  0.414441  0.672765  1
  Sm  Sm18  1  0.250000  0.085559  0.172765  1
  Sm  Sm19  1  0.750000  0.914441  0.827235  1
