# generated using pymatgen
data_Mg3V2(SiO4)3
_symmetry_space_group_name_H-M   'P 1'
_cell_length_a   10.24877861
_cell_length_b   10.24877888
_cell_length_c   10.24877856
_cell_angle_alpha   109.47122178
_cell_angle_beta   109.47122231
_cell_angle_gamma   109.47121843
_symmetry_Int_Tables_number   1
_chemical_formula_structural   Mg3V2(SiO4)3
_chemical_formula_sum   'Mg12 V8 Si12 O48'
_cell_volume   828.69448900
_cell_formula_units_Z   4
loop_
 _symmetry_equiv_pos_site_id
 _symmetry_equiv_pos_as_xyz
  1  'x, y, z'
loop_
 _atom_site_type_symbol
 _atom_site_label
 _atom_site_symmetry_multiplicity
 _atom_site_fract_x
 _atom_site_fract_y
 _atom_site_fract_z
 _atom_site_occupancy
  Mg  Mg0  1  0.375000  0.750000  0.125000  1
  Mg  Mg1  1  0.125000  0.250000  0.375000  1
  Mg  Mg2  1  0.375000  0.125000  0.250000  1
  Mg  Mg3  1  0.125000  0.375000  0.750000  1
  Mg  Mg4  1  0.875000  0.750000  0.625000  1
  Mg  Mg5  1  0.750000  0.125000  0.375000  1
  Mg  Mg6  1  0.750000  0.625000  0.875000  1
  Mg  Mg7  1  0.625000  0.250000  0.875000  1
  Mg  Mg8  1  0.250000  0.875000  0.625000  1
  Mg  Mg9  1  0.875000  0.625000  0.250000  1
  Mg  Mg10  1  0.625000  0.875000  0.750000  1
  Mg  Mg11  1  0.250000  0.375000  0.125000  1
  V  V12  1  0.000000  0.000000  0.000000  1
  V  V13  1  0.000000  0.500000  0.000000  1
  V  V14  1  0.000000  0.000000  0.500000  1
  V  V15  1  0.000000  0.500000  0.500000  1
  V  V16  1  0.500000  0.000000  0.500000  1
  V  V17  1  0.500000  0.500000  0.000000  1
  V  V18  1  0.500000  0.500000  0.500000  1
  V  V19  1  0.500000  0.000000  0.000000  1
  Si  Si20  1  0.250000  0.125000  0.875000  1
  Si  Si21  1  0.750000  0.875000  0.125000  1
  Si  Si22  1  0.375000  0.250000  0.625000  1
  Si  Si23  1  0.625000  0.375000  0.250000  1
  Si  Si24  1  0.125000  0.750000  0.875000  1
  Si  Si25  1  0.875000  0.125000  0.750000  1
  Si  Si26  1  0.750000  0.375000  0.625000  1
  Si  Si27  1  0.375000  0.625000  0.750000  1
  Si  Si28  1  0.125000  0.875000  0.250000  1
  Si  Si29  1  0.875000  0.250000  0.125000  1
  Si  Si30  1  0.625000  0.750000  0.375000  1
  Si  Si31  1  0.250000  0.625000  0.375000  1
  O  O32  1  0.287204  0.479932  0.375829  1
  O  O33  1  0.020068  0.307271  0.895897  1
  O  O34  1  0.124171  0.604103  0.911374  1
  O  O35  1  0.212796  0.588626  0.192729  1
  O  O36  1  0.212796  0.124171  0.020068  1
  O  O37  1  0.588626  0.192729  0.212796  1
  O  O38  1  0.604103  0.192729  0.479932  1
  O  O39  1  0.192729  0.212796  0.588626  1
  O  O40  1  0.895897  0.375829  0.588626  1
  O  O41  1  0.307271  0.911374  0.287204  1
  O  O42  1  0.911374  0.287204  0.307271  1
  O  O43  1  0.020068  0.212796  0.124171  1
  O  O44  1  0.192729  0.479932  0.604103  1
  O  O45  1  0.588626  0.895897  0.375829  1
  O  O46  1  0.124171  0.020068  0.212796  1
  O  O47  1  0.479932  0.604103  0.192729  1
  O  O48  1  0.375829  0.588626  0.895897  1
  O  O49  1  0.895897  0.020068  0.307271  1
  O  O50  1  0.604103  0.911374  0.124171  1
  O  O51  1  0.104103  0.624171  0.411374  1
  O  O52  1  0.911374  0.124171  0.604103  1
  O  O53  1  0.375829  0.287204  0.479932  1
  O  O54  1  0.307271  0.895897  0.020068  1
  O  O55  1  0.287204  0.307271  0.911374  1
  O  O56  1  0.712796  0.520068  0.624171  1
  O  O57  1  0.979932  0.692729  0.104103  1
  O  O58  1  0.875829  0.395897  0.088626  1
  O  O59  1  0.787204  0.411374  0.807271  1
  O  O60  1  0.787204  0.875829  0.979932  1
  O  O61  1  0.411374  0.807271  0.787204  1
  O  O62  1  0.395897  0.807271  0.520068  1
  O  O63  1  0.807271  0.787204  0.411374  1
  O  O64  1  0.712796  0.692729  0.088626  1
  O  O65  1  0.692729  0.104103  0.979932  1
  O  O66  1  0.624171  0.712796  0.520068  1
  O  O67  1  0.520068  0.624171  0.712796  1
  O  O68  1  0.088626  0.875829  0.395897  1
  O  O69  1  0.395897  0.088626  0.875829  1
  O  O70  1  0.104103  0.979932  0.692729  1
  O  O71  1  0.624171  0.411374  0.104103  1
  O  O72  1  0.520068  0.395897  0.807271  1
  O  O73  1  0.875829  0.979932  0.787204  1
  O  O74  1  0.411374  0.104103  0.624171  1
  O  O75  1  0.807271  0.520068  0.395897  1
  O  O76  1  0.979932  0.787204  0.875829  1
  O  O77  1  0.088626  0.712796  0.692729  1
  O  O78  1  0.692729  0.088626  0.712796  1
  O  O79  1  0.479932  0.375829  0.287204  1
