# generated using pymatgen
data_DyCrO3
_symmetry_space_group_name_H-M   'P 1'
_cell_length_a   5.30614809
_cell_length_b   5.61338938
_cell_length_c   7.65968050
_cell_angle_alpha   90.00000000
_cell_angle_beta   90.00000000
_cell_angle_gamma   90.00000000
_symmetry_Int_Tables_number   1
_chemical_formula_structural   DyCrO3
_chemical_formula_sum   'Dy4 Cr4 O12'
_cell_volume   228.14722462
_cell_formula_units_Z   4
loop_
 _symmetry_equiv_pos_site_id
 _symmetry_equiv_pos_as_xyz
  1  'x, y, z'
loop_
 _atom_site_type_symbol
 _atom_site_label
 _atom_site_symmetry_multiplicity
 _atom_site_fract_x
 _atom_site_fract_y
 _atom_site_fract_z
 _atom_site_occupancy
  O  O0  1  0.691948  0.303601  0.441860  1
  O  O1  1  0.191948  0.196399  0.558140  1
  O  O2  1  0.808052  0.803601  0.058140  1
  O  O3  1  0.308053  0.696398  0.941860  1
  O  O4  1  0.308053  0.696398  0.558140  1
  O  O5  1  0.808052  0.803601  0.441860  1
  O  O6  1  0.191948  0.196399  0.941860  1
  O  O7  1  0.691948  0.303601  0.058140  1
  O  O8  1  0.113365  0.458981  0.249999  1
  O  O9  1  0.613364  0.041019  0.750000  1
  O  O10  1  0.886636  0.541019  0.750000  1
  O  O11  1  0.386634  0.958982  0.249999  1
  Cr  Cr12  1  0.499999  0.000000  0.500000  1
  Cr  Cr13  1  0.000000  0.500000  0.500000  1
  Cr  Cr14  1  0.000000  0.500000  0.000000  1
  Cr  Cr15  1  0.499999  0.000000  0.000000  1
  Dy  Dy16  1  0.019309  0.931742  0.750000  1
  Dy  Dy17  1  0.519310  0.568257  0.249999  1
  Dy  Dy18  1  0.480691  0.431742  0.750000  1
  Dy  Dy19  1  0.980690  0.068257  0.249999  1
