# generated using pymatgen
data_K3SiF7
_symmetry_space_group_name_H-M   'P 1'
_cell_length_a   5.62874598
_cell_length_b   7.83247578
_cell_length_c   7.83247578
_cell_angle_alpha   90.00000000
_cell_angle_beta   90.00000000
_cell_angle_gamma   90.00000000
_symmetry_Int_Tables_number   1
_chemical_formula_structural   K3SiF7
_chemical_formula_sum   'K6 Si2 F14'
_cell_volume   345.31048942
_cell_formula_units_Z   2
loop_
 _symmetry_equiv_pos_site_id
 _symmetry_equiv_pos_as_xyz
  1  'x, y, z'
loop_
 _atom_site_type_symbol
 _atom_site_label
 _atom_site_symmetry_multiplicity
 _atom_site_fract_x
 _atom_site_fract_y
 _atom_site_fract_z
 _atom_site_occupancy
  F  F0  1  0.782028  0.608629  0.108629  1
  F  F1  1  0.782028  0.391371  0.891371  1
  F  F2  1  0.782028  0.108629  0.391371  1
  F  F3  1  0.782028  0.891371  0.608629  1
  F  F4  1  0.217972  0.608629  0.108629  1
  F  F5  1  0.217972  0.891371  0.608629  1
  F  F6  1  0.217972  0.108629  0.391371  1
  F  F7  1  0.217972  0.391371  0.891371  1
  F  F8  1  0.500000  0.000000  0.000000  1
  F  F9  1  0.500000  0.500000  0.500000  1
  F  F10  1  0.000000  0.154874  0.654874  1
  F  F11  1  0.000000  0.345126  0.154874  1
  F  F12  1  0.000000  0.654874  0.845126  1
  F  F13  1  0.000000  0.845126  0.345126  1
  Si  Si14  1  0.000000  0.500000  0.000000  1
  Si  Si15  1  0.000000  0.000000  0.500000  1
  K  K16  1  0.500000  0.805126  0.305126  1
  K  K17  1  0.500000  0.694874  0.805126  1
  K  K18  1  0.500000  0.305126  0.194874  1
  K  K19  1  0.500000  0.194874  0.694874  1
  K  K20  1  0.000000  0.500000  0.500000  1
  K  K21  1  0.000000  0.000000  0.000000  1
