# generated using pymatgen
data_TeMoWSe2S
_symmetry_space_group_name_H-M   'P 1'
_cell_length_a   3.34669668
_cell_length_b   3.34667889
_cell_length_c   38.04901127
_cell_angle_alpha   89.99997832
_cell_angle_beta   90.00000000
_cell_angle_gamma   120.00017586
_symmetry_Int_Tables_number   1
_chemical_formula_structural   TeMoWSe2S
_chemical_formula_sum   'Te2 Mo2 W2 Se4 S2'
_cell_volume   369.06565755
_cell_formula_units_Z   2
loop_
 _symmetry_equiv_pos_site_id
 _symmetry_equiv_pos_as_xyz
  1  'x, y, z'
loop_
 _atom_site_type_symbol
 _atom_site_label
 _atom_site_symmetry_multiplicity
 _atom_site_fract_x
 _atom_site_fract_y
 _atom_site_fract_z
 _atom_site_occupancy
  Te  Te0  1  0.333357  0.666716  0.707634  1
  Te  Te1  1  0.333353  0.666707  0.607444  1
  Mo  Mo2  1  0.333313  0.666627  0.093898  1
  Mo  Mo3  1  0.333317  0.666633  0.469658  1
  W  W4  1  0.666691  0.333382  0.281806  1
  W  W5  1  0.666694  0.333388  0.657567  1
  Se  Se6  1  0.333351  0.666704  0.325808  1
  Se  Se7  1  0.666645  0.333288  0.050135  1
  Se  Se8  1  0.666651  0.333301  0.137687  1
  Se  Se9  1  0.333350  0.666700  0.237792  1
  S  S10  1  0.666636  0.333272  0.429829  1
  S  S11  1  0.666641  0.333282  0.509490  1
