# generated using pymatgen
data_Ce3Co29(Si2B5)2
_symmetry_space_group_name_H-M   'P 1'
_cell_length_a   7.81537277
_cell_length_b   11.13818062
_cell_length_c   11.13818062
_cell_angle_alpha   90.00000000
_cell_angle_beta   90.00000000
_cell_angle_gamma   90.00000000
_symmetry_Int_Tables_number   1
_chemical_formula_structural   Ce3Co29(Si2B5)2
_chemical_formula_sum   'Ce6 Co58 Si8 B20'
_cell_volume   969.56785820
_cell_formula_units_Z   2
loop_
 _symmetry_equiv_pos_site_id
 _symmetry_equiv_pos_as_xyz
  1  'x, y, z'
loop_
 _atom_site_type_symbol
 _atom_site_label
 _atom_site_symmetry_multiplicity
 _atom_site_fract_x
 _atom_site_fract_y
 _atom_site_fract_z
 _atom_site_occupancy
  B  B0  1  0.516617  0.936321  0.936321  1
  B  B1  1  0.516617  0.563679  0.563679  1
  B  B2  1  0.516617  0.936321  0.563679  1
  B  B3  1  0.516617  0.563679  0.936321  1
  B  B4  1  0.483383  0.436321  0.436321  1
  B  B5  1  0.483383  0.063679  0.436321  1
  B  B6  1  0.260727  0.006082  0.750000  1
  B  B7  1  0.260727  0.493918  0.750000  1
  B  B8  1  0.260727  0.750000  0.493918  1
  B  B9  1  0.260727  0.750000  0.006082  1
  B  B10  1  0.739273  0.250000  0.506082  1
  B  B11  1  0.739273  0.993918  0.250000  1
  B  B12  1  0.739273  0.506082  0.250000  1
  B  B13  1  0.739273  0.250000  0.993918  1
  B  B14  1  0.145260  0.750000  0.750000  1
  B  B15  1  0.854740  0.250000  0.250000  1
  B  B16  1  0.891482  0.750000  0.750000  1
  B  B17  1  0.108518  0.250000  0.250000  1
  B  B18  1  0.483383  0.436321  0.063679  1
  B  B19  1  0.483383  0.063679  0.063679  1
  Si  Si20  1  0.824749  0.430674  0.750000  1
  Si  Si21  1  0.175251  0.250000  0.569326  1
  Si  Si22  1  0.175251  0.930674  0.250000  1
  Si  Si23  1  0.175251  0.569326  0.250000  1
  Si  Si24  1  0.175251  0.250000  0.930674  1
  Si  Si25  1  0.824749  0.750000  0.430674  1
  Si  Si26  1  0.824749  0.750000  0.069326  1
  Si  Si27  1  0.824749  0.069326  0.750000  1
  Co  Co28  1  0.336126  0.423879  0.588323  1
  Co  Co29  1  0.524720  0.750000  0.522782  1
  Co  Co30  1  0.524720  0.522782  0.750000  1
  Co  Co31  1  0.524720  0.977218  0.750000  1
  Co  Co32  1  0.973470  0.250000  0.085010  1
  Co  Co33  1  0.973470  0.414990  0.250000  1
  Co  Co34  1  0.973470  0.085010  0.250000  1
  Co  Co35  1  0.973470  0.250000  0.414990  1
  Co  Co36  1  0.026530  0.750000  0.914990  1
  Co  Co37  1  0.026530  0.750000  0.585010  1
  Co  Co38  1  0.026530  0.585010  0.750000  1
  Co  Co39  1  0.026530  0.914990  0.750000  1
  Co  Co40  1  0.249830  0.133877  0.133877  1
  Co  Co41  1  0.249830  0.366123  0.133877  1
  Co  Co42  1  0.249830  0.133877  0.366123  1
  Co  Co43  1  0.249830  0.366123  0.366123  1
  Co  Co44  1  0.750170  0.633877  0.866123  1
  Co  Co45  1  0.750170  0.866123  0.633877  1
  Co  Co46  1  0.750170  0.633877  0.633877  1
  Co  Co47  1  0.750170  0.866123  0.866123  1
  Co  Co48  1  0.699603  0.140292  0.140292  1
  Co  Co49  1  0.699603  0.359708  0.140292  1
  Co  Co50  1  0.699603  0.140292  0.359708  1
  Co  Co51  1  0.699603  0.359708  0.359708  1
  Co  Co52  1  0.300397  0.640292  0.859708  1
  Co  Co53  1  0.300397  0.859708  0.640292  1
  Co  Co54  1  0.300397  0.640292  0.640292  1
  Co  Co55  1  0.300397  0.859708  0.859708  1
  Co  Co56  1  0.336126  0.076121  0.588323  1
  Co  Co57  1  0.336126  0.911677  0.076121  1
  Co  Co58  1  0.336126  0.588323  0.423879  1
  Co  Co59  1  0.336126  0.423879  0.911677  1
  Co  Co60  1  0.663874  0.576121  0.411677  1
  Co  Co61  1  0.663874  0.923879  0.088323  1
  Co  Co62  1  0.663874  0.088323  0.576121  1
  Co  Co63  1  0.888922  0.250000  0.859584  1
  Co  Co64  1  0.663874  0.923879  0.411677  1
  Co  Co65  1  0.663874  0.088323  0.923879  1
  Co  Co66  1  0.663874  0.411677  0.576121  1
  Co  Co67  1  0.663874  0.576121  0.088323  1
  Co  Co68  1  0.524720  0.750000  0.977218  1
  Co  Co69  1  0.888922  0.640416  0.250000  1
  Co  Co70  1  0.336126  0.911677  0.423879  1
  Co  Co71  1  0.336126  0.588323  0.076121  1
  Co  Co72  1  0.888922  0.859584  0.250000  1
  Co  Co73  1  0.888922  0.250000  0.640416  1
  Co  Co74  1  0.532610  0.750000  0.750000  1
  Co  Co75  1  0.467390  0.250000  0.250000  1
  Co  Co76  1  0.111078  0.750000  0.359584  1
  Co  Co77  1  0.475280  0.250000  0.477218  1
  Co  Co78  1  0.475280  0.022782  0.250000  1
  Co  Co79  1  0.475280  0.477218  0.250000  1
  Co  Co80  1  0.475280  0.250000  0.022782  1
  Co  Co81  1  0.111078  0.359584  0.750000  1
  Co  Co82  1  0.111078  0.140416  0.750000  1
  Co  Co83  1  0.111078  0.750000  0.140416  1
  Co  Co84  1  0.663874  0.411677  0.923879  1
  Co  Co85  1  0.336126  0.076121  0.911677  1
  Ce  Ce86  1  0.000000  0.500000  0.500000  1
  Ce  Ce87  1  0.000000  0.000000  0.500000  1
  Ce  Ce88  1  0.000000  0.500000  0.000000  1
  Ce  Ce89  1  0.000000  0.000000  0.000000  1
  Ce  Ce90  1  0.500000  0.750000  0.250000  1
  Ce  Ce91  1  0.500000  0.250000  0.750000  1
