# generated using pymatgen
data_TbFeSi2
_symmetry_space_group_name_H-M   'P 1'
_cell_length_a   3.96798786
_cell_length_b   4.01089407
_cell_length_c   8.51618484
_cell_angle_alpha   103.62030526
_cell_angle_beta   90.00000000
_cell_angle_gamma   90.00000000
_symmetry_Int_Tables_number   1
_chemical_formula_structural   TbFeSi2
_chemical_formula_sum   'Tb2 Fe2 Si4'
_cell_volume   131.72499219
_cell_formula_units_Z   2
loop_
 _symmetry_equiv_pos_site_id
 _symmetry_equiv_pos_as_xyz
  1  'x, y, z'
loop_
 _atom_site_type_symbol
 _atom_site_label
 _atom_site_symmetry_multiplicity
 _atom_site_fract_x
 _atom_site_fract_y
 _atom_site_fract_z
 _atom_site_occupancy
  Tb  Tb0  1  0.250000  0.392766  0.785531  1
  Tb  Tb1  1  0.750000  0.607234  0.214469  1
  Fe  Fe2  1  0.250000  0.750953  0.501906  1
  Fe  Fe3  1  0.750000  0.249047  0.498094  1
  Si  Si4  1  0.250000  0.038154  0.076307  1
  Si  Si5  1  0.750000  0.961846  0.923693  1
  Si  Si6  1  0.250000  0.186163  0.372327  1
  Si  Si7  1  0.750000  0.813837  0.627673  1
