# generated using pymatgen
data_BaAl4O7
_symmetry_space_group_name_H-M   'P 1'
_cell_length_a   13.15954179
_cell_length_b   10.43053229
_cell_length_c   4.98863650
_cell_angle_alpha   90.00000000
_cell_angle_beta   90.00000000
_cell_angle_gamma   90.00000000
_symmetry_Int_Tables_number   1
_chemical_formula_structural   BaAl4O7
_chemical_formula_sum   'Ba4 Al16 O28'
_cell_volume   684.74536215
_cell_formula_units_Z   4
loop_
 _symmetry_equiv_pos_site_id
 _symmetry_equiv_pos_as_xyz
  1  'x, y, z'
loop_
 _atom_site_type_symbol
 _atom_site_label
 _atom_site_symmetry_multiplicity
 _atom_site_fract_x
 _atom_site_fract_y
 _atom_site_fract_z
 _atom_site_occupancy
  Ba  Ba0  1  -0.000000  0.760066  0.956833  1
  Ba  Ba1  1  -0.000000  0.260066  0.043167  1
  Ba  Ba2  1  0.500000  0.406361  0.547994  1
  Ba  Ba3  1  0.500000  0.906361  0.452006  1
  Al  Al4  1  0.251818  0.924100  0.044796  1
  Al  Al5  1  0.748182  0.924100  0.044796  1
  Al  Al6  1  0.748182  0.424100  0.955204  1
  Al  Al7  1  0.251818  0.424100  0.955204  1
  Al  Al8  1  0.248477  0.740324  0.544453  1
  Al  Al9  1  0.751523  0.740324  0.544453  1
  Al  Al10  1  0.751523  0.240324  0.455547  1
  Al  Al11  1  0.248477  0.240324  0.455547  1
  Al  Al12  1  0.381076  0.673935  0.036515  1
  Al  Al13  1  0.618924  0.673935  0.036515  1
  Al  Al14  1  0.618924  0.173935  0.963485  1
  Al  Al15  1  0.381076  0.173935  0.963485  1
  Al  Al16  1  0.119149  0.990471  0.537482  1
  Al  Al17  1  0.880851  0.990471  0.537482  1
  Al  Al18  1  0.880851  0.490471  0.462518  1
  Al  Al19  1  0.119149  0.490471  0.462518  1
  O  O20  1  -0.000000  0.924639  0.461897  1
  O  O21  1  -0.000000  0.424639  0.538103  1
  O  O22  1  0.500000  0.738826  0.956611  1
  O  O23  1  0.500000  0.238826  0.043389  1
  O  O24  1  0.139173  0.969073  0.884385  1
  O  O25  1  0.860827  0.969073  0.884385  1
  O  O26  1  0.860827  0.469073  0.115615  1
  O  O27  1  0.139173  0.469073  0.115615  1
  O  O28  1  0.214215  0.888793  0.382785  1
  O  O29  1  0.785785  0.888793  0.382785  1
  O  O30  1  0.785785  0.388793  0.617215  1
  O  O31  1  0.214215  0.388793  0.617215  1
  O  O32  1  0.361449  0.696536  0.383167  1
  O  O33  1  0.638551  0.696536  0.383167  1
  O  O34  1  0.638551  0.196536  0.616833  1
  O  O35  1  0.361449  0.196536  0.616833  1
  O  O36  1  0.363482  0.014341  0.060801  1
  O  O37  1  0.636518  0.014341  0.060801  1
  O  O38  1  0.636518  0.514341  0.939199  1
  O  O39  1  0.363482  0.514341  0.939199  1
  O  O40  1  0.137034  0.649706  0.561300  1
  O  O41  1  0.862966  0.649706  0.561300  1
  O  O42  1  0.862966  0.149706  0.438700  1
  O  O43  1  0.137034  0.149706  0.438700  1
  O  O44  1  0.285405  0.775316  0.883411  1
  O  O45  1  0.714595  0.775316  0.883411  1
  O  O46  1  0.714595  0.275316  0.116589  1
  O  O47  1  0.285405  0.275316  0.116589  1
