# generated using pymatgen
data_SrGe2(BO4)2
_symmetry_space_group_name_H-M   'P 1'
_cell_length_a   8.36263873
_cell_length_b   8.20150146
_cell_length_c   9.26722130
_cell_angle_alpha   90.00000000
_cell_angle_beta   90.00000000
_cell_angle_gamma   90.00000000
_symmetry_Int_Tables_number   1
_chemical_formula_structural   SrGe2(BO4)2
_chemical_formula_sum   'Sr4 Ge8 B8 O32'
_cell_volume   635.60343564
_cell_formula_units_Z   4
loop_
 _symmetry_equiv_pos_site_id
 _symmetry_equiv_pos_as_xyz
  1  'x, y, z'
loop_
 _atom_site_type_symbol
 _atom_site_label
 _atom_site_symmetry_multiplicity
 _atom_site_fract_x
 _atom_site_fract_y
 _atom_site_fract_z
 _atom_site_occupancy
  Sr  Sr0  1  0.887985  0.250000  0.070324  1
  Sr  Sr1  1  0.387985  0.250000  0.429676  1
  Sr  Sr2  1  0.112015  0.750000  0.929676  1
  Sr  Sr3  1  0.612015  0.750000  0.570324  1
  Ge  Ge4  1  0.552613  0.946870  0.189796  1
  Ge  Ge5  1  0.052613  0.553130  0.310204  1
  Ge  Ge6  1  0.447387  0.446870  0.810204  1
  Ge  Ge7  1  0.947387  0.053130  0.689796  1
  Ge  Ge8  1  0.447387  0.053130  0.810204  1
  Ge  Ge9  1  0.947387  0.446870  0.689796  1
  Ge  Ge10  1  0.552613  0.553130  0.189796  1
  Ge  Ge11  1  0.052613  0.946870  0.310204  1
  B  B12  1  0.740454  0.913780  0.918145  1
  B  B13  1  0.240454  0.586220  0.581855  1
  B  B14  1  0.259546  0.413780  0.081855  1
  B  B15  1  0.759546  0.086220  0.418145  1
  B  B16  1  0.259546  0.086220  0.081855  1
  B  B17  1  0.759546  0.413780  0.418145  1
  B  B18  1  0.740454  0.586220  0.918145  1
  B  B19  1  0.240454  0.913780  0.581855  1
  O  O20  1  0.807327  0.750000  0.933813  1
  O  O21  1  0.307327  0.750000  0.566187  1
  O  O22  1  0.192672  0.250000  0.066187  1
  O  O23  1  0.692673  0.250000  0.433813  1
  O  O24  1  0.607396  0.913882  0.815000  1
  O  O25  1  0.107396  0.586118  0.685000  1
  O  O26  1  0.392604  0.413882  0.185000  1
  O  O27  1  0.892604  0.086118  0.315000  1
  O  O28  1  0.392604  0.086118  0.185000  1
  O  O29  1  0.892604  0.413882  0.315000  1
  O  O30  1  0.607396  0.586118  0.815000  1
  O  O31  1  0.107396  0.913882  0.685000  1
  O  O32  1  0.874785  0.026607  0.867685  1
  O  O33  1  0.374785  0.473393  0.632315  1
  O  O34  1  0.125215  0.526607  0.132315  1
  O  O35  1  0.625215  0.973393  0.367685  1
  O  O36  1  0.125215  0.973393  0.132315  1
  O  O37  1  0.625215  0.526607  0.367685  1
  O  O38  1  0.874785  0.473393  0.867685  1
  O  O39  1  0.374785  0.026607  0.632315  1
  O  O40  1  0.696300  0.995555  0.057908  1
  O  O41  1  0.196300  0.504445  0.442092  1
  O  O42  1  0.303700  0.495555  0.942092  1
  O  O43  1  0.803700  0.004445  0.557908  1
  O  O44  1  0.303700  0.004445  0.942092  1
  O  O45  1  0.803700  0.495555  0.557908  1
  O  O46  1  0.696300  0.504445  0.057908  1
  O  O47  1  0.196300  0.995555  0.442092  1
  O  O48  1  0.469162  0.750000  0.171712  1
  O  O49  1  0.969162  0.750000  0.328288  1
  O  O50  1  0.530838  0.250000  0.828288  1
  O  O51  1  0.030838  0.250000  0.671712  1
