# generated using pymatgen
data_Sn3H6CNO7
_symmetry_space_group_name_H-M   'P 1'
_cell_length_a   6.75425900
_cell_length_b   11.16456345
_cell_length_c   12.82010403
_cell_angle_alpha   102.64226970
_cell_angle_beta   90.00000000
_cell_angle_gamma   90.00000000
_symmetry_Int_Tables_number   1
_chemical_formula_structural   Sn3H6CNO7
_chemical_formula_sum   'Sn12 H24 C4 N4 O28'
_cell_volume   943.30479354
_cell_formula_units_Z   4
loop_
 _symmetry_equiv_pos_site_id
 _symmetry_equiv_pos_as_xyz
  1  'x, y, z'
loop_
 _atom_site_type_symbol
 _atom_site_label
 _atom_site_symmetry_multiplicity
 _atom_site_fract_x
 _atom_site_fract_y
 _atom_site_fract_z
 _atom_site_occupancy
  Sn  Sn0  1  0.228108  0.483078  0.083350  1
  Sn  Sn1  1  0.244803  0.997327  0.310709  1
  Sn  Sn2  1  0.255197  0.497327  0.810709  1
  Sn  Sn3  1  0.744803  0.502673  0.189291  1
  Sn  Sn4  1  0.040360  0.727772  0.317634  1
  Sn  Sn5  1  0.755197  0.002673  0.689291  1
  Sn  Sn6  1  0.540360  0.772228  0.182366  1
  Sn  Sn7  1  0.728108  0.016922  0.416650  1
  Sn  Sn8  1  0.959640  0.272228  0.682366  1
  Sn  Sn9  1  0.459640  0.227772  0.817634  1
  Sn  Sn10  1  0.271892  0.983078  0.583350  1
  Sn  Sn11  1  0.771892  0.516922  0.916650  1
  H  H12  1  0.473801  0.806453  0.917730  1
  H  H13  1  0.074600  0.396499  0.333522  1
  H  H14  1  0.717121  0.551738  0.503852  1
  H  H15  1  0.930727  0.102701  0.122565  1
  H  H16  1  0.925400  0.603501  0.666478  1
  H  H17  1  0.069273  0.897299  0.877435  1
  H  H18  1  0.574600  0.103501  0.166478  1
  H  H19  1  0.026199  0.306453  0.417730  1
  H  H20  1  0.836740  0.751085  0.693564  1
  H  H21  1  0.163260  0.248915  0.306436  1
  H  H22  1  0.425400  0.896499  0.833522  1
  H  H23  1  0.217121  0.948262  0.996148  1
  H  H24  1  0.374456  0.293690  0.461398  1
  H  H25  1  0.569273  0.602701  0.622565  1
  H  H26  1  0.282879  0.448262  0.496148  1
  H  H27  1  0.430727  0.397299  0.377435  1
  H  H28  1  0.125544  0.793690  0.961398  1
  H  H29  1  0.336740  0.748915  0.806436  1
  H  H30  1  0.973801  0.693547  0.582270  1
  H  H31  1  0.663260  0.251085  0.193564  1
  H  H32  1  0.874456  0.206310  0.038602  1
  H  H33  1  0.625544  0.706310  0.538602  1
  H  H34  1  0.782879  0.051738  0.003852  1
  H  H35  1  0.526199  0.193547  0.082270  1
  C  C36  1  0.182589  0.871279  0.930216  1
  C  C37  1  0.817411  0.128721  0.069784  1
  C  C38  1  0.682589  0.628721  0.569784  1
  C  C39  1  0.317411  0.371279  0.430216  1
  N  N40  1  0.635413  0.170389  0.132321  1
  N  N41  1  0.364587  0.829611  0.867679  1
  N  N42  1  0.135413  0.329611  0.367679  1
  N  N43  1  0.864587  0.670389  0.632321  1
  O  O44  1  0.247823  0.304441  0.735470  1
  O  O45  1  0.515265  0.418139  0.863119  1
  O  O46  1  0.441163  0.054277  0.712716  1
  O  O47  1  0.214249  0.115471  0.226140  1
  O  O48  1  0.285751  0.615471  0.726140  1
  O  O49  1  0.843085  0.437942  0.036825  1
  O  O50  1  0.252177  0.804441  0.235470  1
  O  O51  1  0.015265  0.081861  0.636881  1
  O  O52  1  0.114238  0.674692  0.446919  1
  O  O53  1  0.785751  0.884529  0.773860  1
  O  O54  1  0.815673  0.181249  0.414878  1
  O  O55  1  0.558837  0.945723  0.287284  1
  O  O56  1  0.484735  0.581861  0.136881  1
  O  O57  1  0.684327  0.681249  0.914878  1
  O  O58  1  0.315673  0.318751  0.085122  1
  O  O59  1  0.656915  0.937942  0.536825  1
  O  O60  1  0.752177  0.695559  0.264530  1
  O  O61  1  0.747823  0.195559  0.764530  1
  O  O62  1  0.184327  0.818751  0.585122  1
  O  O63  1  0.984735  0.918139  0.363119  1
  O  O64  1  0.058837  0.554277  0.212716  1
  O  O65  1  0.885762  0.325308  0.553081  1
  O  O66  1  0.614238  0.825308  0.053081  1
  O  O67  1  0.156915  0.562058  0.963175  1
  O  O68  1  0.385762  0.174692  0.946919  1
  O  O69  1  0.714249  0.384529  0.273860  1
  O  O70  1  0.343085  0.062058  0.463175  1
  O  O71  1  0.941163  0.445723  0.787284  1
