# generated using pymatgen
data_InGaS3
_symmetry_space_group_name_H-M   'P 1'
_cell_length_a   3.80701951
_cell_length_b   6.23336528
_cell_length_c   10.08237505
_cell_angle_alpha   90.00000000
_cell_angle_beta   100.88251495
_cell_angle_gamma   90.00000000
_symmetry_Int_Tables_number   1
_chemical_formula_structural   InGaS3
_chemical_formula_sum   'In2 Ga2 S6'
_cell_volume   234.95747048
_cell_formula_units_Z   2
loop_
 _symmetry_equiv_pos_site_id
 _symmetry_equiv_pos_as_xyz
  1  'x, y, z'
loop_
 _atom_site_type_symbol
 _atom_site_label
 _atom_site_symmetry_multiplicity
 _atom_site_fract_x
 _atom_site_fract_y
 _atom_site_fract_z
 _atom_site_occupancy
  S  S0  1  0.895178  0.696562  0.790356  1
  S  S1  1  0.104822  0.196562  0.209644  1
  S  S2  1  0.566677  0.708254  0.133354  1
  S  S3  1  0.433323  0.208254  0.866646  1
  S  S4  1  0.780690  0.241576  0.561379  1
  S  S5  1  0.219310  0.741576  0.438621  1
  Ga  Ga6  1  0.884465  0.057452  0.768929  1
  Ga  Ga7  1  0.115535  0.557452  0.231071  1
  In  In8  1  0.332535  0.502056  0.665070  1
  In  In9  1  0.667465  0.002056  0.334930  1
