# generated using pymatgen
data_TlV2AgO6
_symmetry_space_group_name_H-M   'P 1'
_cell_length_a   5.98907493
_cell_length_b   7.60458673
_cell_length_c   7.60458674
_cell_angle_alpha   87.01829251
_cell_angle_beta   79.17673359
_cell_angle_gamma   79.17673361
_symmetry_Int_Tables_number   1
_chemical_formula_structural   TlV2AgO6
_chemical_formula_sum   'Tl2 V4 Ag2 O12'
_cell_volume   334.08357627
_cell_formula_units_Z   2
loop_
 _symmetry_equiv_pos_site_id
 _symmetry_equiv_pos_as_xyz
  1  'x, y, z'
loop_
 _atom_site_type_symbol
 _atom_site_label
 _atom_site_symmetry_multiplicity
 _atom_site_fract_x
 _atom_site_fract_y
 _atom_site_fract_z
 _atom_site_occupancy
  O  O0  1  0.483358  0.648978  0.669512  1
  O  O1  1  0.016642  0.330488  0.351022  1
  O  O2  1  0.516642  0.351022  0.330488  1
  O  O3  1  0.983358  0.669512  0.648978  1
  O  O4  1  0.227046  0.572219  0.111375  1
  O  O5  1  0.272954  0.888625  0.427781  1
  O  O6  1  0.772954  0.427781  0.888625  1
  O  O7  1  0.727046  0.111375  0.572219  1
  O  O8  1  0.855997  0.044409  0.206742  1
  O  O9  1  0.644003  0.793258  0.955591  1
  O  O10  1  0.144003  0.955591  0.793258  1
  O  O11  1  0.355997  0.206742  0.044409  1
  V  V12  1  0.217505  0.796226  0.632796  1
  V  V13  1  0.282495  0.367204  0.203774  1
  V  V14  1  0.782495  0.203774  0.367204  1
  V  V15  1  0.717505  0.632796  0.796226  1
  Ag  Ag16  1  0.750000  0.103911  0.896089  1
  Ag  Ag17  1  0.250000  0.896089  0.103911  1
  Tl  Tl18  1  0.750000  0.715268  0.284732  1
  Tl  Tl19  1  0.250000  0.284732  0.715268  1
