# generated using pymatgen
data_Te4MoW3(SeS)2
_symmetry_space_group_name_H-M   'P 1'
_cell_length_a   3.39558852
_cell_length_b   3.39560742
_cell_length_c   38.88356880
_cell_angle_alpha   90.00015199
_cell_angle_beta   89.99999588
_cell_angle_gamma   119.99987156
_symmetry_Int_Tables_number   1
_chemical_formula_structural   Te4MoW3(SeS)2
_chemical_formula_sum   'Te4 Mo1 W3 Se2 S2'
_cell_volume   388.26643042
_cell_formula_units_Z   1
loop_
 _symmetry_equiv_pos_site_id
 _symmetry_equiv_pos_as_xyz
  1  'x, y, z'
loop_
 _atom_site_type_symbol
 _atom_site_label
 _atom_site_symmetry_multiplicity
 _atom_site_fract_x
 _atom_site_fract_y
 _atom_site_fract_z
 _atom_site_occupancy
  Te  Te0  1  0.333361  0.666722  0.706133  1
  Te  Te1  1  0.666649  0.333294  0.421307  1
  Te  Te2  1  0.666654  0.333308  0.517719  1
  Te  Te3  1  0.333349  0.666699  0.609194  1
  Mo  Mo4  1  0.333317  0.666634  0.469516  1
  W  W5  1  0.333305  0.666609  0.093919  1
  W  W6  1  0.666689  0.333379  0.281805  1
  W  W7  1  0.666690  0.333381  0.657693  1
  Se  Se8  1  0.666641  0.333282  0.051288  1
  Se  Se9  1  0.666634  0.333267  0.136552  1
  S  S10  1  0.333359  0.666719  0.320591  1
  S  S11  1  0.333352  0.666706  0.243030  1
