# generated using pymatgen
data_HoAgS2
_symmetry_space_group_name_H-M   'P 1'
_cell_length_a   7.61692472
_cell_length_b   7.61772324
_cell_length_c   12.64545387
_cell_angle_alpha   90.00000000
_cell_angle_beta   90.01685978
_cell_angle_gamma   90.00000000
_symmetry_Int_Tables_number   1
_chemical_formula_structural   HoAgS2
_chemical_formula_sum   'Ho8 Ag8 S16'
_cell_volume   733.73503415
_cell_formula_units_Z   8
loop_
 _symmetry_equiv_pos_site_id
 _symmetry_equiv_pos_as_xyz
  1  'x, y, z'
loop_
 _atom_site_type_symbol
 _atom_site_label
 _atom_site_symmetry_multiplicity
 _atom_site_fract_x
 _atom_site_fract_y
 _atom_site_fract_z
 _atom_site_occupancy
  S  S0  1  0.475754  0.727576  0.964654  1
  S  S1  1  0.524246  0.227576  0.035346  1
  S  S2  1  0.019697  0.272255  0.970664  1
  S  S3  1  0.980303  0.772255  0.029336  1
  S  S4  1  0.224774  0.527176  0.714801  1
  S  S5  1  0.775226  0.027176  0.285199  1
  S  S6  1  0.769786  0.983122  0.720517  1
  S  S7  1  0.230214  0.483122  0.279483  1
  S  S8  1  0.725378  0.478492  0.785526  1
  S  S9  1  0.274622  0.978492  0.214474  1
  S  S10  1  0.729865  0.522537  0.220747  1
  S  S11  1  0.975308  0.277813  0.535266  1
  S  S12  1  0.480107  0.232382  0.470552  1
  S  S13  1  0.519893  0.732382  0.529448  1
  S  S14  1  0.024692  0.777813  0.464734  1
  S  S15  1  0.270135  0.022537  0.779253  1
  Ag  Ag16  1  0.734202  0.493408  0.569220  1
  Ag  Ag17  1  0.509786  0.236940  0.818760  1
  Ag  Ag18  1  0.984884  0.274740  0.318045  1
  Ag  Ag19  1  0.015116  0.774740  0.681955  1
  Ag  Ag20  1  0.229312  0.516714  0.931945  1
  Ag  Ag21  1  0.770688  0.016714  0.068055  1
  Ag  Ag22  1  0.265798  0.993408  0.430780  1
  Ag  Ag23  1  0.490214  0.736940  0.181240  1
  Ho  Ho24  1  0.251450  0.001719  0.996873  1
  Ho  Ho25  1  0.748550  0.501719  0.003127  1
  Ho  Ho26  1  0.000703  0.753733  0.246948  1
  Ho  Ho27  1  0.999297  0.253733  0.753052  1
  Ho  Ho28  1  0.500303  0.250998  0.253151  1
  Ho  Ho29  1  0.499697  0.750998  0.746849  1
  Ho  Ho30  1  0.248840  0.502795  0.496892  1
  Ho  Ho31  1  0.751160  0.002795  0.503108  1
