# generated using pymatgen
data_Te4MoW3(SeS)2
_symmetry_space_group_name_H-M   'P 1'
_cell_length_a   3.40008895
_cell_length_b   3.40012110
_cell_length_c   38.82667331
_cell_angle_alpha   90.00000988
_cell_angle_beta   90.00000000
_cell_angle_gamma   119.99968714
_symmetry_Int_Tables_number   1
_chemical_formula_structural   Te4MoW3(SeS)2
_chemical_formula_sum   'Te4 Mo1 W3 Se2 S2'
_cell_volume   388.72891511
_cell_formula_units_Z   1
loop_
 _symmetry_equiv_pos_site_id
 _symmetry_equiv_pos_as_xyz
  1  'x, y, z'
loop_
 _atom_site_type_symbol
 _atom_site_label
 _atom_site_symmetry_multiplicity
 _atom_site_fract_x
 _atom_site_fract_y
 _atom_site_fract_z
 _atom_site_occupancy
  Te  Te0  1  0.333351  0.666703  0.706132  1
  Te  Te1  1  0.666642  0.333282  0.421051  1
  Te  Te2  1  0.666633  0.333265  0.518013  1
  Te  Te3  1  0.333357  0.666715  0.609190  1
  Mo  Mo4  1  0.666690  0.333380  0.281781  1
  W  W5  1  0.333312  0.666625  0.093926  1
  W  W6  1  0.333302  0.666604  0.469515  1
  W  W7  1  0.666690  0.333379  0.657683  1
  Se  Se8  1  0.666651  0.333300  0.051251  1
  Se  Se9  1  0.666647  0.333293  0.136615  1
  S  S10  1  0.333357  0.666715  0.320495  1
  S  S11  1  0.333369  0.666739  0.243097  1
