# generated using pymatgen
data_NdCrO3
_symmetry_space_group_name_H-M   'P 1'
_cell_length_a   5.45801468
_cell_length_b   5.62663537
_cell_length_c   7.79302494
_cell_angle_alpha   90.00000000
_cell_angle_beta   90.00000000
_cell_angle_gamma   90.00000000
_symmetry_Int_Tables_number   1
_chemical_formula_structural   NdCrO3
_chemical_formula_sum   'Nd4 Cr4 O12'
_cell_volume   239.32581000
_cell_formula_units_Z   4
loop_
 _symmetry_equiv_pos_site_id
 _symmetry_equiv_pos_as_xyz
  1  'x, y, z'
loop_
 _atom_site_type_symbol
 _atom_site_label
 _atom_site_symmetry_multiplicity
 _atom_site_fract_x
 _atom_site_fract_y
 _atom_site_fract_z
 _atom_site_occupancy
  Nd  Nd0  1  0.487072  0.554581  0.250000  1
  Nd  Nd1  1  0.512928  0.445419  0.750000  1
  Nd  Nd2  1  0.987072  0.945419  0.750000  1
  Nd  Nd3  1  0.012928  0.054581  0.250000  1
  Cr  Cr4  1  0.500000  0.000000  0.500000  1
  Cr  Cr5  1  0.500000  0.000000  0.000000  1
  Cr  Cr6  1  0.000000  0.500000  0.500000  1
  Cr  Cr7  1  0.000000  0.500000  0.000000  1
  O  O8  1  0.203588  0.794892  0.453687  1
  O  O9  1  0.796412  0.205108  0.953687  1
  O  O10  1  0.703588  0.705108  0.546313  1
  O  O11  1  0.588169  0.976690  0.250000  1
  O  O12  1  0.296412  0.294892  0.046313  1
  O  O13  1  0.796412  0.205108  0.546313  1
  O  O14  1  0.703588  0.705108  0.953687  1
  O  O15  1  0.088169  0.523310  0.750000  1
  O  O16  1  0.911831  0.476690  0.250000  1
  O  O17  1  0.411831  0.023310  0.750000  1
  O  O18  1  0.203588  0.794892  0.046313  1
  O  O19  1  0.296412  0.294892  0.453687  1
