# generated using pymatgen
data_MoW(SeS)2
_symmetry_space_group_name_H-M   'P 1'
_cell_length_a   3.25315159
_cell_length_b   3.25310396
_cell_length_c   36.87998607
_cell_angle_alpha   89.99984215
_cell_angle_beta   90.00000000
_cell_angle_gamma   120.00048427
_symmetry_Int_Tables_number   1
_chemical_formula_structural   MoW(SeS)2
_chemical_formula_sum   'Mo2 W2 Se4 S4'
_cell_volume   338.00373834
_cell_formula_units_Z   2
loop_
 _symmetry_equiv_pos_site_id
 _symmetry_equiv_pos_as_xyz
  1  'x, y, z'
loop_
 _atom_site_type_symbol
 _atom_site_label
 _atom_site_symmetry_multiplicity
 _atom_site_fract_x
 _atom_site_fract_y
 _atom_site_fract_z
 _atom_site_occupancy
  Mo  Mo0  1  0.333313  0.666626  0.093917  1
  Mo  Mo1  1  0.666686  0.333373  0.281805  1
  W  W2  1  0.333310  0.666620  0.469669  1
  W  W3  1  0.666692  0.333384  0.657546  1
  Se  Se4  1  0.333347  0.666694  0.327790  1
  Se  Se5  1  0.333354  0.666709  0.703926  1
  Se  Se6  1  0.333353  0.666707  0.235771  1
  Se  Se7  1  0.333360  0.666722  0.611170  1
  S  S8  1  0.666645  0.333288  0.052000  1
  S  S9  1  0.666647  0.333292  0.427666  1
  S  S10  1  0.666647  0.333294  0.135833  1
  S  S11  1  0.666646  0.333291  0.511656  1
