# generated using pymatgen
data_ThCd3
_symmetry_space_group_name_H-M   'P 1'
_cell_length_a   5.02122880
_cell_length_b   6.85571661
_cell_length_c   6.85490253
_cell_angle_alpha   120.01348436
_cell_angle_beta   90.00000000
_cell_angle_gamma   90.00000000
_symmetry_Int_Tables_number   1
_chemical_formula_structural   ThCd3
_chemical_formula_sum   'Th2 Cd6'
_cell_volume   204.33170412
_cell_formula_units_Z   2
loop_
 _symmetry_equiv_pos_site_id
 _symmetry_equiv_pos_as_xyz
  1  'x, y, z'
loop_
 _atom_site_type_symbol
 _atom_site_label
 _atom_site_symmetry_multiplicity
 _atom_site_fract_x
 _atom_site_fract_y
 _atom_site_fract_z
 _atom_site_occupancy
  Th  Th0  1  0.250000  0.666627  0.333325  1
  Th  Th1  1  0.750000  0.333375  0.666673  1
  Cd  Cd2  1  0.750000  0.842961  0.157023  1
  Cd  Cd3  1  0.250000  0.157048  0.842976  1
  Cd  Cd4  1  0.750000  0.314043  0.157006  1
  Cd  Cd5  1  0.250000  0.685963  0.843013  1
  Cd  Cd6  1  0.750000  0.842990  0.685956  1
  Cd  Cd7  1  0.250000  0.156994  0.314038  1
