# generated using pymatgen
data_P2W2O11
_symmetry_space_group_name_H-M   'P 1'
_cell_length_a   6.36626002
_cell_length_b   8.18339832
_cell_length_c   16.12674555
_cell_angle_alpha   90.00000000
_cell_angle_beta   90.00000000
_cell_angle_gamma   90.00000000
_symmetry_Int_Tables_number   1
_chemical_formula_structural   P2W2O11
_chemical_formula_sum   'P8 W8 O44'
_cell_volume   840.16540907
_cell_formula_units_Z   4
loop_
 _symmetry_equiv_pos_site_id
 _symmetry_equiv_pos_as_xyz
  1  'x, y, z'
loop_
 _atom_site_type_symbol
 _atom_site_label
 _atom_site_symmetry_multiplicity
 _atom_site_fract_x
 _atom_site_fract_y
 _atom_site_fract_z
 _atom_site_occupancy
  O  O0  1  0.250000  0.546063  0.480779  1
  O  O1  1  0.749999  0.453937  0.519221  1
  O  O2  1  0.749999  0.046062  0.019221  1
  O  O3  1  0.250000  0.953937  0.980779  1
  O  O4  1  0.250000  0.534069  0.652293  1
  O  O5  1  0.749999  0.465930  0.347707  1
  O  O6  1  0.749999  0.034069  0.847708  1
  O  O7  1  0.250000  0.965931  0.152293  1
  O  O8  1  0.442554  0.297416  0.430756  1
  O  O9  1  0.942555  0.702584  0.569244  1
  O  O10  1  0.557445  0.797416  0.069244  1
  O  O11  1  0.057445  0.202584  0.930756  1
  O  O12  1  0.557445  0.702584  0.569244  1
  O  O13  1  0.057445  0.297416  0.430756  1
  O  O14  1  0.250000  0.310171  0.759967  1
  O  O15  1  0.942555  0.797416  0.069244  1
  O  O16  1  0.250000  0.632046  0.159805  1
  O  O17  1  0.749999  0.367954  0.840195  1
  O  O18  1  0.749999  0.132046  0.340195  1
  O  O19  1  0.250000  0.867954  0.659805  1
  O  O20  1  0.250000  0.312647  0.105012  1
  O  O21  1  0.749999  0.687353  0.894988  1
  O  O22  1  0.749999  0.812646  0.394988  1
  O  O23  1  0.250000  0.187354  0.605012  1
  O  O24  1  0.250000  0.614318  0.990943  1
  O  O25  1  0.749999  0.385682  0.009057  1
  O  O26  1  0.749999  0.114317  0.509057  1
  O  O27  1  0.250000  0.885682  0.490943  1
  O  O28  1  0.942165  0.426181  0.210951  1
  O  O29  1  0.442165  0.573819  0.789049  1
  O  O30  1  0.057834  0.926180  0.289049  1
  O  O31  1  0.557836  0.073820  0.710950  1
  O  O32  1  0.057834  0.573819  0.789049  1
  O  O33  1  0.557836  0.426181  0.210951  1
  O  O34  1  0.942165  0.073820  0.710950  1
  O  O35  1  0.442165  0.926180  0.289049  1
  O  O36  1  0.250000  0.483977  0.328619  1
  O  O37  1  0.749999  0.516022  0.671382  1
  O  O38  1  0.749999  0.983978  0.171382  1
  O  O39  1  0.250000  0.016022  0.828619  1
  O  O40  1  0.250000  0.189829  0.259967  1
  O  O41  1  0.749999  0.810172  0.740033  1
  O  O42  1  0.749999  0.689829  0.240033  1
  O  O43  1  0.442554  0.202584  0.930756  1
  P  P44  1  0.749999  0.590222  0.584723  1
  P  P45  1  0.250000  0.409777  0.415277  1
  P  P46  1  0.250000  0.090222  0.915277  1
  P  P47  1  0.749999  0.909778  0.084723  1
  P  P48  1  0.749999  0.996364  0.755968  1
  P  P49  1  0.250000  0.003635  0.244032  1
  P  P50  1  0.250000  0.496365  0.744032  1
  P  P51  1  0.749999  0.503634  0.255968  1
  W  W52  1  0.250000  0.728761  0.562720  1
  W  W53  1  0.749999  0.271238  0.437280  1
  W  W54  1  0.749999  0.228761  0.937280  1
  W  W55  1  0.250000  0.771239  0.062720  1
  W  W56  1  0.250000  0.089120  0.699804  1
  W  W57  1  0.749999  0.910880  0.300196  1
  W  W58  1  0.749999  0.589120  0.800196  1
  W  W59  1  0.250000  0.410879  0.199804  1
