# generated using pymatgen
data_YbSe
_symmetry_space_group_name_H-M   'P 1'
_cell_length_a   5.00455970
_cell_length_b   5.00455970
_cell_length_c   5.87023525
_cell_angle_alpha   90.00000000
_cell_angle_beta   90.00000000
_cell_angle_gamma   120.00000003
_symmetry_Int_Tables_number   1
_chemical_formula_structural   YbSe
_chemical_formula_sum   'Yb2 Se2'
_cell_volume   127.32623166
_cell_formula_units_Z   2
loop_
 _symmetry_equiv_pos_site_id
 _symmetry_equiv_pos_as_xyz
  1  'x, y, z'
loop_
 _atom_site_type_symbol
 _atom_site_label
 _atom_site_symmetry_multiplicity
 _atom_site_fract_x
 _atom_site_fract_y
 _atom_site_fract_z
 _atom_site_occupancy
  Se  Se0  1  0.666667  0.333333  0.937402  1
  Se  Se1  1  0.333333  0.666667  0.437402  1
  Yb  Yb2  1  0.666667  0.333333  0.437598  1
  Yb  Yb3  1  0.333333  0.666667  0.937598  1
