# generated using pymatgen
data_MgTe
_symmetry_space_group_name_H-M   'P 1'
_cell_length_a   4.24453420
_cell_length_b   4.24437603
_cell_length_c   6.86366702
_cell_angle_alpha   90.00000000
_cell_angle_beta   90.00000000
_cell_angle_gamma   120.00123271
_symmetry_Int_Tables_number   1
_chemical_formula_structural   MgTe
_chemical_formula_sum   'Mg2 Te2'
_cell_volume   107.08418461
_cell_formula_units_Z   2
loop_
 _symmetry_equiv_pos_site_id
 _symmetry_equiv_pos_as_xyz
  1  'x, y, z'
loop_
 _atom_site_type_symbol
 _atom_site_label
 _atom_site_symmetry_multiplicity
 _atom_site_fract_x
 _atom_site_fract_y
 _atom_site_fract_z
 _atom_site_occupancy
  Mg  Mg0  1  0.000000  0.000000  0.500000  1
  Mg  Mg1  1  0.000000  0.000000  0.000000  1
  Te  Te2  1  0.333306  0.666612  0.250000  1
  Te  Te3  1  0.666694  0.333388  0.750000  1
