# generated using pymatgen
data_USi
_symmetry_space_group_name_H-M   'P 1'
_cell_length_a   3.60653230
_cell_length_b   5.02261428
_cell_length_c   8.62390354
_cell_angle_alpha   90.00000000
_cell_angle_beta   90.00000000
_cell_angle_gamma   90.00000000
_symmetry_Int_Tables_number   1
_chemical_formula_structural   USi
_chemical_formula_sum   'U4 Si4'
_cell_volume   156.21529143
_cell_formula_units_Z   4
loop_
 _symmetry_equiv_pos_site_id
 _symmetry_equiv_pos_as_xyz
  1  'x, y, z'
loop_
 _atom_site_type_symbol
 _atom_site_label
 _atom_site_symmetry_multiplicity
 _atom_site_fract_x
 _atom_site_fract_y
 _atom_site_fract_z
 _atom_site_occupancy
  Si  Si0  1  0.250000  0.841745  0.521099  1
  Si  Si1  1  0.750000  0.158255  0.478901  1
  Si  Si2  1  0.750000  0.341745  0.978901  1
  Si  Si3  1  0.250000  0.658255  0.021099  1
  U  U4  1  0.250000  0.365180  0.713534  1
  U  U5  1  0.750000  0.634820  0.286466  1
  U  U6  1  0.750000  0.865180  0.786466  1
  U  U7  1  0.250000  0.134820  0.213534  1
