# generated using pymatgen
data_Mo3W(SeS3)2
_symmetry_space_group_name_H-M   'P 1'
_cell_length_a   3.22232777
_cell_length_b   3.22225727
_cell_length_c   36.38148487
_cell_angle_alpha   89.99993309
_cell_angle_beta   90.00000000
_cell_angle_gamma   120.00072360
_symmetry_Int_Tables_number   1
_chemical_formula_structural   Mo3W(SeS3)2
_chemical_formula_sum   'Mo3 W1 Se2 S6'
_cell_volume   327.14313581
_cell_formula_units_Z   1
loop_
 _symmetry_equiv_pos_site_id
 _symmetry_equiv_pos_as_xyz
  1  'x, y, z'
loop_
 _atom_site_type_symbol
 _atom_site_label
 _atom_site_symmetry_multiplicity
 _atom_site_fract_x
 _atom_site_fract_y
 _atom_site_fract_z
 _atom_site_occupancy
  Mo  Mo0  1  0.333313  0.666625  0.093915  1
  Mo  Mo1  1  0.333311  0.666621  0.469651  1
  Mo  Mo2  1  0.666688  0.333376  0.281788  1
  W  W3  1  0.666691  0.333381  0.657545  1
  Se  Se4  1  0.333354  0.666708  0.704886  1
  Se  Se5  1  0.333352  0.666706  0.610201  1
  S  S6  1  0.333354  0.666710  0.324538  1
  S  S7  1  0.666646  0.333290  0.051176  1
  S  S8  1  0.666645  0.333288  0.426923  1
  S  S9  1  0.666646  0.333291  0.136666  1
  S  S10  1  0.666645  0.333289  0.512397  1
  S  S11  1  0.333356  0.666714  0.239063  1
