# generated using pymatgen
data_Y(PO3)3
_symmetry_space_group_name_H-M   'P 1'
_cell_length_a   6.93832212
_cell_length_b   8.04316635
_cell_length_c   8.94506659
_cell_angle_alpha   73.99765793
_cell_angle_beta   67.18048573
_cell_angle_gamma   64.44877793
_symmetry_Int_Tables_number   1
_chemical_formula_structural   Y(PO3)3
_chemical_formula_sum   'Y2 P6 O18'
_cell_volume   411.57670804
_cell_formula_units_Z   2
loop_
 _symmetry_equiv_pos_site_id
 _symmetry_equiv_pos_as_xyz
  1  'x, y, z'
loop_
 _atom_site_type_symbol
 _atom_site_label
 _atom_site_symmetry_multiplicity
 _atom_site_fract_x
 _atom_site_fract_y
 _atom_site_fract_z
 _atom_site_occupancy
  Y  Y0  1  0.794818  0.149837  0.749904  1
  Y  Y1  1  0.305441  0.649837  0.249904  1
  P  P2  1  0.809199  0.676639  0.912656  1
  P  P3  1  0.601507  0.176639  0.412656  1
  P  P4  1  0.220056  0.395825  0.008506  1
  P  P5  1  0.375613  0.895825  0.508506  1
  P  P6  1  0.003154  0.115286  0.085085  1
  P  P7  1  0.796475  0.615286  0.585085  1
  O  O8  1  0.064963  0.557094  0.908382  1
  O  O9  1  0.469561  0.057094  0.408382  1
  O  O10  1  0.082512  0.262829  0.112544  1
  O  O11  1  0.542115  0.762829  0.612544  1
  O  O12  1  0.800447  0.122646  0.248468  1
  O  O13  1  0.828439  0.622646  0.748468  1
  O  O14  1  0.771043  0.878461  0.892429  1
  O  O15  1  0.458067  0.378461  0.392429  1
  O  O16  1  0.649338  0.605006  0.055971  1
  O  O17  1  0.689685  0.105006  0.555971  1
  O  O18  1  0.431902  0.293200  0.886169  1
  O  O19  1  0.388730  0.793200  0.386169  1
  O  O20  1  0.238340  0.480803  0.129131  1
  O  O21  1  0.151725  0.980803  0.629131  1
  O  O22  1  0.920115  0.184312  0.939128  1
  O  O23  1  0.956445  0.684312  0.439128  1
  O  O24  1  0.178566  0.923362  0.094127  1
  O  O25  1  0.803945  0.423362  0.594127  1
