# generated using pymatgen
data_PrCrO4
_symmetry_space_group_name_H-M   'P 1'
_cell_length_a   6.20059764
_cell_length_b   6.20059736
_cell_length_c   6.20059759
_cell_angle_alpha   63.04562070
_cell_angle_beta   74.13572451
_cell_angle_gamma   105.86427650
_symmetry_Int_Tables_number   1
_chemical_formula_structural   PrCrO4
_chemical_formula_sum   'Pr2 Cr2 O8'
_cell_volume   181.14123992
_cell_formula_units_Z   2
loop_
 _symmetry_equiv_pos_site_id
 _symmetry_equiv_pos_as_xyz
  1  'x, y, z'
loop_
 _atom_site_type_symbol
 _atom_site_label
 _atom_site_symmetry_multiplicity
 _atom_site_fract_x
 _atom_site_fract_y
 _atom_site_fract_z
 _atom_site_occupancy
  Pr  Pr0  1  0.750000  0.125000  0.125000  1
  Pr  Pr1  1  0.250000  0.875000  0.875000  1
  Cr  Cr2  1  0.250000  0.375000  0.375000  1
  Cr  Cr3  1  0.750000  0.625000  0.625000  1
  O  O4  1  0.929218  0.636311  0.792907  1
  O  O5  1  0.429228  0.207121  0.363651  1
  O  O6  1  0.070772  0.207121  0.722109  1
  O  O7  1  0.570782  0.277874  0.792907  1
  O  O8  1  0.570782  0.792907  0.636311  1
  O  O9  1  0.070772  0.363651  0.207121  1
  O  O10  1  0.429228  0.722109  0.207121  1
  O  O11  1  0.929218  0.792907  0.277874  1
