# generated using pymatgen
data_Mg5Ga2
_symmetry_space_group_name_H-M   'P 1'
_cell_length_a   6.02488204
_cell_length_b   7.02909623
_cell_length_c   8.27820712
_cell_angle_alpha   115.12143467
_cell_angle_beta   111.33991327
_cell_angle_gamma   89.99999996
_symmetry_Int_Tables_number   1
_chemical_formula_structural   Mg5Ga2
_chemical_formula_sum   'Mg10 Ga4'
_cell_volume   290.65071786
_cell_formula_units_Z   2
loop_
 _symmetry_equiv_pos_site_id
 _symmetry_equiv_pos_as_xyz
  1  'x, y, z'
loop_
 _atom_site_type_symbol
 _atom_site_label
 _atom_site_symmetry_multiplicity
 _atom_site_fract_x
 _atom_site_fract_y
 _atom_site_fract_z
 _atom_site_occupancy
  Mg  Mg0  1  0.416416  0.570673  0.832832  1
  Mg  Mg1  1  0.583584  0.429327  0.167168  1
  Mg  Mg2  1  0.083597  0.737832  0.167194  1
  Mg  Mg3  1  0.916403  0.262168  0.832806  1
  Mg  Mg4  1  0.750001  0.000000  0.000000  1
  Mg  Mg5  1  0.249999  0.000000  0.000000  1
  Mg  Mg6  1  0.517504  0.767573  0.535013  1
  Mg  Mg7  1  0.982491  0.232427  0.464987  1
  Mg  Mg8  1  0.482496  0.232427  0.464987  1
  Mg  Mg9  1  0.017509  0.767573  0.535013  1
  Ga  Ga10  1  0.377466  0.141486  0.754931  1
  Ga  Ga11  1  0.622534  0.858514  0.245069  1
  Ga  Ga12  1  0.122562  0.386476  0.245123  1
  Ga  Ga13  1  0.877438  0.613524  0.754877  1
