# generated using pymatgen
data_HfPd
_symmetry_space_group_name_H-M   'P 1'
_cell_length_a   3.28796291
_cell_length_b   4.41066494
_cell_length_c   5.42980712
_cell_angle_alpha   90.00000000
_cell_angle_beta   72.37596191
_cell_angle_gamma   90.00000000
_symmetry_Int_Tables_number   1
_chemical_formula_structural   HfPd
_chemical_formula_sum   'Hf2 Pd2'
_cell_volume   75.04768858
_cell_formula_units_Z   2
loop_
 _symmetry_equiv_pos_site_id
 _symmetry_equiv_pos_as_xyz
  1  'x, y, z'
loop_
 _atom_site_type_symbol
 _atom_site_label
 _atom_site_symmetry_multiplicity
 _atom_site_fract_x
 _atom_site_fract_y
 _atom_site_fract_z
 _atom_site_occupancy
  Hf  Hf0  1  0.143259  0.750000  0.713483  1
  Hf  Hf1  1  0.856742  0.250000  0.286517  1
  Pd  Pd2  1  0.410653  0.750000  0.178695  1
  Pd  Pd3  1  0.589347  0.250000  0.821305  1
