# generated using pymatgen
data_KEuPO4
_symmetry_space_group_name_H-M   'P 1'
_cell_length_a   5.62252851
_cell_length_b   7.42693305
_cell_length_c   9.77675557
_cell_angle_alpha   90.00000000
_cell_angle_beta   90.00000000
_cell_angle_gamma   90.00000000
_symmetry_Int_Tables_number   1
_chemical_formula_structural   KEuPO4
_chemical_formula_sum   'K4 Eu4 P4 O16'
_cell_volume   408.25915536
_cell_formula_units_Z   4
loop_
 _symmetry_equiv_pos_site_id
 _symmetry_equiv_pos_as_xyz
  1  'x, y, z'
loop_
 _atom_site_type_symbol
 _atom_site_label
 _atom_site_symmetry_multiplicity
 _atom_site_fract_x
 _atom_site_fract_y
 _atom_site_fract_z
 _atom_site_occupancy
  O  O0  1  0.250000  0.808097  0.437630  1
  O  O1  1  0.750000  0.191903  0.562370  1
  O  O2  1  0.250000  0.308097  0.062370  1
  O  O3  1  0.750000  0.691903  0.937630  1
  O  O4  1  0.250000  0.516306  0.572897  1
  O  O5  1  0.750000  0.483694  0.427103  1
  O  O6  1  0.250000  0.016306  0.927103  1
  O  O7  1  0.750000  0.983694  0.072897  1
  O  O8  1  0.022206  0.286245  0.836605  1
  O  O9  1  0.522206  0.713755  0.163395  1
  O  O10  1  0.477794  0.786245  0.663395  1
  O  O11  1  0.977794  0.213755  0.336605  1
  O  O12  1  0.022206  0.786245  0.663395  1
  O  O13  1  0.522206  0.213755  0.336605  1
  O  O14  1  0.477794  0.286245  0.836605  1
  O  O15  1  0.977794  0.713755  0.163395  1
  P  P16  1  0.250000  0.224901  0.915109  1
  P  P17  1  0.750000  0.775099  0.084891  1
  P  P18  1  0.750000  0.275099  0.415109  1
  P  P19  1  0.250000  0.724901  0.584891  1
  K  K20  1  0.250000  0.657548  0.918399  1
  K  K21  1  0.250000  0.157548  0.581601  1
  K  K22  1  0.750000  0.342452  0.081601  1
  K  K23  1  0.750000  0.842452  0.418399  1
  Eu  Eu24  1  0.250000  0.502868  0.305101  1
  Eu  Eu25  1  0.750000  0.497132  0.694899  1
  Eu  Eu26  1  0.250000  0.002868  0.194899  1
  Eu  Eu27  1  0.750000  0.997132  0.805101  1
