# generated using pymatgen
data_MoSeS
_symmetry_space_group_name_H-M   'P 1'
_cell_length_a   3.25515892
_cell_length_b   3.25513062
_cell_length_c   36.84519754
_cell_angle_alpha   89.99931864
_cell_angle_beta   90.00001336
_cell_angle_gamma   120.00022379
_symmetry_Int_Tables_number   1
_chemical_formula_structural   MoSeS
_chemical_formula_sum   'Mo4 Se4 S4'
_cell_volume   338.10466146
_cell_formula_units_Z   4
loop_
 _symmetry_equiv_pos_site_id
 _symmetry_equiv_pos_as_xyz
  1  'x, y, z'
loop_
 _atom_site_type_symbol
 _atom_site_label
 _atom_site_symmetry_multiplicity
 _atom_site_fract_x
 _atom_site_fract_y
 _atom_site_fract_z
 _atom_site_occupancy
  Mo  Mo0  1  0.333310  0.666620  0.093917  1
  Mo  Mo1  1  0.333307  0.666612  0.469672  1
  Mo  Mo2  1  0.666693  0.333388  0.281786  1
  Mo  Mo3  1  0.666690  0.333380  0.657541  1
  Se  Se4  1  0.333351  0.666703  0.327852  1
  Se  Se5  1  0.666649  0.333297  0.423606  1
  Se  Se6  1  0.666649  0.333298  0.515785  1
  Se  Se7  1  0.333351  0.666702  0.235673  1
  S  S8  1  0.333358  0.666719  0.699448  1
  S  S9  1  0.666642  0.333281  0.052010  1
  S  S10  1  0.666644  0.333287  0.135831  1
  S  S11  1  0.333356  0.666713  0.615627  1
