# generated using pymatgen
data_Mo2W(Se2S)2
_symmetry_space_group_name_H-M   'P 1'
_cell_length_a   3.27430298
_cell_length_b   3.27426797
_cell_length_c   30.21925714
_cell_angle_alpha   90.00004695
_cell_angle_beta   90.00000000
_cell_angle_gamma   120.00035365
_symmetry_Int_Tables_number   1
_chemical_formula_structural   Mo2W(Se2S)2
_chemical_formula_sum   'Mo2 W1 Se4 S2'
_cell_volume   280.57304915
_cell_formula_units_Z   1
loop_
 _symmetry_equiv_pos_site_id
 _symmetry_equiv_pos_as_xyz
  1  'x, y, z'
loop_
 _atom_site_type_symbol
 _atom_site_label
 _atom_site_symmetry_multiplicity
 _atom_site_fract_x
 _atom_site_fract_y
 _atom_site_fract_z
 _atom_site_occupancy
  Mo  Mo0  1  0.333311  0.666622  0.115635  1
  Mo  Mo1  1  0.666690  0.333379  0.347001  1
  W  W2  1  0.333311  0.666621  0.578322  1
  Se  Se3  1  0.333353  0.666706  0.402948  1
  Se  Se4  1  0.666647  0.333292  0.059656  1
  Se  Se5  1  0.666645  0.333289  0.171618  1
  Se  Se6  1  0.333352  0.666705  0.291025  1
  S  S7  1  0.666647  0.333293  0.527213  1
  S  S8  1  0.666647  0.333293  0.629423  1
