# generated using pymatgen
data_Te4MoW3Se4
_symmetry_space_group_name_H-M   'P 1'
_cell_length_a   3.43981419
_cell_length_b   3.43982562
_cell_length_c   39.16529657
_cell_angle_alpha   89.99993260
_cell_angle_beta   90.00000000
_cell_angle_gamma   119.99989002
_symmetry_Int_Tables_number   1
_chemical_formula_structural   Te4MoW3Se4
_chemical_formula_sum   'Te4 Mo1 W3 Se4'
_cell_volume   401.33214161
_cell_formula_units_Z   1
loop_
 _symmetry_equiv_pos_site_id
 _symmetry_equiv_pos_as_xyz
  1  'x, y, z'
loop_
 _atom_site_type_symbol
 _atom_site_label
 _atom_site_symmetry_multiplicity
 _atom_site_fract_x
 _atom_site_fract_y
 _atom_site_fract_z
 _atom_site_occupancy
  Te  Te0  1  0.333361  0.666724  0.329420  1
  Te  Te1  1  0.333352  0.666705  0.705149  1
  Te  Te2  1  0.333359  0.666718  0.234180  1
  Te  Te3  1  0.333352  0.666705  0.609911  1
  Mo  Mo4  1  0.333314  0.666629  0.469675  1
  W  W5  1  0.333304  0.666609  0.093915  1
  W  W6  1  0.666691  0.333381  0.281828  1
  W  W7  1  0.666687  0.333375  0.657537  1
  Se  Se8  1  0.666646  0.333291  0.052052  1
  Se  Se9  1  0.666650  0.333298  0.427877  1
  Se  Se10  1  0.666634  0.333267  0.135779  1
  Se  Se11  1  0.666650  0.333299  0.511425  1
