# generated using pymatgen
data_La2Re2Si2C
_symmetry_space_group_name_H-M   'P 1'
_cell_length_a   4.13740660
_cell_length_b   6.04440053
_cell_length_c   6.21669115
_cell_angle_alpha   73.36413020
_cell_angle_beta   70.56325474
_cell_angle_gamma   69.98591152
_symmetry_Int_Tables_number   1
_chemical_formula_structural   La2Re2Si2C
_chemical_formula_sum   'La2 Re2 Si2 C1'
_cell_volume   135.12123202
_cell_formula_units_Z   1
loop_
 _symmetry_equiv_pos_site_id
 _symmetry_equiv_pos_as_xyz
  1  'x, y, z'
loop_
 _atom_site_type_symbol
 _atom_site_label
 _atom_site_symmetry_multiplicity
 _atom_site_fract_x
 _atom_site_fract_y
 _atom_site_fract_z
 _atom_site_occupancy
  La  La0  1  0.430628  0.835510  0.303234  1
  La  La1  1  0.569372  0.164490  0.696766  1
  Re  Re2  1  0.798844  0.315966  0.086345  1
  Re  Re3  1  0.201156  0.684034  0.913655  1
  Si  Si4  1  0.842613  0.602299  0.712476  1
  Si  Si5  1  0.157387  0.397701  0.287524  1
  C  C6  1  -0.000000  -0.000000  0.000000  1
