# generated using pymatgen
data_GdPtF7
_symmetry_space_group_name_H-M   'P 1'
_cell_length_a   5.60576347
_cell_length_b   9.01833443
_cell_length_c   11.25877765
_cell_angle_alpha   107.39913811
_cell_angle_beta   90.00000000
_cell_angle_gamma   90.00000000
_symmetry_Int_Tables_number   1
_chemical_formula_structural   GdPtF7
_chemical_formula_sum   'Gd4 Pt4 F28'
_cell_volume   543.14046753
_cell_formula_units_Z   4
loop_
 _symmetry_equiv_pos_site_id
 _symmetry_equiv_pos_as_xyz
  1  'x, y, z'
loop_
 _atom_site_type_symbol
 _atom_site_label
 _atom_site_symmetry_multiplicity
 _atom_site_fract_x
 _atom_site_fract_y
 _atom_site_fract_z
 _atom_site_occupancy
  F  F0  1  0.566474  0.379609  0.084174  1
  F  F1  1  0.066474  0.120391  0.415826  1
  F  F2  1  0.433526  0.620391  0.915826  1
  F  F3  1  0.933526  0.879609  0.584174  1
  F  F4  1  0.556352  0.179910  0.458751  1
  F  F5  1  0.056352  0.320090  0.041249  1
  F  F6  1  0.443648  0.820090  0.541249  1
  F  F7  1  0.943648  0.679910  0.958751  1
  F  F8  1  0.227873  0.621452  0.140183  1
  F  F9  1  0.727873  0.878548  0.359817  1
  F  F10  1  0.772127  0.378548  0.859817  1
  F  F11  1  0.272127  0.121452  0.640183  1
  F  F12  1  0.245099  0.923661  0.950399  1
  F  F13  1  0.745099  0.576339  0.549601  1
  F  F14  1  0.754901  0.076339  0.049601  1
  F  F15  1  0.254901  0.423661  0.450399  1
  F  F16  1  0.033609  0.640566  0.366510  1
  F  F17  1  0.533609  0.859434  0.133490  1
  F  F18  1  0.966391  0.359434  0.633490  1
  F  F19  1  0.466391  0.140566  0.866510  1
  F  F20  1  0.944595  0.081296  0.825808  1
  F  F21  1  0.444595  0.418704  0.674192  1
  F  F22  1  0.055405  0.918704  0.174192  1
  F  F23  1  0.555405  0.581296  0.325808  1
  F  F24  1  0.588765  0.799395  0.768119  1
  F  F25  1  0.088765  0.700605  0.731881  1
  F  F26  1  0.411235  0.200605  0.231881  1
  F  F27  1  0.911235  0.299395  0.268119  1
  Gd  Gd28  1  0.239016  0.422943  0.235723  1
  Gd  Gd29  1  0.739016  0.077057  0.264277  1
  Gd  Gd30  1  0.760984  0.577057  0.764277  1
  Gd  Gd31  1  0.260984  0.922943  0.735723  1
  Pt  Pt32  1  0.241901  0.770179  0.042908  1
  Pt  Pt33  1  0.741901  0.729821  0.457092  1
  Pt  Pt34  1  0.758099  0.229821  0.957092  1
  Pt  Pt35  1  0.258099  0.270179  0.542908  1
