# generated using pymatgen
data_CaMg(SiO3)2
_symmetry_space_group_name_H-M   'P 1'
_cell_length_a   9.86647055
_cell_length_b   8.34637699
_cell_length_c   5.38836303
_cell_angle_alpha   90.00000000
_cell_angle_beta   89.50549225
_cell_angle_gamma   90.00000000
_symmetry_Int_Tables_number   1
_chemical_formula_structural   CaMg(SiO3)2
_chemical_formula_sum   'Ca4 Mg4 Si8 O24'
_cell_volume   443.71130438
_cell_formula_units_Z   4
loop_
 _symmetry_equiv_pos_site_id
 _symmetry_equiv_pos_as_xyz
  1  'x, y, z'
loop_
 _atom_site_type_symbol
 _atom_site_label
 _atom_site_symmetry_multiplicity
 _atom_site_fract_x
 _atom_site_fract_y
 _atom_site_fract_z
 _atom_site_occupancy
  Ca  Ca0  1  0.729575  0.447067  0.602402  1
  Ca  Ca1  1  0.270425  0.947067  0.897598  1
  Ca  Ca2  1  0.270425  0.552933  0.397598  1
  Ca  Ca3  1  0.729575  0.052933  0.102402  1
  Mg  Mg4  1  0.232314  0.333798  0.877251  1
  Mg  Mg5  1  0.767686  0.833798  0.622749  1
  Mg  Mg6  1  0.767686  0.666202  0.122749  1
  Mg  Mg7  1  0.232314  0.166202  0.377251  1
  Si  Si8  1  0.497093  0.329643  0.033685  1
  Si  Si9  1  0.502907  0.829643  0.466315  1
  Si  Si10  1  0.502907  0.670357  -0.033685  1
  Si  Si11  1  0.497093  0.170357  0.533685  1
  Si  Si12  1  0.037482  0.652935  0.771264  1
  Si  Si13  1  0.962518  0.152935  0.728736  1
  Si  Si14  1  0.962518  0.347065  0.228736  1
  Si  Si15  1  0.037482  0.847065  0.271264  1
  O  O16  1  0.120016  0.492327  0.714942  1
  O  O17  1  0.879984  -0.007673  0.785058  1
  O  O18  1  0.879984  0.507673  0.285058  1
  O  O19  1  0.120016  0.007673  0.214942  1
  O  O20  1  0.583532  0.228841  0.794658  1
  O  O21  1  0.416468  0.728841  0.705342  1
  O  O22  1  0.416468  0.771159  0.205342  1
  O  O23  1  0.583532  0.271159  0.294658  1
  O  O24  1  0.386177  0.009087  0.526099  1
  O  O25  1  0.613823  0.509087  0.973901  1
  O  O26  1  0.613823  0.990913  0.473901  1
  O  O27  1  0.386177  0.490913  0.026099  1
  O  O28  1  0.367862  0.308801  0.557435  1
  O  O29  1  0.632138  0.808801  0.942565  1
  O  O30  1  0.632138  0.691199  0.442565  1
  O  O31  1  0.367862  0.191199  0.057435  1
  O  O32  1  0.126536  0.147085  0.716195  1
  O  O33  1  0.873464  0.647085  0.783805  1
  O  O34  1  0.873464  0.852915  0.283805  1
  O  O35  1  0.126536  0.352915  0.216195  1
  O  O36  1  0.096996  0.771353  0.538928  1
  O  O37  1  0.903004  0.271353  0.961072  1
  O  O38  1  0.903004  0.228647  0.461072  1
  O  O39  1  0.096996  0.728647  0.038928  1
