# generated using pymatgen
data_Ca16(SiN2)17
_symmetry_space_group_name_H-M   'P 1'
_cell_length_a   10.67789420
_cell_length_b   10.67789420
_cell_length_c   10.67789420
_cell_angle_alpha   60.00000000
_cell_angle_beta   60.00000000
_cell_angle_gamma   60.00000000
_symmetry_Int_Tables_number   1
_chemical_formula_structural   Ca16(SiN2)17
_chemical_formula_sum   'Ca16 Si17 N34'
_cell_volume   860.87846264
_cell_formula_units_Z   1
loop_
 _symmetry_equiv_pos_site_id
 _symmetry_equiv_pos_as_xyz
  1  'x, y, z'
loop_
 _atom_site_type_symbol
 _atom_site_label
 _atom_site_symmetry_multiplicity
 _atom_site_fract_x
 _atom_site_fract_y
 _atom_site_fract_z
 _atom_site_occupancy
  Ca  Ca0  1  0.711043  0.288957  0.711043  1
  Ca  Ca1  1  0.711043  0.711043  0.288957  1
  Ca  Ca2  1  0.288957  0.711043  0.711043  1
  Ca  Ca3  1  0.288957  0.711043  0.288957  1
  Ca  Ca4  1  0.711043  0.288957  0.288957  1
  Ca  Ca5  1  0.288957  0.288957  0.711043  1
  Ca  Ca6  1  0.003209  0.496791  0.496791  1
  Ca  Ca7  1  0.496791  0.003209  0.496791  1
  Ca  Ca8  1  0.496791  0.496791  0.003209  1
  Ca  Ca9  1  0.496791  0.003209  0.003209  1
  Ca  Ca10  1  0.003209  0.496791  0.003209  1
  Ca  Ca11  1  0.003209  0.003209  0.496791  1
  Ca  Ca12  1  0.230754  0.923082  0.923082  1
  Ca  Ca13  1  0.923082  0.230754  0.923082  1
  Ca  Ca14  1  0.923082  0.923082  0.230754  1
  Ca  Ca15  1  0.923082  0.923082  0.923082  1
  Si  Si16  1  0.500000  0.500000  0.500000  1
  Si  Si17  1  0.634718  0.634718  0.634718  1
  Si  Si18  1  0.634718  0.634718  0.095845  1
  Si  Si19  1  0.634718  0.095845  0.634718  1
  Si  Si20  1  0.095845  0.634718  0.634718  1
  Si  Si21  1  0.819478  0.819478  0.541566  1
  Si  Si22  1  0.541566  0.819478  0.819478  1
  Si  Si23  1  0.819478  0.541566  0.819478  1
  Si  Si24  1  0.819478  0.819478  0.819478  1
  Si  Si25  1  0.136691  0.136691  0.589927  1
  Si  Si26  1  0.589927  0.136691  0.136691  1
  Si  Si27  1  0.136691  0.589927  0.136691  1
  Si  Si28  1  0.136691  0.136691  0.136691  1
  Si  Si29  1  0.322282  0.322282  0.322282  1
  Si  Si30  1  0.322282  0.322282  0.033154  1
  Si  Si31  1  0.322282  0.033154  0.322282  1
  Si  Si32  1  0.033154  0.322282  0.322282  1
  N  N33  1  0.568102  0.568102  0.568102  1
  N  N34  1  0.568102  0.568102  0.295694  1
  N  N35  1  0.568102  0.295694  0.568102  1
  N  N36  1  0.295694  0.568102  0.568102  1
  N  N37  1  0.749379  0.749379  0.482533  1
  N  N38  1  0.482533  0.749379  0.749379  1
  N  N39  1  0.749379  0.482533  0.749379  1
  N  N40  1  0.749379  0.749379  0.018709  1
  N  N41  1  0.749379  0.482533  0.018709  1
  N  N42  1  0.482533  0.749379  0.018709  1
  N  N43  1  0.482533  0.018709  0.749379  1
  N  N44  1  0.749379  0.018709  0.482533  1
  N  N45  1  0.749379  0.018709  0.749379  1
  N  N46  1  0.018709  0.482533  0.749379  1
  N  N47  1  0.018709  0.749379  0.749379  1
  N  N48  1  0.018709  0.749379  0.482533  1
  N  N49  1  0.750000  0.750000  0.750000  1
  N  N50  1  0.250000  0.250000  0.250000  1
  N  N51  1  0.250163  0.250163  0.518744  1
  N  N52  1  0.518744  0.250163  0.250163  1
  N  N53  1  0.250163  0.518744  0.250163  1
  N  N54  1  0.250163  0.250163  0.980931  1
  N  N55  1  0.250163  0.518744  0.980931  1
  N  N56  1  0.518744  0.250163  0.980931  1
  N  N57  1  0.518744  0.980931  0.250163  1
  N  N58  1  0.250163  0.980931  0.518744  1
  N  N59  1  0.250163  0.980931  0.250163  1
  N  N60  1  0.980931  0.518744  0.250163  1
  N  N61  1  0.980931  0.250163  0.250163  1
  N  N62  1  0.980931  0.250163  0.518744  1
  N  N63  1  0.072856  0.072856  0.781431  1
  N  N64  1  0.781431  0.072856  0.072856  1
  N  N65  1  0.072856  0.781431  0.072856  1
  N  N66  1  0.072856  0.072856  0.072856  1
