# generated using pymatgen
data_MoWSeS3
_symmetry_space_group_name_H-M   'P 1'
_cell_length_a   3.22708673
_cell_length_b   3.22709461
_cell_length_c   36.41709310
_cell_angle_alpha   89.99974216
_cell_angle_beta   90.00000000
_cell_angle_gamma   119.99991928
_symmetry_Int_Tables_number   1
_chemical_formula_structural   MoWSeS3
_chemical_formula_sum   'Mo2 W2 Se2 S6'
_cell_volume   328.44193150
_cell_formula_units_Z   2
loop_
 _symmetry_equiv_pos_site_id
 _symmetry_equiv_pos_as_xyz
  1  'x, y, z'
loop_
 _atom_site_type_symbol
 _atom_site_label
 _atom_site_symmetry_multiplicity
 _atom_site_fract_x
 _atom_site_fract_y
 _atom_site_fract_z
 _atom_site_occupancy
  Mo  Mo0  1  0.333305  0.666609  0.093902  1
  Mo  Mo1  1  0.666688  0.333377  0.657603  1
  W  W2  1  0.333307  0.666614  0.469656  1
  W  W3  1  0.666695  0.333390  0.281753  1
  Se  Se4  1  0.666652  0.333302  0.422475  1
  Se  Se5  1  0.666651  0.333301  0.516852  1
  S  S6  1  0.333354  0.666709  0.324589  1
  S  S7  1  0.333352  0.666705  0.700203  1
  S  S8  1  0.666646  0.333292  0.051276  1
  S  S9  1  0.666637  0.333273  0.136537  1
  S  S10  1  0.333353  0.666706  0.238933  1
  S  S11  1  0.333360  0.666721  0.614968  1
