# generated using pymatgen
data_EuNi5As3
_symmetry_space_group_name_H-M   'P 1'
_cell_length_a   3.73865084
_cell_length_b   6.38025639
_cell_length_c   11.85014143
_cell_angle_alpha   90.00000000
_cell_angle_beta   90.00000000
_cell_angle_gamma   107.03680478
_symmetry_Int_Tables_number   1
_chemical_formula_structural   EuNi5As3
_chemical_formula_sum   'Eu2 Ni10 As6'
_cell_volume   270.26356335
_cell_formula_units_Z   2
loop_
 _symmetry_equiv_pos_site_id
 _symmetry_equiv_pos_as_xyz
  1  'x, y, z'
loop_
 _atom_site_type_symbol
 _atom_site_label
 _atom_site_symmetry_multiplicity
 _atom_site_fract_x
 _atom_site_fract_y
 _atom_site_fract_z
 _atom_site_occupancy
  Ni  Ni0  1  0.806170  0.612341  0.933475  1
  Ni  Ni1  1  0.193830  0.387659  0.433475  1
  Ni  Ni2  1  0.000000  0.000000  0.000000  1
  Ni  Ni3  1  0.000000  0.000000  0.500000  1
  Ni  Ni4  1  0.450284  0.900568  0.644568  1
  Ni  Ni5  1  0.549716  0.099432  0.355432  1
  Ni  Ni6  1  0.549716  0.099432  0.144568  1
  Ni  Ni7  1  0.806170  0.612341  0.566525  1
  Ni  Ni8  1  0.193830  0.387659  0.066525  1
  Ni  Ni9  1  0.450284  0.900568  0.855432  1
  As  As10  1  0.379483  0.758966  0.456083  1
  As  As11  1  0.884202  0.768405  0.750000  1
  As  As12  1  0.379483  0.758966  0.043917  1
  As  As13  1  0.620517  0.241034  0.956083  1
  As  As14  1  0.115798  0.231595  0.250000  1
  As  As15  1  0.620517  0.241034  0.543917  1
  Eu  Eu16  1  0.837059  0.674117  0.250000  1
  Eu  Eu17  1  0.162941  0.325883  0.750000  1
