# generated using pymatgen
data_Ge3Mo5
_symmetry_space_group_name_H-M   'P 1'
_cell_length_a   5.00691684
_cell_length_b   7.44059223
_cell_length_c   7.44059223
_cell_angle_alpha   83.49989473
_cell_angle_beta   70.33868222
_cell_angle_gamma   70.33868221
_symmetry_Int_Tables_number   1
_chemical_formula_structural   Ge3Mo5
_chemical_formula_sum   'Ge6 Mo10'
_cell_volume   245.81512645
_cell_formula_units_Z   2
loop_
 _symmetry_equiv_pos_site_id
 _symmetry_equiv_pos_as_xyz
  1  'x, y, z'
loop_
 _atom_site_type_symbol
 _atom_site_label
 _atom_site_symmetry_multiplicity
 _atom_site_fract_x
 _atom_site_fract_y
 _atom_site_fract_z
 _atom_site_occupancy
  Ge  Ge0  1  0.750000  0.000000  0.000000  1
  Ge  Ge1  1  0.250000  0.000000  0.000000  1
  Ge  Ge2  1  0.831853  0.500000  0.836293  1
  Ge  Ge3  1  0.668147  0.163707  0.500000  1
  Ge  Ge4  1  0.331853  0.836293  0.500000  1
  Ge  Ge5  1  0.168147  0.500000  0.163707  1
  Mo  Mo6  1  0.423173  0.306670  0.846983  1
  Mo  Mo7  1  0.576827  0.693330  0.153017  1
  Mo  Mo8  1  0.250000  0.500000  0.500000  1
  Mo  Mo9  1  0.750000  0.500000  0.500000  1
  Mo  Mo10  1  0.729843  0.846983  0.693330  1
  Mo  Mo11  1  0.270157  0.153017  0.306670  1
  Mo  Mo12  1  0.923173  0.846983  0.306670  1
  Mo  Mo13  1  0.229843  0.693330  0.846983  1
  Mo  Mo14  1  0.770157  0.306670  0.153017  1
  Mo  Mo15  1  0.076827  0.153017  0.693330  1
