# generated using pymatgen
data_Na2BeGeO4
_symmetry_space_group_name_H-M   'P 1'
_cell_length_a   5.08670348
_cell_length_b   7.28374919
_cell_length_c   10.25294802
_cell_angle_alpha   90.43324063
_cell_angle_beta   90.00000000
_cell_angle_gamma   90.00000000
_symmetry_Int_Tables_number   1
_chemical_formula_structural   Na2BeGeO4
_chemical_formula_sum   'Na8 Be4 Ge4 O16'
_cell_volume   379.86365701
_cell_formula_units_Z   4
loop_
 _symmetry_equiv_pos_site_id
 _symmetry_equiv_pos_as_xyz
  1  'x, y, z'
loop_
 _atom_site_type_symbol
 _atom_site_label
 _atom_site_symmetry_multiplicity
 _atom_site_fract_x
 _atom_site_fract_y
 _atom_site_fract_z
 _atom_site_occupancy
  Be  Be0  1  0.656483  0.499521  0.587101  1
  Be  Be1  1  0.343517  0.500479  0.412899  1
  Be  Be2  1  0.843517  0.499521  0.087101  1
  Be  Be3  1  0.156483  0.500479  0.912899  1
  O  O4  1  0.167859  0.453420  0.073655  1
  O  O5  1  0.667859  0.546580  0.426345  1
  O  O6  1  0.832141  0.546580  0.926345  1
  O  O7  1  0.332141  0.453420  0.573655  1
  O  O8  1  0.314187  0.686481  0.874600  1
  O  O9  1  0.185813  0.686481  0.374600  1
  O  O10  1  0.814187  0.313519  0.625400  1
  O  O11  1  0.685813  0.313519  0.125400  1
  O  O12  1  0.283337  0.315433  0.329412  1
  O  O13  1  0.783337  0.684567  0.170588  1
  O  O14  1  0.716663  0.684567  0.670588  1
  O  O15  1  0.216663  0.315433  0.829412  1
  O  O16  1  0.237761  0.051985  0.621888  1
  O  O17  1  0.737761  0.948015  0.878112  1
  O  O18  1  0.762239  0.948015  0.378112  1
  O  O19  1  0.262239  0.051985  0.121888  1
  Na  Na20  1  0.207216  0.000937  0.891539  1
  Na  Na21  1  0.707216  0.999063  0.608461  1
  Na  Na22  1  0.792784  0.999063  0.108461  1
  Na  Na23  1  0.292784  0.000937  0.391539  1
  Na  Na24  1  0.318665  0.738196  0.138926  1
  Na  Na25  1  0.818665  0.261804  0.361074  1
  Na  Na26  1  0.681335  0.261804  0.861074  1
  Na  Na27  1  0.181335  0.738196  0.638926  1
  Ge  Ge28  1  0.155459  0.279705  0.659423  1
  Ge  Ge29  1  0.655459  0.720295  0.840577  1
  Ge  Ge30  1  0.844541  0.720295  0.340577  1
  Ge  Ge31  1  0.344541  0.279705  0.159422  1
