# generated using pymatgen
data_K3Nb3(BO6)2
_symmetry_space_group_name_H-M   'P 1'
_cell_length_a   8.95914973
_cell_length_b   8.95914973
_cell_length_c   3.98280133
_cell_angle_alpha   90.00000000
_cell_angle_beta   90.00000000
_cell_angle_gamma   120.00000004
_symmetry_Int_Tables_number   1
_chemical_formula_structural   K3Nb3(BO6)2
_chemical_formula_sum   'K3 Nb3 B2 O12'
_cell_volume   276.85531452
_cell_formula_units_Z   1
loop_
 _symmetry_equiv_pos_site_id
 _symmetry_equiv_pos_as_xyz
  1  'x, y, z'
loop_
 _atom_site_type_symbol
 _atom_site_label
 _atom_site_symmetry_multiplicity
 _atom_site_fract_x
 _atom_site_fract_y
 _atom_site_fract_z
 _atom_site_occupancy
  B  B0  1  0.666667  0.333334  0.000000  1
  B  B1  1  0.333333  0.666666  0.000000  1
  O  O2  1  0.315417  0.504788  0.000000  1
  O  O3  1  0.684583  0.189371  0.000000  1
  O  O4  1  0.810628  0.495212  0.000000  1
  O  O5  1  0.504788  0.315417  0.000000  1
  O  O6  1  0.189372  0.684584  0.000000  1
  O  O7  1  0.495212  0.810629  0.000000  1
  O  O8  1  0.735984  0.000000  0.499999  1
  O  O9  1  0.264017  0.264017  0.499999  1
  O  O10  1  0.000001  0.179516  0.000000  1
  O  O11  1  0.179516  0.000000  0.000000  1
  O  O12  1  0.820484  0.820485  0.000000  1
  O  O13  1  0.000000  0.735984  0.499999  1
  K  K14  1  0.403944  0.000000  0.499999  1
  K  K15  1  0.596056  0.596056  0.499999  1
  K  K16  1  1.000000  0.403944  0.499999  1
  Nb  Nb17  1  0.752576  0.000000  0.000000  1
  Nb  Nb18  1  0.247423  0.247424  0.000000  1
  Nb  Nb19  1  0.000001  0.752577  0.000000  1
