# generated using pymatgen
data_K2Na3P3O10
_symmetry_space_group_name_H-M   'P 1'
_cell_length_a   5.67645818
_cell_length_b   5.73764600
_cell_length_c   18.87964701
_cell_angle_alpha   95.28116714
_cell_angle_beta   90.00000000
_cell_angle_gamma   119.64785131
_symmetry_Int_Tables_number   1
_chemical_formula_structural   K2Na3P3O10
_chemical_formula_sum   'K4 Na6 P6 O20'
_cell_volume   531.39375319
_cell_formula_units_Z   2
loop_
 _symmetry_equiv_pos_site_id
 _symmetry_equiv_pos_as_xyz
  1  'x, y, z'
loop_
 _atom_site_type_symbol
 _atom_site_label
 _atom_site_symmetry_multiplicity
 _atom_site_fract_x
 _atom_site_fract_y
 _atom_site_fract_z
 _atom_site_occupancy
  K  K0  1  0.177583  0.810984  0.922492  1
  K  K1  1  0.366599  0.189016  0.577508  1
  K  K2  1  0.822417  0.189016  0.077508  1
  K  K3  1  0.633401  0.810984  0.422492  1
  Na  Na4  1  0.473658  0.562678  0.171642  1
  Na  Na5  1  0.910980  0.437322  0.328358  1
  Na  Na6  1  0.526342  0.437322  0.828358  1
  Na  Na7  1  0.089020  0.562678  0.671642  1
  Na  Na8  1  0.500000  0.500000  0.000000  1
  Na  Na9  1  -0.000000  0.500000  0.500000  1
  P  P10  1  0.161189  0.864314  0.101422  1
  P  P11  1  0.296874  0.135686  0.398578  1
  P  P12  1  0.838811  0.135686  0.898578  1
  P  P13  1  0.703126  0.864314  0.601422  1
  P  P14  1  0.095516  0.000000  0.250000  1
  P  P15  1  0.904484  0.000000  0.750000  1
  O  O16  1  0.297351  0.146938  0.077037  1
  O  O17  1  0.150413  0.853062  0.422963  1
  O  O18  1  0.702649  0.853062  0.922963  1
  O  O19  1  0.849587  0.146938  0.577037  1
  O  O20  1  0.290120  0.697208  0.073349  1
  O  O21  1  0.592912  0.302792  0.426651  1
  O  O22  1  0.709880  0.302792  0.926651  1
  O  O23  1  0.407088  0.697208  0.573349  1
  O  O24  1  0.851297  0.714465  0.093923  1
  O  O25  1  0.136832  0.285535  0.406077  1
  O  O26  1  0.148703  0.285535  0.906077  1
  O  O27  1  0.863168  0.714465  0.593923  1
  O  O28  1  0.242426  0.908925  0.188865  1
  O  O29  1  0.333501  0.091075  0.311135  1
  O  O30  1  0.757574  0.091075  0.811135  1
  O  O31  1  0.666499  0.908925  0.688865  1
  O  O32  1  0.077793  0.242089  0.230931  1
  O  O33  1  0.835704  0.757911  0.269069  1
  O  O34  1  0.922207  0.757911  0.769069  1
  O  O35  1  0.164296  0.242089  0.730931  1
