# generated using pymatgen
data_Al4CO4
_symmetry_space_group_name_H-M   'P 1'
_cell_length_a   5.19331286
_cell_length_b   5.19331285
_cell_length_c   9.17117158
_cell_angle_alpha   90.00000000
_cell_angle_beta   90.00000000
_cell_angle_gamma   112.29311224
_symmetry_Int_Tables_number   1
_chemical_formula_structural   Al4CO4
_chemical_formula_sum   'Al8 C2 O8'
_cell_volume   228.86289414
_cell_formula_units_Z   2
loop_
 _symmetry_equiv_pos_site_id
 _symmetry_equiv_pos_as_xyz
  1  'x, y, z'
loop_
 _atom_site_type_symbol
 _atom_site_label
 _atom_site_symmetry_multiplicity
 _atom_site_fract_x
 _atom_site_fract_y
 _atom_site_fract_z
 _atom_site_occupancy
  C  C0  1  0.804673  0.195327  0.115244  1
  C  C1  1  0.195327  0.804673  0.615244  1
  O  O2  1  0.820893  0.690721  0.323565  1
  O  O3  1  0.179107  0.309279  0.823565  1
  O  O4  1  0.309279  0.179107  0.323565  1
  O  O5  1  0.690721  0.820893  0.823565  1
  O  O6  1  0.442270  0.557730  0.089304  1
  O  O7  1  0.557730  0.442270  0.589304  1
  O  O8  1  0.196150  0.803850  0.944882  1
  O  O9  1  0.803850  0.196150  0.444882  1
  Al  Al10  1  0.892688  0.565824  0.499644  1
  Al  Al11  1  0.107312  0.434176  0.999644  1
  Al  Al12  1  0.434176  0.107312  0.499644  1
  Al  Al13  1  0.565824  0.892688  0.999644  1
  Al  Al14  1  0.601915  0.398085  0.209705  1
  Al  Al15  1  0.398085  0.601915  0.709705  1
  Al  Al16  1  0.937486  0.062514  0.289647  1
  Al  Al17  1  0.062514  0.937486  0.789647  1
