# generated using pymatgen
data_KLi6IrO6
_symmetry_space_group_name_H-M   'P 1'
_cell_length_a   5.35518182
_cell_length_b   5.35518182
_cell_length_c   5.35518181
_cell_angle_alpha   101.37779666
_cell_angle_beta   101.37779667
_cell_angle_gamma   101.37779670
_symmetry_Int_Tables_number   1
_chemical_formula_structural   KLi6IrO6
_chemical_formula_sum   'K1 Li6 Ir1 O6'
_cell_volume   143.07206613
_cell_formula_units_Z   1
loop_
 _symmetry_equiv_pos_site_id
 _symmetry_equiv_pos_as_xyz
  1  'x, y, z'
loop_
 _atom_site_type_symbol
 _atom_site_label
 _atom_site_symmetry_multiplicity
 _atom_site_fract_x
 _atom_site_fract_y
 _atom_site_fract_z
 _atom_site_occupancy
  Li  Li0  1  0.338165  0.000000  0.661835  1
  Li  Li1  1  0.000000  0.661835  0.338165  1
  Li  Li2  1  0.338165  0.661835  0.000000  1
  Li  Li3  1  0.000000  0.338165  0.661835  1
  Li  Li4  1  0.661835  0.000000  0.338165  1
  Li  Li5  1  0.661835  0.338165  0.000000  1
  O  O6  1  0.725710  0.077021  0.725710  1
  O  O7  1  0.725710  0.725710  0.077021  1
  O  O8  1  0.274290  0.922979  0.274290  1
  O  O9  1  0.274290  0.274290  0.922979  1
  O  O10  1  0.922979  0.274290  0.274290  1
  O  O11  1  0.077021  0.725710  0.725710  1
  K  K12  1  0.500000  0.500000  0.500000  1
  Ir  Ir13  1  0.000000  0.000000  0.000000  1
