# generated using pymatgen
data_Tb2Co3Si5
_symmetry_space_group_name_H-M   'P 1'
_cell_length_a   5.51334178
_cell_length_b   7.86222292
_cell_length_c   7.86222292
_cell_angle_alpha   93.47320127
_cell_angle_beta   109.17814415
_cell_angle_gamma   109.17814409
_symmetry_Int_Tables_number   1
_chemical_formula_structural   Tb2Co3Si5
_chemical_formula_sum   'Tb4 Co6 Si10'
_cell_volume   298.55379139
_cell_formula_units_Z   2
loop_
 _symmetry_equiv_pos_site_id
 _symmetry_equiv_pos_as_xyz
  1  'x, y, z'
loop_
 _atom_site_type_symbol
 _atom_site_label
 _atom_site_symmetry_multiplicity
 _atom_site_fract_x
 _atom_site_fract_y
 _atom_site_fract_z
 _atom_site_occupancy
  Si  Si0  1  0.250000  0.770022  0.229978  1
  Si  Si1  1  0.750000  0.229978  0.770022  1
  Si  Si2  1  0.250000  0.511382  0.488618  1
  Si  Si3  1  0.750000  0.488618  0.511382  1
  Si  Si4  1  0.250000  0.214686  0.785314  1
  Si  Si5  1  0.750000  0.785314  0.214686  1
  Si  Si6  1  0.164081  0.062531  0.261659  1
  Si  Si7  1  0.664081  0.261659  0.062531  1
  Si  Si8  1  0.835919  0.937469  0.738341  1
  Si  Si9  1  0.335919  0.738341  0.937469  1
  Co  Co10  1  0.873726  0.539060  0.263253  1
  Co  Co11  1  0.750000  0.996079  0.003921  1
  Co  Co12  1  0.373726  0.263253  0.539060  1
  Co  Co13  1  0.126274  0.460940  0.736747  1
  Co  Co14  1  0.626274  0.736747  0.460940  1
  Co  Co15  1  0.250000  0.003921  0.996079  1
  Tb  Tb16  1  0.236967  0.869386  0.598335  1
  Tb  Tb17  1  0.263033  0.401665  0.130614  1
  Tb  Tb18  1  0.763033  0.130614  0.401665  1
  Tb  Tb19  1  0.736967  0.598335  0.869386  1
