# generated using pymatgen
data_Cu2Te3O8
_symmetry_space_group_name_H-M   'P 1'
_cell_length_a   5.37902917
_cell_length_b   6.55085634
_cell_length_c   12.47033587
_cell_angle_alpha   99.21196863
_cell_angle_beta   90.00000000
_cell_angle_gamma   114.23997004
_symmetry_Int_Tables_number   1
_chemical_formula_structural   Cu2Te3O8
_chemical_formula_sum   'Cu4 Te6 O16'
_cell_volume   394.45484789
_cell_formula_units_Z   2
loop_
 _symmetry_equiv_pos_site_id
 _symmetry_equiv_pos_as_xyz
  1  'x, y, z'
loop_
 _atom_site_type_symbol
 _atom_site_label
 _atom_site_symmetry_multiplicity
 _atom_site_fract_x
 _atom_site_fract_y
 _atom_site_fract_z
 _atom_site_occupancy
  O  O0  1  0.681348  0.444707  0.951929  1
  O  O1  1  0.236641  0.555293  0.548071  1
  O  O2  1  0.318652  0.555293  0.048071  1
  O  O3  1  0.763359  0.444707  0.451929  1
  O  O4  1  0.403973  0.622412  0.818851  1
  O  O5  1  0.781561  0.377588  0.681149  1
  O  O6  1  0.596027  0.377588  0.181149  1
  O  O7  1  0.218439  0.622412  0.318851  1
  O  O8  1  0.978697  0.762293  0.857057  1
  O  O9  1  0.216404  0.237707  0.642943  1
  O  O10  1  0.006956  0.827660  0.147823  1
  O  O11  1  0.179296  0.172340  0.352177  1
  O  O12  1  0.993044  0.172340  0.852177  1
  O  O13  1  0.820704  0.827660  0.647823  1
  O  O14  1  0.783596  0.762293  0.357057  1
  O  O15  1  0.021303  0.237707  0.142943  1
  Cu  Cu16  1  -0.001276  0.533546  0.158272  1
  Cu  Cu17  1  0.465178  0.466454  0.341728  1
  Cu  Cu18  1  1.001276  0.466454  0.841728  1
  Cu  Cu19  1  0.534822  0.533546  0.658272  1
  Te  Te20  1  0.129147  0.000000  0.750000  1
  Te  Te21  1  0.870853  0.000000  0.250000  1
  Te  Te22  1  0.078408  0.729653  0.445371  1
  Te  Te23  1  0.348755  0.270347  0.054629  1
  Te  Te24  1  0.921592  0.270347  0.554629  1
  Te  Te25  1  0.651245  0.729653  0.945371  1
