# generated using pymatgen
data_Ba2ScIrO6
_symmetry_space_group_name_H-M   'P 1'
_cell_length_a   5.82301701
_cell_length_b   5.82316124
_cell_length_c   8.23655162
_cell_angle_alpha   90.00077865
_cell_angle_beta   90.00073094
_cell_angle_gamma   89.98779109
_symmetry_Int_Tables_number   1
_chemical_formula_structural   Ba2ScIrO6
_chemical_formula_sum   'Ba4 Sc2 Ir2 O12'
_cell_volume   279.28800831
_cell_formula_units_Z   2
loop_
 _symmetry_equiv_pos_site_id
 _symmetry_equiv_pos_as_xyz
  1  'x, y, z'
loop_
 _atom_site_type_symbol
 _atom_site_label
 _atom_site_symmetry_multiplicity
 _atom_site_fract_x
 _atom_site_fract_y
 _atom_site_fract_z
 _atom_site_occupancy
  O  O0  1  0.499981  0.000156  0.742830  1
  O  O1  1  0.999981  0.499844  0.757170  1
  O  O2  1  0.500019  0.999844  0.257170  1
  O  O3  1  0.000019  0.500156  0.242830  1
  O  O4  1  0.743143  0.242593  0.499947  1
  O  O5  1  0.243129  0.257422  0.000054  1
  O  O6  1  0.256857  0.757407  0.500053  1
  O  O7  1  0.756871  0.742578  0.999946  1
  O  O8  1  0.242602  0.743133  0.999908  1
  O  O9  1  0.742588  0.756881  0.500093  1
  O  O10  1  0.757398  0.256867  0.000092  1
  O  O11  1  0.257412  0.243119  0.499907  1
  Sc  Sc12  1  0.500000  0.000000  0.000000  1
  Sc  Sc13  1  0.000000  0.500000  0.500000  1
  Ba  Ba14  1  0.500044  0.500022  0.750016  1
  Ba  Ba15  1  0.499956  0.499978  0.249984  1
  Ba  Ba16  1  0.000052  0.999978  0.749984  1
  Ba  Ba17  1  0.999948  0.000022  0.250016  1
  Ir  Ir18  1  0.000000  0.500000  0.000000  1
  Ir  Ir19  1  0.500000  0.000000  0.500000  1
