# generated using pymatgen
data_Al7Si3BO18
_symmetry_space_group_name_H-M   'P 1'
_cell_length_a   11.84345719
_cell_length_b   20.26361296
_cell_length_c   4.79576338
_cell_angle_alpha   90.00000000
_cell_angle_beta   90.00000000
_cell_angle_gamma   90.00000000
_symmetry_Int_Tables_number   1
_chemical_formula_structural   Al7Si3BO18
_chemical_formula_sum   'Al28 Si12 B4 O72'
_cell_volume   1150.94116486
_cell_formula_units_Z   4
loop_
 _symmetry_equiv_pos_site_id
 _symmetry_equiv_pos_as_xyz
  1  'x, y, z'
loop_
 _atom_site_type_symbol
 _atom_site_label
 _atom_site_symmetry_multiplicity
 _atom_site_fract_x
 _atom_site_fract_y
 _atom_site_fract_z
 _atom_site_occupancy
  Al  Al0  1  0.250000  0.249629  0.889587  1
  Al  Al1  1  0.250000  0.250372  0.389587  1
  Al  Al2  1  0.750000  0.750371  0.110413  1
  Al  Al3  1  0.750000  0.749629  0.610413  1
  Al  Al4  1  0.389899  0.472220  0.058778  1
  Al  Al5  1  0.110101  0.027780  0.558778  1
  Al  Al6  1  0.889899  0.527780  0.941222  1
  Al  Al7  1  0.610101  0.972220  0.441222  1
  Al  Al8  1  0.610101  0.527780  0.941222  1
  Al  Al9  1  0.889899  0.972220  0.441222  1
  Al  Al10  1  0.110101  0.472220  0.058778  1
  Al  Al11  1  0.389899  0.027780  0.558778  1
  Al  Al12  1  0.508651  0.430624  0.559745  1
  Al  Al13  1  0.991349  0.069376  0.059745  1
  Al  Al14  1  0.008651  0.569376  0.440255  1
  Al  Al15  1  0.491349  0.930624  0.940255  1
  Al  Al16  1  0.491349  0.569376  0.440255  1
  Al  Al17  1  0.008651  0.930624  0.940255  1
  Al  Al18  1  0.991349  0.430624  0.559745  1
  Al  Al19  1  0.508651  0.069376  0.059745  1
  Al  Al20  1  0.643596  0.287059  0.554030  1
  Al  Al21  1  0.856404  0.212941  0.054030  1
  Al  Al22  1  0.143596  0.712941  0.445970  1
  Al  Al23  1  0.356404  0.787059  0.945970  1
  Al  Al24  1  0.356404  0.712941  0.445970  1
  Al  Al25  1  0.143596  0.787059  0.945970  1
  Al  Al26  1  0.856404  0.287059  0.554030  1
  Al  Al27  1  0.643596  0.212941  0.054030  1
  Si  Si28  1  0.250000  0.403736  0.589013  1
  Si  Si29  1  0.250000  0.096264  0.089013  1
  Si  Si30  1  0.750000  0.596264  0.410987  1
  Si  Si31  1  0.750000  0.903736  0.910987  1
  Si  Si32  1  0.474546  0.327547  0.087032  1
  Si  Si33  1  0.025454  0.172453  0.587032  1
  Si  Si34  1  0.974546  0.672453  0.912968  1
  Si  Si35  1  0.525454  0.827547  0.412968  1
  Si  Si36  1  0.525454  0.672453  0.912968  1
  Si  Si37  1  0.974546  0.827547  0.412968  1
  Si  Si38  1  0.025454  0.327547  0.087032  1
  Si  Si39  1  0.474546  0.172453  0.587032  1
  B  B40  1  0.750000  0.416074  0.722668  1
  B  B41  1  0.750000  0.083926  0.222668  1
  B  B42  1  0.250000  0.583926  0.277332  1
  B  B43  1  0.250000  0.916074  0.777332  1
  O  O44  1  0.250000  0.323035  0.642710  1
  O  O45  1  0.250000  0.176965  0.142710  1
  O  O46  1  0.750000  0.676965  0.357290  1
  O  O47  1  0.750000  0.823035  0.857290  1
  O  O48  1  0.357079  0.285769  0.140133  1
  O  O49  1  0.142921  0.214231  0.640133  1
  O  O50  1  0.857079  0.714231  0.859867  1
  O  O51  1  0.642921  0.785769  0.359867  1
  O  O52  1  0.642921  0.714231  0.859867  1
  O  O53  1  0.857079  0.785769  0.359867  1
  O  O54  1  0.142921  0.285769  0.140133  1
  O  O55  1  0.357079  0.214231  0.640133  1
  O  O56  1  0.360357  0.423600  0.397793  1
  O  O57  1  0.139643  0.076400  0.897793  1
  O  O58  1  0.860357  0.576400  0.602207  1
  O  O59  1  0.639643  0.923600  0.102207  1
  O  O60  1  0.639643  0.576400  0.602207  1
  O  O61  1  0.860357  0.923600  0.102207  1
  O  O62  1  0.139643  0.423600  0.397793  1
  O  O63  1  0.360357  0.076400  0.897793  1
  O  O64  1  0.448589  0.392968  0.896602  1
  O  O65  1  0.051411  0.107032  0.396602  1
  O  O66  1  0.948589  0.607032  0.103398  1
  O  O67  1  0.551411  0.892968  0.603398  1
  O  O68  1  0.551411  0.607032  0.103398  1
  O  O69  1  0.948589  0.892968  0.603398  1
  O  O70  1  0.051411  0.392968  0.896602  1
  O  O71  1  0.448589  0.107032  0.396602  1
  O  O72  1  0.561651  0.282781  0.896079  1
  O  O73  1  0.938349  0.217219  0.396079  1
  O  O74  1  0.061651  0.717219  0.103921  1
  O  O75  1  0.438349  0.782781  0.603921  1
  O  O76  1  0.438349  0.717219  0.103921  1
  O  O77  1  0.061651  0.782781  0.603921  1
  O  O78  1  0.938349  0.282781  0.896079  1
  O  O79  1  0.561651  0.217219  0.396079  1
  O  O80  1  0.250000  0.452304  0.877539  1
  O  O81  1  0.250000  0.047696  0.377539  1
  O  O82  1  0.750000  0.547696  0.122461  1
  O  O83  1  0.750000  0.952304  0.622461  1
  O  O84  1  0.543420  0.348893  0.379058  1
  O  O85  1  0.956580  0.151107  0.879058  1
  O  O86  1  0.043420  0.651107  0.620942  1
  O  O87  1  0.456580  0.848893  0.120942  1
  O  O88  1  0.456580  0.651107  0.620942  1
  O  O89  1  0.043420  0.848893  0.120942  1
  O  O90  1  0.956580  0.348893  0.379058  1
  O  O91  1  0.543420  0.151107  0.879058  1
  O  O92  1  0.750000  0.270727  0.260965  1
  O  O93  1  0.750000  0.229273  0.760965  1
  O  O94  1  0.250000  0.729273  0.739035  1
  O  O95  1  0.250000  0.770727  0.239035  1
  O  O96  1  0.750000  0.351408  0.649760  1
  O  O97  1  0.750000  0.148592  0.149760  1
  O  O98  1  0.250000  0.648592  0.350240  1
  O  O99  1  0.250000  0.851408  0.850240  1
  O  O100  1  0.648623  0.448107  0.755615  1
  O  O101  1  0.851377  0.051893  0.255615  1
  O  O102  1  0.148623  0.551893  0.244385  1
  O  O103  1  0.351377  0.948107  0.744385  1
  O  O104  1  0.351377  0.551893  0.244385  1
  O  O105  1  0.148623  0.948107  0.744385  1
  O  O106  1  0.851377  0.448107  0.755615  1
  O  O107  1  0.648623  0.051893  0.255615  1
  O  O108  1  0.533780  0.487944  0.250416  1
  O  O109  1  0.966220  0.012056  0.750416  1
  O  O110  1  0.033780  0.512056  0.749584  1
  O  O111  1  0.466220  0.987944  0.249584  1
  O  O112  1  0.466220  0.512056  0.749584  1
  O  O113  1  0.033780  0.987944  0.249584  1
  O  O114  1  0.966220  0.487944  0.250416  1
  O  O115  1  0.533780  0.012056  0.750416  1
