# generated using pymatgen
data_RbBe2B3O7
_symmetry_space_group_name_H-M   'P 1'
_cell_length_a   7.76057144
_cell_length_b   17.93222844
_cell_length_c   4.43480748
_cell_angle_alpha   90.00000000
_cell_angle_beta   90.00000000
_cell_angle_gamma   90.00000000
_symmetry_Int_Tables_number   1
_chemical_formula_structural   RbBe2B3O7
_chemical_formula_sum   'Rb4 Be8 B12 O28'
_cell_volume   617.16705548
_cell_formula_units_Z   4
loop_
 _symmetry_equiv_pos_site_id
 _symmetry_equiv_pos_as_xyz
  1  'x, y, z'
loop_
 _atom_site_type_symbol
 _atom_site_label
 _atom_site_symmetry_multiplicity
 _atom_site_fract_x
 _atom_site_fract_y
 _atom_site_fract_z
 _atom_site_occupancy
  Rb  Rb0  1  0.500000  0.357654  0.947913  1
  Rb  Rb1  1  -0.000000  0.642346  0.447913  1
  Rb  Rb2  1  -0.000000  0.149674  0.925277  1
  Rb  Rb3  1  0.500000  0.850326  0.425277  1
  Be  Be4  1  0.187049  0.459534  0.431086  1
  Be  Be5  1  0.812951  0.459534  0.431086  1
  Be  Be6  1  0.312951  0.540466  0.931086  1
  Be  Be7  1  0.687049  0.540466  0.931086  1
  Be  Be8  1  0.324471  0.036910  0.357979  1
  Be  Be9  1  0.675529  0.036910  0.357979  1
  Be  Be10  1  0.175529  0.963090  0.857979  1
  Be  Be11  1  0.824471  0.963090  0.857979  1
  B  B12  1  -0.000000  0.481120  0.932713  1
  B  B13  1  0.500000  0.518880  0.432713  1
  B  B14  1  0.500000  0.008640  0.861533  1
  B  B15  1  -0.000000  0.991360  0.361533  1
  B  B16  1  0.158069  0.317699  0.517942  1
  B  B17  1  0.841931  0.317699  0.517942  1
  B  B18  1  0.341931  0.682301  0.017942  1
  B  B19  1  0.658069  0.682301  0.017942  1
  B  B20  1  0.335580  0.193659  0.426366  1
  B  B21  1  0.664420  0.193659  0.426366  1
  B  B22  1  0.164420  0.806341  0.926366  1
  B  B23  1  0.835580  0.806341  0.926366  1
  O  O24  1  -0.000000  0.473783  0.244171  1
  O  O25  1  0.500000  0.526217  0.744171  1
  O  O26  1  0.156224  0.487915  0.781666  1
  O  O27  1  0.843776  0.487915  0.781666  1
  O  O28  1  0.343776  0.512085  0.281666  1
  O  O29  1  0.656224  0.512085  0.281666  1
  O  O30  1  0.500000  0.010250  0.172607  1
  O  O31  1  -0.000000  0.989750  0.672607  1
  O  O32  1  0.154804  0.993781  0.207731  1
  O  O33  1  0.845196  0.993781  0.207731  1
  O  O34  1  0.345196  0.006219  0.707731  1
  O  O35  1  0.654804  0.006219  0.707731  1
  O  O36  1  0.256094  0.374280  0.421217  1
  O  O37  1  0.743906  0.374280  0.421217  1
  O  O38  1  0.243906  0.625720  0.921217  1
  O  O39  1  0.756094  0.625720  0.921217  1
  O  O40  1  -0.000000  0.332100  0.660199  1
  O  O41  1  0.500000  0.667900  0.160199  1
  O  O42  1  0.197979  0.242073  0.489530  1
  O  O43  1  0.802021  0.242073  0.489530  1
  O  O44  1  0.302021  0.757927  0.989530  1
  O  O45  1  0.697979  0.757927  0.989530  1
  O  O46  1  0.500000  0.225199  0.457778  1
  O  O47  1  -0.000000  0.774801  0.957778  1
  O  O48  1  0.295752  0.124063  0.350243  1
  O  O49  1  0.704248  0.124063  0.350243  1
  O  O50  1  0.204248  0.875937  0.850243  1
  O  O51  1  0.795752  0.875937  0.850243  1
