# generated using pymatgen
data_Zr9CoMo4
_symmetry_space_group_name_H-M   'P 1'
_cell_length_a   8.80690162
_cell_length_b   8.80690302
_cell_length_c   8.44427869
_cell_angle_alpha   90.00000000
_cell_angle_beta   90.00000000
_cell_angle_gamma   119.99014750
_symmetry_Int_Tables_number   1
_chemical_formula_structural   Zr9CoMo4
_chemical_formula_sum   'Zr18 Co2 Mo8'
_cell_volume   567.26064882
_cell_formula_units_Z   2
loop_
 _symmetry_equiv_pos_site_id
 _symmetry_equiv_pos_as_xyz
  1  'x, y, z'
loop_
 _atom_site_type_symbol
 _atom_site_label
 _atom_site_symmetry_multiplicity
 _atom_site_fract_x
 _atom_site_fract_y
 _atom_site_fract_z
 _atom_site_occupancy
  Zr  Zr0  1  0.542528  0.085014  0.250000  1
  Zr  Zr1  1  0.457470  0.914985  0.750000  1
  Zr  Zr2  1  0.914986  0.457472  0.250000  1
  Zr  Zr3  1  0.542509  0.457489  0.250000  1
  Zr  Zr4  1  0.457490  0.542509  0.750000  1
  Zr  Zr5  1  0.085014  0.542529  0.750000  1
  Zr  Zr6  1  0.200981  0.401980  0.057777  1
  Zr  Zr7  1  0.799019  0.598018  0.557777  1
  Zr  Zr8  1  0.598019  0.799020  0.057777  1
  Zr  Zr9  1  0.200979  0.799021  0.057715  1
  Zr  Zr10  1  0.799022  0.200979  0.557715  1
  Zr  Zr11  1  0.401981  0.200981  0.557777  1
  Zr  Zr12  1  0.799019  0.598018  0.942223  1
  Zr  Zr13  1  0.799022  0.200979  0.942285  1
  Zr  Zr14  1  0.401981  0.200981  0.942223  1
  Zr  Zr15  1  0.598019  0.799020  0.442223  1
  Zr  Zr16  1  0.200979  0.799021  0.442286  1
  Zr  Zr17  1  0.200981  0.401980  0.442223  1
  Co  Co18  1  0.333299  0.666700  0.250000  1
  Co  Co19  1  0.666700  0.333299  0.750000  1
  Mo  Mo20  1  -0.000000  -0.000000  -0.000000  1
  Mo  Mo21  1  -0.000000  -0.000000  0.500000  1
  Mo  Mo22  1  0.889549  0.779145  0.250000  1
  Mo  Mo23  1  0.110451  0.220855  0.750000  1
  Mo  Mo24  1  0.220856  0.110451  0.250000  1
  Mo  Mo25  1  0.889555  0.110446  0.250000  1
  Mo  Mo26  1  0.110446  0.889554  0.750000  1
  Mo  Mo27  1  0.779145  0.889548  0.750000  1
