# generated using pymatgen
data_Te2Mo3WSe6
_symmetry_space_group_name_H-M   'P 1'
_cell_length_a   3.38086765
_cell_length_b   3.38083566
_cell_length_c   38.46378742
_cell_angle_alpha   90.00006141
_cell_angle_beta   90.00000000
_cell_angle_gamma   120.00031287
_symmetry_Int_Tables_number   1
_chemical_formula_structural   Te2Mo3WSe6
_chemical_formula_sum   'Te2 Mo3 W1 Se6'
_cell_volume   380.74441288
_cell_formula_units_Z   1
loop_
 _symmetry_equiv_pos_site_id
 _symmetry_equiv_pos_as_xyz
  1  'x, y, z'
loop_
 _atom_site_type_symbol
 _atom_site_label
 _atom_site_symmetry_multiplicity
 _atom_site_fract_x
 _atom_site_fract_y
 _atom_site_fract_z
 _atom_site_occupancy
  Te  Te0  1  0.666647  0.333292  0.420809  1
  Te  Te1  1  0.666647  0.333293  0.518505  1
  Mo  Mo2  1  0.333309  0.666618  0.093928  1
  Mo  Mo3  1  0.333312  0.666625  0.469659  1
  Mo  Mo4  1  0.666689  0.333378  0.281789  1
  W  W5  1  0.666690  0.333380  0.657554  1
  Se  Se6  1  0.333352  0.666704  0.324834  1
  Se  Se7  1  0.333353  0.666708  0.700729  1
  Se  Se8  1  0.666647  0.333294  0.050880  1
  Se  Se9  1  0.666649  0.333296  0.136969  1
  Se  Se10  1  0.333351  0.666704  0.238747  1
  Se  Se11  1  0.333354  0.666709  0.614345  1
