# generated using pymatgen
data_Li2ZnSiO4
_symmetry_space_group_name_H-M   'P 1'
_cell_length_a   5.11481009
_cell_length_b   6.33897315
_cell_length_c   10.75632027
_cell_angle_alpha   90.00000000
_cell_angle_beta   90.00000000
_cell_angle_gamma   90.55214966
_symmetry_Int_Tables_number   1
_chemical_formula_structural   Li2ZnSiO4
_chemical_formula_sum   'Li8 Zn4 Si4 O16'
_cell_volume   348.73214748
_cell_formula_units_Z   4
loop_
 _symmetry_equiv_pos_site_id
 _symmetry_equiv_pos_as_xyz
  1  'x, y, z'
loop_
 _atom_site_type_symbol
 _atom_site_label
 _atom_site_symmetry_multiplicity
 _atom_site_fract_x
 _atom_site_fract_y
 _atom_site_fract_z
 _atom_site_occupancy
  Li  Li0  1  0.808503  0.493357  0.336737  1
  Li  Li1  1  0.202209  0.740411  0.424536  1
  Li  Li2  1  0.297791  0.759589  0.924536  1
  Li  Li3  1  0.797791  0.259589  0.575464  1
  Li  Li4  1  0.702209  0.240411  0.075464  1
  Li  Li5  1  0.691497  0.006643  0.836737  1
  Li  Li6  1  0.191497  0.506643  0.663263  1
  Li  Li7  1  0.308503  0.993357  0.163263  1
  O  O8  1  0.202963  0.031022  0.339886  1
  O  O9  1  0.297037  0.468978  0.839886  1
  O  O10  1  0.797037  0.968978  0.660114  1
  O  O11  1  0.704512  0.959664  0.160663  1
  O  O12  1  0.702963  0.531022  0.160114  1
  O  O13  1  0.204512  0.459664  0.339337  1
  O  O14  1  0.295488  0.040336  0.839337  1
  O  O15  1  0.795488  0.540336  0.660663  1
  O  O16  1  0.634276  0.244791  0.410144  1
  O  O17  1  0.865724  0.255209  0.910144  1
  O  O18  1  0.365724  0.755209  0.589856  1
  O  O19  1  0.134276  0.744791  0.089856  1
  O  O20  1  0.201778  0.255490  0.556026  1
  O  O21  1  0.298222  0.244510  0.056026  1
  O  O22  1  0.798222  0.744510  0.443974  1
  O  O23  1  0.701778  0.755490  0.943974  1
  Si  Si24  1  0.810217  0.745896  0.088161  1
  Si  Si25  1  0.689783  0.754104  0.588161  1
  Si  Si26  1  0.189783  0.254104  0.911839  1
  Si  Si27  1  0.310217  0.245896  0.411839  1
  Zn  Zn28  1  0.808190  0.998516  0.335602  1
  Zn  Zn29  1  0.691810  0.501484  0.835602  1
  Zn  Zn30  1  0.191810  0.001484  0.664398  1
  Zn  Zn31  1  0.308190  0.498516  0.164398  1
