# generated using pymatgen
data_Lu2InPd2
_symmetry_space_group_name_H-M   'P 1'
_cell_length_a   3.63238929
_cell_length_b   7.65292200
_cell_length_c   7.65292200
_cell_angle_alpha   90.00000000
_cell_angle_beta   90.00000000
_cell_angle_gamma   90.00000000
_symmetry_Int_Tables_number   1
_chemical_formula_structural   Lu2InPd2
_chemical_formula_sum   'Lu4 In2 Pd4'
_cell_volume   212.73892501
_cell_formula_units_Z   2
loop_
 _symmetry_equiv_pos_site_id
 _symmetry_equiv_pos_as_xyz
  1  'x, y, z'
loop_
 _atom_site_type_symbol
 _atom_site_label
 _atom_site_symmetry_multiplicity
 _atom_site_fract_x
 _atom_site_fract_y
 _atom_site_fract_z
 _atom_site_occupancy
  Pd  Pd0  1  0.000000  0.128982  0.371018  1
  Pd  Pd1  1  0.000000  0.371018  0.871018  1
  Pd  Pd2  1  0.000000  0.628982  0.128982  1
  Pd  Pd3  1  0.000000  0.871018  0.628982  1
  In  In4  1  0.000000  0.000000  0.000000  1
  In  In5  1  0.000000  0.500000  0.500000  1
  Lu  Lu6  1  0.500000  0.828501  0.328501  1
  Lu  Lu7  1  0.500000  0.671499  0.828501  1
  Lu  Lu8  1  0.500000  0.328501  0.171499  1
  Lu  Lu9  1  0.500000  0.171499  0.671499  1
