# generated using pymatgen
data_Pr(FeP3)4
_symmetry_space_group_name_H-M   'P 1'
_cell_length_a   6.77132692
_cell_length_b   6.77132692
_cell_length_c   6.77132692
_cell_angle_alpha   109.47122061
_cell_angle_beta   109.47122059
_cell_angle_gamma   109.47122065
_symmetry_Int_Tables_number   1
_chemical_formula_structural   Pr(FeP3)4
_chemical_formula_sum   'Pr1 Fe4 P12'
_cell_volume   239.00085576
_cell_formula_units_Z   1
loop_
 _symmetry_equiv_pos_site_id
 _symmetry_equiv_pos_as_xyz
  1  'x, y, z'
loop_
 _atom_site_type_symbol
 _atom_site_label
 _atom_site_symmetry_multiplicity
 _atom_site_fract_x
 _atom_site_fract_y
 _atom_site_fract_z
 _atom_site_occupancy
  P  P0  1  0.494740  0.848170  0.646571  1
  P  P1  1  0.201599  0.848170  0.353429  1
  P  P2  1  0.798401  0.151831  0.646571  1
  P  P3  1  0.151831  0.353429  0.505260  1
  P  P4  1  0.353429  0.505260  0.151831  1
  P  P5  1  0.505260  0.151831  0.353429  1
  P  P6  1  0.151831  0.646571  0.798401  1
  P  P7  1  0.353429  0.201599  0.848170  1
  P  P8  1  0.848170  0.646571  0.494740  1
  P  P9  1  0.646571  0.798401  0.151831  1
  P  P10  1  0.848170  0.353429  0.201599  1
  P  P11  1  0.646571  0.494740  0.848170  1
  Fe  Fe12  1  0.500000  0.000000  0.000000  1
  Fe  Fe13  1  0.000000  0.000000  0.500000  1
  Fe  Fe14  1  0.000000  0.500000  0.000000  1
  Fe  Fe15  1  0.500000  0.500000  0.500000  1
  Pr  Pr16  1  0.000000  0.000000  0.000000  1
