# generated using pymatgen
data_Li3Cr2(GeO4)3
_symmetry_space_group_name_H-M   'P 1'
_cell_length_a   10.43739800
_cell_length_b   10.43739771
_cell_length_c   10.43739831
_cell_angle_alpha   109.47122006
_cell_angle_beta   109.47121948
_cell_angle_gamma   109.47121987
_symmetry_Int_Tables_number   1
_chemical_formula_structural   Li3Cr2(GeO4)3
_chemical_formula_sum   'Li12 Cr8 Ge12 O48'
_cell_volume   875.29582412
_cell_formula_units_Z   4
loop_
 _symmetry_equiv_pos_site_id
 _symmetry_equiv_pos_as_xyz
  1  'x, y, z'
loop_
 _atom_site_type_symbol
 _atom_site_label
 _atom_site_symmetry_multiplicity
 _atom_site_fract_x
 _atom_site_fract_y
 _atom_site_fract_z
 _atom_site_occupancy
  Li  Li0  1  0.625000  0.250000  0.875000  1
  Li  Li1  1  0.875000  0.750000  0.625000  1
  Li  Li2  1  0.750000  0.625000  0.875000  1
  Li  Li3  1  0.250000  0.875000  0.625000  1
  Li  Li4  1  0.875000  0.625000  0.250000  1
  Li  Li5  1  0.625000  0.875000  0.750000  1
  Li  Li6  1  0.375000  0.750000  0.125000  1
  Li  Li7  1  0.125000  0.250000  0.375000  1
  Li  Li8  1  0.250000  0.375000  0.125000  1
  Li  Li9  1  0.750000  0.125000  0.375000  1
  Li  Li10  1  0.125000  0.375000  0.750000  1
  Li  Li11  1  0.375000  0.125000  0.250000  1
  Cr  Cr12  1  0.500000  0.500000  0.500000  1
  Cr  Cr13  1  0.500000  0.500000  0.000000  1
  Cr  Cr14  1  0.500000  0.000000  0.500000  1
  Cr  Cr15  1  0.000000  0.500000  0.500000  1
  Cr  Cr16  1  0.500000  0.000000  0.000000  1
  Cr  Cr17  1  0.000000  0.000000  0.500000  1
  Cr  Cr18  1  0.000000  0.500000  0.000000  1
  Cr  Cr19  1  0.000000  0.000000  0.000000  1
  Ge  Ge20  1  0.875000  0.125000  0.750000  1
  Ge  Ge21  1  0.125000  0.875000  0.250000  1
  Ge  Ge22  1  0.250000  0.625000  0.375000  1
  Ge  Ge23  1  0.125000  0.750000  0.875000  1
  Ge  Ge24  1  0.750000  0.875000  0.125000  1
  Ge  Ge25  1  0.375000  0.250000  0.625000  1
  Ge  Ge26  1  0.625000  0.750000  0.375000  1
  Ge  Ge27  1  0.875000  0.250000  0.125000  1
  Ge  Ge28  1  0.250000  0.125000  0.875000  1
  Ge  Ge29  1  0.750000  0.375000  0.625000  1
  Ge  Ge30  1  0.375000  0.625000  0.750000  1
  Ge  Ge31  1  0.625000  0.375000  0.250000  1
  O  O32  1  0.801402  0.418415  0.820335  1
  O  O33  1  0.081585  0.882987  0.401919  1
  O  O34  1  0.679665  0.098081  0.981067  1
  O  O35  1  0.698598  0.518933  0.617013  1
  O  O36  1  0.698598  0.679665  0.081585  1
  O  O37  1  0.518933  0.617013  0.698598  1
  O  O38  1  0.098081  0.617013  0.418415  1
  O  O39  1  0.617013  0.698598  0.518933  1
  O  O40  1  0.401919  0.820335  0.518933  1
  O  O41  1  0.882987  0.981067  0.801402  1
  O  O42  1  0.981067  0.801402  0.882987  1
  O  O43  1  0.081585  0.698598  0.679665  1
  O  O44  1  0.617013  0.418415  0.098081  1
  O  O45  1  0.518933  0.401919  0.820335  1
  O  O46  1  0.679665  0.081585  0.698598  1
  O  O47  1  0.418415  0.098081  0.617013  1
  O  O48  1  0.820335  0.518933  0.401919  1
  O  O49  1  0.401919  0.081585  0.882987  1
  O  O50  1  0.098081  0.981067  0.679665  1
  O  O51  1  0.598081  0.179665  0.481067  1
  O  O52  1  0.981067  0.679665  0.098081  1
  O  O53  1  0.820335  0.801402  0.418415  1
  O  O54  1  0.882987  0.401919  0.081585  1
  O  O55  1  0.801402  0.882987  0.981067  1
  O  O56  1  0.198598  0.581585  0.179665  1
  O  O57  1  0.918415  0.117013  0.598081  1
  O  O58  1  0.320335  0.901919  0.018933  1
  O  O59  1  0.301402  0.481067  0.382987  1
  O  O60  1  0.301402  0.320335  0.918415  1
  O  O61  1  0.481067  0.382987  0.301402  1
  O  O62  1  0.901919  0.382987  0.581585  1
  O  O63  1  0.382987  0.301402  0.481067  1
  O  O64  1  0.198598  0.117013  0.018933  1
  O  O65  1  0.117013  0.598081  0.918415  1
  O  O66  1  0.179665  0.198598  0.581585  1
  O  O67  1  0.581585  0.179665  0.198598  1
  O  O68  1  0.018933  0.320335  0.901919  1
  O  O69  1  0.901919  0.018933  0.320335  1
  O  O70  1  0.598081  0.918415  0.117013  1
  O  O71  1  0.179665  0.481067  0.598081  1
  O  O72  1  0.581585  0.901919  0.382987  1
  O  O73  1  0.320335  0.918415  0.301402  1
  O  O74  1  0.481067  0.598081  0.179665  1
  O  O75  1  0.382987  0.581585  0.901919  1
  O  O76  1  0.918415  0.301402  0.320335  1
  O  O77  1  0.018933  0.198598  0.117013  1
  O  O78  1  0.117013  0.018933  0.198598  1
  O  O79  1  0.418415  0.820335  0.801402  1
