# generated using pymatgen
data_UAl2Cu
_symmetry_space_group_name_H-M   'P 1'
_cell_length_a   4.64620869
_cell_length_b   4.64620465
_cell_length_c   4.65752944
_cell_angle_alpha   119.91994362
_cell_angle_beta   119.91962773
_cell_angle_gamma   90.00000003
_symmetry_Int_Tables_number   1
_chemical_formula_structural   UAl2Cu
_chemical_formula_sum   'U1 Al2 Cu1'
_cell_volume   71.26681921
_cell_formula_units_Z   1
loop_
 _symmetry_equiv_pos_site_id
 _symmetry_equiv_pos_as_xyz
  1  'x, y, z'
loop_
 _atom_site_type_symbol
 _atom_site_label
 _atom_site_symmetry_multiplicity
 _atom_site_fract_x
 _atom_site_fract_y
 _atom_site_fract_z
 _atom_site_occupancy
  Al  Al0  1  0.750000  0.249999  0.500000  1
  Al  Al1  1  0.250000  0.750001  0.500000  1
  Cu  Cu2  1  0.500000  0.500000  0.000000  1
  U  U3  1  0.000000  0.000000  0.000000  1
