# generated using pymatgen
data_Na7Fe3O8
_symmetry_space_group_name_H-M   'P 1'
_cell_length_a   6.00494743
_cell_length_b   8.44498729
_cell_length_c   11.51874329
_cell_angle_alpha   68.42186936
_cell_angle_beta   78.54496997
_cell_angle_gamma   70.50087245
_symmetry_Int_Tables_number   1
_chemical_formula_structural   Na7Fe3O8
_chemical_formula_sum   'Na14 Fe6 O16'
_cell_volume   510.12290591
_cell_formula_units_Z   2
loop_
 _symmetry_equiv_pos_site_id
 _symmetry_equiv_pos_as_xyz
  1  'x, y, z'
loop_
 _atom_site_type_symbol
 _atom_site_label
 _atom_site_symmetry_multiplicity
 _atom_site_fract_x
 _atom_site_fract_y
 _atom_site_fract_z
 _atom_site_occupancy
  O  O0  1  0.061638  0.530508  0.224286  1
  O  O1  1  0.679817  0.781038  0.555475  1
  O  O2  1  0.793787  0.795425  0.970131  1
  O  O3  1  0.206213  0.204576  0.029869  1
  O  O4  1  0.097284  0.065482  0.842148  1
  O  O5  1  0.902716  0.934518  0.157853  1
  O  O6  1  0.760242  0.343991  0.463569  1
  O  O7  1  0.239758  0.656009  0.536431  1
  O  O8  1  0.511438  0.749201  0.227342  1
  O  O9  1  0.488562  0.250799  0.772658  1
  O  O10  1  0.646444  0.313292  0.116307  1
  O  O11  1  0.320183  0.218962  0.444525  1
  O  O12  1  0.353556  0.686708  0.883693  1
  O  O13  1  0.052936  0.107300  0.311009  1
  O  O14  1  0.947064  0.892700  0.688991  1
  O  O15  1  0.938360  0.469492  0.775714  1
  Na  Na16  1  0.499958  0.439131  0.280960  1
  Na  Na17  1  0.500043  0.560868  0.719040  1
  Na  Na18  1  0.873565  0.218184  0.663899  1
  Na  Na19  1  0.126434  0.781817  0.336102  1
  Na  Na20  1  0.375500  0.360235  0.566155  1
  Na  Na21  1  0.624500  0.639765  0.433845  1
  Na  Na22  1  0.721046  0.068427  0.472242  1
  Na  Na23  1  0.278954  0.931573  0.527757  1
  Na  Na24  1  0.304142  0.865795  0.047708  1
  Na  Na25  1  0.695856  0.134205  0.952292  1
  Na  Na26  1  0.270959  0.452683  0.050123  1
  Na  Na27  1  0.729039  0.547318  0.949878  1
  Na  Na28  1  0.541655  0.937195  0.780346  1
  Na  Na29  1  0.458345  0.062805  0.219654  1
  Fe  Fe30  1  0.815614  0.739286  0.148625  1
  Fe  Fe31  1  0.043743  0.311456  0.362447  1
  Fe  Fe32  1  0.956258  0.688544  0.637553  1
  Fe  Fe33  1  0.058462  0.844790  0.846754  1
  Fe  Fe34  1  0.941538  0.155210  0.153246  1
  Fe  Fe35  1  0.184386  0.260714  0.851375  1
