# generated using pymatgen
data_UCdO4
_symmetry_space_group_name_H-M   'P 1'
_cell_length_a   6.43379805
_cell_length_b   6.43379805
_cell_length_c   6.43379804
_cell_angle_alpha   34.91479575
_cell_angle_beta   34.91479571
_cell_angle_gamma   34.91479575
_symmetry_Int_Tables_number   1
_chemical_formula_structural   UCdO4
_chemical_formula_sum   'U1 Cd1 O4'
_cell_volume   77.88745668
_cell_formula_units_Z   1
loop_
 _symmetry_equiv_pos_site_id
 _symmetry_equiv_pos_as_xyz
  1  'x, y, z'
loop_
 _atom_site_type_symbol
 _atom_site_label
 _atom_site_symmetry_multiplicity
 _atom_site_fract_x
 _atom_site_fract_y
 _atom_site_fract_z
 _atom_site_occupancy
  O  O0  1  0.639129  0.639129  0.639129  1
  O  O1  1  0.360871  0.360871  0.360871  1
  O  O2  1  0.111717  0.111717  0.111717  1
  O  O3  1  0.888283  0.888283  0.888283  1
  Cd  Cd4  1  0.500000  0.500000  0.500000  1
  U  U5  1  0.000000  0.000000  0.000000  1
