# generated using pymatgen
data_Te6MoW3S2
_symmetry_space_group_name_H-M   'P 1'
_cell_length_a   3.45761523
_cell_length_b   3.45762223
_cell_length_c   39.34071101
_cell_angle_alpha   90.00081176
_cell_angle_beta   89.99996643
_cell_angle_gamma   119.99994233
_symmetry_Int_Tables_number   1
_chemical_formula_structural   Te6MoW3S2
_chemical_formula_sum   'Te6 Mo1 W3 S2'
_cell_volume   407.31208262
_cell_formula_units_Z   1
loop_
 _symmetry_equiv_pos_site_id
 _symmetry_equiv_pos_as_xyz
  1  'x, y, z'
loop_
 _atom_site_type_symbol
 _atom_site_label
 _atom_site_symmetry_multiplicity
 _atom_site_fract_x
 _atom_site_fract_y
 _atom_site_fract_z
 _atom_site_occupancy
  Te  Te0  1  0.333376  0.666755  0.328931  1
  Te  Te1  1  0.333357  0.666715  0.704751  1
  Te  Te2  1  0.666637  0.333273  0.046545  1
  Te  Te3  1  0.666646  0.333292  0.141055  1
  Te  Te4  1  0.333357  0.666714  0.234949  1
  Te  Te5  1  0.333343  0.666686  0.610310  1
  Mo  Mo6  1  0.666694  0.333391  0.281966  1
  W  W7  1  0.333301  0.666602  0.093770  1
  W  W8  1  0.333312  0.666623  0.469642  1
  W  W9  1  0.666681  0.333362  0.657543  1
  S  S10  1  0.666645  0.333289  0.431812  1
  S  S11  1  0.666650  0.333299  0.507476  1
