# generated using pymatgen
data_NaMo2P2O9
_symmetry_space_group_name_H-M   'P 1'
_cell_length_a   6.70454245
_cell_length_b   7.93331911
_cell_length_c   14.60701782
_cell_angle_alpha   90.00000000
_cell_angle_beta   90.00000000
_cell_angle_gamma   90.00000000
_symmetry_Int_Tables_number   1
_chemical_formula_structural   NaMo2P2O9
_chemical_formula_sum   'Na4 Mo8 P8 O36'
_cell_volume   776.93668399
_cell_formula_units_Z   4
loop_
 _symmetry_equiv_pos_site_id
 _symmetry_equiv_pos_as_xyz
  1  'x, y, z'
loop_
 _atom_site_type_symbol
 _atom_site_label
 _atom_site_symmetry_multiplicity
 _atom_site_fract_x
 _atom_site_fract_y
 _atom_site_fract_z
 _atom_site_occupancy
  Na  Na0  1  0.750000  0.873547  0.775340  1
  Na  Na1  1  0.750000  0.626453  0.275340  1
  Na  Na2  1  0.250001  0.373546  0.724660  1
  Na  Na3  1  0.250001  0.126453  0.224660  1
  Mo  Mo4  1  0.750000  0.354083  0.881897  1
  Mo  Mo5  1  0.250001  0.645917  0.118103  1
  Mo  Mo6  1  0.250001  0.854083  0.618103  1
  Mo  Mo7  1  0.750000  0.145917  0.381897  1
  Mo  Mo8  1  0.500000  -0.000000  0.000000  1
  Mo  Mo9  1  0.500000  0.500000  0.500000  1
  Mo  Mo10  1  -0.000000  0.500000  0.500000  1
  Mo  Mo11  1  -0.000000  -0.000000  0.000000  1
  P  P12  1  0.250001  0.349287  0.937157  1
  P  P13  1  0.750000  0.650713  0.062844  1
  P  P14  1  0.750000  0.849287  0.562843  1
  P  P15  1  0.250001  0.150714  0.437157  1
  P  P16  1  0.750000  0.396281  0.694153  1
  P  P17  1  0.750000  0.103719  0.194153  1
  P  P18  1  0.250001  0.896281  0.805847  1
  P  P19  1  0.250001  0.603718  0.305847  1
  O  O20  1  0.058631  0.593689  0.364733  1
  O  O21  1  0.558630  0.406310  0.635267  1
  O  O22  1  0.941369  0.093689  0.135267  1
  O  O23  1  0.441369  0.906311  0.864733  1
  O  O24  1  0.941369  0.406310  0.635267  1
  O  O25  1  0.441369  0.593689  0.364733  1
  O  O26  1  0.058631  0.906311  0.864733  1
  O  O27  1  0.558630  0.093689  0.135267  1
  O  O28  1  0.250001  0.328058  0.486704  1
  O  O29  1  0.750000  0.671943  0.513296  1
  O  O30  1  0.750000  0.828057  0.013295  1
  O  O31  1  0.250001  0.171943  0.986704  1
  O  O32  1  0.750000  0.142125  0.949324  1
  O  O33  1  0.250001  0.857875  0.050675  1
  O  O34  1  0.250001  0.642125  0.550675  1
  O  O35  1  0.750000  0.357876  0.449325  1
  O  O36  1  0.750000  0.231195  0.753508  1
  O  O37  1  0.250001  0.768805  0.246493  1
  O  O38  1  0.250001  0.731195  0.746492  1
  O  O39  1  0.750000  0.268806  0.253507  1
  O  O40  1  0.433597  0.139033  0.375055  1
  O  O41  1  0.933597  0.860967  0.624945  1
  O  O42  1  0.566403  0.639032  0.124945  1
  O  O43  1  0.066403  0.360967  0.875055  1
  O  O44  1  0.566403  0.860967  0.624945  1
  O  O45  1  0.066403  0.139033  0.375055  1
  O  O46  1  0.433597  0.360967  0.875055  1
  O  O47  1  0.933597  0.639032  0.124945  1
  O  O48  1  0.750000  0.518637  0.986457  1
  O  O49  1  0.250001  0.033748  0.728286  1
  O  O50  1  0.250001  0.466251  0.228286  1
  O  O51  1  0.750000  0.533748  0.771714  1
  O  O52  1  0.750000  0.981363  0.486457  1
  O  O53  1  0.250001  0.018637  0.513543  1
  O  O54  1  0.250001  0.481362  0.013542  1
  O  O55  1  0.750000  0.966252  0.271714  1
