# generated using pymatgen
data_Cs4Ta2S11
_symmetry_space_group_name_H-M   'P 1'
_cell_length_a   8.16637157
_cell_length_b   14.31581316
_cell_length_c   18.93649054
_cell_angle_alpha   90.00000000
_cell_angle_beta   90.00000000
_cell_angle_gamma   90.00000000
_symmetry_Int_Tables_number   1
_chemical_formula_structural   Cs4Ta2S11
_chemical_formula_sum   'Cs16 Ta8 S44'
_cell_volume   2213.83196243
_cell_formula_units_Z   4
loop_
 _symmetry_equiv_pos_site_id
 _symmetry_equiv_pos_as_xyz
  1  'x, y, z'
loop_
 _atom_site_type_symbol
 _atom_site_label
 _atom_site_symmetry_multiplicity
 _atom_site_fract_x
 _atom_site_fract_y
 _atom_site_fract_z
 _atom_site_occupancy
  S  S0  1  0.251081  0.434497  0.032216  1
  S  S1  1  0.748919  0.565503  0.532216  1
  S  S2  1  0.748919  0.934497  0.032216  1
  S  S3  1  0.251081  0.065503  0.532216  1
  S  S4  1  0.451007  0.527005  0.872347  1
  S  S5  1  0.548993  0.472995  0.372347  1
  S  S6  1  0.548993  0.027005  0.872347  1
  S  S7  1  0.451007  0.972995  0.372347  1
  S  S8  1  0.261601  0.680598  0.071323  1
  S  S9  1  0.738399  0.319402  0.571323  1
  S  S10  1  0.738399  0.180598  0.071323  1
  S  S11  1  0.261601  0.819402  0.571323  1
  S  S12  1  0.035581  0.663017  0.022082  1
  S  S13  1  0.964419  0.336983  0.522082  1
  S  S14  1  0.964419  0.163017  0.022082  1
  S  S15  1  0.035581  0.836983  0.522082  1
  S  S16  1  0.399312  0.574579  0.691326  1
  S  S17  1  0.552637  0.602356  0.956130  1
  S  S18  1  0.447363  0.102356  0.956130  1
  S  S19  1  0.552637  0.897644  0.456130  1
  S  S20  1  0.258213  0.467740  0.735015  1
  S  S21  1  0.741787  0.532260  0.235015  1
  S  S22  1  0.741787  0.967740  0.735015  1
  S  S23  1  0.258213  0.032260  0.235015  1
  S  S24  1  0.003516  0.816390  0.226623  1
  S  S25  1  0.996484  0.183610  0.726623  1
  S  S26  1  0.996484  0.316390  0.226623  1
  S  S27  1  0.003516  0.683610  0.726623  1
  S  S28  1  0.397592  0.744910  0.307353  1
  S  S29  1  0.602408  0.255090  0.807353  1
  S  S30  1  0.602408  0.244910  0.307353  1
  S  S31  1  0.397592  0.755090  0.807353  1
  S  S32  1  0.230862  0.764036  0.389719  1
  S  S33  1  0.769138  0.235964  0.889719  1
  S  S34  1  0.769138  0.264036  0.389719  1
  S  S35  1  0.230862  0.735964  0.889719  1
  S  S36  1  0.047375  0.968944  0.378114  1
  S  S37  1  0.952625  0.031056  0.878114  1
  S  S38  1  0.952625  0.468944  0.378114  1
  S  S39  1  0.047375  0.531056  0.878114  1
  S  S40  1  0.399312  0.925421  0.191326  1
  S  S41  1  0.600688  0.074579  0.691326  1
  S  S42  1  0.600688  0.425421  0.191326  1
  S  S43  1  0.447363  0.397644  0.456130  1
  Cs  Cs44  1  0.666788  0.765760  0.626574  1
  Cs  Cs45  1  0.333212  0.234240  0.126574  1
  Cs  Cs46  1  0.333212  0.265760  0.626574  1
  Cs  Cs47  1  0.666788  0.734240  0.126574  1
  Cs  Cs48  1  0.186675  0.580110  0.526984  1
  Cs  Cs49  1  0.813325  0.419890  0.026984  1
  Cs  Cs50  1  0.813325  0.080110  0.526984  1
  Cs  Cs51  1  0.186675  0.919890  0.026984  1
  Cs  Cs52  1  0.794970  0.458309  0.727962  1
  Cs  Cs53  1  0.205030  0.541691  0.227962  1
  Cs  Cs54  1  0.205030  0.958309  0.727962  1
  Cs  Cs55  1  0.794970  0.041691  0.227962  1
  Cs  Cs56  1  0.202136  0.288435  0.878068  1
  Cs  Cs57  1  0.797864  0.711565  0.378068  1
  Cs  Cs58  1  0.797864  0.788435  0.878068  1
  Cs  Cs59  1  0.202136  0.211565  0.378068  1
  Ta  Ta60  1  0.258859  0.568845  0.969595  1
  Ta  Ta61  1  0.741141  0.431155  0.469595  1
  Ta  Ta62  1  0.741141  0.068845  0.969595  1
  Ta  Ta63  1  0.258859  0.931155  0.469595  1
  Ta  Ta64  1  0.211765  0.622063  0.789929  1
  Ta  Ta65  1  0.788235  0.377937  0.289929  1
  Ta  Ta66  1  0.788235  0.122063  0.789929  1
  Ta  Ta67  1  0.211765  0.877937  0.289929  1
