# generated using pymatgen
data_YBC
_symmetry_space_group_name_H-M   'P 1'
_cell_length_a   3.39175505
_cell_length_b   3.52803444
_cell_length_c   9.62096442
_cell_angle_alpha   90.00000000
_cell_angle_beta   100.15251299
_cell_angle_gamma   90.00000000
_symmetry_Int_Tables_number   1
_chemical_formula_structural   YBC
_chemical_formula_sum   'Y2 B2 C2'
_cell_volume   113.32401114
_cell_formula_units_Z   2
loop_
 _symmetry_equiv_pos_site_id
 _symmetry_equiv_pos_as_xyz
  1  'x, y, z'
loop_
 _atom_site_type_symbol
 _atom_site_label
 _atom_site_symmetry_multiplicity
 _atom_site_fract_x
 _atom_site_fract_y
 _atom_site_fract_z
 _atom_site_occupancy
  B  B0  1  0.723138  0.500000  0.446276  1
  B  B1  1  0.276862  0.500000  0.553724  1
  C  C2  1  0.355574  0.500000  0.711148  1
  C  C3  1  0.644426  0.500000  0.288852  1
  Y  Y4  1  0.154665  0.000000  0.309331  1
  Y  Y5  1  0.845335  0.000000  0.690669  1
