# generated using pymatgen
data_Te2MoWSeS
_symmetry_space_group_name_H-M   'P 1'
_cell_length_a   3.39539765
_cell_length_b   3.39539467
_cell_length_c   39.92691662
_cell_angle_alpha   89.99769903
_cell_angle_beta   90.00000000
_cell_angle_gamma   120.00002910
_symmetry_Int_Tables_number   1
_chemical_formula_structural   Te2MoWSeS
_chemical_formula_sum   'Te4 Mo2 W2 Se2 S2'
_cell_volume   398.63661232
_cell_formula_units_Z   2
loop_
 _symmetry_equiv_pos_site_id
 _symmetry_equiv_pos_as_xyz
  1  'x, y, z'
loop_
 _atom_site_type_symbol
 _atom_site_label
 _atom_site_symmetry_multiplicity
 _atom_site_fract_x
 _atom_site_fract_y
 _atom_site_fract_z
 _atom_site_occupancy
  Te  Te0  1  0.333342  0.666684  0.328302  1
  Te  Te1  1  0.666678  0.333354  0.423612  1
  Te  Te2  1  0.666651  0.333300  0.517468  1
  Te  Te3  1  0.333368  0.666738  0.233891  1
  Mo  Mo4  1  0.333279  0.666558  0.093664  1
  Mo  Mo5  1  0.333329  0.666657  0.470552  1
  W  W6  1  0.666692  0.333384  0.281081  1
  W  W7  1  0.666697  0.333395  0.657615  1
  Se  Se8  1  0.666637  0.333273  0.052357  1
  Se  Se9  1  0.666602  0.333204  0.134987  1
  S  S10  1  0.333360  0.666721  0.695348  1
  S  S11  1  0.333365  0.666731  0.619871  1
