# generated using pymatgen
data_SrCu2SnS4
_symmetry_space_group_name_H-M   'P 1'
_cell_length_a   6.34658273
_cell_length_b   6.34658273
_cell_length_c   15.59178774
_cell_angle_alpha   90.00000000
_cell_angle_beta   90.00000000
_cell_angle_gamma   119.99999998
_symmetry_Int_Tables_number   1
_chemical_formula_structural   SrCu2SnS4
_chemical_formula_sum   'Sr3 Cu6 Sn3 S12'
_cell_volume   543.88419254
_cell_formula_units_Z   3
loop_
 _symmetry_equiv_pos_site_id
 _symmetry_equiv_pos_as_xyz
  1  'x, y, z'
loop_
 _atom_site_type_symbol
 _atom_site_label
 _atom_site_symmetry_multiplicity
 _atom_site_fract_x
 _atom_site_fract_y
 _atom_site_fract_z
 _atom_site_occupancy
  S  S0  1  0.097689  0.313616  0.752603  1
  S  S1  1  0.215927  0.902311  0.419269  1
  S  S2  1  0.686384  0.784073  0.085936  1
  S  S3  1  0.450938  0.020018  0.743464  1
  S  S4  1  0.569080  0.549062  0.410130  1
  S  S5  1  0.979982  0.430920  0.076797  1
  S  S6  1  0.288658  0.107909  0.960729  1
  S  S7  1  0.819251  0.711342  0.627395  1
  S  S8  1  0.377900  0.152256  0.202086  1
  S  S9  1  0.774356  0.622100  0.868752  1
  S  S10  1  0.847744  0.225644  0.535419  1
  S  S11  1  0.892091  0.180749  0.294062  1
  Cu  Cu12  1  0.770377  0.030776  0.669155  1
  Cu  Cu13  1  0.896546  0.593886  0.493600  1
  Cu  Cu14  1  0.697340  0.103454  0.160267  1
  Cu  Cu15  1  0.969224  0.739601  0.002488  1
  Cu  Cu16  1  0.260399  0.229623  0.335822  1
  Cu  Cu17  1  0.406114  0.302660  0.826933  1
  Sr  Sr18  1  0.895814  0.666532  0.247943  1
  Sr  Sr19  1  0.333468  0.229282  0.581277  1
  Sr  Sr20  1  0.770718  0.104186  0.914610  1
  Sn  Sn21  1  0.038722  0.666850  0.748154  1
  Sn  Sn22  1  0.628128  0.961278  0.414821  1
  Sn  Sn23  1  0.333150  0.371872  0.081488  1
