# generated using pymatgen
data_EuMg2Cu9
_symmetry_space_group_name_H-M   'P 1'
_cell_length_a   5.07074256
_cell_length_b   5.07074257
_cell_length_c   16.08856070
_cell_angle_alpha   90.00000000
_cell_angle_beta   90.00000000
_cell_angle_gamma   119.99999996
_symmetry_Int_Tables_number   1
_chemical_formula_structural   EuMg2Cu9
_chemical_formula_sum   'Eu2 Mg4 Cu18'
_cell_volume   358.25391907
_cell_formula_units_Z   2
loop_
 _symmetry_equiv_pos_site_id
 _symmetry_equiv_pos_as_xyz
  1  'x, y, z'
loop_
 _atom_site_type_symbol
 _atom_site_label
 _atom_site_symmetry_multiplicity
 _atom_site_fract_x
 _atom_site_fract_y
 _atom_site_fract_z
 _atom_site_occupancy
  Mg  Mg0  1  0.666667  0.333333  0.468058  1
  Mg  Mg1  1  0.333333  0.666667  0.968058  1
  Mg  Mg2  1  0.666667  0.333333  0.031942  1
  Mg  Mg3  1  0.333333  0.666667  0.531942  1
  Cu  Cu4  1  0.333333  0.666667  0.250000  1
  Cu  Cu5  1  0.666667  0.333333  0.750000  1
  Cu  Cu6  1  0.168415  0.831585  0.377949  1
  Cu  Cu7  1  0.168415  0.336830  0.377949  1
  Cu  Cu8  1  0.000000  0.000000  0.750000  1
  Cu  Cu9  1  0.000000  0.000000  0.250000  1
  Cu  Cu10  1  0.000000  0.000000  0.000000  1
  Cu  Cu11  1  0.000000  0.000000  0.500000  1
  Cu  Cu12  1  0.168415  0.336830  0.122051  1
  Cu  Cu13  1  0.831585  0.168415  0.622051  1
  Cu  Cu14  1  0.336830  0.168415  0.622051  1
  Cu  Cu15  1  0.663170  0.831585  0.122051  1
  Cu  Cu16  1  0.168415  0.831585  0.122051  1
  Cu  Cu17  1  0.831585  0.663170  0.877949  1
  Cu  Cu18  1  0.831585  0.168415  0.877949  1
  Cu  Cu19  1  0.831585  0.663170  0.622051  1
  Cu  Cu20  1  0.336830  0.168415  0.877949  1
  Cu  Cu21  1  0.663170  0.831585  0.377949  1
  Eu  Eu22  1  0.666667  0.333333  0.250000  1
  Eu  Eu23  1  0.333333  0.666667  0.750000  1
