# generated using pymatgen
data_Rb4Tc6S13
_symmetry_space_group_name_H-M   'P 1'
_cell_length_a   9.80534692
_cell_length_b   9.80534692
_cell_length_c   14.23166597
_cell_angle_alpha   94.51010854
_cell_angle_beta   94.51010853
_cell_angle_gamma   119.35827290
_symmetry_Int_Tables_number   1
_chemical_formula_structural   Rb4Tc6S13
_chemical_formula_sum   'Rb8 Tc12 S26'
_cell_volume   1178.01595170
_cell_formula_units_Z   2
loop_
 _symmetry_equiv_pos_site_id
 _symmetry_equiv_pos_as_xyz
  1  'x, y, z'
loop_
 _atom_site_type_symbol
 _atom_site_label
 _atom_site_symmetry_multiplicity
 _atom_site_fract_x
 _atom_site_fract_y
 _atom_site_fract_z
 _atom_site_occupancy
  S  S0  1  0.646963  0.353037  0.250000  1
  S  S1  1  0.353037  0.646963  0.750000  1
  S  S2  1  0.263243  0.642553  0.178663  1
  S  S3  1  0.357447  0.736757  0.321337  1
  S  S4  1  0.736757  0.357447  0.821337  1
  S  S5  1  0.642553  0.263243  0.678663  1
  S  S6  1  0.918985  0.949896  0.049291  1
  S  S7  1  0.050104  0.081015  0.450709  1
  S  S8  1  0.081015  0.050104  0.950709  1
  S  S9  1  0.949896  0.918985  0.549291  1
  S  S10  1  0.644410  0.980141  0.183297  1
  S  S11  1  0.019859  0.355590  0.316703  1
  S  S12  1  0.355590  0.019859  0.816703  1
  S  S13  1  0.980141  0.644410  0.683297  1
  S  S14  1  0.826682  0.266615  0.045504  1
  S  S15  1  0.733385  0.173318  0.454496  1
  S  S16  1  0.173318  0.733385  0.954496  1
  S  S17  1  0.266615  0.826682  0.545504  1
  S  S18  1  0.496952  0.300377  0.010607  1
  S  S19  1  0.699623  0.503048  0.489393  1
  S  S20  1  0.006946  0.310296  0.648414  1
  S  S21  1  0.689704  0.993054  0.851586  1
  S  S22  1  0.993054  0.689704  0.351586  1
  S  S23  1  0.310296  0.006946  0.148414  1
  S  S24  1  0.300377  0.496952  0.510607  1
  S  S25  1  0.503048  0.699623  0.989393  1
  Rb  Rb26  1  0.621265  0.907384  0.620388  1
  Rb  Rb27  1  0.092616  0.378735  0.879612  1
  Rb  Rb28  1  0.378735  0.092616  0.379612  1
  Rb  Rb29  1  0.907384  0.621265  0.120388  1
  Rb  Rb30  1  0.766395  0.703535  0.840912  1
  Rb  Rb31  1  0.296465  0.233605  0.659088  1
  Rb  Rb32  1  0.233605  0.296465  0.159088  1
  Rb  Rb33  1  0.703535  0.766395  0.340912  1
  Tc  Tc34  1  0.319632  0.017305  0.981348  1
  Tc  Tc35  1  0.982695  0.680368  0.518652  1
  Tc  Tc36  1  0.680368  0.982695  0.018652  1
  Tc  Tc37  1  0.017305  0.319632  0.481348  1
  Tc  Tc38  1  0.424706  0.847654  0.892246  1
  Tc  Tc39  1  0.152346  0.575294  0.607754  1
  Tc  Tc40  1  0.575294  0.152346  0.107754  1
  Tc  Tc41  1  0.847654  0.424706  0.392246  1
  Tc  Tc42  1  0.844139  0.401721  0.575831  1
  Tc  Tc43  1  0.598279  0.155861  0.924169  1
  Tc  Tc44  1  0.155861  0.598279  0.424169  1
  Tc  Tc45  1  0.401721  0.844139  0.075831  1
