# generated using pymatgen
data_Y5(FeTe)2
_symmetry_space_group_name_H-M   'P 1'
_cell_length_a   3.96225662
_cell_length_b   7.82780566
_cell_length_c   15.25044325
_cell_angle_alpha   90.00000000
_cell_angle_beta   90.00000000
_cell_angle_gamma   104.66035469
_symmetry_Int_Tables_number   1
_chemical_formula_structural   Y5(FeTe)2
_chemical_formula_sum   'Y10 Fe4 Te4'
_cell_volume   457.60476265
_cell_formula_units_Z   2
loop_
 _symmetry_equiv_pos_site_id
 _symmetry_equiv_pos_as_xyz
  1  'x, y, z'
loop_
 _atom_site_type_symbol
 _atom_site_label
 _atom_site_symmetry_multiplicity
 _atom_site_fract_x
 _atom_site_fract_y
 _atom_site_fract_z
 _atom_site_occupancy
  Fe  Fe0  1  0.169844  0.339687  0.250000  1
  Fe  Fe1  1  0.830156  0.660313  0.750000  1
  Fe  Fe2  1  0.594171  0.188342  0.250000  1
  Fe  Fe3  1  0.405829  0.811658  0.750000  1
  Y  Y4  1  0.038107  0.076214  0.380683  1
  Y  Y5  1  0.961893  0.923786  0.619317  1
  Y  Y6  1  0.961893  0.923786  0.880683  1
  Y  Y7  1  0.038107  0.076214  0.119317  1
  Y  Y8  1  0.257203  0.514406  0.628690  1
  Y  Y9  1  0.742797  0.485594  0.371310  1
  Y  Y10  1  0.742797  0.485594  0.128690  1
  Y  Y11  1  0.257203  0.514406  0.871310  1
  Y  Y12  1  0.603288  0.206576  0.750000  1
  Y  Y13  1  0.396712  0.793424  0.250000  1
  Te  Te14  1  0.382298  0.764597  0.039505  1
  Te  Te15  1  0.617702  0.235403  0.960495  1
  Te  Te16  1  0.617702  0.235403  0.539505  1
  Te  Te17  1  0.382298  0.764597  0.460495  1
