# generated using pymatgen
data_Dy5B2C5
_symmetry_space_group_name_H-M   'P 1'
_cell_length_a   8.15992751
_cell_length_b   8.15992751
_cell_length_c   10.76677124
_cell_angle_alpha   90.00000000
_cell_angle_beta   90.00000000
_cell_angle_gamma   90.00000000
_symmetry_Int_Tables_number   1
_chemical_formula_structural   Dy5B2C5
_chemical_formula_sum   'Dy20 B8 C20'
_cell_volume   716.89918565
_cell_formula_units_Z   4
loop_
 _symmetry_equiv_pos_site_id
 _symmetry_equiv_pos_as_xyz
  1  'x, y, z'
loop_
 _atom_site_type_symbol
 _atom_site_label
 _atom_site_symmetry_multiplicity
 _atom_site_fract_x
 _atom_site_fract_y
 _atom_site_fract_z
 _atom_site_occupancy
  B  B0  1  0.093917  0.593917  0.250000  1
  B  B1  1  0.593917  0.093917  0.750000  1
  B  B2  1  0.406083  0.593917  0.750000  1
  B  B3  1  0.093917  0.906083  0.750000  1
  B  B4  1  0.906083  0.406083  0.750000  1
  B  B5  1  0.906083  0.093917  0.250000  1
  B  B6  1  0.593917  0.406083  0.250000  1
  B  B7  1  0.406083  0.906083  0.250000  1
  C  C8  1  0.750000  0.750000  0.597005  1
  C  C9  1  0.750000  0.750000  0.097005  1
  C  C10  1  0.250000  0.250000  0.402995  1
  C  C11  1  0.250000  0.250000  0.902995  1
  C  C12  1  0.052163  0.648128  0.375815  1
  C  C13  1  0.447837  0.851872  0.375815  1
  C  C14  1  0.148128  0.552163  0.124185  1
  C  C15  1  0.648128  0.447837  0.375815  1
  C  C16  1  0.851872  0.052163  0.375815  1
  C  C17  1  0.947837  0.148128  0.124185  1
  C  C18  1  0.552163  0.351872  0.124185  1
  C  C19  1  0.351872  0.947837  0.124185  1
  C  C20  1  0.648128  0.052163  0.875815  1
  C  C21  1  0.447837  0.648128  0.875815  1
  C  C22  1  0.052163  0.851872  0.875815  1
  C  C23  1  0.148128  0.947837  0.624185  1
  C  C24  1  0.351872  0.552163  0.624185  1
  C  C25  1  0.851872  0.447837  0.875815  1
  C  C26  1  0.552163  0.148128  0.624185  1
  C  C27  1  0.947837  0.351872  0.624185  1
  Dy  Dy28  1  0.250000  0.250000  0.638949  1
  Dy  Dy29  1  0.750000  0.750000  0.861051  1
  Dy  Dy30  1  0.750000  0.750000  0.361051  1
  Dy  Dy31  1  0.250000  0.250000  0.138949  1
  Dy  Dy32  1  0.036673  0.656599  0.600262  1
  Dy  Dy33  1  0.463327  0.843401  0.600262  1
  Dy  Dy34  1  0.156599  0.536673  0.899738  1
  Dy  Dy35  1  0.656599  0.463327  0.600262  1
  Dy  Dy36  1  0.843401  0.036673  0.600262  1
  Dy  Dy37  1  0.963327  0.156599  0.899738  1
  Dy  Dy38  1  0.536673  0.343401  0.899738  1
  Dy  Dy39  1  0.343401  0.963327  0.899738  1
  Dy  Dy40  1  0.963327  0.343401  0.399738  1
  Dy  Dy41  1  0.536673  0.156599  0.399738  1
  Dy  Dy42  1  0.843401  0.463327  0.100262  1
  Dy  Dy43  1  0.343401  0.536673  0.399738  1
  Dy  Dy44  1  0.156599  0.963327  0.399738  1
  Dy  Dy45  1  0.036673  0.843401  0.100262  1
  Dy  Dy46  1  0.463327  0.656599  0.100262  1
  Dy  Dy47  1  0.656599  0.036673  0.100262  1
