# generated using pymatgen
data_Zn3In2O6
_symmetry_space_group_name_H-M   'P 1'
_cell_length_a   14.46237971
_cell_length_b   57.85660544
_cell_length_c   28.72524994
_cell_angle_alpha   6.79259227
_cell_angle_beta   11.78129903
_cell_angle_gamma   13.57518342
_symmetry_Int_Tables_number   1
_chemical_formula_structural   Zn3In2O6
_chemical_formula_sum   'Zn12 In8 O24'
_cell_volume   580.44020901
_cell_formula_units_Z   4
loop_
 _symmetry_equiv_pos_site_id
 _symmetry_equiv_pos_as_xyz
  1  'x, y, z'
loop_
 _atom_site_type_symbol
 _atom_site_label
 _atom_site_symmetry_multiplicity
 _atom_site_fract_x
 _atom_site_fract_y
 _atom_site_fract_z
 _atom_site_occupancy
  Zn  Zn0  1  0.138634  0.999680  0.134542  1
  Zn  Zn1  1  0.138634  0.500320  0.133260  1
  Zn  Zn2  1  0.261146  0.504699  0.252918  1
  Zn  Zn3  1  0.740134  0.250000  0.737616  1
  Zn  Zn4  1  0.124725  0.750000  0.140532  1
  Zn  Zn5  1  0.875275  0.250000  0.859468  1
  Zn  Zn6  1  0.259866  0.750000  0.262384  1
  Zn  Zn7  1  0.738854  0.495301  0.747082  1
  Zn  Zn8  1  0.861366  0.499680  0.866740  1
  Zn  Zn9  1  0.261146  0.995301  0.271715  1
  Zn  Zn10  1  0.738854  0.004699  0.728285  1
  Zn  Zn11  1  0.861366  0.000320  0.865458  1
  In  In12  1  0.000000  0.000000  0.000000  1
  In  In13  1  0.138690  0.250000  0.134967  1
  In  In14  1  0.261149  0.250000  0.257411  1
  In  In15  1  0.007082  0.250000  0.997511  1
  In  In16  1  0.000000  0.500000  0.000000  1
  In  In17  1  0.992918  0.750000  0.002489  1
  In  In18  1  0.738851  0.750000  0.742589  1
  In  In19  1  0.861310  0.750000  0.865033  1
  O  O20  1  0.090230  0.250000  0.080874  1
  O  O21  1  0.200048  0.250000  0.190715  1
  O  O22  1  0.312605  0.250000  0.306137  1
  O  O23  1  0.690120  0.000064  0.691587  1
  O  O24  1  0.096338  0.491215  0.096071  1
  O  O25  1  0.797506  0.992269  0.827708  1
  O  O26  1  0.202494  0.492269  0.203214  1
  O  O27  1  0.903662  0.991215  0.939069  1
  O  O28  1  0.309880  0.500064  0.308158  1
  O  O29  1  0.699161  0.250000  0.687598  1
  O  O30  1  0.054176  0.750000  0.099191  1
  O  O31  1  0.833776  0.250000  0.793681  1
  O  O32  1  0.166224  0.750000  0.206319  1
  O  O33  1  0.945824  0.250000  0.900809  1
  O  O34  1  0.300839  0.750000  0.312402  1
  O  O35  1  0.690120  0.499936  0.691842  1
  O  O36  1  0.096338  0.008785  0.060931  1
  O  O37  1  0.797506  0.507731  0.796786  1
  O  O38  1  0.202494  0.007731  0.172292  1
  O  O39  1  0.903662  0.508785  0.903929  1
  O  O40  1  0.309880  -0.000064  0.308413  1
  O  O41  1  0.687395  0.750000  0.693863  1
  O  O42  1  0.799952  0.750000  0.809285  1
  O  O43  1  0.909770  0.750000  0.919126  1
