# generated using pymatgen
data_Sr2TmTaO6
_symmetry_space_group_name_H-M   'P 1'
_cell_length_a   5.82650051
_cell_length_b   5.89135936
_cell_length_c   8.26604516
_cell_angle_alpha   90.00000000
_cell_angle_beta   90.16690090
_cell_angle_gamma   90.00000000
_symmetry_Int_Tables_number   1
_chemical_formula_structural   Sr2TmTaO6
_chemical_formula_sum   'Sr4 Tm2 Ta2 O12'
_cell_volume   283.73913125
_cell_formula_units_Z   2
loop_
 _symmetry_equiv_pos_site_id
 _symmetry_equiv_pos_as_xyz
  1  'x, y, z'
loop_
 _atom_site_type_symbol
 _atom_site_label
 _atom_site_symmetry_multiplicity
 _atom_site_fract_x
 _atom_site_fract_y
 _atom_site_fract_z
 _atom_site_occupancy
  O  O0  1  0.423233  0.020833  0.736957  1
  O  O1  1  0.076767  0.520833  0.763043  1
  O  O2  1  0.576767  0.979167  0.263043  1
  O  O3  1  0.923233  0.479167  0.236957  1
  O  O4  1  0.700406  0.726583  0.542181  1
  O  O5  1  0.799594  0.226583  0.957819  1
  O  O6  1  0.299594  0.273417  0.457819  1
  O  O7  1  0.200406  0.773417  0.042181  1
  O  O8  1  0.272654  0.297444  0.039195  1
  O  O9  1  0.227346  0.797444  0.460805  1
  O  O10  1  0.727346  0.702556  0.960805  1
  O  O11  1  0.772654  0.202556  0.539195  1
  Sr  Sr12  1  0.007758  0.033217  0.250255  1
  Sr  Sr13  1  0.492242  0.533217  0.249745  1
  Sr  Sr14  1  0.507758  0.466783  0.750255  1
  Sr  Sr15  1  0.992242  0.966783  0.749745  1
  Tm  Tm16  1  0.000000  0.500000  0.500000  1
  Tm  Tm17  1  0.500000  0.000000  0.000000  1
  Ta  Ta18  1  0.500000  0.000000  0.500000  1
  Ta  Ta19  1  0.000000  0.500000  0.000000  1
