# generated using pymatgen
data_SrB4O7
_symmetry_space_group_name_H-M   'P 1'
_cell_length_a   17.30233498
_cell_length_b   17.30233391
_cell_length_c   4.29576776
_cell_angle_alpha   90.00004060
_cell_angle_beta   89.99995169
_cell_angle_gamma   120.00019662
_symmetry_Int_Tables_number   1
_chemical_formula_structural   SrB4O7
_chemical_formula_sum   'Sr9 B36 O63'
_cell_volume   1113.73013367
_cell_formula_units_Z   9
loop_
 _symmetry_equiv_pos_site_id
 _symmetry_equiv_pos_as_xyz
  1  'x, y, z'
loop_
 _atom_site_type_symbol
 _atom_site_label
 _atom_site_symmetry_multiplicity
 _atom_site_fract_x
 _atom_site_fract_y
 _atom_site_fract_z
 _atom_site_occupancy
  Sr  Sr0  1  0.000000  0.000000  0.498821  1
  Sr  Sr1  1  0.666657  0.333328  0.705531  1
  Sr  Sr2  1  0.333348  0.666674  0.606975  1
  Sr  Sr3  1  0.007625  0.676147  0.701218  1
  Sr  Sr4  1  0.668530  0.992379  0.701216  1
  Sr  Sr5  1  0.323847  0.331473  0.701217  1
  Sr  Sr6  1  0.341513  0.005946  0.516495  1
  Sr  Sr7  1  0.664437  0.658484  0.516494  1
  Sr  Sr8  1  0.994051  0.335569  0.516494  1
  B  B9  1  0.181811  0.713527  0.324219  1
  B  B10  1  0.531717  0.818191  0.324216  1
  B  B11  1  0.286475  0.468285  0.324220  1
  B  B12  1  0.303425  0.818757  0.997288  1
  B  B13  1  0.515335  0.696575  0.997289  1
  B  B14  1  0.181247  0.484671  0.997282  1
  B  B15  1  0.966733  0.804795  0.241681  1
  B  B16  1  0.838062  0.033267  0.241682  1
  B  B17  1  0.195205  0.161938  0.241683  1
  B  B18  1  0.859119  0.814437  0.906175  1
  B  B19  1  0.955319  0.140881  0.906175  1
  B  B20  1  0.185562  0.044681  0.906174  1
  B  B21  1  0.845316  0.474354  0.277570  1
  B  B22  1  0.629038  0.154680  0.277575  1
  B  B23  1  0.525638  0.370962  0.277566  1
  B  B24  1  0.866631  0.372391  0.944104  1
  B  B25  1  0.505757  0.133366  0.944108  1
  B  B26  1  0.627609  0.494243  0.944109  1
  B  B27  1  0.174245  0.845979  0.110950  1
  B  B28  1  0.671736  0.825756  0.110954  1
  B  B29  1  0.154021  0.328266  0.110953  1
  B  B30  1  0.117712  0.891680  0.597582  1
  B  B31  1  0.773968  0.882288  0.597584  1
  B  B32  1  0.108320  0.226033  0.597583  1
  B  B33  1  0.835447  0.660748  0.047318  1
  B  B34  1  0.825301  0.164553  0.047320  1
  B  B35  1  0.339251  0.174697  0.047320  1
  B  B36  1  0.775017  0.559291  0.559600  1
  B  B37  1  0.784276  0.224983  0.559602  1
  B  B38  1  0.440704  0.215723  0.559598  1
  B  B39  1  0.002723  0.504357  0.179165  1
  B  B40  1  0.501635  0.997276  0.179164  1
  B  B41  1  0.495642  0.498367  0.179163  1
  B  B42  1  0.105165  0.562187  0.682281  1
  B  B43  1  0.457023  0.894838  0.682283  1
  B  B44  1  0.437816  0.542976  0.682280  1
  O  O45  1  0.158429  0.655353  0.561923  1
  O  O46  1  0.496916  0.841564  0.561916  1
  O  O47  1  0.344649  0.503081  0.561919  1
  O  O48  1  0.133125  0.753240  0.248904  1
  O  O49  1  0.620117  0.866878  0.248910  1
  O  O50  1  0.246760  0.379884  0.248910  1
  O  O51  1  0.264970  0.740993  0.183927  1
  O  O52  1  0.476025  0.735032  0.183915  1
  O  O53  1  0.259011  0.523979  0.183920  1
  O  O54  1  0.269743  0.875675  0.000005  1
  O  O55  1  0.605934  0.730258  0.000013  1
  O  O56  1  0.124327  0.394071  0.000007  1
  O  O57  1  0.368678  0.824449  0.807737  1
  O  O58  1  0.455773  0.631322  0.807737  1
  O  O59  1  0.175557  0.544234  0.807727  1
  O  O60  1  0.024086  0.843012  0.478792  1
  O  O61  1  0.818925  0.975915  0.478796  1
  O  O62  1  0.156990  0.181076  0.478795  1
  O  O63  1  0.930603  0.715953  0.169097  1
  O  O64  1  0.785348  0.069396  0.169099  1
  O  O65  1  0.284047  0.214651  0.169101  1
  O  O66  1  0.935939  0.856859  0.095401  1
  O  O67  1  0.920919  0.064061  0.095402  1
  O  O68  1  0.143141  0.079081  0.095402  1
  O  O69  1  0.806058  0.723726  0.907856  1
  O  O70  1  0.917666  0.193941  0.907853  1
  O  O71  1  0.276274  0.082333  0.907853  1
  O  O72  1  0.849854  0.871928  0.715498  1
  O  O73  1  0.022074  0.150146  0.715497  1
  O  O74  1  0.128072  0.977926  0.715495  1
  O  O75  1  0.781367  0.480707  0.442824  1
  O  O76  1  0.699341  0.218629  0.442825  1
  O  O77  1  0.519282  0.300658  0.442806  1
  O  O78  1  0.935308  0.528536  0.309707  1
  O  O79  1  0.593227  0.064688  0.309707  1
  O  O80  1  0.471460  0.406775  0.309709  1
  O  O81  1  0.809857  0.400202  0.073200  1
  O  O82  1  0.590342  0.190138  0.073218  1
  O  O83  1  0.599794  0.409657  0.073210  1
  O  O84  1  0.953361  0.410289  0.045044  1
  O  O85  1  0.456925  0.046636  0.045038  1
  O  O86  1  0.589712  0.543075  0.045042  1
  O  O87  1  0.837847  0.317879  0.693080  1
  O  O88  1  0.480038  0.162159  0.693084  1
  O  O89  1  0.682119  0.519965  0.693081  1
  O  O90  1  0.182650  0.909896  0.350085  1
  O  O91  1  0.727247  0.817351  0.350088  1
  O  O92  1  0.090104  0.272754  0.350087  1
  O  O93  1  0.118235  0.836496  0.850503  1
  O  O94  1  0.718261  0.881765  0.850505  1
  O  O95  1  0.163504  0.281740  0.850505  1
  O  O96  1  0.774678  0.613887  0.299890  1
  O  O97  1  0.839210  0.225321  0.299894  1
  O  O98  1  0.386108  0.160785  0.299896  1
  O  O99  1  0.841408  0.605863  0.800289  1
  O  O100  1  0.764455  0.158592  0.800295  1
  O  O101  1  0.394136  0.235544  0.800294  1
  O  O102  1  0.056723  0.499605  0.432160  1
  O  O103  1  0.442883  0.943278  0.432158  1
  O  O104  1  0.500396  0.557119  0.432156  1
  O  O105  1  0.050608  0.567443  0.932917  1
  O  O106  1  0.516838  0.949394  0.932912  1
  O  O107  1  0.432556  0.483162  0.932910  1
