# generated using pymatgen
data_NdNi(BO2)5
_symmetry_space_group_name_H-M   'P 1'
_cell_length_a   7.65157815
_cell_length_b   8.71285107
_cell_length_c   9.56929311
_cell_angle_alpha   93.24596715
_cell_angle_beta   90.00000000
_cell_angle_gamma   90.00000000
_symmetry_Int_Tables_number   1
_chemical_formula_structural   NdNi(BO2)5
_chemical_formula_sum   'Nd4 Ni4 B20 O40'
_cell_volume   636.93314586
_cell_formula_units_Z   4
loop_
 _symmetry_equiv_pos_site_id
 _symmetry_equiv_pos_as_xyz
  1  'x, y, z'
loop_
 _atom_site_type_symbol
 _atom_site_label
 _atom_site_symmetry_multiplicity
 _atom_site_fract_x
 _atom_site_fract_y
 _atom_site_fract_z
 _atom_site_occupancy
  B  B0  1  0.813562  0.569325  0.087502  1
  B  B1  1  0.313562  0.930675  0.412498  1
  B  B2  1  0.186439  0.430676  0.912497  1
  B  B3  1  0.686438  0.069325  0.587502  1
  B  B4  1  0.099469  0.658008  0.501040  1
  B  B5  1  0.599468  0.841992  0.998959  1
  B  B6  1  0.900532  0.341992  0.498960  1
  B  B7  1  0.400532  0.158008  0.001041  1
  B  B8  1  0.034263  0.779750  0.055417  1
  B  B9  1  0.534263  0.720250  0.444584  1
  B  B10  1  0.965737  0.220250  0.944583  1
  B  B11  1  0.465737  0.279750  0.555416  1
  B  B12  1  0.824700  0.016222  0.106846  1
  B  B13  1  0.324699  0.483777  0.393154  1
  B  B14  1  0.175301  0.983778  0.893155  1
  B  B15  1  0.675300  0.516222  0.606846  1
  B  B16  1  0.077758  0.588271  0.241089  1
  B  B17  1  0.577757  0.911728  0.258911  1
  B  B18  1  0.922242  0.411729  0.758911  1
  B  B19  1  0.422243  0.088271  0.741090  1
  O  O20  1  0.949431  0.261956  0.380881  1
  O  O21  1  0.449430  0.238043  0.119120  1
  O  O22  1  0.050569  0.738043  0.619119  1
  O  O23  1  0.550570  0.761957  0.880880  1
  O  O24  1  0.152606  0.002440  0.430762  1
  O  O25  1  0.652605  0.497560  0.069238  1
  O  O26  1  0.847394  0.997559  0.569238  1
  O  O27  1  0.347395  0.502440  0.930762  1
  O  O28  1  0.876923  0.684370  0.009756  1
  O  O29  1  0.376924  0.815630  0.490244  1
  O  O30  1  0.123077  0.315630  0.990245  1
  O  O31  1  0.623076  0.184371  0.509756  1
  O  O32  1  0.725521  0.956144  0.985589  1
  O  O33  1  0.225521  0.543856  0.514412  1
  O  O34  1  0.274479  0.043856  0.014411  1
  O  O35  1  0.774478  0.456144  0.485588  1
  O  O36  1  0.892212  0.172059  0.080872  1
  O  O37  1  0.392212  0.327941  0.419128  1
  O  O38  1  0.107788  0.827941  0.919127  1
  O  O39  1  0.607788  0.672059  0.580873  1
  O  O40  1  0.972771  0.914363  0.148368  1
  O  O41  1  0.472770  0.585637  0.351633  1
  O  O42  1  0.027229  0.085636  0.851632  1
  O  O43  1  0.527230  0.414364  0.648367  1
  O  O44  1  0.152816  0.684973  0.135116  1
  O  O45  1  0.652815  0.815026  0.364884  1
  O  O46  1  0.847185  0.315027  0.864883  1
  O  O47  1  0.347185  0.184974  0.635116  1
  O  O48  1  0.911333  0.515932  0.196058  1
  O  O49  1  0.411334  0.984068  0.303943  1
  O  O50  1  0.088667  0.484069  0.803942  1
  O  O51  1  0.588666  0.015932  0.696057  1
  O  O52  1  0.035890  0.687931  0.370868  1
  O  O53  1  0.535890  0.812068  0.129132  1
  O  O54  1  0.964110  0.312069  0.629131  1
  O  O55  1  0.464111  0.187931  0.870868  1
  O  O56  1  0.209643  0.468394  0.268023  1
  O  O57  1  0.709643  0.031606  0.231978  1
  O  O58  1  0.790357  0.531606  0.731977  1
  O  O59  1  0.290357  0.968394  0.768023  1
  Ni  Ni60  1  0.910673  0.897306  0.372793  1
  Ni  Ni61  1  0.410674  0.602694  0.127208  1
  Ni  Ni62  1  0.089326  0.102694  0.627207  1
  Ni  Ni63  1  0.589327  0.397305  0.872792  1
  Nd  Nd64  1  0.681143  0.318903  0.263889  1
  Nd  Nd65  1  0.181144  0.181098  0.236111  1
  Nd  Nd66  1  0.318857  0.681097  0.736110  1
  Nd  Nd67  1  0.818857  0.818903  0.763889  1
