# generated using pymatgen
data_Ba2ZnO3
_symmetry_space_group_name_H-M   'P 1'
_cell_length_a   5.96571854
_cell_length_b   6.50486354
_cell_length_c   12.71625872
_cell_angle_alpha   88.52855344
_cell_angle_beta   86.78981962
_cell_angle_gamma   62.70588267
_symmetry_Int_Tables_number   1
_chemical_formula_structural   Ba2ZnO3
_chemical_formula_sum   'Ba8 Zn4 O12'
_cell_volume   437.84060030
_cell_formula_units_Z   4
loop_
 _symmetry_equiv_pos_site_id
 _symmetry_equiv_pos_as_xyz
  1  'x, y, z'
loop_
 _atom_site_type_symbol
 _atom_site_label
 _atom_site_symmetry_multiplicity
 _atom_site_fract_x
 _atom_site_fract_y
 _atom_site_fract_z
 _atom_site_occupancy
  O  O0  1  0.126435  0.197168  0.964943  1
  O  O1  1  0.676398  0.197168  0.535057  1
  O  O2  1  0.873565  0.802832  0.035057  1
  O  O3  1  0.323602  0.802832  0.464943  1
  O  O4  1  0.006890  0.986220  0.750000  1
  O  O5  1  0.993110  0.013780  0.250000  1
  O  O6  1  0.406330  0.187341  0.750000  1
  O  O7  1  0.149386  0.342530  0.367577  1
  O  O8  1  0.491916  0.657470  0.867577  1
  O  O9  1  0.850614  0.657470  0.632423  1
  O  O10  1  0.508084  0.342530  0.132423  1
  O  O11  1  0.593670  0.812659  0.250000  1
  Zn  Zn12  1  0.731041  0.995290  0.663699  1
  Zn  Zn13  1  0.268959  0.004710  0.336301  1
  Zn  Zn14  1  0.273669  0.995290  0.836301  1
  Zn  Zn15  1  0.726331  0.004710  0.163699  1
  Ba  Ba16  1  0.030088  0.410624  0.152335  1
  Ba  Ba17  1  0.440712  0.589376  0.652335  1
  Ba  Ba18  1  0.969912  0.589376  0.847665  1
  Ba  Ba19  1  0.559288  0.410624  0.347665  1
  Ba  Ba20  1  0.657969  0.207202  0.924970  1
  Ba  Ba21  1  0.134828  0.207202  0.575030  1
  Ba  Ba22  1  0.342031  0.792798  0.075030  1
  Ba  Ba23  1  0.865172  0.792798  0.424970  1
