# generated using pymatgen
data_AgPO3
_symmetry_space_group_name_H-M   'P 1'
_cell_length_a   6.05356100
_cell_length_b   7.50292461
_cell_length_c   12.41789777
_cell_angle_alpha   92.68864420
_cell_angle_beta   90.00000000
_cell_angle_gamma   90.00000000
_symmetry_Int_Tables_number   1
_chemical_formula_structural   AgPO3
_chemical_formula_sum   'Ag8 P8 O24'
_cell_volume   563.39274149
_cell_formula_units_Z   8
loop_
 _symmetry_equiv_pos_site_id
 _symmetry_equiv_pos_as_xyz
  1  'x, y, z'
loop_
 _atom_site_type_symbol
 _atom_site_label
 _atom_site_symmetry_multiplicity
 _atom_site_fract_x
 _atom_site_fract_y
 _atom_site_fract_z
 _atom_site_occupancy
  O  O0  1  0.026791  0.800192  0.545569  1
  O  O1  1  0.526791  0.699808  0.954431  1
  O  O2  1  0.973209  0.199808  0.454431  1
  O  O3  1  0.473209  0.300192  0.045569  1
  O  O4  1  0.699596  0.578219  0.556697  1
  O  O5  1  0.199596  0.921781  0.943303  1
  O  O6  1  0.300404  0.421781  0.443303  1
  O  O7  1  0.800404  0.078219  0.056697  1
  O  O8  1  0.037322  0.531557  0.666683  1
  O  O9  1  0.537322  0.968443  0.833317  1
  O  O10  1  0.962678  0.468443  0.333317  1
  O  O11  1  0.462678  0.031557  0.166683  1
  O  O12  1  0.530484  0.997532  0.627617  1
  O  O13  1  0.030484  0.502468  0.872383  1
  O  O14  1  0.469516  0.002468  0.372383  1
  O  O15  1  0.969516  0.497532  0.127617  1
  O  O16  1  0.653035  0.629420  0.247589  1
  O  O17  1  0.153035  0.870580  0.252411  1
  O  O18  1  0.346965  0.370580  0.752411  1
  O  O19  1  0.846965  0.129420  0.747589  1
  O  O20  1  0.701270  0.289860  0.218531  1
  O  O21  1  0.201270  0.210140  0.281469  1
  O  O22  1  0.298730  0.710140  0.781469  1
  O  O23  1  0.798730  0.789860  0.718531  1
  P  P24  1  0.886190  0.678619  0.611278  1
  P  P25  1  0.386190  0.821381  0.888722  1
  P  P26  1  0.113810  0.321381  0.388722  1
  P  P27  1  0.613810  0.178619  0.111278  1
  P  P28  1  0.680048  0.983708  0.724753  1
  P  P29  1  0.180048  0.516292  0.775247  1
  P  P30  1  0.319952  0.016292  0.275247  1
  P  P31  1  0.819952  0.483708  0.224753  1
  Ag  Ag32  1  0.588733  0.268247  0.533501  1
  Ag  Ag33  1  0.088733  0.231753  0.966499  1
  Ag  Ag34  1  0.411267  0.731753  0.466499  1
  Ag  Ag35  1  0.911267  0.768247  0.033501  1
  Ag  Ag36  1  0.160395  0.123423  0.624340  1
  Ag  Ag37  1  0.660395  0.376577  0.875660  1
  Ag  Ag38  1  0.839605  0.876577  0.375660  1
  Ag  Ag39  1  0.339605  0.623423  0.124340  1
