# generated using pymatgen
data_TeMoWSe2S
_symmetry_space_group_name_H-M   'P 1'
_cell_length_a   3.34569674
_cell_length_b   3.34567183
_cell_length_c   38.11910411
_cell_angle_alpha   89.99985217
_cell_angle_beta   90.00000000
_cell_angle_gamma   120.00024626
_symmetry_Int_Tables_number   1
_chemical_formula_structural   TeMoWSe2S
_chemical_formula_sum   'Te2 Mo2 W2 Se4 S2'
_cell_volume   369.52357623
_cell_formula_units_Z   2
loop_
 _symmetry_equiv_pos_site_id
 _symmetry_equiv_pos_as_xyz
  1  'x, y, z'
loop_
 _atom_site_type_symbol
 _atom_site_label
 _atom_site_symmetry_multiplicity
 _atom_site_fract_x
 _atom_site_fract_y
 _atom_site_fract_z
 _atom_site_occupancy
  Te  Te0  1  0.333351  0.666702  0.331823  1
  Te  Te1  1  0.333351  0.666702  0.231685  1
  Mo  Mo2  1  0.333333  0.666665  0.093915  1
  Mo  Mo3  1  0.333314  0.666629  0.469712  1
  W  W4  1  0.666686  0.333373  0.281761  1
  W  W5  1  0.666689  0.333379  0.657543  1
  Se  Se6  1  0.333349  0.666699  0.701518  1
  Se  Se7  1  0.666653  0.333306  0.425948  1
  Se  Se8  1  0.666647  0.333294  0.513446  1
  Se  Se9  1  0.333359  0.666719  0.613566  1
  S  S10  1  0.666635  0.333269  0.054142  1
  S  S11  1  0.666633  0.333264  0.133689  1
