# generated using pymatgen
data_SbAsO5
_symmetry_space_group_name_H-M   'P 1'
_cell_length_a   4.99108531
_cell_length_b   8.96461706
_cell_length_c   9.31589481
_cell_angle_alpha   90.00000000
_cell_angle_beta   90.00000000
_cell_angle_gamma   90.00000000
_symmetry_Int_Tables_number   1
_chemical_formula_structural   SbAsO5
_chemical_formula_sum   'Sb4 As4 O20'
_cell_volume   416.82265138
_cell_formula_units_Z   4
loop_
 _symmetry_equiv_pos_site_id
 _symmetry_equiv_pos_as_xyz
  1  'x, y, z'
loop_
 _atom_site_type_symbol
 _atom_site_label
 _atom_site_symmetry_multiplicity
 _atom_site_fract_x
 _atom_site_fract_y
 _atom_site_fract_z
 _atom_site_occupancy
  O  O0  1  0.301563  0.750451  0.219798  1
  O  O1  1  0.801563  0.249549  0.280202  1
  O  O2  1  0.198437  0.250451  0.780202  1
  O  O3  1  0.698437  0.749549  0.719798  1
  O  O4  1  0.470992  0.956536  0.998107  1
  O  O5  1  0.970992  0.043464  0.501893  1
  O  O6  1  0.029008  0.456536  0.001893  1
  O  O7  1  0.529008  0.543464  0.498107  1
  O  O8  1  0.170447  0.575200  0.719621  1
  O  O9  1  0.670447  0.424800  0.780379  1
  O  O10  1  0.329553  0.075200  0.280379  1
  O  O11  1  0.829553  0.924800  0.219621  1
  O  O12  1  0.422774  0.863743  0.499144  1
  O  O13  1  0.922774  0.136257  0.000856  1
  O  O14  1  0.077226  0.363743  0.500856  1
  O  O15  1  0.577226  0.636257  0.999144  1
  O  O16  1  0.934932  0.730207  0.442255  1
  O  O17  1  0.434932  0.269793  0.057745  1
  O  O18  1  0.565068  0.230207  0.557745  1
  O  O19  1  0.065068  0.769793  0.942255  1
  As  As20  1  0.140340  0.278637  0.961522  1
  As  As21  1  0.640340  0.721363  0.538478  1
  As  As22  1  0.359660  0.778637  0.038478  1
  As  As23  1  0.859660  0.221363  0.461522  1
  Sb  Sb24  1  0.131476  0.902919  0.352672  1
  Sb  Sb25  1  0.631476  0.097081  0.147328  1
  Sb  Sb26  1  0.368524  0.402919  0.647328  1
  Sb  Sb27  1  0.868524  0.597081  0.852672  1
