# generated using pymatgen
data_NpSi
_symmetry_space_group_name_H-M   'P 1'
_cell_length_a   4.28072091
_cell_length_b   6.37602152
_cell_length_c   6.41747370
_cell_angle_alpha   90.00000000
_cell_angle_beta   109.48261012
_cell_angle_gamma   90.00000000
_symmetry_Int_Tables_number   1
_chemical_formula_structural   NpSi
_chemical_formula_sum   'Np4 Si4'
_cell_volume   165.12924404
_cell_formula_units_Z   4
loop_
 _symmetry_equiv_pos_site_id
 _symmetry_equiv_pos_as_xyz
  1  'x, y, z'
loop_
 _atom_site_type_symbol
 _atom_site_label
 _atom_site_symmetry_multiplicity
 _atom_site_fract_x
 _atom_site_fract_y
 _atom_site_fract_z
 _atom_site_occupancy
  Np  Np0  1  0.272377  0.250000  0.544755  1
  Np  Np1  1  0.727623  0.750000  0.455245  1
  Np  Np2  1  0.443927  0.750000  0.887854  1
  Np  Np3  1  0.556073  0.250000  0.112146  1
  Si  Si4  1  0.096165  0.559337  0.192329  1
  Si  Si5  1  0.903835  0.440663  0.807671  1
  Si  Si6  1  0.096165  0.940663  0.192329  1
  Si  Si7  1  0.903835  0.059337  0.807671  1
