# generated using pymatgen
data_RbNb(PO4)2
_symmetry_space_group_name_H-M   'P 1'
_cell_length_a   5.29707098
_cell_length_b   12.16579090
_cell_length_c   12.24062663
_cell_angle_alpha   90.00000000
_cell_angle_beta   90.00000000
_cell_angle_gamma   90.48565358
_symmetry_Int_Tables_number   1
_chemical_formula_structural   RbNb(PO4)2
_chemical_formula_sum   'Rb4 Nb4 P8 O32'
_cell_volume   788.79507473
_cell_formula_units_Z   4
loop_
 _symmetry_equiv_pos_site_id
 _symmetry_equiv_pos_as_xyz
  1  'x, y, z'
loop_
 _atom_site_type_symbol
 _atom_site_label
 _atom_site_symmetry_multiplicity
 _atom_site_fract_x
 _atom_site_fract_y
 _atom_site_fract_z
 _atom_site_occupancy
  O  O0  1  0.951411  0.361179  0.715762  1
  O  O1  1  0.548589  0.138821  0.215762  1
  O  O2  1  0.048589  0.638821  0.284238  1
  O  O3  1  0.451410  0.861178  0.784239  1
  O  O4  1  0.221898  0.181998  0.621302  1
  O  O5  1  0.278101  0.318002  0.121302  1
  O  O6  1  0.778102  0.818001  0.378698  1
  O  O7  1  0.721898  0.681998  0.878698  1
  O  O8  1  0.266400  0.902103  0.596556  1
  O  O9  1  0.233599  0.597897  0.096556  1
  O  O10  1  0.733599  0.097898  0.403444  1
  O  O11  1  0.766401  0.402103  0.903444  1
  O  O12  1  0.012653  0.347328  0.480761  1
  O  O13  1  0.487348  0.152672  0.980761  1
  O  O14  1  0.987347  0.652672  0.519240  1
  O  O15  1  0.512653  0.847328  0.019239  1
  O  O16  1  0.781704  0.014476  0.889953  1
  O  O17  1  0.718296  0.485523  0.389953  1
  O  O18  1  0.218297  0.985524  0.110047  1
  O  O19  1  0.281704  0.514476  0.610047  1
  O  O20  1  0.546499  0.329115  0.509963  1
  O  O21  1  0.953501  0.170886  0.009963  1
  O  O22  1  0.453500  0.670885  0.490037  1
  O  O23  1  0.046499  0.829115  0.990037  1
  O  O24  1  0.770277  0.204840  0.822312  1
  O  O25  1  0.016804  0.151655  0.244487  1
  O  O26  1  0.516805  0.651655  0.255513  1
  O  O27  1  0.983195  0.848345  0.755513  1
  O  O28  1  0.270277  0.704840  0.677688  1
  O  O29  1  0.229724  0.795160  0.177688  1
  O  O30  1  0.729723  0.295159  0.322312  1
  O  O31  1  0.483196  0.348345  0.744487  1
  P  P32  1  0.247871  0.629663  0.568907  1
  P  P33  1  0.252128  0.870337  0.068907  1
  P  P34  1  0.752128  0.370337  0.431093  1
  P  P35  1  0.747872  0.129663  0.931093  1
  P  P36  1  0.242328  0.836802  0.699117  1
  P  P37  1  0.742329  0.336802  0.800884  1
  P  P38  1  0.757671  0.163198  0.300883  1
  P  P39  1  0.257671  0.663198  0.199117  1
  Rb  Rb40  1  0.244054  0.542936  0.872293  1
  Rb  Rb41  1  0.755946  0.457064  0.127707  1
  Rb  Rb42  1  0.255947  0.957063  0.372293  1
  Rb  Rb43  1  0.744054  0.042937  0.627707  1
  Nb  Nb44  1  0.744784  0.826673  0.886753  1
  Nb  Nb45  1  0.755216  0.673327  0.386752  1
  Nb  Nb46  1  0.255216  0.173327  0.113248  1
  Nb  Nb47  1  0.244783  0.326673  0.613248  1
