# generated using pymatgen
data_Sr2V2O7
_symmetry_space_group_name_H-M   'P 1'
_cell_length_a   7.17932958
_cell_length_b   7.23792479
_cell_length_c   13.16761493
_cell_angle_alpha   98.87558611
_cell_angle_beta   93.57819775
_cell_angle_gamma   90.89196099
_symmetry_Int_Tables_number   1
_chemical_formula_structural   Sr2V2O7
_chemical_formula_sum   'Sr8 V8 O28'
_cell_volume   674.50323305
_cell_formula_units_Z   4
loop_
 _symmetry_equiv_pos_site_id
 _symmetry_equiv_pos_as_xyz
  1  'x, y, z'
loop_
 _atom_site_type_symbol
 _atom_site_label
 _atom_site_symmetry_multiplicity
 _atom_site_fract_x
 _atom_site_fract_y
 _atom_site_fract_z
 _atom_site_occupancy
  O  O0  1  0.692149  0.397826  0.544374  1
  O  O1  1  0.307852  0.602173  0.455626  1
  O  O2  1  0.932585  0.571135  0.712709  1
  O  O3  1  0.067415  0.428866  0.287292  1
  O  O4  1  0.696609  0.065954  0.968232  1
  O  O5  1  0.303391  0.934046  0.031768  1
  O  O6  1  0.465459  0.036820  0.787384  1
  O  O7  1  0.534541  0.963179  0.212616  1
  O  O8  1  0.991028  0.672292  0.952301  1
  O  O9  1  0.008972  0.327709  0.047699  1
  O  O10  1  0.609522  0.746165  0.662086  1
  O  O11  1  0.390478  0.253834  0.337914  1
  O  O12  1  0.302560  0.363524  0.663063  1
  O  O13  1  0.697440  0.636476  0.336937  1
  O  O14  1  0.053468  0.978403  0.852793  1
  O  O15  1  0.946532  0.021596  0.147206  1
  O  O16  1  0.009069  0.866755  0.339154  1
  O  O17  1  0.990931  0.133246  0.660846  1
  O  O18  1  0.301130  0.652402  0.170960  1
  O  O19  1  0.698869  0.347599  0.829040  1
  O  O20  1  0.926473  0.722981  0.529219  1
  O  O21  1  0.073527  0.277018  0.470780  1
  O  O22  1  0.309981  0.006794  0.554970  1
  O  O23  1  0.618150  0.683051  0.051116  1
  O  O24  1  0.696108  0.320299  0.160633  1
  O  O25  1  0.303893  0.679701  0.839367  1
  O  O26  1  0.690019  0.993205  0.445030  1
  O  O27  1  0.381850  0.316950  0.948884  1
  V  V28  1  0.834701  0.805552  0.410854  1
  V  V29  1  0.165299  0.194448  0.589146  1
  V  V30  1  0.840523  0.179628  0.083016  1
  V  V31  1  0.159477  0.820372  0.916984  1
  V  V32  1  0.556370  0.200848  0.885301  1
  V  V33  1  0.443629  0.799153  0.114699  1
  V  V34  1  0.782722  0.603871  0.610995  1
  V  V35  1  0.217278  0.396129  0.389005  1
  Sr  Sr36  1  0.746631  0.272997  0.348595  1
  Sr  Sr37  1  0.253370  0.727003  0.651405  1
  Sr  Sr38  1  0.073287  0.344141  0.845244  1
  Sr  Sr39  1  0.926713  0.655859  0.154756  1
  Sr  Sr40  1  0.670768  0.715508  0.863545  1
  Sr  Sr41  1  0.329232  0.284492  0.136455  1
  Sr  Sr42  1  0.635590  0.127177  0.636368  1
  Sr  Sr43  1  0.364410  0.872823  0.363632  1
