# generated using pymatgen
data_NaMn6P7O24
_symmetry_space_group_name_H-M   'P 1'
_cell_length_a   5.44000844
_cell_length_b   6.65253336
_cell_length_c   27.06500921
_cell_angle_alpha   90.00000000
_cell_angle_beta   90.00000000
_cell_angle_gamma   107.37521360
_symmetry_Int_Tables_number   1
_chemical_formula_structural   NaMn6P7O24
_chemical_formula_sum   'Na2 Mn12 P14 O48'
_cell_volume   934.78430820
_cell_formula_units_Z   2
loop_
 _symmetry_equiv_pos_site_id
 _symmetry_equiv_pos_as_xyz
  1  'x, y, z'
loop_
 _atom_site_type_symbol
 _atom_site_label
 _atom_site_symmetry_multiplicity
 _atom_site_fract_x
 _atom_site_fract_y
 _atom_site_fract_z
 _atom_site_occupancy
  O  O0  1  0.855123  0.631110  0.022283  1
  O  O1  1  0.144877  0.368890  0.522283  1
  O  O2  1  0.144877  0.368890  0.977717  1
  O  O3  1  0.855123  0.631110  0.477717  1
  O  O4  1  0.588357  0.824275  0.974708  1
  O  O5  1  0.411643  0.175726  0.474708  1
  O  O6  1  0.411643  0.175726  0.025292  1
  O  O7  1  0.588357  0.824275  0.525292  1
  O  O8  1  0.871170  0.003268  0.047698  1
  O  O9  1  0.128830  0.996731  0.547698  1
  O  O10  1  0.128830  0.996731  0.952302  1
  O  O11  1  0.871170  0.003268  0.452302  1
  O  O12  1  0.455858  0.711475  0.058701  1
  O  O13  1  0.544142  0.288525  0.558702  1
  O  O14  1  0.142072  0.396926  0.095028  1
  O  O15  1  0.455858  0.711475  0.441299  1
  O  O16  1  0.826356  0.210814  0.750000  1
  O  O17  1  0.173643  0.789185  0.250000  1
  O  O18  1  0.357888  0.220898  0.750000  1
  O  O19  1  0.642112  0.779103  0.250000  1
  O  O20  1  0.495543  0.933740  0.703725  1
  O  O21  1  0.504457  0.066260  0.203725  1
  O  O22  1  0.504457  0.066260  0.296275  1
  O  O23  1  0.495543  0.933740  0.796275  1
  O  O24  1  0.507286  0.611984  0.149512  1
  O  O25  1  0.492714  0.388017  0.649512  1
  O  O26  1  0.492714  0.388017  0.850488  1
  O  O27  1  0.507286  0.611984  0.350488  1
  O  O28  1  0.070019  0.946549  0.664975  1
  O  O29  1  0.929981  0.053452  0.164975  1
  O  O30  1  0.929981  0.053452  0.335025  1
  O  O31  1  0.070019  0.946549  0.835026  1
  O  O32  1  0.390091  0.791828  0.619793  1
  O  O33  1  0.609909  0.208173  0.119793  1
  O  O34  1  0.609909  0.208173  0.380207  1
  O  O35  1  0.390091  0.791828  0.880207  1
  O  O36  1  0.122778  0.599254  0.694091  1
  O  O37  1  0.877222  0.400746  0.194091  1
  O  O38  1  0.877222  0.400746  0.305909  1
  O  O39  1  0.122778  0.599254  0.805909  1
  O  O40  1  0.153159  0.765974  0.122475  1
  O  O41  1  0.846841  0.234026  0.622475  1
  O  O42  1  0.846841  0.234026  0.877525  1
  O  O43  1  0.153159  0.765974  0.377525  1
  O  O44  1  0.142072  0.396926  0.404972  1
  O  O45  1  0.857928  0.603075  0.904972  1
  O  O46  1  0.857928  0.603075  0.595028  1
  O  O47  1  0.544142  0.288525  0.941299  1
  Na  Na48  1  0.778632  0.570125  0.750000  1
  Na  Na49  1  0.221368  0.429876  0.250000  1
  P  P50  1  0.249419  0.806950  0.667913  1
  P  P51  1  0.314945  0.617244  0.390257  1
  P  P52  1  0.249419  0.806950  0.832087  1
  P  P53  1  0.750581  0.193049  0.332087  1
  P  P54  1  0.750581  0.193049  0.167913  1
  P  P55  1  0.685054  0.382755  0.890257  1
  P  P56  1  0.458380  0.913173  0.250000  1
  P  P57  1  0.541620  0.086828  0.750000  1
  P  P58  1  0.314945  0.617244  0.109743  1
  P  P59  1  0.685054  0.382755  0.609743  1
  P  P60  1  0.708298  0.794996  0.475283  1
  P  P61  1  0.291702  0.205004  0.975283  1
  P  P62  1  0.708298  0.794996  0.024717  1
  P  P63  1  0.291702  0.205004  0.524717  1
  Mn  Mn64  1  0.872831  0.720906  0.182836  1
  Mn  Mn65  1  0.127171  0.279095  0.682836  1
  Mn  Mn66  1  0.872831  0.720906  0.317164  1
  Mn  Mn67  1  0.127171  0.279095  0.817164  1
  Mn  Mn68  1  0.186630  0.685658  0.955178  1
  Mn  Mn69  1  0.813370  0.314342  0.455178  1
  Mn  Mn70  1  0.813370  0.314342  0.044822  1
  Mn  Mn71  1  0.186630  0.685658  0.544822  1
  Mn  Mn72  1  0.792029  0.912901  0.902260  1
  Mn  Mn73  1  0.207971  0.087100  0.402260  1
  Mn  Mn74  1  0.207971  0.087100  0.097740  1
  Mn  Mn75  1  0.792029  0.912901  0.597740  1
