# generated using pymatgen
data_Ba2GdNbO6
_symmetry_space_group_name_H-M   'P 1'
_cell_length_a   6.09912678
_cell_length_b   6.09912678
_cell_length_c   6.09912677
_cell_angle_alpha   59.99999998
_cell_angle_beta   59.99999999
_cell_angle_gamma   60.00000002
_symmetry_Int_Tables_number   1
_chemical_formula_structural   Ba2GdNbO6
_chemical_formula_sum   'Ba2 Gd1 Nb1 O6'
_cell_volume   160.43088671
_cell_formula_units_Z   1
loop_
 _symmetry_equiv_pos_site_id
 _symmetry_equiv_pos_as_xyz
  1  'x, y, z'
loop_
 _atom_site_type_symbol
 _atom_site_label
 _atom_site_symmetry_multiplicity
 _atom_site_fract_x
 _atom_site_fract_y
 _atom_site_fract_z
 _atom_site_occupancy
  O  O0  1  0.235692  0.764309  0.764309  1
  O  O1  1  0.235692  0.764309  0.235691  1
  O  O2  1  0.764308  0.235691  0.764310  1
  O  O3  1  0.235692  0.235691  0.764309  1
  O  O4  1  0.764308  0.235691  0.235691  1
  O  O5  1  0.764308  0.764309  0.235692  1
  Nb  Nb6  1  0.000000  0.000000  0.000000  1
  Ba  Ba7  1  0.750001  0.749999  0.749999  1
  Ba  Ba8  1  0.249999  0.250000  0.249999  1
  Gd  Gd9  1  0.500001  0.500001  0.499999  1
