# generated using pymatgen
data_NdCu2
_symmetry_space_group_name_H-M   'P 1'
_cell_length_a   4.36252278
_cell_length_b   5.58770409
_cell_length_c   5.58770409
_cell_angle_alpha   78.49018087
_cell_angle_beta   67.02259477
_cell_angle_gamma   67.02259487
_symmetry_Int_Tables_number   1
_chemical_formula_structural   NdCu2
_chemical_formula_sum   'Nd2 Cu4'
_cell_volume   115.27338788
_cell_formula_units_Z   2
loop_
 _symmetry_equiv_pos_site_id
 _symmetry_equiv_pos_as_xyz
  1  'x, y, z'
loop_
 _atom_site_type_symbol
 _atom_site_label
 _atom_site_symmetry_multiplicity
 _atom_site_fract_x
 _atom_site_fract_y
 _atom_site_fract_z
 _atom_site_occupancy
  Cu  Cu0  1  0.834531  0.117373  0.213564  1
  Cu  Cu1  1  0.165469  0.882627  0.786436  1
  Cu  Cu2  1  0.165469  0.286436  0.382627  1
  Cu  Cu3  1  0.834531  0.713564  0.617373  1
  Nd  Nd4  1  0.461932  0.288068  0.788068  1
  Nd  Nd5  1  0.538068  0.711932  0.211932  1
