# generated using pymatgen
data_KPrSiSe4
_symmetry_space_group_name_H-M   'P 1'
_cell_length_a   6.87010548
_cell_length_b   7.08219411
_cell_length_c   9.17922766
_cell_angle_alpha   90.00000000
_cell_angle_beta   107.58057452
_cell_angle_gamma   90.00000000
_symmetry_Int_Tables_number   1
_chemical_formula_structural   KPrSiSe4
_chemical_formula_sum   'K2 Pr2 Si2 Se8'
_cell_volume   425.75899730
_cell_formula_units_Z   2
loop_
 _symmetry_equiv_pos_site_id
 _symmetry_equiv_pos_as_xyz
  1  'x, y, z'
loop_
 _atom_site_type_symbol
 _atom_site_label
 _atom_site_symmetry_multiplicity
 _atom_site_fract_x
 _atom_site_fract_y
 _atom_site_fract_z
 _atom_site_occupancy
  Si  Si0  1  0.281684  0.227000  0.678927  1
  Si  Si1  1  0.718316  0.727000  0.321073  1
  K  K2  1  0.237634  0.704253  0.934923  1
  K  K3  1  0.762366  0.204253  0.065077  1
  Se  Se4  1  0.475489  0.961420  0.270173  1
  Se  Se5  1  0.914591  0.729446  0.162340  1
  Se  Se6  1  0.085409  0.229446  0.837660  1
  Se  Se7  1  0.520817  0.458565  0.286990  1
  Se  Se8  1  0.479183  0.958565  0.713010  1
  Se  Se9  1  0.911191  0.777632  0.569555  1
  Se  Se10  1  0.088809  0.277632  0.430445  1
  Se  Se11  1  0.524511  0.461420  0.729827  1
  Pr  Pr12  1  0.271275  0.693694  0.449644  1
  Pr  Pr13  1  0.728725  0.193694  0.550356  1
