# generated using pymatgen
data_KMg6P7O24
_symmetry_space_group_name_H-M   'P 1'
_cell_length_a   5.32647579
_cell_length_b   26.69473161
_cell_length_c   6.44540880
_cell_angle_alpha   90.00000000
_cell_angle_beta   107.34235590
_cell_angle_gamma   90.00000000
_symmetry_Int_Tables_number   1
_chemical_formula_structural   KMg6P7O24
_chemical_formula_sum   'K2 Mg12 P14 O48'
_cell_volume   874.80334909
_cell_formula_units_Z   2
loop_
 _symmetry_equiv_pos_site_id
 _symmetry_equiv_pos_as_xyz
  1  'x, y, z'
loop_
 _atom_site_type_symbol
 _atom_site_label
 _atom_site_symmetry_multiplicity
 _atom_site_fract_x
 _atom_site_fract_y
 _atom_site_fract_z
 _atom_site_occupancy
  K  K0  1  0.259594  0.750000  0.375313  1
  K  K1  1  0.740406  0.250000  0.624687  1
  Mg  Mg2  1  0.195036  0.903745  0.092806  1
  Mg  Mg3  1  0.804964  0.403745  0.907194  1
  Mg  Mg4  1  0.804964  0.096255  0.907194  1
  Mg  Mg5  1  0.195036  0.596255  0.092806  1
  Mg  Mg6  1  0.793997  0.950703  0.311374  1
  Mg  Mg7  1  0.206003  0.450703  0.688626  1
  Mg  Mg8  1  0.206003  0.049297  0.688626  1
  Mg  Mg9  1  0.793997  0.549297  0.311374  1
  Mg  Mg10  1  0.864127  0.817142  0.733597  1
  Mg  Mg11  1  0.135873  0.317142  0.266403  1
  Mg  Mg12  1  0.135873  0.182858  0.266403  1
  Mg  Mg13  1  0.864127  0.682858  0.733597  1
  P  P14  1  0.302220  0.890531  0.627566  1
  P  P15  1  0.697780  0.390531  0.372434  1
  P  P16  1  0.697780  0.109469  0.372434  1
  P  P17  1  0.302220  0.609469  0.627566  1
  P  P18  1  0.701574  0.975174  0.796456  1
  P  P19  1  0.298426  0.475174  0.203544  1
  P  P20  1  0.298426  0.024826  0.203544  1
  P  P21  1  0.701574  0.524826  0.796456  1
  P  P22  1  0.735268  0.832726  0.201659  1
  P  P23  1  0.264732  0.332726  0.798341  1
  P  P24  1  0.264732  0.167274  0.798341  1
  P  P25  1  0.735268  0.667274  0.201659  1
  P  P26  1  0.442916  0.750000  0.910126  1
  P  P27  1  0.557084  0.250000  0.089874  1
  O  O28  1  0.925791  0.834118  0.063490  1
  O  O29  1  0.074209  0.334118  0.936510  1
  O  O30  1  0.074209  0.165882  0.936510  1
  O  O31  1  0.925791  0.665882  0.063490  1
  O  O32  1  0.509501  0.851968  0.630143  1
  O  O33  1  0.490499  0.351968  0.369857  1
  O  O34  1  0.490499  0.148032  0.369857  1
  O  O35  1  0.509501  0.648032  0.630143  1
  O  O36  1  0.128875  0.904685  0.397379  1
  O  O37  1  0.871125  0.404685  0.602621  1
  O  O38  1  0.871125  0.095315  0.602621  1
  O  O39  1  0.128875  0.595315  0.397379  1
  O  O40  1  0.593215  0.027223  0.825292  1
  O  O41  1  0.406785  0.527223  0.174708  1
  O  O42  1  0.406785  0.972777  0.174708  1
  O  O43  1  0.593215  0.472777  0.825292  1
  O  O44  1  0.589863  0.881823  0.208079  1
  O  O45  1  0.410137  0.381823  0.791921  1
  O  O46  1  0.410137  0.118177  0.791921  1
  O  O47  1  0.589863  0.618177  0.208079  1
  O  O48  1  0.849729  0.806762  0.417874  1
  O  O49  1  0.150271  0.306762  0.582126  1
  O  O50  1  0.150271  0.193238  0.582126  1
  O  O51  1  0.849729  0.693238  0.417874  1
  O  O52  1  0.641393  0.750000  0.782100  1
  O  O53  1  0.358607  0.250000  0.217900  1
  O  O54  1  0.433215  0.943050  0.726024  1
  O  O55  1  0.566785  0.443050  0.273976  1
  O  O56  1  0.566785  0.056950  0.273976  1
  O  O57  1  0.433215  0.556950  0.726024  1
  O  O58  1  0.485583  0.796816  0.067790  1
  O  O59  1  0.514417  0.296816  0.932210  1
  O  O60  1  0.514417  0.203184  0.932210  1
  O  O61  1  0.485583  0.703184  0.067790  1
  O  O62  1  0.837830  0.973952  0.619470  1
  O  O63  1  0.162170  0.473952  0.380530  1
  O  O64  1  0.162170  0.026048  0.380530  1
  O  O65  1  0.837830  0.526048  0.619470  1
  O  O66  1  0.869974  0.952175  0.012353  1
  O  O67  1  0.130026  0.452175  0.987647  1
  O  O68  1  0.130026  0.047825  0.987647  1
  O  O69  1  0.869974  0.547825  0.012353  1
  O  O70  1  0.152397  0.750000  0.786617  1
  O  O71  1  0.847603  0.250000  0.213383  1
  O  O72  1  0.134331  0.876445  0.777551  1
  O  O73  1  0.865669  0.376445  0.222449  1
  O  O74  1  0.865669  0.123555  0.222449  1
  O  O75  1  0.134331  0.623555  0.777551  1
