# generated using pymatgen
data_ErVO3
_symmetry_space_group_name_H-M   'P 1'
_cell_length_a   5.29127591
_cell_length_b   5.71876636
_cell_length_c   7.61360023
_cell_angle_alpha   90.00000000
_cell_angle_beta   90.00000000
_cell_angle_gamma   90.00000000
_symmetry_Int_Tables_number   1
_chemical_formula_structural   ErVO3
_chemical_formula_sum   'Er4 V4 O12'
_cell_volume   230.38427426
_cell_formula_units_Z   4
loop_
 _symmetry_equiv_pos_site_id
 _symmetry_equiv_pos_as_xyz
  1  'x, y, z'
loop_
 _atom_site_type_symbol
 _atom_site_label
 _atom_site_symmetry_multiplicity
 _atom_site_fract_x
 _atom_site_fract_y
 _atom_site_fract_z
 _atom_site_occupancy
  O  O0  1  0.693241  0.312130  0.437953  1
  O  O1  1  0.193242  0.187871  0.562046  1
  O  O2  1  0.806760  0.812129  0.062046  1
  O  O3  1  0.306760  0.687871  0.937953  1
  O  O4  1  0.306760  0.687871  0.562046  1
  O  O5  1  0.806760  0.812129  0.437953  1
  O  O6  1  0.193242  0.187871  0.937953  1
  O  O7  1  0.693241  0.312130  0.062046  1
  O  O8  1  0.123870  0.450636  0.249999  1
  O  O9  1  0.623870  0.049365  0.750000  1
  O  O10  1  0.876129  0.549364  0.750000  1
  O  O11  1  0.376129  0.950635  0.249999  1
  V  V12  1  0.000000  0.499999  0.500000  1
  V  V13  1  0.500000  0.000000  0.500000  1
  V  V14  1  0.500000  0.000000  0.000000  1
  V  V15  1  0.000000  0.499999  0.000000  1
  Er  Er16  1  0.478003  0.428033  0.750000  1
  Er  Er17  1  0.978003  0.071966  0.249999  1
  Er  Er18  1  0.021997  0.928034  0.750000  1
  Er  Er19  1  0.521996  0.571965  0.249999  1
