# generated using pymatgen
data_Mn5(SiO4)3
_symmetry_space_group_name_H-M   'P 1'
_cell_length_a   10.38322801
_cell_length_b   10.38322801
_cell_length_c   10.38322801
_cell_angle_alpha   109.47122062
_cell_angle_beta   109.47122061
_cell_angle_gamma   109.47122063
_symmetry_Int_Tables_number   1
_chemical_formula_structural   Mn5(SiO4)3
_chemical_formula_sum   'Mn20 Si12 O48'
_cell_volume   861.73807519
_cell_formula_units_Z   4
loop_
 _symmetry_equiv_pos_site_id
 _symmetry_equiv_pos_as_xyz
  1  'x, y, z'
loop_
 _atom_site_type_symbol
 _atom_site_label
 _atom_site_symmetry_multiplicity
 _atom_site_fract_x
 _atom_site_fract_y
 _atom_site_fract_z
 _atom_site_occupancy
  O  O0  1  0.711299  0.694018  0.088809  1
  O  O1  1  0.694018  0.105209  0.982719  1
  O  O2  1  0.622490  0.711299  0.517281  1
  O  O3  1  0.517281  0.622490  0.711299  1
  O  O4  1  0.088809  0.877510  0.394791  1
  O  O5  1  0.394791  0.088809  0.877510  1
  O  O6  1  0.105209  0.982719  0.694018  1
  O  O7  1  0.622490  0.411191  0.105209  1
  O  O8  1  0.517281  0.394791  0.805982  1
  O  O9  1  0.877510  0.982719  0.788701  1
  O  O10  1  0.411191  0.105209  0.622490  1
  O  O11  1  0.805982  0.517281  0.394791  1
  O  O12  1  0.982719  0.788701  0.877510  1
  O  O13  1  0.088809  0.711299  0.694018  1
  O  O14  1  0.694018  0.088809  0.711299  1
  O  O15  1  0.105209  0.622490  0.411191  1
  O  O16  1  0.805982  0.788701  0.411191  1
  O  O17  1  0.394791  0.805982  0.517281  1
  O  O18  1  0.411191  0.805982  0.788701  1
  O  O19  1  0.788701  0.877510  0.982719  1
  O  O20  1  0.788701  0.411191  0.805982  1
  O  O21  1  0.877510  0.394791  0.088809  1
  O  O22  1  0.982719  0.694018  0.105209  1
  O  O23  1  0.711299  0.517281  0.622490  1
  O  O24  1  0.288701  0.305982  0.911191  1
  O  O25  1  0.305982  0.894791  0.017281  1
  O  O26  1  0.377510  0.288701  0.482719  1
  O  O27  1  0.482719  0.377510  0.288701  1
  O  O28  1  0.911191  0.122490  0.605209  1
  O  O29  1  0.605209  0.911191  0.122490  1
  O  O30  1  0.894791  0.017281  0.305982  1
  O  O31  1  0.377510  0.588809  0.894791  1
  O  O32  1  0.482719  0.605209  0.194018  1
  O  O33  1  0.122490  0.017281  0.211299  1
  O  O34  1  0.588809  0.894791  0.377510  1
  O  O35  1  0.194018  0.482719  0.605209  1
  O  O36  1  0.017281  0.211299  0.122490  1
  O  O37  1  0.911191  0.288701  0.305982  1
  O  O38  1  0.305982  0.911191  0.288701  1
  O  O39  1  0.894791  0.377510  0.588809  1
  O  O40  1  0.194018  0.211299  0.588809  1
  O  O41  1  0.605209  0.194018  0.482719  1
  O  O42  1  0.588809  0.194018  0.211299  1
  O  O43  1  0.211299  0.122490  0.017281  1
  O  O44  1  0.211299  0.588809  0.194018  1
  O  O45  1  0.122490  0.605209  0.911191  1
  O  O46  1  0.017281  0.305982  0.894791  1
  O  O47  1  0.288701  0.482719  0.377510  1
  Si  Si48  1  0.250000  0.125000  0.875000  1
  Si  Si49  1  0.750000  0.875000  0.125000  1
  Si  Si50  1  0.375000  0.250000  0.625000  1
  Si  Si51  1  0.625000  0.375000  0.250000  1
  Si  Si52  1  0.125000  0.750000  0.875000  1
  Si  Si53  1  0.875000  0.125000  0.750000  1
  Si  Si54  1  0.750000  0.375000  0.625000  1
  Si  Si55  1  0.375000  0.625000  0.750000  1
  Si  Si56  1  0.125000  0.875000  0.250000  1
  Si  Si57  1  0.875000  0.250000  0.125000  1
  Si  Si58  1  0.625000  0.750000  0.375000  1
  Si  Si59  1  0.250000  0.625000  0.375000  1
  Mn  Mn60  1  0.000000  0.000000  0.000000  1
  Mn  Mn61  1  0.000000  0.500000  0.000000  1
  Mn  Mn62  1  0.000000  0.000000  0.500000  1
  Mn  Mn63  1  0.500000  0.000000  0.000000  1
  Mn  Mn64  1  0.000000  0.500000  0.500000  1
  Mn  Mn65  1  0.500000  0.000000  0.500000  1
  Mn  Mn66  1  0.500000  0.500000  0.000000  1
  Mn  Mn67  1  0.500000  0.500000  0.500000  1
  Mn  Mn68  1  0.625000  0.250000  0.875000  1
  Mn  Mn69  1  0.875000  0.750000  0.625000  1
  Mn  Mn70  1  0.750000  0.625000  0.875000  1
  Mn  Mn71  1  0.250000  0.875000  0.625000  1
  Mn  Mn72  1  0.875000  0.625000  0.250000  1
  Mn  Mn73  1  0.625000  0.875000  0.750000  1
  Mn  Mn74  1  0.375000  0.750000  0.125000  1
  Mn  Mn75  1  0.125000  0.250000  0.375000  1
  Mn  Mn76  1  0.250000  0.375000  0.125000  1
  Mn  Mn77  1  0.750000  0.125000  0.375000  1
  Mn  Mn78  1  0.125000  0.375000  0.750000  1
  Mn  Mn79  1  0.375000  0.125000  0.250000  1
