# generated using pymatgen
data_Sr3Sn2O7
_symmetry_space_group_name_H-M   'P 1'
_cell_length_a   5.80140261
_cell_length_b   5.88769114
_cell_length_c   10.76449123
_cell_angle_alpha   105.87130042
_cell_angle_beta   90.00000000
_cell_angle_gamma   90.00000000
_symmetry_Int_Tables_number   1
_chemical_formula_structural   Sr3Sn2O7
_chemical_formula_sum   'Sr6 Sn4 O14'
_cell_volume   353.66469916
_cell_formula_units_Z   2
loop_
 _symmetry_equiv_pos_site_id
 _symmetry_equiv_pos_as_xyz
  1  'x, y, z'
loop_
 _atom_site_type_symbol
 _atom_site_label
 _atom_site_symmetry_multiplicity
 _atom_site_fract_x
 _atom_site_fract_y
 _atom_site_fract_z
 _atom_site_occupancy
  O  O0  1  0.000000  0.082462  0.164923  1
  O  O1  1  0.500000  0.917538  0.835077  1
  O  O2  1  0.000000  0.917538  0.835077  1
  O  O3  1  0.500000  0.082462  0.164923  1
  O  O4  1  0.500000  0.386610  0.773220  1
  O  O5  1  0.000000  0.613390  0.226780  1
  O  O6  1  0.500000  0.613390  0.226780  1
  O  O7  1  0.000000  0.386610  0.773220  1
  O  O8  1  0.250000  0.386389  0.394509  1
  O  O9  1  0.750000  0.613611  0.605491  1
  O  O10  1  0.750000  0.673611  0.000000  1
  O  O11  1  0.250000  0.326389  0.000000  1
  O  O12  1  0.750000  0.008120  0.394509  1
  O  O13  1  0.250000  0.991880  0.605491  1
  Sr  Sr14  1  0.750000  0.242941  0.000000  1
  Sr  Sr15  1  0.250000  0.757059  0.000000  1
  Sr  Sr16  1  0.750000  0.424664  0.374485  1
  Sr  Sr17  1  0.250000  0.575336  0.625515  1
  Sr  Sr18  1  0.250000  0.949821  0.374485  1
  Sr  Sr19  1  0.750000  0.050179  0.625515  1
  Sn  Sn20  1  0.750000  0.847053  0.197563  1
  Sn  Sn21  1  0.250000  0.152947  0.802437  1
  Sn  Sn22  1  0.750000  0.649490  0.802437  1
  Sn  Sn23  1  0.250000  0.350510  0.197563  1
