# generated using pymatgen
data_SiO2
_symmetry_space_group_name_H-M   'P 1'
_cell_length_a   9.35252535
_cell_length_b   9.35252535
_cell_length_c   9.35252535
_cell_angle_alpha   94.23052702
_cell_angle_beta   94.23052701
_cell_angle_gamma   94.23052705
_symmetry_Int_Tables_number   1
_chemical_formula_structural   SiO2
_chemical_formula_sum   'Si12 O24'
_cell_volume   811.02641702
_cell_formula_units_Z   12
loop_
 _symmetry_equiv_pos_site_id
 _symmetry_equiv_pos_as_xyz
  1  'x, y, z'
loop_
 _atom_site_type_symbol
 _atom_site_label
 _atom_site_symmetry_multiplicity
 _atom_site_fract_x
 _atom_site_fract_y
 _atom_site_fract_z
 _atom_site_occupancy
  O  O0  1  0.263059  0.000000  0.736941  1
  O  O1  1  0.000000  0.736941  0.263059  1
  O  O2  1  0.736941  0.263059  0.000000  1
  O  O3  1  0.736941  0.000000  0.263059  1
  O  O4  1  0.000000  0.263059  0.736941  1
  O  O5  1  0.263059  0.736941  0.000000  1
  O  O6  1  0.680901  0.977624  0.977624  1
  O  O7  1  0.977624  0.977624  0.680901  1
  O  O8  1  0.977624  0.680901  0.977624  1
  O  O9  1  0.022376  0.022376  0.319099  1
  O  O10  1  0.022376  0.319099  0.022376  1
  O  O11  1  0.319099  0.022376  0.022376  1
  O  O12  1  0.250861  0.890310  0.250861  1
  O  O13  1  0.250861  0.250861  0.890310  1
  O  O14  1  0.890310  0.250861  0.250861  1
  O  O15  1  0.109690  0.749139  0.749139  1
  O  O16  1  0.749139  0.109690  0.749139  1
  O  O17  1  0.749139  0.749139  0.109690  1
  O  O18  1  0.500000  0.852157  0.147843  1
  O  O19  1  0.147843  0.500000  0.852157  1
  O  O20  1  0.852157  0.147843  0.500000  1
  O  O21  1  0.500000  0.147843  0.852157  1
  O  O22  1  0.852157  0.500000  0.147843  1
  O  O23  1  0.147843  0.852157  0.500000  1
  Si  Si24  1  0.332881  0.104431  0.875507  1
  Si  Si25  1  0.104431  0.875507  0.332881  1
  Si  Si26  1  0.875507  0.332881  0.104431  1
  Si  Si27  1  0.124493  0.895569  0.667119  1
  Si  Si28  1  0.895569  0.667119  0.124493  1
  Si  Si29  1  0.667119  0.124493  0.895569  1
  Si  Si30  1  0.667119  0.895569  0.124493  1
  Si  Si31  1  0.895569  0.124493  0.667119  1
  Si  Si32  1  0.124493  0.667119  0.895569  1
  Si  Si33  1  0.875507  0.104431  0.332881  1
  Si  Si34  1  0.104431  0.332881  0.875507  1
  Si  Si35  1  0.332881  0.875507  0.104431  1
