# generated using pymatgen
data_LaCd(BO2)5
_symmetry_space_group_name_H-M   'P 1'
_cell_length_a   7.98793560
_cell_length_b   8.88334383
_cell_length_c   9.70770654
_cell_angle_alpha   91.01547699
_cell_angle_beta   90.00000000
_cell_angle_gamma   90.00000000
_symmetry_Int_Tables_number   1
_chemical_formula_structural   LaCd(BO2)5
_chemical_formula_sum   'La4 Cd4 B20 O40'
_cell_volume   688.74657513
_cell_formula_units_Z   4
loop_
 _symmetry_equiv_pos_site_id
 _symmetry_equiv_pos_as_xyz
  1  'x, y, z'
loop_
 _atom_site_type_symbol
 _atom_site_label
 _atom_site_symmetry_multiplicity
 _atom_site_fract_x
 _atom_site_fract_y
 _atom_site_fract_z
 _atom_site_occupancy
  B  B0  1  0.421585  0.084026  0.745196  1
  B  B1  1  0.826144  0.567403  0.092747  1
  B  B2  1  0.326144  0.932597  0.407253  1
  B  B3  1  0.173856  0.432597  0.907253  1
  B  B4  1  0.673856  0.067403  0.592747  1
  B  B5  1  0.104777  0.648632  0.502711  1
  B  B6  1  0.604777  0.851368  0.997289  1
  B  B7  1  0.895223  0.351368  0.497289  1
  B  B8  1  0.395223  0.148632  0.002711  1
  B  B9  1  0.921585  0.415974  0.754804  1
  B  B10  1  0.578415  0.915974  0.254804  1
  B  B11  1  0.078415  0.584026  0.245196  1
  B  B12  1  0.673179  0.515410  0.599623  1
  B  B13  1  0.173179  0.984590  0.900377  1
  B  B14  1  0.326821  0.484590  0.400377  1
  B  B15  1  0.826821  0.015410  0.099623  1
  B  B16  1  0.470396  0.282053  0.557523  1
  B  B17  1  0.970396  0.217947  0.942477  1
  B  B18  1  0.529604  0.717947  0.442477  1
  B  B19  1  0.029604  0.782053  0.057523  1
  O  O20  1  0.787081  0.528386  0.724603  1
  O  O21  1  0.328860  0.501098  0.921629  1
  O  O22  1  0.828860  0.998902  0.578371  1
  O  O23  1  0.671140  0.498902  0.078371  1
  O  O24  1  0.171140  0.001098  0.421629  1
  O  O25  1  0.555508  0.764394  0.887550  1
  O  O26  1  0.055508  0.735606  0.612450  1
  O  O27  1  0.444492  0.235606  0.112450  1
  O  O28  1  0.287081  0.971614  0.775397  1
  O  O29  1  0.944492  0.264394  0.387550  1
  O  O30  1  0.712919  0.028386  0.224603  1
  O  O31  1  0.212919  0.471614  0.275397  1
  O  O32  1  0.465225  0.166799  0.874740  1
  O  O33  1  0.965225  0.333201  0.625260  1
  O  O34  1  0.534775  0.833201  0.125260  1
  O  O35  1  0.034775  0.666799  0.374740  1
  O  O36  1  0.575223  0.008103  0.695691  1
  O  O37  1  0.075223  0.491897  0.804309  1
  O  O38  1  0.424777  0.991897  0.304309  1
  O  O39  1  0.924777  0.508103  0.195691  1
  O  O40  1  0.359704  0.191253  0.642937  1
  O  O41  1  0.859704  0.308747  0.857063  1
  O  O42  1  0.640296  0.808747  0.357063  1
  O  O43  1  0.140296  0.691253  0.142937  1
  O  O44  1  0.531941  0.415600  0.638755  1
  O  O45  1  0.031941  0.084400  0.861245  1
  O  O46  1  0.468059  0.584400  0.361245  1
  O  O47  1  0.968059  0.915600  0.138755  1
  O  O48  1  0.609415  0.670657  0.575826  1
  O  O49  1  0.109415  0.829343  0.924174  1
  O  O50  1  0.390585  0.329343  0.424174  1
  O  O51  1  0.880437  0.685615  0.014329  1
  O  O52  1  0.767793  0.456225  0.480058  1
  O  O53  1  0.267793  0.043775  0.019942  1
  O  O54  1  0.232207  0.543775  0.519942  1
  O  O55  1  0.732207  0.956225  0.980058  1
  O  O56  1  0.619563  0.185615  0.514329  1
  O  O57  1  0.119563  0.314385  0.985671  1
  O  O58  1  0.380437  0.814385  0.485671  1
  O  O59  1  0.890585  0.170657  0.075826  1
  Cd  Cd60  1  0.591026  0.390535  0.875952  1
  Cd  Cd61  1  0.091026  0.109465  0.624048  1
  Cd  Cd62  1  0.408974  0.609465  0.124048  1
  Cd  Cd63  1  0.908974  0.890535  0.375952  1
  La  La64  1  0.822640  0.807126  0.764992  1
  La  La65  1  0.322640  0.692874  0.735008  1
  La  La66  1  0.177360  0.192874  0.235008  1
  La  La67  1  0.677360  0.307126  0.264992  1
