# generated using pymatgen
data_SnWO4
_symmetry_space_group_name_H-M   'P 1'
_cell_length_a   5.06173038
_cell_length_b   5.62962424
_cell_length_c   12.05665926
_cell_angle_alpha   90.00000000
_cell_angle_beta   90.00000000
_cell_angle_gamma   90.00000000
_symmetry_Int_Tables_number   1
_chemical_formula_structural   SnWO4
_chemical_formula_sum   'Sn4 W4 O16'
_cell_volume   343.56222240
_cell_formula_units_Z   4
loop_
 _symmetry_equiv_pos_site_id
 _symmetry_equiv_pos_as_xyz
  1  'x, y, z'
loop_
 _atom_site_type_symbol
 _atom_site_label
 _atom_site_symmetry_multiplicity
 _atom_site_fract_x
 _atom_site_fract_y
 _atom_site_fract_z
 _atom_site_occupancy
  O  O0  1  0.103360  0.598933  0.103511  1
  O  O1  1  0.103360  0.901067  0.896488  1
  O  O2  1  0.396641  0.598933  0.396489  1
  O  O3  1  0.396641  0.901067  0.603511  1
  O  O4  1  0.896639  0.401066  0.896488  1
  O  O5  1  0.896639  0.098934  0.103511  1
  O  O6  1  0.603361  0.401066  0.603511  1
  O  O7  1  0.603361  0.098934  0.396489  1
  O  O8  1  0.001666  0.364637  0.295257  1
  O  O9  1  0.001666  0.135362  0.704743  1
  O  O10  1  0.498335  0.364637  0.204743  1
  O  O11  1  0.498335  0.135362  0.795257  1
  O  O12  1  0.501665  0.864638  0.204743  1
  O  O13  1  0.998334  0.864638  0.295257  1
  O  O14  1  0.501665  0.635362  0.795257  1
  O  O15  1  0.998334  0.635362  0.704743  1
  Sn  Sn16  1  0.215920  0.249999  0.000000  1
  Sn  Sn17  1  0.284081  0.249999  0.500000  1
  Sn  Sn18  1  0.784080  0.750000  0.000000  1
  Sn  Sn19  1  0.715921  0.750000  0.500000  1
  W  W20  1  0.249999  0.635684  0.250000  1
  W  W21  1  0.249999  0.864316  0.750000  1
  W  W22  1  0.750000  0.364317  0.750000  1
  W  W23  1  0.750000  0.135683  0.250000  1
