# generated using pymatgen
data_Ba4TiAs4
_symmetry_space_group_name_H-M   'P 1'
_cell_length_a   13.60651098
_cell_length_b   13.60651098
_cell_length_c   13.60651098
_cell_angle_alpha   90.00000000
_cell_angle_beta   90.00000000
_cell_angle_gamma   90.00000000
_symmetry_Int_Tables_number   1
_chemical_formula_structural   Ba4TiAs4
_chemical_formula_sum   'Ba32 Ti8 As32'
_cell_volume   2519.07054249
_cell_formula_units_Z   8
loop_
 _symmetry_equiv_pos_site_id
 _symmetry_equiv_pos_as_xyz
  1  'x, y, z'
loop_
 _atom_site_type_symbol
 _atom_site_label
 _atom_site_symmetry_multiplicity
 _atom_site_fract_x
 _atom_site_fract_y
 _atom_site_fract_z
 _atom_site_occupancy
  Ti  Ti0  1  0.000000  0.000000  0.000000  1
  Ti  Ti1  1  0.750000  0.000000  0.500000  1
  Ti  Ti2  1  0.500000  0.750000  0.000000  1
  Ti  Ti3  1  0.500000  0.250000  0.000000  1
  Ti  Ti4  1  0.000000  0.500000  0.250000  1
  Ti  Ti5  1  0.000000  0.500000  0.750000  1
  Ti  Ti6  1  0.250000  0.000000  0.500000  1
  Ti  Ti7  1  0.500000  0.500000  0.500000  1
  As  As8  1  0.604780  0.851356  0.111519  1
  As  As9  1  0.648644  0.104780  0.388481  1
  As  As10  1  0.895220  0.611519  0.648644  1
  As  As11  1  0.104780  0.611519  0.351356  1
  As  As12  1  0.611519  0.648644  0.895220  1
  As  As13  1  0.388481  0.351356  0.895220  1
  As  As14  1  0.851356  0.888481  0.395220  1
  As  As15  1  0.851356  0.111519  0.604780  1
  As  As16  1  0.148644  0.888481  0.604780  1
  As  As17  1  0.394193  0.394193  0.394193  1
  As  As18  1  0.604780  0.148644  0.888481  1
  As  As19  1  0.648644  0.895220  0.611519  1
  As  As20  1  0.888481  0.395220  0.851356  1
  As  As21  1  0.395220  0.851356  0.888481  1
  As  As22  1  0.888481  0.604780  0.148644  1
  As  As23  1  0.111519  0.395220  0.148644  1
  As  As24  1  0.395220  0.148644  0.111519  1
  As  As25  1  0.388481  0.648644  0.104780  1
  As  As26  1  0.611519  0.351356  0.104780  1
  As  As27  1  0.895220  0.388481  0.351356  1
  As  As28  1  0.104780  0.388481  0.648644  1
  As  As29  1  0.351356  0.104780  0.611519  1
  As  As30  1  0.351356  0.895220  0.388481  1
  As  As31  1  0.148644  0.111519  0.395220  1
  As  As32  1  0.105807  0.894193  0.105807  1
  As  As33  1  0.105807  0.105807  0.894193  1
  As  As34  1  0.894193  0.105807  0.105807  1
  As  As35  1  0.605807  0.605807  0.394193  1
  As  As36  1  0.394193  0.605807  0.605807  1
  As  As37  1  0.605807  0.394193  0.605807  1
  As  As38  1  0.894193  0.894193  0.894193  1
  As  As39  1  0.111519  0.604780  0.851356  1
  Ba  Ba40  1  0.148357  0.148357  0.148357  1
  Ba  Ba41  1  0.351643  0.648357  0.351643  1
  Ba  Ba42  1  0.648357  0.351643  0.351643  1
  Ba  Ba43  1  0.351643  0.351643  0.648357  1
  Ba  Ba44  1  0.148357  0.851643  0.851643  1
  Ba  Ba45  1  0.851643  0.851643  0.148357  1
  Ba  Ba46  1  0.851643  0.148357  0.851643  1
  Ba  Ba47  1  0.648357  0.648357  0.648357  1
  Ba  Ba48  1  0.907289  0.863572  0.648235  1
  Ba  Ba49  1  0.907289  0.136428  0.351765  1
  Ba  Ba50  1  0.863572  0.648235  0.907289  1
  Ba  Ba51  1  0.136428  0.648235  0.092711  1
  Ba  Ba52  1  0.648235  0.907289  0.863572  1
  Ba  Ba53  1  0.351765  0.092711  0.863572  1
  Ba  Ba54  1  0.592711  0.851765  0.363572  1
  Ba  Ba55  1  0.592711  0.148235  0.636428  1
  Ba  Ba56  1  0.407289  0.851765  0.636428  1
  Ba  Ba57  1  0.148235  0.636428  0.592711  1
  Ba  Ba58  1  0.636428  0.407289  0.851765  1
  Ba  Ba59  1  0.636428  0.592711  0.148235  1
  Ba  Ba60  1  0.851765  0.363572  0.592711  1
  Ba  Ba61  1  0.363572  0.592711  0.851765  1
  Ba  Ba62  1  0.851765  0.636428  0.407289  1
  Ba  Ba63  1  0.148235  0.363572  0.407289  1
  Ba  Ba64  1  0.363572  0.407289  0.148235  1
  Ba  Ba65  1  0.351765  0.907289  0.136428  1
  Ba  Ba66  1  0.648235  0.092711  0.136428  1
  Ba  Ba67  1  0.863572  0.351765  0.092711  1
  Ba  Ba68  1  0.136428  0.351765  0.907289  1
  Ba  Ba69  1  0.092711  0.136428  0.648235  1
  Ba  Ba70  1  0.092711  0.863572  0.351765  1
  Ba  Ba71  1  0.407289  0.148235  0.363572  1
