# generated using pymatgen
data_Rb2B2Se7
_symmetry_space_group_name_H-M   'P 1'
_cell_length_a   7.52261927
_cell_length_b   9.01827767
_cell_length_c   11.57354526
_cell_angle_alpha   77.66817633
_cell_angle_beta   71.03490958
_cell_angle_gamma   65.34986253
_symmetry_Int_Tables_number   1
_chemical_formula_structural   Rb2B2Se7
_chemical_formula_sum   'Rb4 B4 Se14'
_cell_volume   672.08752332
_cell_formula_units_Z   2
loop_
 _symmetry_equiv_pos_site_id
 _symmetry_equiv_pos_as_xyz
  1  'x, y, z'
loop_
 _atom_site_type_symbol
 _atom_site_label
 _atom_site_symmetry_multiplicity
 _atom_site_fract_x
 _atom_site_fract_y
 _atom_site_fract_z
 _atom_site_occupancy
  B  B0  1  0.614969  0.882120  0.349109  1
  B  B1  1  0.846197  0.617880  0.150891  1
  B  B2  1  0.385031  0.117880  0.650891  1
  B  B3  1  0.153803  0.382120  0.849109  1
  Se  Se4  1  0.167445  0.247600  0.015467  1
  Se  Se5  1  0.430513  0.252400  0.484533  1
  Se  Se6  1  0.832554  0.752400  0.984533  1
  Se  Se7  1  0.569487  0.747600  0.515467  1
  Se  Se8  1  0.146645  0.615112  0.836378  1
  Se  Se9  1  0.598134  0.884888  0.663622  1
  Se  Se10  1  0.853355  0.384888  0.163622  1
  Se  Se11  1  0.401866  0.115112  0.336378  1
  Se  Se12  1  0.937996  0.390377  0.772091  1
  Se  Se13  1  0.100464  0.109623  0.727909  1
  Se  Se14  1  0.062004  0.609623  0.227909  1
  Se  Se15  1  0.899536  0.890377  0.272091  1
  Se  Se16  1  0.446373  0.250000  0.750000  1
  Se  Se17  1  0.553627  0.750000  0.250000  1
  Rb  Rb18  1  0.118702  0.684328  0.523606  1
  Rb  Rb19  1  0.326637  0.815672  0.976394  1
  Rb  Rb20  1  0.881298  0.315672  0.476394  1
  Rb  Rb21  1  0.673363  0.184328  0.023606  1
