# generated using pymatgen
data_Mo3W(SeS3)2
_symmetry_space_group_name_H-M   'P 1'
_cell_length_a   3.22109747
_cell_length_b   3.22109537
_cell_length_c   36.30738842
_cell_angle_alpha   90.00012473
_cell_angle_beta   90.00000000
_cell_angle_gamma   120.00002151
_symmetry_Int_Tables_number   1
_chemical_formula_structural   Mo3W(SeS3)2
_chemical_formula_sum   'Mo3 W1 Se2 S6'
_cell_volume   326.23683762
_cell_formula_units_Z   1
loop_
 _symmetry_equiv_pos_site_id
 _symmetry_equiv_pos_as_xyz
  1  'x, y, z'
loop_
 _atom_site_type_symbol
 _atom_site_label
 _atom_site_symmetry_multiplicity
 _atom_site_fract_x
 _atom_site_fract_y
 _atom_site_fract_z
 _atom_site_occupancy
  Mo  Mo0  1  0.333309  0.666618  0.093909  1
  Mo  Mo1  1  0.333308  0.666615  0.469648  1
  Mo  Mo2  1  0.666691  0.333381  0.281807  1
  W  W3  1  0.666691  0.333381  0.657540  1
  Se  Se4  1  0.666645  0.333289  0.046803  1
  Se  Se5  1  0.666647  0.333294  0.141016  1
  S  S6  1  0.333357  0.666715  0.324580  1
  S  S7  1  0.333353  0.666708  0.700517  1
  S  S8  1  0.666646  0.333291  0.426889  1
  S  S9  1  0.666646  0.333292  0.512438  1
  S  S10  1  0.333354  0.666709  0.239036  1
  S  S11  1  0.333354  0.666708  0.614565  1
