# generated using pymatgen
data_NaSr(PO3)3
_symmetry_space_group_name_H-M   'P 1'
_cell_length_a   6.90574333
_cell_length_b   7.25808161
_cell_length_c   7.84549483
_cell_angle_alpha   83.82804295
_cell_angle_beta   80.50899571
_cell_angle_gamma   82.77006199
_symmetry_Int_Tables_number   1
_chemical_formula_structural   NaSr(PO3)3
_chemical_formula_sum   'Na2 Sr2 P6 O18'
_cell_volume   383.25324694
_cell_formula_units_Z   2
loop_
 _symmetry_equiv_pos_site_id
 _symmetry_equiv_pos_as_xyz
  1  'x, y, z'
loop_
 _atom_site_type_symbol
 _atom_site_label
 _atom_site_symmetry_multiplicity
 _atom_site_fract_x
 _atom_site_fract_y
 _atom_site_fract_z
 _atom_site_occupancy
  Na  Na0  1  0.465635  0.368664  0.342309  1
  Na  Na1  1  0.534365  0.631336  0.657691  1
  Sr  Sr2  1  0.011244  0.732350  0.643134  1
  Sr  Sr3  1  0.988756  0.267650  0.356866  1
  P  P4  1  0.834030  0.789231  0.271644  1
  P  P5  1  0.165970  0.210769  0.728356  1
  P  P6  1  0.798656  0.335632  0.943287  1
  P  P7  1  0.201344  0.664368  0.056713  1
  P  P8  1  0.602875  0.120105  0.724772  1
  P  P9  1  0.397125  0.879895  0.275228  1
  O  O10  1  0.087988  0.055323  0.657552  1
  O  O11  1  0.912012  0.944677  0.342448  1
  O  O12  1  0.368535  0.147274  0.801293  1
  O  O13  1  0.631465  0.852726  0.198707  1
  O  O14  1  0.178768  0.384602  0.602916  1
  O  O15  1  0.821232  0.615398  0.397084  1
  O  O16  1  0.031681  0.253076  0.912165  1
  O  O17  1  0.968319  0.746924  0.087835  1
  O  O18  1  0.749132  0.342610  0.135915  1
  O  O19  1  0.250868  0.657390  0.864085  1
  O  O20  1  0.771841  0.508737  0.823122  1
  O  O21  1  0.228159  0.491263  0.176878  1
  O  O22  1  0.687454  0.170899  0.892724  1
  O  O23  1  0.312546  0.829101  0.107276  1
  O  O24  1  0.646807  0.263993  0.574049  1
  O  O25  1  0.353193  0.736007  0.425951  1
  O  O26  1  0.662612  0.917525  0.703949  1
  O  O27  1  0.337388  0.082475  0.296051  1
