# generated using pymatgen
data_MoWSeS3
_symmetry_space_group_name_H-M   'P 1'
_cell_length_a   3.22219326
_cell_length_b   3.22217609
_cell_length_c   36.34504314
_cell_angle_alpha   90.00026267
_cell_angle_beta   90.00000000
_cell_angle_gamma   120.00017630
_symmetry_Int_Tables_number   1
_chemical_formula_structural   MoWSeS3
_chemical_formula_sum   'Mo2 W2 Se2 S6'
_cell_volume   326.79537693
_cell_formula_units_Z   2
loop_
 _symmetry_equiv_pos_site_id
 _symmetry_equiv_pos_as_xyz
  1  'x, y, z'
loop_
 _atom_site_type_symbol
 _atom_site_label
 _atom_site_symmetry_multiplicity
 _atom_site_fract_x
 _atom_site_fract_y
 _atom_site_fract_z
 _atom_site_occupancy
  Mo  Mo0  1  0.333305  0.666609  0.093906  1
  Mo  Mo1  1  0.333312  0.666624  0.469650  1
  W  W2  1  0.666690  0.333381  0.281807  1
  W  W3  1  0.666689  0.333379  0.657554  1
  Se  Se4  1  0.333352  0.666705  0.704867  1
  Se  Se5  1  0.333352  0.666705  0.610262  1
  S  S6  1  0.333358  0.666717  0.324690  1
  S  S7  1  0.666647  0.333293  0.051189  1
  S  S8  1  0.666647  0.333293  0.426959  1
  S  S9  1  0.666648  0.333294  0.136627  1
  S  S10  1  0.666646  0.333290  0.512333  1
  S  S11  1  0.333354  0.666709  0.238904  1
