# generated using pymatgen
data_W3(SeS2)2
_symmetry_space_group_name_H-M   'P 1'
_cell_length_a   3.23216695
_cell_length_b   3.23215758
_cell_length_c   29.69453645
_cell_angle_alpha   90.00000000
_cell_angle_beta   90.00000000
_cell_angle_gamma   120.00009596
_symmetry_Int_Tables_number   1
_chemical_formula_structural   W3(SeS2)2
_chemical_formula_sum   'W3 Se2 S4'
_cell_volume   268.65385304
_cell_formula_units_Z   1
loop_
 _symmetry_equiv_pos_site_id
 _symmetry_equiv_pos_as_xyz
  1  'x, y, z'
loop_
 _atom_site_type_symbol
 _atom_site_label
 _atom_site_symmetry_multiplicity
 _atom_site_fract_x
 _atom_site_fract_y
 _atom_site_fract_z
 _atom_site_occupancy
  W  W0  1  0.333306  0.666612  0.115621  1
  W  W1  1  0.333306  0.666612  0.578344  1
  W  W2  1  0.666694  0.333388  0.346982  1
  Se  Se3  1  0.333359  0.666719  0.404746  1
  Se  Se4  1  0.333359  0.666719  0.289219  1
  S  S5  1  0.666644  0.333287  0.063211  1
  S  S6  1  0.666644  0.333288  0.525931  1
  S  S7  1  0.666644  0.333288  0.168034  1
  S  S8  1  0.666644  0.333287  0.630753  1
