# generated using pymatgen
data_Te2Mo3WSe6
_symmetry_space_group_name_H-M   'P 1'
_cell_length_a   3.38021064
_cell_length_b   3.38015430
_cell_length_c   38.42492720
_cell_angle_alpha   89.99993918
_cell_angle_beta   90.00000000
_cell_angle_gamma   120.00055136
_symmetry_Int_Tables_number   1
_chemical_formula_structural   Te2Mo3WSe6
_chemical_formula_sum   'Te2 Mo3 W1 Se6'
_cell_volume   380.20827304
_cell_formula_units_Z   1
loop_
 _symmetry_equiv_pos_site_id
 _symmetry_equiv_pos_as_xyz
  1  'x, y, z'
loop_
 _atom_site_type_symbol
 _atom_site_label
 _atom_site_symmetry_multiplicity
 _atom_site_fract_x
 _atom_site_fract_y
 _atom_site_fract_z
 _atom_site_occupancy
  Te  Te0  1  0.666648  0.333294  0.045024  1
  Te  Te1  1  0.666647  0.333293  0.142805  1
  Mo  Mo2  1  0.333310  0.666619  0.093899  1
  Mo  Mo3  1  0.333314  0.666629  0.469662  1
  Mo  Mo4  1  0.666689  0.333378  0.281815  1
  W  W5  1  0.666692  0.333383  0.657534  1
  Se  Se6  1  0.333362  0.666725  0.324838  1
  Se  Se7  1  0.333353  0.666708  0.700731  1
  Se  Se8  1  0.666626  0.333250  0.426633  1
  Se  Se9  1  0.666652  0.333303  0.512693  1
  Se  Se10  1  0.333352  0.666705  0.238781  1
  Se  Se11  1  0.333355  0.666712  0.614334  1
