# generated using pymatgen
data_Te4MoW3Se4
_symmetry_space_group_name_H-M   'P 1'
_cell_length_a   3.43837392
_cell_length_b   3.43839196
_cell_length_c   39.19040105
_cell_angle_alpha   90.00023693
_cell_angle_beta   90.00000000
_cell_angle_gamma   119.99982647
_symmetry_Int_Tables_number   1
_chemical_formula_structural   Te4MoW3Se4
_chemical_formula_sum   'Te4 Mo1 W3 Se4'
_cell_volume   401.25419441
_cell_formula_units_Z   1
loop_
 _symmetry_equiv_pos_site_id
 _symmetry_equiv_pos_as_xyz
  1  'x, y, z'
loop_
 _atom_site_type_symbol
 _atom_site_label
 _atom_site_symmetry_multiplicity
 _atom_site_fract_x
 _atom_site_fract_y
 _atom_site_fract_z
 _atom_site_occupancy
  Te  Te0  1  0.333360  0.666721  0.705139  1
  Te  Te1  1  0.666646  0.333290  0.422058  1
  Te  Te2  1  0.666644  0.333288  0.517207  1
  Te  Te3  1  0.333353  0.666708  0.609985  1
  Mo  Mo4  1  0.333312  0.666623  0.093935  1
  W  W5  1  0.333312  0.666624  0.469623  1
  W  W6  1  0.666687  0.333373  0.281812  1
  W  W7  1  0.666695  0.333390  0.657572  1
  Se  Se8  1  0.333352  0.666706  0.323653  1
  Se  Se9  1  0.666647  0.333292  0.052189  1
  Se  Se10  1  0.666642  0.333283  0.135647  1
  Se  Se11  1  0.333350  0.666702  0.239927  1
