# generated using pymatgen
data_CuF
_symmetry_space_group_name_H-M   'P 1'
_cell_length_a   3.42708362
_cell_length_b   3.42708362
_cell_length_c   3.42708363
_cell_angle_alpha   60.00000003
_cell_angle_beta   60.00000003
_cell_angle_gamma   59.99999996
_symmetry_Int_Tables_number   1
_chemical_formula_structural   CuF
_chemical_formula_sum   'Cu1 F1'
_cell_volume   28.46158671
_cell_formula_units_Z   1
loop_
 _symmetry_equiv_pos_site_id
 _symmetry_equiv_pos_as_xyz
  1  'x, y, z'
loop_
 _atom_site_type_symbol
 _atom_site_label
 _atom_site_symmetry_multiplicity
 _atom_site_fract_x
 _atom_site_fract_y
 _atom_site_fract_z
 _atom_site_occupancy
  F  F0  1  0.250000  0.250000  0.250000  1
  Cu  Cu1  1  0.000000  0.000000  0.000000  1
