# generated using pymatgen
data_ScTeO3F
_symmetry_space_group_name_H-M   'P 1'
_cell_length_a   5.60661192
_cell_length_b   5.85008519
_cell_length_c   22.31977126
_cell_angle_alpha   90.00000000
_cell_angle_beta   90.00000000
_cell_angle_gamma   90.00000000
_symmetry_Int_Tables_number   1
_chemical_formula_structural   ScTeO3F
_chemical_formula_sum   'Sc8 Te8 O24 F8'
_cell_volume   732.06968978
_cell_formula_units_Z   8
loop_
 _symmetry_equiv_pos_site_id
 _symmetry_equiv_pos_as_xyz
  1  'x, y, z'
loop_
 _atom_site_type_symbol
 _atom_site_label
 _atom_site_symmetry_multiplicity
 _atom_site_fract_x
 _atom_site_fract_y
 _atom_site_fract_z
 _atom_site_occupancy
  O  O0  1  0.643591  0.456699  0.161053  1
  O  O1  1  0.643591  0.043301  0.838947  1
  O  O2  1  0.856409  0.456699  0.338947  1
  O  O3  1  0.856409  0.043301  0.661053  1
  O  O4  1  0.356409  0.543301  0.838947  1
  O  O5  1  0.356409  0.956699  0.161053  1
  O  O6  1  0.143591  0.543301  0.661053  1
  O  O7  1  0.143591  0.956699  0.338947  1
  O  O8  1  0.419521  0.631319  0.060669  1
  O  O9  1  0.419521  0.868681  0.939331  1
  O  O10  1  0.080479  0.631319  0.439331  1
  O  O11  1  0.080479  0.868681  0.560669  1
  O  O12  1  0.580479  0.368681  0.939331  1
  O  O13  1  0.580479  0.131319  0.060669  1
  O  O14  1  0.919521  0.368681  0.560669  1
  O  O15  1  0.402518  0.056793  0.449680  1
  O  O16  1  0.902518  0.556793  0.050320  1
  O  O17  1  0.902518  0.943207  0.949680  1
  O  O18  1  0.597482  0.556793  0.449680  1
  O  O19  1  0.597482  0.943207  0.550320  1
  O  O20  1  0.097482  0.443207  0.949680  1
  O  O21  1  0.097482  0.056793  0.050320  1
  O  O22  1  0.402518  0.443207  0.550320  1
  O  O23  1  0.919521  0.131319  0.439331  1
  F  F24  1  0.497688  0.189535  0.269382  1
  F  F25  1  0.997688  0.810465  0.769382  1
  F  F26  1  0.502312  0.689535  0.269382  1
  F  F27  1  0.502312  0.810465  0.730618  1
  F  F28  1  0.002312  0.310465  0.769382  1
  F  F29  1  0.002312  0.189535  0.230618  1
  F  F30  1  0.497688  0.310465  0.730618  1
  F  F31  1  0.997688  0.689535  0.230618  1
  Sc  Sc32  1  0.750000  0.431730  0.250000  1
  Sc  Sc33  1  0.750000  0.068270  0.750000  1
  Sc  Sc34  1  0.250000  0.568270  0.750000  1
  Sc  Sc35  1  0.250000  0.931730  0.250000  1
  Sc  Sc36  1  0.674192  0.250000  0.500000  1
  Sc  Sc37  1  0.325808  0.750000  0.500000  1
  Sc  Sc38  1  0.825808  0.250000  0.000000  1
  Sc  Sc39  1  0.174192  0.750000  0.000000  1
  Te  Te40  1  0.689598  0.708553  0.107153  1
  Te  Te41  1  0.689598  0.791447  0.892847  1
  Te  Te42  1  0.810402  0.708553  0.392847  1
  Te  Te43  1  0.810402  0.791447  0.607153  1
  Te  Te44  1  0.310402  0.291447  0.892847  1
  Te  Te45  1  0.310402  0.208553  0.107153  1
  Te  Te46  1  0.189598  0.291447  0.607153  1
  Te  Te47  1  0.189598  0.208553  0.392847  1
