# generated using pymatgen
data_Cs2CuPb(NO2)6
_symmetry_space_group_name_H-M   'P 1'
_cell_length_a   7.81620010
_cell_length_b   7.81620010
_cell_length_c   7.82135277
_cell_angle_alpha   119.26949573
_cell_angle_beta   119.26949573
_cell_angle_gamma   91.23305427
_symmetry_Int_Tables_number   1
_chemical_formula_structural   Cs2CuPb(NO2)6
_chemical_formula_sum   'Cs2 Cu1 Pb1 N6 O12'
_cell_volume   341.62897319
_cell_formula_units_Z   1
loop_
 _symmetry_equiv_pos_site_id
 _symmetry_equiv_pos_as_xyz
  1  'x, y, z'
loop_
 _atom_site_type_symbol
 _atom_site_label
 _atom_site_symmetry_multiplicity
 _atom_site_fract_x
 _atom_site_fract_y
 _atom_site_fract_z
 _atom_site_occupancy
  N  N0  1  0.797759  0.202241  0.000000  1
  N  N1  1  0.202241  0.797759  0.000000  1
  N  N2  1  0.797527  0.797527  0.595054  1
  N  N3  1  0.202473  0.202473  0.404946  1
  N  N4  1  0.806095  0.806095  0.000000  1
  N  N5  1  0.193905  0.193905  1.000000  1
  O  O6  1  0.835217  0.357100  0.192317  1
  O  O7  1  0.164783  0.642900  0.807683  1
  O  O8  1  0.357100  0.835217  0.192317  1
  O  O9  1  0.642900  0.164783  0.807683  1
  O  O10  1  0.650397  0.843242  0.000000  1
  O  O11  1  0.843242  0.650397  0.000000  1
  O  O12  1  0.156758  0.349603  0.000000  1
  O  O13  1  0.349603  0.156758  0.000000  1
  O  O14  1  0.162729  0.162729  0.522221  1
  O  O15  1  0.640508  0.640508  0.477779  1
  O  O16  1  0.837271  0.837271  0.477779  1
  O  O17  1  0.359492  0.359492  0.522221  1
  Cu  Cu18  1  0.000000  0.000000  0.000000  1
  Cs  Cs19  1  0.250000  0.750000  0.500000  1
  Cs  Cs20  1  0.750000  0.250000  0.500000  1
  Pb  Pb21  1  0.500000  0.500000  0.000000  1
