# generated using pymatgen
data_K3Na(WO4)2
_symmetry_space_group_name_H-M   'P 1'
_cell_length_a   6.20166550
_cell_length_b   6.20166550
_cell_length_c   15.57435421
_cell_angle_alpha   90.12212027
_cell_angle_beta   90.12212027
_cell_angle_gamma   59.70487048
_symmetry_Int_Tables_number   1
_chemical_formula_structural   K3Na(WO4)2
_chemical_formula_sum   'K6 Na2 W4 O16'
_cell_volume   517.19794320
_cell_formula_units_Z   2
loop_
 _symmetry_equiv_pos_site_id
 _symmetry_equiv_pos_as_xyz
  1  'x, y, z'
loop_
 _atom_site_type_symbol
 _atom_site_label
 _atom_site_symmetry_multiplicity
 _atom_site_fract_x
 _atom_site_fract_y
 _atom_site_fract_z
 _atom_site_occupancy
  O  O0  1  0.861536  0.768129  0.410392  1
  O  O1  1  0.231871  0.138464  0.089608  1
  O  O2  1  0.138464  0.231870  0.589607  1
  O  O3  1  0.768129  0.861535  0.910392  1
  O  O4  1  0.856689  0.298947  0.376171  1
  O  O5  1  0.701054  0.143311  0.123829  1
  O  O6  1  0.143310  0.701054  0.623829  1
  O  O7  1  0.298946  0.856688  0.876171  1
  O  O8  1  0.395724  0.761927  0.423714  1
  O  O9  1  0.238073  0.604276  0.076286  1
  O  O10  1  0.604276  0.238073  0.576286  1
  O  O11  1  0.761927  0.395723  0.923714  1
  O  O12  1  0.733599  0.603708  0.751750  1
  O  O13  1  0.396292  0.266401  0.748250  1
  O  O14  1  0.603708  0.733598  0.251751  1
  O  O15  1  0.266401  0.396292  0.248249  1
  Na  Na16  1  0.000000  0.000001  0.500000  1
  Na  Na17  1  0.000000  0.000000  0.000000  1
  K  K18  1  0.937553  0.062447  0.750000  1
  K  K19  1  0.062447  0.937553  0.250000  1
  K  K20  1  0.694222  0.648628  0.087921  1
  K  K21  1  0.351372  0.305777  0.412079  1
  K  K22  1  0.648628  0.694224  0.587921  1
  K  K23  1  0.305777  0.351373  0.912079  1
  W  W24  1  0.684544  0.636725  0.362535  1
  W  W25  1  0.363276  0.315454  0.137465  1
  W  W26  1  0.315455  0.363276  0.637465  1
  W  W27  1  0.636724  0.684545  0.862535  1
