# generated using pymatgen
data_Rb2W2O7
_symmetry_space_group_name_H-M   'P 1'
_cell_length_a   3.90410277
_cell_length_b   6.26950652
_cell_length_c   14.66752615
_cell_angle_alpha   90.00000000
_cell_angle_beta   90.00000000
_cell_angle_gamma   90.07621498
_symmetry_Int_Tables_number   1
_chemical_formula_structural   Rb2W2O7
_chemical_formula_sum   'Rb4 W4 O14'
_cell_volume   359.01375325
_cell_formula_units_Z   2
loop_
 _symmetry_equiv_pos_site_id
 _symmetry_equiv_pos_as_xyz
  1  'x, y, z'
loop_
 _atom_site_type_symbol
 _atom_site_label
 _atom_site_symmetry_multiplicity
 _atom_site_fract_x
 _atom_site_fract_y
 _atom_site_fract_z
 _atom_site_occupancy
  O  O0  1  0.498039  0.801681  0.822747  1
  O  O1  1  0.501961  0.698318  0.322747  1
  O  O2  1  0.501961  0.198319  0.177253  1
  O  O3  1  0.498039  0.301682  0.677253  1
  O  O4  1  0.501408  0.585433  0.077963  1
  O  O5  1  0.498592  0.914568  0.577963  1
  O  O6  1  0.498592  0.414567  0.922037  1
  O  O7  1  0.501407  0.085432  0.422037  1
  O  O8  1  0.500001  0.499999  0.500000  1
  O  O9  1  0.500001  0.000000  0.000000  1
  O  O10  1  0.997021  0.224013  0.549308  1
  O  O11  1  0.997021  0.724012  0.950692  1
  O  O12  1  0.002979  0.775987  0.450692  1
  O  O13  1  0.002979  0.275989  0.049308  1
  Rb  Rb14  1  0.004641  0.829702  0.173188  1
  Rb  Rb15  1  0.995359  0.670299  0.673188  1
  Rb  Rb16  1  0.995359  0.170298  0.826812  1
  Rb  Rb17  1  0.004641  0.329702  0.326812  1
  W  W18  1  0.490388  0.216419  0.559451  1
  W  W19  1  0.509611  0.283581  0.059451  1
  W  W20  1  0.509611  0.783581  0.440549  1
  W  W21  1  0.490389  0.716419  0.940549  1
