# generated using pymatgen
data_Sr11Sb10
_symmetry_space_group_name_H-M   'P 1'
_cell_length_a   12.65410365
_cell_length_b   12.65410365
_cell_length_c   12.80119791
_cell_angle_alpha   119.62061432
_cell_angle_beta   119.62061433
_cell_angle_gamma   89.99999998
_symmetry_Int_Tables_number   1
_chemical_formula_structural   Sr11Sb10
_chemical_formula_sum   'Sr22 Sb20'
_cell_volume   1465.89955624
_cell_formula_units_Z   2
loop_
 _symmetry_equiv_pos_site_id
 _symmetry_equiv_pos_as_xyz
  1  'x, y, z'
loop_
 _atom_site_type_symbol
 _atom_site_label
 _atom_site_symmetry_multiplicity
 _atom_site_fract_x
 _atom_site_fract_y
 _atom_site_fract_z
 _atom_site_occupancy
  Sr  Sr0  1  0.338098  0.338098  0.676196  1
  Sr  Sr1  1  0.661902  0.661902  0.323804  1
  Sr  Sr2  1  0.167009  0.167009  0.000000  1
  Sr  Sr3  1  0.832991  0.167009  0.000000  1
  Sr  Sr4  1  0.167009  0.832991  0.000000  1
  Sr  Sr5  1  0.832991  0.832991  0.000000  1
  Sr  Sr6  1  0.188925  0.440305  0.377850  1
  Sr  Sr7  1  0.937545  0.188925  0.377850  1
  Sr  Sr8  1  0.440305  0.188925  0.377850  1
  Sr  Sr9  1  0.811075  0.559695  0.622150  1
  Sr  Sr10  1  0.811075  0.062455  0.622150  1
  Sr  Sr11  1  0.062455  0.811075  0.622150  1
  Sr  Sr12  1  0.559695  0.811075  0.622150  1
  Sr  Sr13  1  0.188925  0.937545  0.377850  1
  Sr  Sr14  1  0.395898  0.731928  0.791797  1
  Sr  Sr15  1  0.059869  0.395898  0.791797  1
  Sr  Sr16  1  0.731928  0.395898  0.791797  1
  Sr  Sr17  1  0.604102  0.268072  0.208203  1
  Sr  Sr18  1  0.604102  0.940131  0.208203  1
  Sr  Sr19  1  0.940131  0.604102  0.208203  1
  Sr  Sr20  1  0.268072  0.604102  0.208203  1
  Sr  Sr21  1  0.395898  0.059869  0.791797  1
  Sb  Sb22  1  0.250000  0.750000  0.500000  1
  Sb  Sb23  1  0.750000  0.250000  0.500000  1
  Sb  Sb24  1  0.125022  0.125022  0.250043  1
  Sb  Sb25  1  0.874978  0.874978  0.749957  1
  Sb  Sb26  1  0.381072  0.381072  0.000000  1
  Sb  Sb27  1  0.618928  0.381072  0.000000  1
  Sb  Sb28  1  0.381072  0.618928  0.000000  1
  Sb  Sb29  1  0.618928  0.618928  0.000000  1
  Sb  Sb30  1  0.351143  0.000000  0.000000  1
  Sb  Sb31  1  0.000000  0.351143  0.000000  1
  Sb  Sb32  1  0.000000  0.648857  0.000000  1
  Sb  Sb33  1  0.648857  0.000000  0.000000  1
  Sb  Sb34  1  0.529627  0.529627  0.641964  1
  Sb  Sb35  1  0.112337  0.529627  0.641964  1
  Sb  Sb36  1  0.529627  0.112337  0.641964  1
  Sb  Sb37  1  0.887663  0.470373  0.358036  1
  Sb  Sb38  1  0.470373  0.887663  0.358036  1
  Sb  Sb39  1  0.887663  0.887663  0.358036  1
  Sb  Sb40  1  0.470373  0.470373  0.358036  1
  Sb  Sb41  1  0.112337  0.112337  0.641964  1
