# generated using pymatgen
data_Te3MoWSe
_symmetry_space_group_name_H-M   'P 1'
_cell_length_a   3.49548437
_cell_length_b   3.49545138
_cell_length_c   39.66210138
_cell_angle_alpha   90.00104592
_cell_angle_beta   90.00002548
_cell_angle_gamma   120.00033125
_symmetry_Int_Tables_number   1
_chemical_formula_structural   Te3MoWSe
_chemical_formula_sum   'Te6 Mo2 W2 Se2'
_cell_volume   419.67735173
_cell_formula_units_Z   2
loop_
 _symmetry_equiv_pos_site_id
 _symmetry_equiv_pos_as_xyz
  1  'x, y, z'
loop_
 _atom_site_type_symbol
 _atom_site_label
 _atom_site_symmetry_multiplicity
 _atom_site_fract_x
 _atom_site_fract_y
 _atom_site_fract_z
 _atom_site_occupancy
  Te  Te0  1  0.333355  0.666709  0.328015  1
  Te  Te1  1  0.333360  0.666720  0.704017  1
  Te  Te2  1  0.666642  0.333284  0.423430  1
  Te  Te3  1  0.666642  0.333284  0.515887  1
  Te  Te4  1  0.333355  0.666711  0.235545  1
  Te  Te5  1  0.333370  0.666741  0.611077  1
  Mo  Mo6  1  0.333306  0.666613  0.469661  1
  Mo  Mo7  1  0.666690  0.333381  0.281772  1
  W  W8  1  0.333309  0.666615  0.093932  1
  W  W9  1  0.666690  0.333382  0.657566  1
  Se  Se10  1  0.666637  0.333273  0.052984  1
  Se  Se11  1  0.666645  0.333289  0.134861  1
