# generated using pymatgen
data_Te4Mo3W(SeS)2
_symmetry_space_group_name_H-M   'P 1'
_cell_length_a   3.39915277
_cell_length_b   3.39908615
_cell_length_c   40.21176026
_cell_angle_alpha   90.00464190
_cell_angle_beta   90.00000000
_cell_angle_gamma   120.00064828
_symmetry_Int_Tables_number   1
_chemical_formula_structural   Te4Mo3W(SeS)2
_chemical_formula_sum   'Te4 Mo3 W1 Se2 S2'
_cell_volume   402.35901172
_cell_formula_units_Z   1
loop_
 _symmetry_equiv_pos_site_id
 _symmetry_equiv_pos_as_xyz
  1  'x, y, z'
loop_
 _atom_site_type_symbol
 _atom_site_label
 _atom_site_symmetry_multiplicity
 _atom_site_fract_x
 _atom_site_fract_y
 _atom_site_fract_z
 _atom_site_occupancy
  Te  Te0  1  0.333409  0.666819  0.327052  1
  Te  Te1  1  0.666619  0.333236  0.423954  1
  Te  Te2  1  0.666665  0.333329  0.517181  1
  Te  Te3  1  0.333345  0.666692  0.233787  1
  Mo  Mo4  1  0.333314  0.666629  0.093885  1
  Mo  Mo5  1  0.333300  0.666601  0.470565  1
  Mo  Mo6  1  0.666702  0.333404  0.280427  1
  W  W7  1  0.666669  0.333338  0.658047  1
  Se  Se8  1  0.333378  0.666758  0.699283  1
  Se  Se9  1  0.333315  0.666632  0.616871  1
  S  S10  1  0.666616  0.333231  0.056483  1
  S  S11  1  0.666666  0.333331  0.131213  1
