# generated using pymatgen
data_Ta5Ge3
_symmetry_space_group_name_H-M   'P 1'
_cell_length_a   5.19797647
_cell_length_b   7.64919776
_cell_length_c   7.64919777
_cell_angle_alpha   83.37068103
_cell_angle_beta   70.13697636
_cell_angle_gamma   70.13697641
_symmetry_Int_Tables_number   1
_chemical_formula_structural   Ta5Ge3
_chemical_formula_sum   'Ta10 Ge6'
_cell_volume   269.02380155
_cell_formula_units_Z   2
loop_
 _symmetry_equiv_pos_site_id
 _symmetry_equiv_pos_as_xyz
  1  'x, y, z'
loop_
 _atom_site_type_symbol
 _atom_site_label
 _atom_site_symmetry_multiplicity
 _atom_site_fract_x
 _atom_site_fract_y
 _atom_site_fract_z
 _atom_site_occupancy
  Ge  Ge0  1  0.832991  0.500000  0.834019  1
  Ge  Ge1  1  0.667009  0.165981  0.500000  1
  Ge  Ge2  1  0.332991  0.834019  0.500000  1
  Ge  Ge3  1  0.167009  0.500000  0.165981  1
  Ge  Ge4  1  0.750000  0.000000  0.000000  1
  Ge  Ge5  1  0.250000  0.000000  0.000000  1
  Ta  Ta6  1  0.276459  0.149142  0.297941  1
  Ta  Ta7  1  0.723541  0.850858  0.702059  1
  Ta  Ta8  1  0.425601  0.297941  0.850858  1
  Ta  Ta9  1  0.574399  0.702059  0.149142  1
  Ta  Ta10  1  0.925601  0.850858  0.297941  1
  Ta  Ta11  1  0.223541  0.702059  0.850858  1
  Ta  Ta12  1  0.776459  0.297941  0.149142  1
  Ta  Ta13  1  0.074399  0.149142  0.702059  1
  Ta  Ta14  1  0.750000  0.500000  0.500000  1
  Ta  Ta15  1  0.250000  0.500000  0.500000  1
