# generated using pymatgen
data_Zn2SiO4
_symmetry_space_group_name_H-M   'P 1'
_cell_length_a   10.43549785
_cell_length_b   6.74391324
_cell_length_c   5.14286352
_cell_angle_alpha   90.00000000
_cell_angle_beta   90.00000000
_cell_angle_gamma   90.00000000
_symmetry_Int_Tables_number   1
_chemical_formula_structural   Zn2SiO4
_chemical_formula_sum   'Zn8 Si4 O16'
_cell_volume   361.93463683
_cell_formula_units_Z   4
loop_
 _symmetry_equiv_pos_site_id
 _symmetry_equiv_pos_as_xyz
  1  'x, y, z'
loop_
 _atom_site_type_symbol
 _atom_site_label
 _atom_site_symmetry_multiplicity
 _atom_site_fract_x
 _atom_site_fract_y
 _atom_site_fract_z
 _atom_site_occupancy
  Zn  Zn0  1  0.655626  0.999367  0.674034  1
  Zn  Zn1  1  0.155626  0.500633  0.825966  1
  Zn  Zn2  1  0.344374  0.499367  0.325966  1
  Zn  Zn3  1  0.844374  0.000633  0.174034  1
  Zn  Zn4  1  0.344374  0.000633  0.325966  1
  Zn  Zn5  1  0.844374  0.499367  0.174034  1
  Zn  Zn6  1  0.655626  0.500633  0.674034  1
  Zn  Zn7  1  0.155626  0.999367  0.825966  1
  Si  Si8  1  0.593018  0.250000  0.176534  1
  Si  Si9  1  0.093018  0.250000  0.323466  1
  Si  Si10  1  0.406982  0.750000  0.823466  1
  Si  Si11  1  0.906982  0.750000  0.676534  1
  O  O12  1  0.612045  0.250000  0.857779  1
  O  O13  1  0.112045  0.250000  0.642221  1
  O  O14  1  0.387955  0.750000  0.142221  1
  O  O15  1  0.887955  0.750000  0.357779  1
  O  O16  1  0.941418  0.250000  0.235940  1
  O  O17  1  0.441418  0.250000  0.264060  1
  O  O18  1  0.058582  0.750000  0.764060  1
  O  O19  1  0.558582  0.750000  0.735940  1
  O  O20  1  0.663964  0.050631  0.294214  1
  O  O21  1  0.163964  0.449369  0.205786  1
  O  O22  1  0.336036  0.550631  0.705786  1
  O  O23  1  0.836036  0.949369  0.794214  1
  O  O24  1  0.336036  0.949369  0.705786  1
  O  O25  1  0.836036  0.550631  0.794214  1
  O  O26  1  0.663964  0.449369  0.294214  1
  O  O27  1  0.163964  0.050631  0.205786  1
