# generated using pymatgen
data_ErMnSi
_symmetry_space_group_name_H-M   'P 1'
_cell_length_a   4.05984383
_cell_length_b   6.89999181
_cell_length_c   7.57484646
_cell_angle_alpha   90.00000000
_cell_angle_beta   90.00000000
_cell_angle_gamma   90.00000000
_symmetry_Int_Tables_number   1
_chemical_formula_structural   ErMnSi
_chemical_formula_sum   'Er4 Mn4 Si4'
_cell_volume   212.19333442
_cell_formula_units_Z   4
loop_
 _symmetry_equiv_pos_site_id
 _symmetry_equiv_pos_as_xyz
  1  'x, y, z'
loop_
 _atom_site_type_symbol
 _atom_site_label
 _atom_site_symmetry_multiplicity
 _atom_site_fract_x
 _atom_site_fract_y
 _atom_site_fract_z
 _atom_site_occupancy
  Si  Si0  1  0.250000  0.286429  0.888606  1
  Si  Si1  1  0.750000  0.713571  0.111394  1
  Si  Si2  1  0.250000  0.786429  0.611394  1
  Si  Si3  1  0.750000  0.213571  0.388605  1
  Mn  Mn4  1  0.750000  0.860576  0.440969  1
  Mn  Mn5  1  0.250000  0.139424  0.559031  1
  Mn  Mn6  1  0.750000  0.360576  0.059031  1
  Mn  Mn7  1  0.250000  0.639424  0.940969  1
  Er  Er8  1  0.250000  0.012117  0.185951  1
  Er  Er9  1  0.750000  0.987883  0.814049  1
  Er  Er10  1  0.250000  0.512117  0.314049  1
  Er  Er11  1  0.750000  0.487883  0.685951  1
