# generated using pymatgen
data_Na4Zn3Se5
_symmetry_space_group_name_H-M   'P 1'
_cell_length_a   4.13433097
_cell_length_b   13.78183504
_cell_length_c   19.68580446
_cell_angle_alpha   90.00000000
_cell_angle_beta   90.00000000
_cell_angle_gamma   90.00000000
_symmetry_Int_Tables_number   1
_chemical_formula_structural   Na4Zn3Se5
_chemical_formula_sum   'Na16 Zn12 Se20'
_cell_volume   1121.67090540
_cell_formula_units_Z   4
loop_
 _symmetry_equiv_pos_site_id
 _symmetry_equiv_pos_as_xyz
  1  'x, y, z'
loop_
 _atom_site_type_symbol
 _atom_site_label
 _atom_site_symmetry_multiplicity
 _atom_site_fract_x
 _atom_site_fract_y
 _atom_site_fract_z
 _atom_site_occupancy
  Na  Na0  1  0.750000  0.501056  0.732807  1
  Na  Na1  1  0.750000  1.001056  0.767193  1
  Na  Na2  1  0.250000  0.498944  0.267193  1
  Na  Na3  1  0.250000  -0.001056  0.232807  1
  Na  Na4  1  0.750000  0.492811  0.082777  1
  Na  Na5  1  0.750000  0.992811  0.417223  1
  Na  Na6  1  0.250000  0.507189  0.917223  1
  Na  Na7  1  0.250000  0.007189  0.582777  1
  Na  Na8  1  0.750000  0.388930  0.549717  1
  Na  Na9  1  0.750000  0.888930  0.950283  1
  Na  Na10  1  0.250000  0.611070  0.450283  1
  Na  Na11  1  0.250000  0.111070  0.049717  1
  Na  Na12  1  0.750000  0.226609  0.667154  1
  Na  Na13  1  0.750000  0.726609  0.832846  1
  Na  Na14  1  0.250000  0.773391  0.332846  1
  Na  Na15  1  0.250000  0.273391  0.167154  1
  Zn  Zn16  1  0.750000  0.291329  0.960318  1
  Zn  Zn17  1  0.750000  0.791329  0.539682  1
  Zn  Zn18  1  0.250000  0.708671  0.039682  1
  Zn  Zn19  1  0.250000  0.208671  0.460318  1
  Zn  Zn20  1  0.750000  0.180972  0.282693  1
  Zn  Zn21  1  0.750000  0.680972  0.217307  1
  Zn  Zn22  1  0.250000  0.819028  0.717307  1
  Zn  Zn23  1  0.250000  0.319028  0.782693  1
  Zn  Zn24  1  0.750000  0.924862  0.131193  1
  Zn  Zn25  1  0.750000  0.424862  0.368807  1
  Zn  Zn26  1  0.250000  0.075138  0.868807  1
  Zn  Zn27  1  0.250000  0.575138  0.631193  1
  Se  Se28  1  0.750000  0.375578  0.846887  1
  Se  Se29  1  0.750000  0.875578  0.653113  1
  Se  Se30  1  0.250000  0.624422  0.153113  1
  Se  Se31  1  0.250000  0.124422  0.346887  1
  Se  Se32  1  0.750000  0.353440  0.253388  1
  Se  Se33  1  0.750000  0.853440  0.246612  1
  Se  Se34  1  0.250000  0.646560  0.746612  1
  Se  Se35  1  0.250000  0.146560  0.753388  1
  Se  Se36  1  0.750000  0.155752  0.524432  1
  Se  Se37  1  0.750000  0.655752  0.975568  1
  Se  Se38  1  0.250000  0.844248  0.475568  1
  Se  Se39  1  0.250000  0.344248  0.024432  1
  Se  Se40  1  0.750000  0.109318  0.159709  1
  Se  Se41  1  0.750000  0.609318  0.340291  1
  Se  Se42  1  0.250000  0.890682  0.840291  1
  Se  Se43  1  0.250000  0.390682  0.659709  1
  Se  Se44  1  0.750000  0.111327  0.937732  1
  Se  Se45  1  0.750000  0.611327  0.562268  1
  Se  Se46  1  0.250000  0.888673  0.062268  1
  Se  Se47  1  0.250000  0.388673  0.437732  1
