# generated using pymatgen
data_Dy2Ti3Si4
_symmetry_space_group_name_H-M   'P 1'
_cell_length_a   7.05436565
_cell_length_b   7.05436565
_cell_length_c   12.96791779
_cell_angle_alpha   90.00000000
_cell_angle_beta   90.00000000
_cell_angle_gamma   90.00000000
_symmetry_Int_Tables_number   1
_chemical_formula_structural   Dy2Ti3Si4
_chemical_formula_sum   'Dy8 Ti12 Si16'
_cell_volume   645.33642991
_cell_formula_units_Z   4
loop_
 _symmetry_equiv_pos_site_id
 _symmetry_equiv_pos_as_xyz
  1  'x, y, z'
loop_
 _atom_site_type_symbol
 _atom_site_label
 _atom_site_symmetry_multiplicity
 _atom_site_fract_x
 _atom_site_fract_y
 _atom_site_fract_z
 _atom_site_occupancy
  Si  Si0  1  0.046609  0.708744  0.435089  1
  Si  Si1  1  0.953391  0.291256  0.935089  1
  Si  Si2  1  0.708744  0.046609  0.564911  1
  Si  Si3  1  0.208744  0.453391  0.185089  1
  Si  Si4  1  0.791256  0.546609  0.685089  1
  Si  Si5  1  0.453391  0.208744  0.814911  1
  Si  Si6  1  0.546609  0.791256  0.314911  1
  Si  Si7  1  0.291256  0.953391  0.064911  1
  Si  Si8  1  0.797714  0.869339  0.184727  1
  Si  Si9  1  0.297714  0.630661  0.565273  1
  Si  Si10  1  0.702286  0.369339  0.065273  1
  Si  Si11  1  0.630661  0.297714  0.434727  1
  Si  Si12  1  0.369339  0.702286  0.934727  1
  Si  Si13  1  0.130661  0.202286  0.315273  1
  Si  Si14  1  0.202286  0.130661  0.684727  1
  Si  Si15  1  0.869339  0.797714  0.815273  1
  Ti  Ti16  1  0.347470  0.507632  0.373265  1
  Ti  Ti17  1  0.847470  0.992368  0.376735  1
  Ti  Ti18  1  0.007632  0.152530  0.123265  1
  Ti  Ti19  1  0.992368  0.847470  0.623265  1
  Ti  Ti20  1  0.507632  0.347470  0.626735  1
  Ti  Ti21  1  0.152530  0.007632  0.876735  1
  Ti  Ti22  1  0.672475  0.672475  0.500000  1
  Ti  Ti23  1  0.827525  0.172475  0.750000  1
  Ti  Ti24  1  0.172475  0.827525  0.250000  1
  Ti  Ti25  1  0.327525  0.327525  0.000000  1
  Ti  Ti26  1  0.492368  0.652530  0.126735  1
  Ti  Ti27  1  0.652530  0.492368  0.873265  1
  Dy  Dy28  1  0.997550  0.659816  0.033495  1
  Dy  Dy29  1  0.002450  0.340184  0.533495  1
  Dy  Dy30  1  0.659816  0.997550  0.966505  1
  Dy  Dy31  1  0.159816  0.502450  0.783495  1
  Dy  Dy32  1  0.840184  0.497550  0.283495  1
  Dy  Dy33  1  0.502450  0.159816  0.216505  1
  Dy  Dy34  1  0.497550  0.840184  0.716505  1
  Dy  Dy35  1  0.340184  0.002450  0.466505  1
