# generated using pymatgen
data_TlZnPO4
_symmetry_space_group_name_H-M   'P 1'
_cell_length_a   5.54496242
_cell_length_b   8.90029825
_cell_length_c   9.01053419
_cell_angle_alpha   90.66047403
_cell_angle_beta   90.00000000
_cell_angle_gamma   90.00000000
_symmetry_Int_Tables_number   1
_chemical_formula_structural   TlZnPO4
_chemical_formula_sum   'Tl4 Zn4 P4 O16'
_cell_volume   444.65671019
_cell_formula_units_Z   4
loop_
 _symmetry_equiv_pos_site_id
 _symmetry_equiv_pos_as_xyz
  1  'x, y, z'
loop_
 _atom_site_type_symbol
 _atom_site_label
 _atom_site_symmetry_multiplicity
 _atom_site_fract_x
 _atom_site_fract_y
 _atom_site_fract_z
 _atom_site_occupancy
  O  O0  1  0.929452  0.685397  0.239673  1
  O  O1  1  0.429452  0.314603  0.760327  1
  O  O2  1  0.270604  0.229230  0.439624  1
  O  O3  1  0.770604  0.770770  0.560376  1
  O  O4  1  0.270919  0.218419  0.007950  1
  O  O5  1  0.770919  0.781581  0.992050  1
  O  O6  1  0.911144  0.310832  0.287867  1
  O  O7  1  0.411144  0.689168  0.712133  1
  O  O8  1  0.346469  0.790726  0.454495  1
  O  O9  1  0.846469  0.209274  0.545505  1
  O  O10  1  0.719868  0.220434  0.960728  1
  O  O11  1  0.219868  0.779566  0.039272  1
  O  O12  1  0.478815  0.966234  0.668352  1
  O  O13  1  0.978815  0.033766  0.331648  1
  O  O14  1  0.996125  0.534136  0.001421  1
  O  O15  1  0.496125  0.465864  0.998579  1
  P  P16  1  0.479587  0.305906  0.929555  1
  P  P17  1  0.979587  0.694094  0.070445  1
  P  P18  1  0.501848  0.806524  0.597800  1
  P  P19  1  0.001848  0.193476  0.402200  1
  Zn  Zn20  1  0.478542  0.672501  0.924490  1
  Zn  Zn21  1  0.978542  0.327499  0.075510  1
  Zn  Zn22  1  0.502723  0.172931  0.594897  1
  Zn  Zn23  1  0.002723  0.827069  0.405103  1
  Tl  Tl24  1  0.513646  0.506077  0.312609  1
  Tl  Tl25  1  0.013646  0.493923  0.687391  1
  Tl  Tl26  1  0.488257  0.002873  0.187004  1
  Tl  Tl27  1  0.988257  0.997127  0.812996  1
