# generated using pymatgen
data_Te2MoW3(SeS2)2
_symmetry_space_group_name_H-M   'P 1'
_cell_length_a   3.30570974
_cell_length_b   3.30569890
_cell_length_c   37.63466728
_cell_angle_alpha   89.99998666
_cell_angle_beta   90.00000000
_cell_angle_gamma   120.00010843
_symmetry_Int_Tables_number   1
_chemical_formula_structural   Te2MoW3(SeS2)2
_chemical_formula_sum   'Te2 Mo1 W3 Se2 S4'
_cell_volume   356.16090749
_cell_formula_units_Z   1
loop_
 _symmetry_equiv_pos_site_id
 _symmetry_equiv_pos_as_xyz
  1  'x, y, z'
loop_
 _atom_site_type_symbol
 _atom_site_label
 _atom_site_symmetry_multiplicity
 _atom_site_fract_x
 _atom_site_fract_y
 _atom_site_fract_z
 _atom_site_occupancy
  Te  Te0  1  0.666642  0.333283  0.043100  1
  Te  Te1  1  0.666647  0.333292  0.144708  1
  Mo  Mo2  1  0.333309  0.666617  0.093884  1
  W  W3  1  0.333308  0.666616  0.469645  1
  W  W4  1  0.666695  0.333390  0.281805  1
  W  W5  1  0.666695  0.333390  0.657555  1
  Se  Se6  1  0.666649  0.333297  0.424790  1
  Se  Se7  1  0.666630  0.333259  0.514533  1
  S  S8  1  0.333353  0.666708  0.322569  1
  S  S9  1  0.333357  0.666716  0.698299  1
  S  S10  1  0.333358  0.666718  0.241071  1
  S  S11  1  0.333357  0.666714  0.616789  1
