# generated using pymatgen
data_Sr2UO5
_symmetry_space_group_name_H-M   'P 1'
_cell_length_a   5.72560058
_cell_length_b   8.16564434
_cell_length_c   12.02594333
_cell_angle_alpha   108.49826356
_cell_angle_beta   90.00000000
_cell_angle_gamma   90.00000000
_symmetry_Int_Tables_number   1
_chemical_formula_structural   Sr2UO5
_chemical_formula_sum   'Sr8 U4 O20'
_cell_volume   533.20185162
_cell_formula_units_Z   4
loop_
 _symmetry_equiv_pos_site_id
 _symmetry_equiv_pos_as_xyz
  1  'x, y, z'
loop_
 _atom_site_type_symbol
 _atom_site_label
 _atom_site_symmetry_multiplicity
 _atom_site_fract_x
 _atom_site_fract_y
 _atom_site_fract_z
 _atom_site_occupancy
  O  O0  1  0.652265  0.749181  0.501164  1
  O  O1  1  0.152265  0.250819  0.998836  1
  O  O2  1  0.347735  0.250819  0.498836  1
  O  O3  1  0.847735  0.749181  0.001164  1
  O  O4  1  0.756470  0.981219  0.377955  1
  O  O5  1  0.256470  0.018781  0.122045  1
  O  O6  1  0.243530  0.018781  0.622045  1
  O  O7  1  0.743530  0.981219  0.877955  1
  O  O8  1  0.797780  0.395127  0.424952  1
  O  O9  1  0.297780  0.604873  0.075048  1
  O  O10  1  0.202220  0.604873  0.575048  1
  O  O11  1  0.702220  0.395127  0.924952  1
  O  O12  1  0.669719  0.553890  0.664239  1
  O  O13  1  0.169719  0.446110  0.835761  1
  O  O14  1  0.330281  0.446110  0.335761  1
  O  O15  1  0.830281  0.553890  0.164239  1
  O  O16  1  0.711176  0.108307  0.640584  1
  O  O17  1  0.211176  0.891693  0.859416  1
  O  O18  1  0.288824  0.891693  0.359416  1
  O  O19  1  0.788824  0.108307  0.140584  1
  Sr  Sr20  1  0.933939  0.844095  0.681047  1
  Sr  Sr21  1  0.433939  0.155905  0.818953  1
  Sr  Sr22  1  0.066061  0.155905  0.318953  1
  Sr  Sr23  1  0.566061  0.844095  0.181047  1
  Sr  Sr24  1  0.500246  0.659446  0.861213  1
  Sr  Sr25  1  0.000246  0.340554  0.638787  1
  Sr  Sr26  1  0.499754  0.340554  0.138787  1
  Sr  Sr27  1  0.999754  0.659446  0.361213  1
  U  U28  1  0.000000  0.000000  0.000000  1
  U  U29  1  0.500000  0.000000  0.500000  1
  U  U30  1  0.000000  0.500000  0.000000  1
  U  U31  1  0.500000  0.500000  0.500000  1
