# generated using pymatgen
data_BaCaAlF7
_symmetry_space_group_name_H-M   'P 1'
_cell_length_a   5.43845097
_cell_length_b   5.46624715
_cell_length_c   19.08005418
_cell_angle_alpha   90.00000000
_cell_angle_beta   92.41077205
_cell_angle_gamma   90.00000000
_symmetry_Int_Tables_number   1
_chemical_formula_structural   BaCaAlF7
_chemical_formula_sum   'Ba4 Ca4 Al4 F28'
_cell_volume   566.70825394
_cell_formula_units_Z   4
loop_
 _symmetry_equiv_pos_site_id
 _symmetry_equiv_pos_as_xyz
  1  'x, y, z'
loop_
 _atom_site_type_symbol
 _atom_site_label
 _atom_site_symmetry_multiplicity
 _atom_site_fract_x
 _atom_site_fract_y
 _atom_site_fract_z
 _atom_site_occupancy
  F  F0  1  0.777838  0.044162  0.934562  1
  F  F1  1  0.722162  0.044162  0.565438  1
  F  F2  1  0.222162  0.955838  0.065438  1
  F  F3  1  0.277838  0.955838  0.434562  1
  F  F4  1  0.515413  0.029203  0.175005  1
  F  F5  1  0.984587  0.029203  0.324995  1
  F  F6  1  0.484587  0.970797  0.824995  1
  F  F7  1  0.015413  0.970797  0.675005  1
  F  F8  1  0.552103  0.282251  0.060494  1
  F  F9  1  0.947897  0.282251  0.439506  1
  F  F10  1  0.447897  0.717749  0.939506  1
  F  F11  1  0.052103  0.717749  0.560494  1
  F  F12  1  0.598840  0.593223  0.564575  1
  F  F13  1  0.901160  0.593223  0.935425  1
  F  F14  1  0.401160  0.406777  0.435425  1
  F  F15  1  0.098840  0.406777  0.064575  1
  F  F16  1  0.564817  0.861898  0.681109  1
  F  F17  1  0.935183  0.861898  0.818891  1
  F  F18  1  0.435183  0.138102  0.318891  1
  F  F19  1  0.064817  0.138102  0.181109  1
  F  F20  1  0.088618  0.481053  0.325838  1
  F  F21  1  0.411382  0.481053  0.174162  1
  F  F22  1  0.911382  0.518947  0.674162  1
  F  F23  1  0.588618  0.518947  0.825838  1
  F  F24  1  0.416641  0.362649  0.692739  1
  F  F25  1  0.083359  0.362649  0.807261  1
  F  F26  1  0.583359  0.637351  0.307261  1
  F  F27  1  0.916641  0.637351  0.192739  1
  Al  Al28  1  0.299273  0.224755  0.119516  1
  Al  Al29  1  0.200727  0.224755  0.380484  1
  Al  Al30  1  0.799273  0.775245  0.619516  1
  Al  Al31  1  0.700727  0.775245  0.880484  1
  Ca  Ca32  1  0.750000  0.322084  0.250000  1
  Ca  Ca33  1  0.250000  0.792203  0.250000  1
  Ca  Ca34  1  0.250000  0.677916  0.750000  1
  Ca  Ca35  1  0.750000  0.207797  0.750000  1
  Ba  Ba36  1  0.748115  0.757417  0.432379  1
  Ba  Ba37  1  0.751885  0.757417  0.067621  1
  Ba  Ba38  1  0.251885  0.242583  0.567621  1
  Ba  Ba39  1  0.248115  0.242583  0.932379  1
