# generated using pymatgen
data_Te3MoWS
_symmetry_space_group_name_H-M   'P 1'
_cell_length_a   3.45137974
_cell_length_b   3.45138973
_cell_length_c   39.39430532
_cell_angle_alpha   90.00126513
_cell_angle_beta   90.00000000
_cell_angle_gamma   119.99990424
_symmetry_Int_Tables_number   1
_chemical_formula_structural   Te3MoWS
_chemical_formula_sum   'Te6 Mo2 W2 S2'
_cell_volume   406.39770364
_cell_formula_units_Z   2
loop_
 _symmetry_equiv_pos_site_id
 _symmetry_equiv_pos_as_xyz
  1  'x, y, z'
loop_
 _atom_site_type_symbol
 _atom_site_label
 _atom_site_symmetry_multiplicity
 _atom_site_fract_x
 _atom_site_fract_y
 _atom_site_fract_z
 _atom_site_occupancy
  Te  Te0  1  0.333368  0.666738  0.328821  1
  Te  Te1  1  0.666636  0.333270  0.046887  1
  Te  Te2  1  0.666643  0.333285  0.422425  1
  Te  Te3  1  0.666648  0.333295  0.140925  1
  Te  Te4  1  0.666646  0.333291  0.517013  1
  Te  Te5  1  0.333362  0.666725  0.234809  1
  Mo  Mo6  1  0.333310  0.666619  0.093855  1
  Mo  Mo7  1  0.666687  0.333374  0.281738  1
  W  W8  1  0.333308  0.666616  0.469683  1
  W  W9  1  0.666689  0.333378  0.657522  1
  S  S10  1  0.333352  0.666704  0.695457  1
  S  S11  1  0.333352  0.666705  0.619615  1
