# generated using pymatgen
data_Te4Mo(WSe)2
_symmetry_space_group_name_H-M   'P 1'
_cell_length_a   3.47681510
_cell_length_b   3.47678494
_cell_length_c   32.10030298
_cell_angle_alpha   89.99959932
_cell_angle_beta   90.00000000
_cell_angle_gamma   120.00028700
_symmetry_Int_Tables_number   1
_chemical_formula_structural   Te4Mo(WSe)2
_chemical_formula_sum   'Te4 Mo1 W2 Se2'
_cell_volume   336.04538046
_cell_formula_units_Z   1
loop_
 _symmetry_equiv_pos_site_id
 _symmetry_equiv_pos_as_xyz
  1  'x, y, z'
loop_
 _atom_site_type_symbol
 _atom_site_label
 _atom_site_symmetry_multiplicity
 _atom_site_fract_x
 _atom_site_fract_y
 _atom_site_fract_z
 _atom_site_occupancy
  Te  Te0  1  0.333353  0.666707  0.404286  1
  Te  Te1  1  0.666649  0.333297  0.520656  1
  Te  Te2  1  0.666649  0.333296  0.635981  1
  Te  Te3  1  0.333351  0.666702  0.289605  1
  Mo  Mo4  1  0.666689  0.333378  0.346996  1
  W  W5  1  0.333311  0.666621  0.115659  1
  W  W6  1  0.333312  0.666624  0.578372  1
  Se  Se7  1  0.666649  0.333298  0.064872  1
  Se  Se8  1  0.666639  0.333276  0.166413  1
