# generated using pymatgen
data_MoWSe4
_symmetry_space_group_name_H-M   'P 1'
_cell_length_a   3.32285309
_cell_length_b   3.32275732
_cell_length_c   37.85055606
_cell_angle_alpha   90.00054060
_cell_angle_beta   90.00000000
_cell_angle_gamma   120.00095339
_symmetry_Int_Tables_number   1
_chemical_formula_structural   MoWSe4
_chemical_formula_sum   'Mo2 W2 Se8'
_cell_volume   361.91658628
_cell_formula_units_Z   2
loop_
 _symmetry_equiv_pos_site_id
 _symmetry_equiv_pos_as_xyz
  1  'x, y, z'
loop_
 _atom_site_type_symbol
 _atom_site_label
 _atom_site_symmetry_multiplicity
 _atom_site_fract_x
 _atom_site_fract_y
 _atom_site_fract_z
 _atom_site_occupancy
  Mo  Mo0  1  0.333306  0.666613  0.093920  1
  Mo  Mo1  1  0.666694  0.333387  0.657538  1
  W  W2  1  0.333312  0.666624  0.469656  1
  W  W3  1  0.666688  0.333376  0.281802  1
  Se  Se4  1  0.333358  0.666717  0.326302  1
  Se  Se5  1  0.333360  0.666720  0.701820  1
  Se  Se6  1  0.666640  0.333280  0.049638  1
  Se  Se7  1  0.666642  0.333283  0.425156  1
  Se  Se8  1  0.666634  0.333268  0.138214  1
  Se  Se9  1  0.666648  0.333295  0.514160  1
  Se  Se10  1  0.333352  0.666705  0.237298  1
  Se  Se11  1  0.333366  0.666732  0.613244  1
