# generated using pymatgen
data_Te4Mo3WSe4
_symmetry_space_group_name_H-M   'P 1'
_cell_length_a   3.43714591
_cell_length_b   3.43712875
_cell_length_c   39.05270020
_cell_angle_alpha   90.00008104
_cell_angle_beta   90.00000626
_cell_angle_gamma   120.00014073
_symmetry_Int_Tables_number   1
_chemical_formula_structural   Te4Mo3WSe4
_chemical_formula_sum   'Te4 Mo3 W1 Se4'
_cell_volume   399.55342045
_cell_formula_units_Z   1
loop_
 _symmetry_equiv_pos_site_id
 _symmetry_equiv_pos_as_xyz
  1  'x, y, z'
loop_
 _atom_site_type_symbol
 _atom_site_label
 _atom_site_symmetry_multiplicity
 _atom_site_fract_x
 _atom_site_fract_y
 _atom_site_fract_z
 _atom_site_occupancy
  Te  Te0  1  0.333353  0.666706  0.705054  1
  Te  Te1  1  0.666646  0.333292  0.046405  1
  Te  Te2  1  0.666648  0.333296  0.141463  1
  Te  Te3  1  0.333356  0.666712  0.610003  1
  Mo  Mo4  1  0.333311  0.666621  0.093907  1
  Mo  Mo5  1  0.666687  0.333375  0.281794  1
  Mo  Mo6  1  0.666690  0.333380  0.657548  1
  W  W7  1  0.333312  0.666624  0.469647  1
  Se  Se8  1  0.333353  0.666706  0.323751  1
  Se  Se9  1  0.666647  0.333294  0.427635  1
  Se  Se10  1  0.666648  0.333296  0.511667  1
  Se  Se11  1  0.333350  0.666700  0.239873  1
