# generated using pymatgen
data_Te2Mo
_symmetry_space_group_name_H-M   'P 1'
_cell_length_a   3.55871100
_cell_length_b   3.55871064
_cell_length_c   33.01996800
_cell_angle_alpha   90.00000000
_cell_angle_beta   90.00000000
_cell_angle_gamma   119.99999408
_symmetry_Int_Tables_number   1
_chemical_formula_structural   Te2Mo
_chemical_formula_sum   'Te6 Mo3'
_cell_volume   362.15351338
_cell_formula_units_Z   3
loop_
 _symmetry_equiv_pos_site_id
 _symmetry_equiv_pos_as_xyz
  1  'x, y, z'
loop_
 _atom_site_type_symbol
 _atom_site_label
 _atom_site_symmetry_multiplicity
 _atom_site_fract_x
 _atom_site_fract_y
 _atom_site_fract_z
 _atom_site_occupancy
  Te  Te0  1  0.333333  0.666667  0.293771  1
  Te  Te1  1  0.666667  0.333333  0.061387  1
  Te  Te2  1  0.666667  0.333333  0.526155  1
  Te  Te3  1  0.666667  0.333333  0.170998  1
  Te  Te4  1  0.666667  0.333333  0.635766  1
  Te  Te5  1  0.333333  0.666667  0.403382  1
  Mo  Mo6  1  0.333333  0.666667  0.116192  1
  Mo  Mo7  1  0.333333  0.666667  0.580961  1
  Mo  Mo8  1  0.666667  0.333333  0.348576  1
