# generated using pymatgen
data_CaHg2
_symmetry_space_group_name_H-M   'P 1'
_cell_length_a   3.62352786
_cell_length_b   5.39158068
_cell_length_c   5.40788951
_cell_angle_alpha   120.10011030
_cell_angle_beta   90.00000004
_cell_angle_gamma   90.98738156
_symmetry_Int_Tables_number   1
_chemical_formula_structural   CaHg2
_chemical_formula_sum   'Ca1 Hg2'
_cell_volume   91.38627953
_cell_formula_units_Z   1
loop_
 _symmetry_equiv_pos_site_id
 _symmetry_equiv_pos_as_xyz
  1  'x, y, z'
loop_
 _atom_site_type_symbol
 _atom_site_label
 _atom_site_symmetry_multiplicity
 _atom_site_fract_x
 _atom_site_fract_y
 _atom_site_fract_z
 _atom_site_occupancy
  Ca  Ca0  1  0.000000  0.000000  0.000000  1
  Hg  Hg1  1  0.065497  0.333553  0.666776  1
  Hg  Hg2  1  0.934503  0.666447  0.333224  1
