# generated using pymatgen
data_Tb11O20
_symmetry_space_group_name_H-M   'P 1'
_cell_length_a   6.64951871
_cell_length_b   6.59599577
_cell_length_c   10.29961373
_cell_angle_alpha   92.87323263
_cell_angle_beta   94.66635533
_cell_angle_gamma   98.87923016
_symmetry_Int_Tables_number   1
_chemical_formula_structural   Tb11O20
_chemical_formula_sum   'Tb11 O20'
_cell_volume   443.94775019
_cell_formula_units_Z   1
loop_
 _symmetry_equiv_pos_site_id
 _symmetry_equiv_pos_as_xyz
  1  'x, y, z'
loop_
 _atom_site_type_symbol
 _atom_site_label
 _atom_site_symmetry_multiplicity
 _atom_site_fract_x
 _atom_site_fract_y
 _atom_site_fract_z
 _atom_site_occupancy
  O  O0  1  0.062417  0.339658  0.953212  1
  O  O1  1  0.937583  0.660342  0.046788  1
  O  O2  1  0.774559  0.321441  0.349302  1
  O  O3  1  0.225441  0.678559  0.650698  1
  O  O4  1  0.940352  0.162016  0.574179  1
  O  O5  1  0.059648  0.837984  0.425821  1
  O  O6  1  0.562582  0.406323  0.113627  1
  O  O7  1  0.437418  0.593677  0.886373  1
  O  O8  1  0.683841  0.072873  0.960132  1
  O  O9  1  0.316159  0.927127  0.039868  1
  O  O10  1  0.310297  0.409783  0.534718  1
  O  O11  1  0.689703  0.590217  0.465282  1
  O  O12  1  0.474429  0.243214  0.753835  1
  O  O13  1  0.525571  0.756786  0.246165  1
  O  O14  1  0.903907  0.009939  0.205710  1
  O  O15  1  0.096093  0.990061  0.794290  1
  O  O16  1  0.150890  0.495195  0.276008  1
  O  O17  1  0.849110  0.504805  0.723992  1
  O  O18  1  0.587142  0.906663  0.621434  1
  O  O19  1  0.412858  0.093337  0.378566  1
  Tb  Tb20  1  0.000000  0.000000  0.000000  1
  Tb  Tb21  1  0.711686  0.414378  0.915411  1
  Tb  Tb22  1  0.288314  0.585622  0.084589  1
  Tb  Tb23  1  0.418941  0.912152  0.816367  1
  Tb  Tb24  1  0.581059  0.087848  0.183633  1
  Tb  Tb25  1  0.911251  0.812745  0.616283  1
  Tb  Tb26  1  0.088749  0.187255  0.383717  1
  Tb  Tb27  1  0.159349  0.352708  0.737407  1
  Tb  Tb28  1  0.840651  0.647292  0.262593  1
  Tb  Tb29  1  0.631477  0.275092  0.561470  1
  Tb  Tb30  1  0.368523  0.724908  0.438530  1
