# generated using pymatgen
data_K2Ge(S2O7)3
_symmetry_space_group_name_H-M   'P 1'
_cell_length_a   9.79635002
_cell_length_b   9.79619993
_cell_length_c   11.15024110
_cell_angle_alpha   89.99983656
_cell_angle_beta   90.00073431
_cell_angle_gamma   120.00011685
_symmetry_Int_Tables_number   1
_chemical_formula_structural   K2Ge(S2O7)3
_chemical_formula_sum   'K4 Ge2 S12 O42'
_cell_volume   926.69391732
_cell_formula_units_Z   2
loop_
 _symmetry_equiv_pos_site_id
 _symmetry_equiv_pos_as_xyz
  1  'x, y, z'
loop_
 _atom_site_type_symbol
 _atom_site_label
 _atom_site_symmetry_multiplicity
 _atom_site_fract_x
 _atom_site_fract_y
 _atom_site_fract_z
 _atom_site_occupancy
  K  K0  1  0.333228  0.666624  0.560129  1
  K  K1  1  0.666772  0.333376  0.439871  1
  K  K2  1  0.333370  0.666685  0.127057  1
  K  K3  1  0.666630  0.333315  0.872943  1
  Ge  Ge4  1  0.000000  0.000002  0.758183  1
  Ge  Ge5  1  1.000000  -0.000002  0.241817  1
  S  S6  1  0.071737  0.334725  0.339688  1
  S  S7  1  0.262984  0.928260  0.339692  1
  S  S8  1  0.665282  0.737017  0.339695  1
  S  S9  1  0.928263  0.665275  0.660312  1
  S  S10  1  0.737016  0.071740  0.660308  1
  S  S11  1  0.334718  0.262983  0.660305  1
  S  S12  1  0.160352  0.811871  0.848039  1
  S  S13  1  0.651525  0.839653  0.848035  1
  S  S14  1  0.188133  0.348482  0.848037  1
  S  S15  1  0.839648  0.188129  0.151961  1
  S  S16  1  0.348475  0.160347  0.151965  1
  S  S17  1  0.811867  0.651518  0.151963  1
  O  O18  1  0.118770  0.942625  0.861714  1
  O  O19  1  0.823860  0.881233  0.861711  1
  O  O20  1  0.057379  0.176145  0.861715  1
  O  O21  1  0.881230  0.057375  0.138286  1
  O  O22  1  0.176140  0.118767  0.138289  1
  O  O23  1  0.942621  0.823855  0.138285  1
  O  O24  1  0.055476  0.172434  0.348826  1
  O  O25  1  0.116954  0.944519  0.348827  1
  O  O26  1  0.827574  0.883047  0.348830  1
  O  O27  1  0.944523  0.827566  0.651174  1
  O  O28  1  0.883046  0.055481  0.651173  1
  O  O29  1  0.172426  0.116953  0.651170  1
  O  O30  1  0.233306  0.457842  0.331352  1
  O  O31  1  0.224526  0.766687  0.331349  1
  O  O32  1  0.542171  0.775475  0.331355  1
  O  O33  1  0.766694  0.542158  0.668648  1
  O  O34  1  0.775474  0.233313  0.668651  1
  O  O35  1  0.457829  0.224525  0.668645  1
  O  O36  1  0.175454  0.759664  0.964629  1
  O  O37  1  0.584226  0.824558  0.964626  1
  O  O38  1  0.240341  0.415790  0.964627  1
  O  O39  1  0.824546  0.240336  0.035371  1
  O  O40  1  0.415774  0.175442  0.035374  1
  O  O41  1  0.759659  0.584210  0.035373  1
  O  O42  1  0.279028  0.848779  0.758639  1
  O  O43  1  0.569755  0.720971  0.758636  1
  O  O44  1  0.151218  0.430249  0.758638  1
  O  O45  1  0.720972  0.151221  0.241361  1
  O  O46  1  0.430245  0.279029  0.241364  1
  O  O47  1  0.848782  0.569751  0.241362  1
  O  O48  1  0.007357  0.337845  0.201813  1
  O  O49  1  0.330480  0.992638  0.201816  1
  O  O50  1  0.662159  0.669517  0.201815  1
  O  O51  1  0.992643  0.662155  0.798187  1
  O  O52  1  0.669520  0.007362  0.798184  1
  O  O53  1  0.337841  0.330483  0.798185  1
  O  O54  1  0.970902  0.349361  0.425416  1
  O  O55  1  0.378457  0.029097  0.425420  1
  O  O56  1  0.650651  0.621541  0.425418  1
  O  O57  1  0.029098  0.650639  0.574584  1
  O  O58  1  0.621543  0.970903  0.574580  1
  O  O59  1  0.349349  0.378459  0.574582  1
