# generated using pymatgen
data_CaCr(Si2O5)2
_symmetry_space_group_name_H-M   'P 1'
_cell_length_a   7.47160861
_cell_length_b   7.47160861
_cell_length_c   15.39855975
_cell_angle_alpha   90.00000000
_cell_angle_beta   90.00000000
_cell_angle_gamma   90.00000000
_symmetry_Int_Tables_number   1
_chemical_formula_structural   CaCr(Si2O5)2
_chemical_formula_sum   'Ca4 Cr4 Si16 O40'
_cell_volume   859.62360054
_cell_formula_units_Z   4
loop_
 _symmetry_equiv_pos_site_id
 _symmetry_equiv_pos_as_xyz
  1  'x, y, z'
loop_
 _atom_site_type_symbol
 _atom_site_label
 _atom_site_symmetry_multiplicity
 _atom_site_fract_x
 _atom_site_fract_y
 _atom_site_fract_z
 _atom_site_occupancy
  Ca  Ca0  1  0.250000  0.750000  0.000000  1
  Ca  Ca1  1  0.750000  0.250000  0.000000  1
  Ca  Ca2  1  0.750000  0.250000  0.500000  1
  Ca  Ca3  1  0.250000  0.750000  0.500000  1
  Cr  Cr4  1  0.250000  0.250000  0.080781  1
  Cr  Cr5  1  0.750000  0.750000  0.419219  1
  Cr  Cr6  1  0.750000  0.750000  0.919219  1
  Cr  Cr7  1  0.250000  0.250000  0.580781  1
  Si  Si8  1  0.920778  0.501777  0.648246  1
  Si  Si9  1  0.579222  0.998223  0.648246  1
  Si  Si10  1  0.001777  0.420778  0.851754  1
  Si  Si11  1  0.501777  0.579222  0.648246  1
  Si  Si12  1  0.998223  0.920778  0.648246  1
  Si  Si13  1  0.079223  0.001777  0.851754  1
  Si  Si14  1  0.420778  0.498223  0.851754  1
  Si  Si15  1  0.498223  0.079223  0.851754  1
  Si  Si16  1  0.079223  0.498223  0.351754  1
  Si  Si17  1  0.420778  0.001777  0.351754  1
  Si  Si18  1  0.998223  0.579222  0.148246  1
  Si  Si19  1  0.498223  0.420778  0.351754  1
  Si  Si20  1  0.001777  0.079223  0.351754  1
  Si  Si21  1  0.920778  0.998223  0.148246  1
  Si  Si22  1  0.579222  0.501777  0.148246  1
  Si  Si23  1  0.501777  0.920778  0.148246  1
  O  O24  1  0.997998  0.354785  0.582519  1
  O  O25  1  0.502002  0.145215  0.582519  1
  O  O26  1  0.854785  0.497998  0.917481  1
  O  O27  1  0.354785  0.502002  0.582519  1
  O  O28  1  0.145215  0.997998  0.582519  1
  O  O29  1  0.002002  0.854785  0.917481  1
  O  O30  1  0.497998  0.645215  0.917481  1
  O  O31  1  0.645215  0.002002  0.917481  1
  O  O32  1  0.002002  0.645215  0.417481  1
  O  O33  1  0.497998  0.854785  0.417481  1
  O  O34  1  0.145215  0.502002  0.082519  1
  O  O35  1  0.645215  0.497998  0.417481  1
  O  O36  1  0.854785  0.002002  0.417481  1
  O  O37  1  0.997998  0.145215  0.082519  1
  O  O38  1  0.502002  0.354785  0.082519  1
  O  O39  1  0.000801  0.296446  0.371781  1
  O  O40  1  0.354785  0.997998  0.082519  1
  O  O41  1  0.500801  0.796446  0.628219  1
  O  O42  1  0.203554  0.499199  0.871781  1
  O  O43  1  0.703554  0.500801  0.628219  1
  O  O44  1  0.796446  0.999199  0.628219  1
  O  O45  1  0.000801  0.203554  0.871781  1
  O  O46  1  0.499199  0.296446  0.871781  1
  O  O47  1  0.296446  0.000801  0.871781  1
  O  O48  1  0.456287  0.956287  0.250000  1
  O  O49  1  0.543713  0.456287  0.250000  1
  O  O50  1  0.956287  0.043713  0.250000  1
  O  O51  1  0.043713  0.543713  0.250000  1
  O  O52  1  0.543713  0.043713  0.750000  1
  O  O53  1  0.456287  0.543713  0.750000  1
  O  O54  1  0.043713  0.956287  0.750000  1
  O  O55  1  0.956287  0.456287  0.750000  1
  O  O56  1  0.703554  0.999199  0.128219  1
  O  O57  1  0.500801  0.703554  0.128219  1
  O  O58  1  0.999199  0.796446  0.128219  1
  O  O59  1  0.203554  0.000801  0.371781  1
  O  O60  1  0.296446  0.499199  0.371781  1
  O  O61  1  0.796446  0.500801  0.128219  1
  O  O62  1  0.499199  0.203554  0.371781  1
  O  O63  1  0.999199  0.703554  0.628219  1
