# generated using pymatgen
data_RbGe
_symmetry_space_group_name_H-M   'P 1'
_cell_length_a   13.41409036
_cell_length_b   13.41409036
_cell_length_c   13.41409036
_cell_angle_alpha   90.00000000
_cell_angle_beta   90.00000000
_cell_angle_gamma   90.00000000
_symmetry_Int_Tables_number   1
_chemical_formula_structural   RbGe
_chemical_formula_sum   'Rb32 Ge32'
_cell_volume   2413.70217916
_cell_formula_units_Z   32
loop_
 _symmetry_equiv_pos_site_id
 _symmetry_equiv_pos_as_xyz
  1  'x, y, z'
loop_
 _atom_site_type_symbol
 _atom_site_label
 _atom_site_symmetry_multiplicity
 _atom_site_fract_x
 _atom_site_fract_y
 _atom_site_fract_z
 _atom_site_occupancy
  Ge  Ge0  1  0.068719  0.068719  0.068719  1
  Ge  Ge1  1  0.431281  0.568719  0.431281  1
  Ge  Ge2  1  0.431281  0.431281  0.568719  1
  Ge  Ge3  1  0.568719  0.431281  0.431281  1
  Ge  Ge4  1  0.931281  0.931281  0.068719  1
  Ge  Ge5  1  0.068719  0.931281  0.931281  1
  Ge  Ge6  1  0.931281  0.068719  0.931281  1
  Ge  Ge7  1  0.568719  0.568719  0.568719  1
  Ge  Ge8  1  0.062943  0.317753  0.424975  1
  Ge  Ge9  1  0.437057  0.924975  0.182247  1
  Ge  Ge10  1  0.437057  0.075025  0.817753  1
  Ge  Ge11  1  0.075025  0.182247  0.562943  1
  Ge  Ge12  1  0.924975  0.182247  0.437057  1
  Ge  Ge13  1  0.817753  0.437057  0.075025  1
  Ge  Ge14  1  0.182247  0.562943  0.075025  1
  Ge  Ge15  1  0.424975  0.062943  0.317753  1
  Ge  Ge16  1  0.317753  0.424975  0.062943  1
  Ge  Ge17  1  0.682247  0.575025  0.062943  1
  Ge  Ge18  1  0.424975  0.937057  0.682247  1
  Ge  Ge19  1  0.682247  0.424975  0.937057  1
  Ge  Ge20  1  0.575025  0.937057  0.317753  1
  Ge  Ge21  1  0.575025  0.062943  0.682247  1
  Ge  Ge22  1  0.317753  0.575025  0.937057  1
  Ge  Ge23  1  0.062943  0.682247  0.575025  1
  Ge  Ge24  1  0.937057  0.317753  0.575025  1
  Ge  Ge25  1  0.937057  0.682247  0.424975  1
  Ge  Ge26  1  0.182247  0.437057  0.924975  1
  Ge  Ge27  1  0.817753  0.562943  0.924975  1
  Ge  Ge28  1  0.075025  0.817753  0.437057  1
  Ge  Ge29  1  0.924975  0.817753  0.562943  1
  Ge  Ge30  1  0.562943  0.075025  0.182247  1
  Ge  Ge31  1  0.562943  0.924975  0.817753  1
  Rb  Rb32  1  0.334196  0.334196  0.334196  1
  Rb  Rb33  1  0.165804  0.834196  0.165804  1
  Rb  Rb34  1  0.165804  0.165804  0.834196  1
  Rb  Rb35  1  0.834196  0.165804  0.165804  1
  Rb  Rb36  1  0.665804  0.665804  0.334196  1
  Rb  Rb37  1  0.334196  0.665804  0.665804  1
  Rb  Rb38  1  0.665804  0.334196  0.665804  1
  Rb  Rb39  1  0.834196  0.834196  0.834196  1
  Rb  Rb40  1  0.337488  0.138947  0.066362  1
  Rb  Rb41  1  0.162512  0.566362  0.361053  1
  Rb  Rb42  1  0.162512  0.433638  0.638947  1
  Rb  Rb43  1  0.433638  0.361053  0.837488  1
  Rb  Rb44  1  0.566362  0.361053  0.162512  1
  Rb  Rb45  1  0.638947  0.162512  0.433638  1
  Rb  Rb46  1  0.361053  0.837488  0.433638  1
  Rb  Rb47  1  0.066362  0.337488  0.138947  1
  Rb  Rb48  1  0.138947  0.066362  0.337488  1
  Rb  Rb49  1  0.861053  0.933638  0.337488  1
  Rb  Rb50  1  0.066362  0.662512  0.861053  1
  Rb  Rb51  1  0.861053  0.066362  0.662512  1
  Rb  Rb52  1  0.933638  0.662512  0.138947  1
  Rb  Rb53  1  0.933638  0.337488  0.861053  1
  Rb  Rb54  1  0.138947  0.933638  0.662512  1
  Rb  Rb55  1  0.337488  0.861053  0.933638  1
  Rb  Rb56  1  0.662512  0.138947  0.933638  1
  Rb  Rb57  1  0.662512  0.861053  0.066362  1
  Rb  Rb58  1  0.361053  0.162512  0.566362  1
  Rb  Rb59  1  0.638947  0.837488  0.566362  1
  Rb  Rb60  1  0.433638  0.638947  0.162512  1
  Rb  Rb61  1  0.566362  0.638947  0.837488  1
  Rb  Rb62  1  0.837488  0.433638  0.361053  1
  Rb  Rb63  1  0.837488  0.566362  0.638947  1
