# generated using pymatgen
data_ZrSnS3
_symmetry_space_group_name_H-M   'P 1'
_cell_length_a   3.75387131
_cell_length_b   9.57251340
_cell_length_c   14.15166526
_cell_angle_alpha   90.00000000
_cell_angle_beta   90.00000000
_cell_angle_gamma   90.00000000
_symmetry_Int_Tables_number   1
_chemical_formula_structural   ZrSnS3
_chemical_formula_sum   'Zr4 Sn4 S12'
_cell_volume   508.52570477
_cell_formula_units_Z   4
loop_
 _symmetry_equiv_pos_site_id
 _symmetry_equiv_pos_as_xyz
  1  'x, y, z'
loop_
 _atom_site_type_symbol
 _atom_site_label
 _atom_site_symmetry_multiplicity
 _atom_site_fract_x
 _atom_site_fract_y
 _atom_site_fract_z
 _atom_site_occupancy
  S  S0  1  0.250000  0.510635  0.606569  1
  S  S1  1  0.750000  0.489365  0.393431  1
  S  S2  1  0.250000  0.010635  0.893431  1
  S  S3  1  0.750000  0.989365  0.106569  1
  S  S4  1  0.750000  0.823264  0.507929  1
  S  S5  1  0.250000  0.176736  0.492071  1
  S  S6  1  0.750000  0.323264  0.992071  1
  S  S7  1  0.250000  0.676736  0.007929  1
  S  S8  1  0.750000  0.733606  0.787312  1
  S  S9  1  0.250000  0.266394  0.212688  1
  S  S10  1  0.750000  0.233606  0.712688  1
  S  S11  1  0.250000  0.766394  0.287312  1
  Zr  Zr12  1  0.250000  0.657587  0.452584  1
  Zr  Zr13  1  0.750000  0.342413  0.547416  1
  Zr  Zr14  1  0.250000  0.157587  0.047416  1
  Zr  Zr15  1  0.750000  0.842413  0.952584  1
  Sn  Sn16  1  0.750000  0.944468  0.334042  1
  Sn  Sn17  1  0.250000  0.055532  0.665958  1
  Sn  Sn18  1  0.750000  0.444468  0.165958  1
  Sn  Sn19  1  0.250000  0.555532  0.834042  1
