# generated using pymatgen
data_Fe(NiSe2)2
_symmetry_space_group_name_H-M   'P 1'
_cell_length_a   3.60023094
_cell_length_b   6.22255276
_cell_length_c   6.34731238
_cell_angle_alpha   118.21283337
_cell_angle_beta   106.47534843
_cell_angle_gamma   90.00000000
_symmetry_Int_Tables_number   1
_chemical_formula_structural   Fe(NiSe2)2
_chemical_formula_sum   'Fe1 Ni2 Se4'
_cell_volume   118.63640433
_cell_formula_units_Z   1
loop_
 _symmetry_equiv_pos_site_id
 _symmetry_equiv_pos_as_xyz
  1  'x, y, z'
loop_
 _atom_site_type_symbol
 _atom_site_label
 _atom_site_symmetry_multiplicity
 _atom_site_fract_x
 _atom_site_fract_y
 _atom_site_fract_z
 _atom_site_occupancy
  Fe  Fe0  1  0.000000  0.000000  0.000000  1
  Ni  Ni1  1  0.260632  0.286848  0.521263  1
  Ni  Ni2  1  0.739368  0.713152  0.478737  1
  Se  Se3  1  0.116905  0.450599  0.233810  1
  Se  Se4  1  0.883095  0.549401  0.766190  1
  Se  Se5  1  0.363626  0.022699  0.727252  1
  Se  Se6  1  0.636374  0.977301  0.272748  1
