# generated using pymatgen
data_Ba2InO3F
_symmetry_space_group_name_H-M   'P 1'
_cell_length_a   4.22909940
_cell_length_b   4.22909940
_cell_length_c   14.17652216
_cell_angle_alpha   90.00000000
_cell_angle_beta   90.00000000
_cell_angle_gamma   90.00000000
_symmetry_Int_Tables_number   1
_chemical_formula_structural   Ba2InO3F
_chemical_formula_sum   'Ba4 In2 O6 F2'
_cell_volume   253.55109286
_cell_formula_units_Z   2
loop_
 _symmetry_equiv_pos_site_id
 _symmetry_equiv_pos_as_xyz
  1  'x, y, z'
loop_
 _atom_site_type_symbol
 _atom_site_label
 _atom_site_symmetry_multiplicity
 _atom_site_fract_x
 _atom_site_fract_y
 _atom_site_fract_z
 _atom_site_occupancy
  O  O0  1  0.250000  0.750000  0.258374  1
  O  O1  1  0.750000  0.250000  0.258374  1
  O  O2  1  0.250000  0.250000  0.918579  1
  O  O3  1  0.750000  0.750000  0.081421  1
  O  O4  1  0.750000  0.250000  0.741626  1
  O  O5  1  0.250000  0.750000  0.741626  1
  F  F6  1  0.750000  0.750000  0.427834  1
  F  F7  1  0.250000  0.250000  0.572166  1
  In  In8  1  0.250000  0.250000  0.768019  1
  In  In9  1  0.750000  0.750000  0.231981  1
  Ba  Ba10  1  0.750000  0.750000  0.897998  1
  Ba  Ba11  1  0.250000  0.250000  0.102002  1
  Ba  Ba12  1  0.750000  0.750000  0.620530  1
  Ba  Ba13  1  0.250000  0.250000  0.379470  1
