# generated using pymatgen
data_Te2MoWSe2
_symmetry_space_group_name_H-M   'P 1'
_cell_length_a   3.44352545
_cell_length_b   3.44348083
_cell_length_c   39.14183509
_cell_angle_alpha   89.99979969
_cell_angle_beta   90.00000000
_cell_angle_gamma   120.00042853
_symmetry_Int_Tables_number   1
_chemical_formula_structural   Te2MoWSe2
_chemical_formula_sum   'Te4 Mo2 W2 Se4'
_cell_volume   401.94895696
_cell_formula_units_Z   2
loop_
 _symmetry_equiv_pos_site_id
 _symmetry_equiv_pos_as_xyz
  1  'x, y, z'
loop_
 _atom_site_type_symbol
 _atom_site_label
 _atom_site_symmetry_multiplicity
 _atom_site_fract_x
 _atom_site_fract_y
 _atom_site_fract_z
 _atom_site_occupancy
  Te  Te0  1  0.333354  0.666710  0.329395  1
  Te  Te1  1  0.666646  0.333290  0.422063  1
  Te  Te2  1  0.666646  0.333290  0.517305  1
  Te  Te3  1  0.333354  0.666710  0.234153  1
  Mo  Mo4  1  0.333307  0.666615  0.093913  1
  Mo  Mo5  1  0.666693  0.333385  0.657545  1
  W  W6  1  0.333309  0.666619  0.469690  1
  W  W7  1  0.666691  0.333381  0.281768  1
  Se  Se8  1  0.333361  0.666724  0.699324  1
  Se  Se9  1  0.666639  0.333276  0.052134  1
  Se  Se10  1  0.666641  0.333281  0.135728  1
  Se  Se11  1  0.333359  0.666719  0.615730  1
