# generated using pymatgen
data_RbLi2Ga2(BO3)3
_symmetry_space_group_name_H-M   'P 1'
_cell_length_a   5.01098464
_cell_length_b   6.50329588
_cell_length_c   12.96151192
_cell_angle_alpha   92.91509665
_cell_angle_beta   90.00000000
_cell_angle_gamma   90.00000000
_symmetry_Int_Tables_number   1
_chemical_formula_structural   RbLi2Ga2(BO3)3
_chemical_formula_sum   'Rb2 Li4 Ga4 B6 O18'
_cell_volume   421.84208420
_cell_formula_units_Z   2
loop_
 _symmetry_equiv_pos_site_id
 _symmetry_equiv_pos_as_xyz
  1  'x, y, z'
loop_
 _atom_site_type_symbol
 _atom_site_label
 _atom_site_symmetry_multiplicity
 _atom_site_fract_x
 _atom_site_fract_y
 _atom_site_fract_z
 _atom_site_occupancy
  Li  Li0  1  0.170193  0.496832  0.866843  1
  Li  Li1  1  0.170193  0.503168  0.633157  1
  Li  Li2  1  0.829807  0.503168  0.133157  1
  Li  Li3  1  0.829807  0.496832  0.366843  1
  B  B4  1  0.336376  0.500000  0.250000  1
  B  B5  1  0.663624  0.500000  0.750000  1
  B  B6  1  0.817316  0.190789  0.959171  1
  B  B7  1  0.817316  0.809211  0.540829  1
  B  B8  1  0.182684  0.809211  0.040829  1
  B  B9  1  0.182684  0.190789  0.459171  1
  O  O10  1  0.086425  0.245145  0.949429  1
  O  O11  1  0.913575  0.754855  0.050571  1
  O  O12  1  0.180582  0.598600  0.328772  1
  O  O13  1  0.913575  0.245145  0.449429  1
  O  O14  1  0.819418  0.401400  0.671228  1
  O  O15  1  0.819418  0.598600  0.828772  1
  O  O16  1  0.290616  0.036322  0.395362  1
  O  O17  1  0.290616  0.963678  0.104638  1
  O  O18  1  0.709384  0.963678  0.604638  1
  O  O19  1  0.709384  0.036322  0.895362  1
  O  O20  1  0.666586  0.702477  0.466027  1
  O  O21  1  0.666586  0.297523  0.033973  1
  O  O22  1  0.333414  0.297523  0.533973  1
  O  O23  1  0.333414  0.702477  0.966027  1
  O  O24  1  0.396205  0.500000  0.750000  1
  O  O25  1  0.603795  0.500000  0.250000  1
  O  O26  1  0.180582  0.401400  0.171228  1
  O  O27  1  0.086425  0.754855  0.550571  1
  Ga  Ga28  1  0.685739  0.765756  0.936128  1
  Ga  Ga29  1  0.685739  0.234244  0.563872  1
  Ga  Ga30  1  0.314261  0.234244  0.063872  1
  Ga  Ga31  1  0.314261  0.765756  0.436128  1
  Rb  Rb32  1  0.211642  0.000000  0.750000  1
  Rb  Rb33  1  0.788358  0.000000  0.250000  1
