# generated using pymatgen
data_BaMg2V2O8
_symmetry_space_group_name_H-M   'P 1'
_cell_length_a   8.61763299
_cell_length_b   9.90113222
_cell_length_c   9.90113222
_cell_angle_alpha   79.08308651
_cell_angle_beta   64.20298340
_cell_angle_gamma   64.20298338
_symmetry_Int_Tables_number   1
_chemical_formula_structural   BaMg2V2O8
_chemical_formula_sum   'Ba4 Mg8 V8 O32'
_cell_volume   684.81330189
_cell_formula_units_Z   4
loop_
 _symmetry_equiv_pos_site_id
 _symmetry_equiv_pos_as_xyz
  1  'x, y, z'
loop_
 _atom_site_type_symbol
 _atom_site_label
 _atom_site_symmetry_multiplicity
 _atom_site_fract_x
 _atom_site_fract_y
 _atom_site_fract_z
 _atom_site_occupancy
  O  O0  1  0.346566  0.585510  0.409374  1
  O  O1  1  0.341450  0.914490  0.090626  1
  O  O2  1  0.255940  0.090626  0.585510  1
  O  O3  1  0.932076  0.409374  0.914490  1
  O  O4  1  0.153434  0.090626  0.914490  1
  O  O5  1  0.567924  0.585510  0.090626  1
  O  O6  1  0.244060  0.914490  0.409374  1
  O  O7  1  0.158550  0.409374  0.585510  1
  O  O8  1  0.653434  0.414490  0.590626  1
  O  O9  1  0.658550  0.085510  0.909374  1
  O  O10  1  0.744060  0.909374  0.414490  1
  O  O11  1  0.067924  0.590626  0.085510  1
  O  O12  1  0.846566  0.909374  0.085510  1
  O  O13  1  0.432076  0.414490  0.909374  1
  O  O14  1  0.755940  0.085510  0.590626  1
  O  O15  1  0.841450  0.590626  0.414490  1
  O  O16  1  0.725480  0.231000  0.086433  1
  O  O17  1  0.042914  0.269000  0.413567  1
  O  O18  1  0.311914  0.413567  0.231000  1
  O  O19  1  0.956481  0.086433  0.269000  1
  O  O20  1  0.542914  0.913567  0.769000  1
  O  O21  1  0.811914  0.731000  0.913567  1
  O  O22  1  0.456481  0.769000  0.586433  1
  O  O23  1  0.225480  0.586433  0.731000  1
  O  O24  1  0.043519  0.913567  0.731000  1
  O  O25  1  0.688086  0.586433  0.769000  1
  O  O26  1  0.957086  0.731000  0.586433  1
  O  O27  1  0.274520  0.769000  0.913567  1
  O  O28  1  0.457086  0.086433  0.231000  1
  O  O29  1  0.188086  0.269000  0.086433  1
  O  O30  1  0.543519  0.231000  0.413567  1
  O  O31  1  0.774520  0.413567  0.269000  1
  Mg  Mg32  1  0.043126  0.750000  0.913747  1
  Mg  Mg33  1  0.456874  0.586253  0.750000  1
  Mg  Mg34  1  0.793126  0.913747  0.750000  1
  Mg  Mg35  1  0.706874  0.750000  0.586253  1
  Mg  Mg36  1  0.956874  0.250000  0.086253  1
  Mg  Mg37  1  0.543126  0.413747  0.250000  1
  Mg  Mg38  1  0.206874  0.086253  0.250000  1
  Mg  Mg39  1  0.293126  0.250000  0.413747  1
  V  V40  1  0.830893  0.419107  0.419107  1
  V  V41  1  0.750000  0.080893  0.419107  1
  V  V42  1  0.250000  0.419107  0.080893  1
  V  V43  1  0.669107  0.080893  0.080893  1
  V  V44  1  0.169107  0.580893  0.580893  1
  V  V45  1  0.250000  0.919107  0.580893  1
  V  V46  1  0.750000  0.580893  0.919107  1
  V  V47  1  0.330893  0.919107  0.919107  1
  Ba  Ba48  1  0.125000  0.750000  0.250000  1
  Ba  Ba49  1  0.875000  0.250000  0.750000  1
  Ba  Ba50  1  0.625000  0.750000  0.250000  1
  Ba  Ba51  1  0.375000  0.250000  0.750000  1
