# generated using pymatgen
data_Nb3AgO8
_symmetry_space_group_name_H-M   'P 1'
_cell_length_a   7.14396113
_cell_length_b   7.41482168
_cell_length_c   7.41482168
_cell_angle_alpha   60.85299245
_cell_angle_beta   61.20120824
_cell_angle_gamma   61.20120820
_symmetry_Int_Tables_number   1
_chemical_formula_structural   Nb3AgO8
_chemical_formula_sum   'Nb6 Ag2 O16'
_cell_volume   284.50952055
_cell_formula_units_Z   2
loop_
 _symmetry_equiv_pos_site_id
 _symmetry_equiv_pos_as_xyz
  1  'x, y, z'
loop_
 _atom_site_type_symbol
 _atom_site_label
 _atom_site_symmetry_multiplicity
 _atom_site_fract_x
 _atom_site_fract_y
 _atom_site_fract_z
 _atom_site_occupancy
  O  O0  1  0.559358  0.450774  0.835166  1
  O  O1  1  0.845299  0.549227  0.164833  1
  O  O2  1  0.940640  0.164835  0.549226  1
  O  O3  1  0.654702  0.835166  0.450773  1
  O  O4  1  0.440641  0.549227  0.164835  1
  O  O5  1  0.154702  0.450774  0.835166  1
  O  O6  1  0.059359  0.835166  0.450773  1
  O  O7  1  0.345299  0.164835  0.549225  1
  O  O8  1  0.829199  0.180758  0.160844  1
  O  O9  1  0.170800  0.819242  0.839157  1
  O  O10  1  0.670801  0.839157  0.819242  1
  O  O11  1  0.329200  0.160844  0.180758  1
  O  O12  1  0.071964  0.539528  0.316545  1
  O  O13  1  0.428037  0.683454  0.460472  1
  O  O14  1  0.928037  0.460472  0.683455  1
  O  O15  1  0.571963  0.316544  0.539528  1
  Nb  Nb16  1  0.233589  0.517811  0.015011  1
  Nb  Nb17  1  0.766412  0.482189  0.984987  1
  Nb  Nb18  1  0.266412  0.984987  0.482188  1
  Nb  Nb19  1  0.733588  0.015013  0.517810  1
  Nb  Nb20  1  0.750000  0.500000  0.500000  1
  Nb  Nb21  1  0.250000  0.500000  0.500000  1
  Ag  Ag22  1  0.250000  1.000000  0.999999  1
  Ag  Ag23  1  0.750000  1.000000  1.000000  1
