# generated using pymatgen
data_Rb2Ni3Se4
_symmetry_space_group_name_H-M   'P 1'
_cell_length_a   6.11080818
_cell_length_b   6.15445695
_cell_length_c   14.40108443
_cell_angle_alpha   83.95381630
_cell_angle_beta   77.75075113
_cell_angle_gamma   60.23433286
_symmetry_Int_Tables_number   1
_chemical_formula_structural   Rb2Ni3Se4
_chemical_formula_sum   'Rb4 Ni6 Se8'
_cell_volume   459.44486019
_cell_formula_units_Z   2
loop_
 _symmetry_equiv_pos_site_id
 _symmetry_equiv_pos_as_xyz
  1  'x, y, z'
loop_
 _atom_site_type_symbol
 _atom_site_label
 _atom_site_symmetry_multiplicity
 _atom_site_fract_x
 _atom_site_fract_y
 _atom_site_fract_z
 _atom_site_occupancy
  Ni  Ni0  1  0.875491  0.750000  0.249019  1
  Ni  Ni1  1  0.374509  0.750000  0.250981  1
  Ni  Ni2  1  0.124509  0.250000  0.750981  1
  Ni  Ni3  1  0.125000  0.750000  0.750000  1
  Ni  Ni4  1  0.875000  0.250000  0.250000  1
  Ni  Ni5  1  0.625491  0.250000  0.749019  1
  Se  Se6  1  0.239757  0.417488  0.858860  1
  Se  Se7  1  0.016105  0.082512  0.641140  1
  Se  Se8  1  0.342755  0.417488  0.641140  1
  Se  Se9  1  0.901382  0.082512  0.858860  1
  Se  Se10  1  0.760243  0.582512  0.141140  1
  Se  Se11  1  0.983895  0.917488  0.358860  1
  Se  Se12  1  0.657245  0.582512  0.358860  1
  Se  Se13  1  0.098618  0.917488  0.141140  1
  Rb  Rb14  1  0.549144  0.750000  0.901712  1
  Rb  Rb15  1  0.700856  0.750000  0.598288  1
  Rb  Rb16  1  0.450856  0.250000  0.098288  1
  Rb  Rb17  1  0.299144  0.250000  0.401712  1
