# generated using pymatgen
data_SrLi(B3O5)3
_symmetry_space_group_name_H-M   'P 1'
_cell_length_a   8.61179469
_cell_length_b   8.61179469
_cell_length_c   8.61179469
_cell_angle_alpha   77.83245230
_cell_angle_beta   77.83245236
_cell_angle_gamma   77.83245228
_symmetry_Int_Tables_number   1
_chemical_formula_structural   SrLi(B3O5)3
_chemical_formula_sum   'Sr2 Li2 B18 O30'
_cell_volume   600.98529680
_cell_formula_units_Z   2
loop_
 _symmetry_equiv_pos_site_id
 _symmetry_equiv_pos_as_xyz
  1  'x, y, z'
loop_
 _atom_site_type_symbol
 _atom_site_label
 _atom_site_symmetry_multiplicity
 _atom_site_fract_x
 _atom_site_fract_y
 _atom_site_fract_z
 _atom_site_occupancy
  Li  Li0  1  0.233133  0.233133  0.233133  1
  Li  Li1  1  0.733133  0.733133  0.733133  1
  B  B2  1  0.768866  0.625130  0.103893  1
  B  B3  1  0.275309  0.711286  0.833660  1
  B  B4  1  0.775309  0.333660  0.211286  1
  B  B5  1  0.333660  0.211286  0.775309  1
  B  B6  1  0.125130  0.268866  0.603893  1
  B  B7  1  0.268866  0.603893  0.125130  1
  B  B8  1  0.603893  0.125130  0.268866  1
  B  B9  1  0.833660  0.275309  0.711286  1
  B  B10  1  0.103893  0.768866  0.625130  1
  B  B11  1  0.625130  0.103893  0.768866  1
  B  B12  1  0.939762  0.280579  0.422768  1
  B  B13  1  0.280579  0.422768  0.939762  1
  B  B14  1  0.422768  0.939762  0.280579  1
  B  B15  1  0.922768  0.780579  0.439762  1
  B  B16  1  0.780579  0.439762  0.922768  1
  B  B17  1  0.439762  0.922768  0.780579  1
  B  B18  1  0.711286  0.833660  0.275309  1
  B  B19  1  0.211286  0.775309  0.333660  1
  O  O20  1  0.795330  0.769121  0.125314  1
  O  O21  1  0.769121  0.125314  0.795330  1
  O  O22  1  0.505055  0.231081  0.735152  1
  O  O23  1  0.735152  0.505055  0.231081  1
  O  O24  1  0.125314  0.795330  0.769121  1
  O  O25  1  0.731081  0.005055  0.235152  1
  O  O26  1  0.235152  0.731081  0.005055  1
  O  O27  1  0.005055  0.235152  0.731081  1
  O  O28  1  0.259737  0.274761  0.925487  1
  O  O29  1  0.925487  0.259737  0.274761  1
  O  O30  1  0.274761  0.925487  0.259737  1
  O  O31  1  0.774761  0.759737  0.425487  1
  O  O32  1  0.425487  0.774761  0.759737  1
  O  O33  1  0.759737  0.425487  0.774761  1
  O  O34  1  0.625314  0.269121  0.295330  1
  O  O35  1  0.269121  0.295330  0.625314  1
  O  O36  1  0.811263  0.307477  0.542484  1
  O  O37  1  0.307477  0.542484  0.811263  1
  O  O38  1  0.542484  0.811263  0.307477  1
  O  O39  1  0.042484  0.807477  0.311263  1
  O  O40  1  0.807477  0.311263  0.042484  1
  O  O41  1  0.311263  0.042484  0.807477  1
  O  O42  1  0.098397  0.274974  0.446889  1
  O  O43  1  0.274974  0.446889  0.098397  1
  O  O44  1  0.446889  0.098397  0.274974  1
  O  O45  1  0.946889  0.774974  0.598397  1
  O  O46  1  0.774974  0.598397  0.946889  1
  O  O47  1  0.598397  0.946889  0.774974  1
  O  O48  1  0.231081  0.735152  0.505055  1
  O  O49  1  0.295330  0.625314  0.269121  1
  Sr  Sr50  1  0.492192  0.492192  0.492192  1
  Sr  Sr51  1  0.992192  0.992192  0.992192  1
