# generated using pymatgen
data_Te2Mo3W(SeS2)2
_symmetry_space_group_name_H-M   'P 1'
_cell_length_a   3.30536013
_cell_length_b   3.30538374
_cell_length_c   39.65062485
_cell_angle_alpha   89.99767304
_cell_angle_beta   90.00000000
_cell_angle_gamma   119.99976366
_symmetry_Int_Tables_number   1
_chemical_formula_structural   Te2Mo3W(SeS2)2
_chemical_formula_sum   'Te2 Mo3 W1 Se2 S4'
_cell_volume   375.16504825
_cell_formula_units_Z   1
loop_
 _symmetry_equiv_pos_site_id
 _symmetry_equiv_pos_as_xyz
  1  'x, y, z'
loop_
 _atom_site_type_symbol
 _atom_site_label
 _atom_site_symmetry_multiplicity
 _atom_site_fract_x
 _atom_site_fract_y
 _atom_site_fract_z
 _atom_site_occupancy
  Te  Te0  1  0.666709  0.333417  0.422074  1
  Te  Te1  1  0.666695  0.333389  0.518558  1
  Mo  Mo2  1  0.333373  0.666747  0.093770  1
  Mo  Mo3  1  0.333369  0.666738  0.470311  1
  Mo  Mo4  1  0.666636  0.333272  0.280413  1
  W  W5  1  0.666661  0.333322  0.658410  1
  Se  Se6  1  0.333279  0.666559  0.322748  1
  Se  Se7  1  0.333309  0.666618  0.238119  1
  S  S8  1  0.333302  0.666605  0.697103  1
  S  S9  1  0.666681  0.333361  0.055187  1
  S  S10  1  0.666651  0.333302  0.132363  1
  S  S11  1  0.333334  0.666669  0.619691  1
