# generated using pymatgen
data_TeMoWSeS2
_symmetry_space_group_name_H-M   'P 1'
_cell_length_a   3.30496080
_cell_length_b   3.30497662
_cell_length_c   38.72702798
_cell_angle_alpha   90.00449970
_cell_angle_beta   90.00000000
_cell_angle_gamma   119.99984171
_symmetry_Int_Tables_number   1
_chemical_formula_structural   TeMoWSeS2
_chemical_formula_sum   'Te2 Mo2 W2 Se2 S4'
_cell_volume   366.33650314
_cell_formula_units_Z   2
loop_
 _symmetry_equiv_pos_site_id
 _symmetry_equiv_pos_as_xyz
  1  'x, y, z'
loop_
 _atom_site_type_symbol
 _atom_site_label
 _atom_site_symmetry_multiplicity
 _atom_site_fract_x
 _atom_site_fract_y
 _atom_site_fract_z
 _atom_site_occupancy
  Te  Te0  1  0.333328  0.666656  0.331622  1
  Te  Te1  1  0.333291  0.666584  0.232738  1
  Mo  Mo2  1  0.333336  0.666672  0.093045  1
  Mo  Mo3  1  0.666644  0.333288  0.282186  1
  W  W4  1  0.333281  0.666562  0.470068  1
  W  W5  1  0.666739  0.333477  0.657621  1
  Se  Se6  1  0.666655  0.333308  0.049621  1
  Se  Se7  1  0.666689  0.333377  0.136495  1
  S  S8  1  0.333448  0.666896  0.697287  1
  S  S9  1  0.666584  0.333166  0.430395  1
  S  S10  1  0.666649  0.333298  0.509719  1
  S  S11  1  0.333358  0.666717  0.617953  1
