# generated using pymatgen
data_TbGe3
_symmetry_space_group_name_H-M   'P 1'
_cell_length_a   3.93901317
_cell_length_b   4.04210679
_cell_length_c   10.73423469
_cell_angle_alpha   100.85248745
_cell_angle_beta   90.00000000
_cell_angle_gamma   90.00000000
_symmetry_Int_Tables_number   1
_chemical_formula_structural   TbGe3
_chemical_formula_sum   'Tb2 Ge6'
_cell_volume   167.85285290
_cell_formula_units_Z   2
loop_
 _symmetry_equiv_pos_site_id
 _symmetry_equiv_pos_as_xyz
  1  'x, y, z'
loop_
 _atom_site_type_symbol
 _atom_site_label
 _atom_site_symmetry_multiplicity
 _atom_site_fract_x
 _atom_site_fract_y
 _atom_site_fract_z
 _atom_site_occupancy
  Tb  Tb0  1  0.250000  0.916952  0.833905  1
  Tb  Tb1  1  0.750000  0.083048  0.166095  1
  Ge  Ge2  1  0.250000  0.191347  0.382693  1
  Ge  Ge3  1  0.750000  0.808653  0.617307  1
  Ge  Ge4  1  0.250000  0.309982  0.619963  1
  Ge  Ge5  1  0.750000  0.690018  0.380037  1
  Ge  Ge6  1  0.250000  0.538761  0.077521  1
  Ge  Ge7  1  0.750000  0.461239  0.922479  1
