# generated using pymatgen
data_K3Lu(PO4)2
_symmetry_space_group_name_H-M   'P 1'
_cell_length_a   9.68739049
_cell_length_b   9.68739049
_cell_length_c   7.84907777
_cell_angle_alpha   90.00000000
_cell_angle_beta   90.00000000
_cell_angle_gamma   120.00000000
_symmetry_Int_Tables_number   1
_chemical_formula_structural   K3Lu(PO4)2
_chemical_formula_sum   'K9 Lu3 P6 O24'
_cell_volume   637.91509105
_cell_formula_units_Z   3
loop_
 _symmetry_equiv_pos_site_id
 _symmetry_equiv_pos_as_xyz
  1  'x, y, z'
loop_
 _atom_site_type_symbol
 _atom_site_label
 _atom_site_symmetry_multiplicity
 _atom_site_fract_x
 _atom_site_fract_y
 _atom_site_fract_z
 _atom_site_occupancy
  O  O0  1  0.337207  0.478686  0.884798  1
  O  O1  1  0.141479  0.662793  0.884798  1
  O  O2  1  0.521314  0.858521  0.884798  1
  O  O3  1  0.662793  0.521314  0.115202  1
  O  O4  1  0.858521  0.337207  0.115202  1
  O  O5  1  0.478686  0.141479  0.115202  1
  O  O6  1  0.485290  0.335290  0.793299  1
  O  O7  1  0.850000  0.514710  0.793299  1
  O  O8  1  0.664710  0.150000  0.793299  1
  O  O9  1  0.514710  0.664710  0.206701  1
  O  O10  1  0.150000  0.485290  0.206701  1
  O  O11  1  0.335290  0.850000  0.206701  1
  O  O12  1  0.185352  0.178384  0.834378  1
  O  O13  1  0.993032  0.814648  0.834378  1
  O  O14  1  0.821616  0.006968  0.834378  1
  O  O15  1  0.814648  0.821616  0.165622  1
  O  O16  1  0.006968  0.185352  0.165622  1
  O  O17  1  0.178384  0.993032  0.165622  1
  O  O18  1  0.369537  0.069890  0.413630  1
  O  O19  1  0.930110  0.299647  0.413630  1
  O  O20  1  0.700353  0.630463  0.413630  1
  O  O21  1  0.630463  0.930110  0.586370  1
  O  O22  1  0.069890  0.700353  0.586370  1
  O  O23  1  0.299647  0.369537  0.586370  1
  P  P24  1  0.327532  0.340836  0.771530  1
  P  P25  1  0.013303  0.672468  0.771530  1
  P  P26  1  0.659164  0.986697  0.771530  1
  P  P27  1  0.672468  0.659164  0.228470  1
  P  P28  1  0.986697  0.327532  0.228470  1
  P  P29  1  0.340836  0.013303  0.228470  1
  K  K30  1  0.334091  0.333525  0.255699  1
  K  K31  1  0.999434  0.665909  0.255699  1
  K  K32  1  0.666475  0.000566  0.255699  1
  K  K33  1  0.665909  0.666475  0.744301  1
  K  K34  1  0.000566  0.334091  0.744301  1
  K  K35  1  0.333525  0.999434  0.744301  1
  K  K36  1  0.333333  0.666667  0.504556  1
  K  K37  1  0.666667  0.333333  0.495444  1
  K  K38  1  0.000000  0.000000  0.500000  1
  Lu  Lu39  1  0.333333  0.666667  0.032863  1
  Lu  Lu40  1  0.666667  0.333333  0.967137  1
  Lu  Lu41  1  0.000000  0.000000  0.000000  1
