# generated using pymatgen
data_BaCu2GeSe4
_symmetry_space_group_name_H-M   'P 1'
_cell_length_a   6.59720685
_cell_length_b   6.59720685
_cell_length_c   16.40473821
_cell_angle_alpha   90.00000000
_cell_angle_beta   90.00000000
_cell_angle_gamma   119.99999999
_symmetry_Int_Tables_number   1
_chemical_formula_structural   BaCu2GeSe4
_chemical_formula_sum   'Ba3 Cu6 Ge3 Se12'
_cell_volume   618.32974469
_cell_formula_units_Z   3
loop_
 _symmetry_equiv_pos_site_id
 _symmetry_equiv_pos_as_xyz
  1  'x, y, z'
loop_
 _atom_site_type_symbol
 _atom_site_label
 _atom_site_symmetry_multiplicity
 _atom_site_fract_x
 _atom_site_fract_y
 _atom_site_fract_z
 _atom_site_occupancy
  Cu  Cu0  1  0.744339  0.766556  0.755208  1
  Cu  Cu1  1  0.022217  0.255661  0.421874  1
  Cu  Cu2  1  0.233444  0.977783  0.088541  1
  Cu  Cu3  1  0.589093  0.689070  0.244004  1
  Cu  Cu4  1  0.099977  0.410907  0.910671  1
  Cu  Cu5  1  0.310930  0.900023  0.577337  1
  Ge  Ge6  1  0.666598  0.619673  0.499636  1
  Ge  Ge7  1  0.953076  0.333402  0.166302  1
  Ge  Ge8  1  0.380327  0.046924  0.832969  1
  Se  Se9  1  0.198941  0.373996  0.281926  1
  Se  Se10  1  0.175055  0.801059  0.948593  1
  Se  Se11  1  0.626004  0.824945  0.615259  1
  Se  Se12  1  0.560567  0.997445  0.168834  1
  Se  Se13  1  0.896724  0.669609  0.163808  1
  Se  Se14  1  0.772886  0.103276  0.830475  1
  Se  Se15  1  0.436878  0.439433  0.835501  1
  Se  Se16  1  0.134613  0.841109  0.717382  1
  Se  Se17  1  0.002555  0.563122  0.502167  1
  Se  Se18  1  0.706496  0.865387  0.384048  1
  Se  Se19  1  0.158891  0.293504  0.050715  1
  Se  Se20  1  0.330391  0.227114  0.497141  1
  Ba  Ba21  1  0.115358  0.333096  0.666280  1
  Ba  Ba22  1  0.217737  0.884642  0.332947  1
  Ba  Ba23  1  0.666904  0.782263  0.999613  1
