# generated using pymatgen
data_TeW2Se2S
_symmetry_space_group_name_H-M   'P 1'
_cell_length_a   3.34202503
_cell_length_b   3.34197443
_cell_length_c   38.12599000
_cell_angle_alpha   89.99942911
_cell_angle_beta   90.00000000
_cell_angle_gamma   120.00050076
_symmetry_Int_Tables_number   1
_chemical_formula_structural   TeW2Se2S
_chemical_formula_sum   'Te2 W4 Se4 S2'
_cell_volume   368.77578032
_cell_formula_units_Z   2
loop_
 _symmetry_equiv_pos_site_id
 _symmetry_equiv_pos_as_xyz
  1  'x, y, z'
loop_
 _atom_site_type_symbol
 _atom_site_label
 _atom_site_symmetry_multiplicity
 _atom_site_fract_x
 _atom_site_fract_y
 _atom_site_fract_z
 _atom_site_occupancy
  Te  Te0  1  0.333352  0.666705  0.707565  1
  Te  Te1  1  0.333357  0.666715  0.607561  1
  W  W2  1  0.333312  0.666625  0.093927  1
  W  W3  1  0.333310  0.666619  0.469626  1
  W  W4  1  0.666688  0.333375  0.281793  1
  W  W5  1  0.666690  0.333379  0.657573  1
  Se  Se6  1  0.333368  0.666737  0.325673  1
  Se  Se7  1  0.666650  0.333299  0.425748  1
  Se  Se8  1  0.666632  0.333262  0.513539  1
  Se  Se9  1  0.333350  0.666701  0.237891  1
  S  S10  1  0.666646  0.333291  0.053984  1
  S  S11  1  0.666646  0.333292  0.133868  1
