# generated using pymatgen
data_Te4MoW3S4
_symmetry_space_group_name_H-M   'P 1'
_cell_length_a   3.35722063
_cell_length_b   3.35726724
_cell_length_c   38.35284175
_cell_angle_alpha   89.99981079
_cell_angle_beta   90.00000000
_cell_angle_gamma   119.99954069
_symmetry_Int_Tables_number   1
_chemical_formula_structural   Te4MoW3S4
_chemical_formula_sum   'Te4 Mo1 W3 S4'
_cell_volume   374.36564343
_cell_formula_units_Z   1
loop_
 _symmetry_equiv_pos_site_id
 _symmetry_equiv_pos_as_xyz
  1  'x, y, z'
loop_
 _atom_site_type_symbol
 _atom_site_label
 _atom_site_symmetry_multiplicity
 _atom_site_fract_x
 _atom_site_fract_y
 _atom_site_fract_z
 _atom_site_occupancy
  Te  Te0  1  0.333359  0.666719  0.707148  1
  Te  Te1  1  0.666641  0.333280  0.044605  1
  Te  Te2  1  0.666648  0.333294  0.143233  1
  Te  Te3  1  0.333357  0.666715  0.607937  1
  Mo  Mo4  1  0.333310  0.666620  0.093906  1
  W  W5  1  0.333308  0.666617  0.469642  1
  W  W6  1  0.666687  0.333374  0.281815  1
  W  W7  1  0.666692  0.333385  0.657548  1
  S  S8  1  0.333352  0.666706  0.321412  1
  S  S9  1  0.666644  0.333288  0.430054  1
  S  S10  1  0.666643  0.333286  0.509243  1
  S  S11  1  0.333357  0.666715  0.242206  1
