# generated using pymatgen
data_Sr4Li2B12O23
_symmetry_space_group_name_H-M   'P 1'
_cell_length_a   6.53248447
_cell_length_b   8.62523381
_cell_length_c   15.50294916
_cell_angle_alpha   90.00000000
_cell_angle_beta   102.11941558
_cell_angle_gamma   90.00000000
_symmetry_Int_Tables_number   1
_chemical_formula_structural   Sr4Li2B12O23
_chemical_formula_sum   'Sr8 Li4 B24 O46'
_cell_volume   854.03289078
_cell_formula_units_Z   2
loop_
 _symmetry_equiv_pos_site_id
 _symmetry_equiv_pos_as_xyz
  1  'x, y, z'
loop_
 _atom_site_type_symbol
 _atom_site_label
 _atom_site_symmetry_multiplicity
 _atom_site_fract_x
 _atom_site_fract_y
 _atom_site_fract_z
 _atom_site_occupancy
  Sr  Sr0  1  0.030280  0.176014  0.227356  1
  Sr  Sr1  1  0.969720  0.676014  0.272644  1
  Sr  Sr2  1  0.969720  0.823986  0.772644  1
  Sr  Sr3  1  0.030280  0.323986  0.727356  1
  Sr  Sr4  1  0.609348  0.015714  0.386117  1
  Sr  Sr5  1  0.390652  0.515714  0.113883  1
  Sr  Sr6  1  0.390652  0.984286  0.613883  1
  Sr  Sr7  1  0.609348  0.484286  0.886117  1
  Li  Li8  1  0.658343  0.195520  0.024589  1
  Li  Li9  1  0.341657  0.695520  0.475411  1
  Li  Li10  1  0.341657  0.804480  0.975411  1
  Li  Li11  1  0.658343  0.304480  0.524589  1
  B  B12  1  0.935855  0.345515  0.422007  1
  B  B13  1  0.064145  0.845515  0.077993  1
  B  B14  1  0.064145  0.654485  0.577993  1
  B  B15  1  0.935855  0.154485  0.922007  1
  B  B16  1  0.247850  0.169441  0.037805  1
  B  B17  1  0.752150  0.669441  0.462195  1
  B  B18  1  0.752150  0.830559  0.962195  1
  B  B19  1  0.247850  0.330559  0.537805  1
  B  B20  1  0.522902  0.119730  0.183086  1
  B  B21  1  0.477098  0.619730  0.316914  1
  B  B22  1  0.477098  0.880270  0.816914  1
  B  B23  1  0.522902  0.380270  0.683086  1
  B  B24  1  0.285254  0.397836  0.381870  1
  B  B25  1  0.714746  0.897836  0.118130  1
  B  B26  1  0.714746  0.602164  0.618130  1
  B  B27  1  0.285254  0.102164  0.881870  1
  B  B28  1  0.574504  0.337137  0.307142  1
  B  B29  1  0.425496  0.837137  0.192858  1
  B  B30  1  0.425496  0.662863  0.692858  1
  B  B31  1  0.574504  0.162862  0.807142  1
  B  B32  1  0.096868  0.961000  0.427235  1
  B  B33  1  0.903132  0.461000  0.072765  1
  B  B34  1  0.903132  0.039000  0.572765  1
  B  B35  1  0.096868  0.539000  0.927235  1
  O  O36  1  0.671319  0.061826  0.130962  1
  O  O37  1  0.328681  0.561826  0.369038  1
  O  O38  1  0.328681  0.938174  0.869038  1
  O  O39  1  0.671319  0.438174  0.630962  1
  O  O40  1  0.023049  0.470992  0.155964  1
  O  O41  1  0.976951  0.970992  0.344036  1
  O  O42  1  0.976951  0.529008  0.844036  1
  O  O43  1  0.023049  0.029008  0.655964  1
  O  O44  1  0.725602  0.322031  0.400679  1
  O  O45  1  0.274398  0.822031  0.099321  1
  O  O46  1  0.274398  0.677969  0.599321  1
  O  O47  1  0.725602  0.177969  0.900679  1
  O  O48  1  0.028802  0.164707  0.012625  1
  O  O49  1  0.971198  0.664707  0.487375  1
  O  O50  1  0.971198  0.835293  0.987375  1
  O  O51  1  0.028802  0.335293  0.512625  1
  O  O52  1  0.370337  0.292908  0.325157  1
  O  O53  1  0.629663  0.792908  0.174843  1
  O  O54  1  0.629663  0.707092  0.674843  1
  O  O55  1  0.370337  0.207092  0.825157  1
  O  O56  1  0.302576  0.916558  0.448911  1
  O  O57  1  0.697424  0.416558  0.051089  1
  O  O58  1  0.697424  0.083442  0.551089  1
  O  O59  1  0.302576  0.583442  0.948911  1
  O  O60  1  0.365086  0.146635  0.976280  1
  O  O61  1  0.634915  0.646635  0.523720  1
  O  O62  1  0.634915  0.853365  0.023720  1
  O  O63  1  0.365086  0.353365  0.476280  1
  O  O64  1  0.642771  0.226035  0.248790  1
  O  O65  1  0.357229  0.726035  0.251210  1
  O  O66  1  0.357229  0.773965  0.751210  1
  O  O67  1  0.642771  0.273965  0.748790  1
  O  O68  1  0.422834  0.995773  0.224539  1
  O  O69  1  0.577166  0.495773  0.275461  1
  O  O70  1  0.577166  0.004227  0.775461  1
  O  O71  1  0.422834  0.504227  0.724539  1
  O  O72  1  0.000000  -0.000000  0.500000  1
  O  O73  1  0.000000  0.500000  -0.000000  1
  O  O74  1  0.336408  0.207431  0.123656  1
  O  O75  1  0.663592  0.707431  0.376344  1
  O  O76  1  0.663592  0.792569  0.876344  1
  O  O77  1  0.336408  0.292569  0.623656  1
  O  O78  1  0.051037  0.377092  0.359986  1
  O  O79  1  0.948963  0.877092  0.140014  1
  O  O80  1  0.948963  0.622908  0.640014  1
  O  O81  1  0.051037  0.122908  0.859986  1
