# generated using pymatgen
data_Tb2Si5Rh3
_symmetry_space_group_name_H-M   'P 1'
_cell_length_a   5.70266748
_cell_length_b   8.13351579
_cell_length_c   8.13351579
_cell_angle_alpha   93.65234622
_cell_angle_beta   108.82570660
_cell_angle_gamma   108.82570665
_symmetry_Int_Tables_number   1
_chemical_formula_structural   Tb2Si5Rh3
_chemical_formula_sum   'Tb4 Si10 Rh6'
_cell_volume   331.98786114
_cell_formula_units_Z   2
loop_
 _symmetry_equiv_pos_site_id
 _symmetry_equiv_pos_as_xyz
  1  'x, y, z'
loop_
 _atom_site_type_symbol
 _atom_site_label
 _atom_site_symmetry_multiplicity
 _atom_site_fract_x
 _atom_site_fract_y
 _atom_site_fract_z
 _atom_site_occupancy
  Si  Si0  1  0.161184  0.057638  0.266389  1
  Si  Si1  1  0.338816  0.733611  0.942362  1
  Si  Si2  1  0.838816  0.942362  0.733611  1
  Si  Si3  1  0.661184  0.266389  0.057638  1
  Si  Si4  1  0.250000  0.512171  0.487829  1
  Si  Si5  1  0.750000  0.487829  0.512171  1
  Si  Si6  1  0.250000  0.776080  0.223920  1
  Si  Si7  1  0.750000  0.790009  0.209991  1
  Si  Si8  1  0.250000  0.209991  0.790009  1
  Si  Si9  1  0.750000  0.223920  0.776080  1
  Rh  Rh10  1  0.750000  0.997942  0.002058  1
  Rh  Rh11  1  0.126575  0.460143  0.739200  1
  Rh  Rh12  1  0.626575  0.739200  0.460143  1
  Rh  Rh13  1  0.873425  0.539857  0.260800  1
  Rh  Rh14  1  0.250000  0.002058  0.997942  1
  Rh  Rh15  1  0.373425  0.260800  0.539857  1
  Tb  Tb16  1  0.240435  0.867203  0.599105  1
  Tb  Tb17  1  0.259565  0.400895  0.132797  1
  Tb  Tb18  1  0.759565  0.132797  0.400895  1
  Tb  Tb19  1  0.740435  0.599105  0.867203  1
