# generated using pymatgen
data_Mo2W(Se2S)2
_symmetry_space_group_name_H-M   'P 1'
_cell_length_a   3.27907055
_cell_length_b   3.27907503
_cell_length_c   30.18753744
_cell_angle_alpha   90.00049392
_cell_angle_beta   90.00000000
_cell_angle_gamma   119.99995488
_symmetry_Int_Tables_number   1
_chemical_formula_structural   Mo2W(Se2S)2
_chemical_formula_sum   'Mo2 W1 Se4 S2'
_cell_volume   281.09986107
_cell_formula_units_Z   1
loop_
 _symmetry_equiv_pos_site_id
 _symmetry_equiv_pos_as_xyz
  1  'x, y, z'
loop_
 _atom_site_type_symbol
 _atom_site_label
 _atom_site_symmetry_multiplicity
 _atom_site_fract_x
 _atom_site_fract_y
 _atom_site_fract_z
 _atom_site_occupancy
  Mo  Mo0  1  0.333308  0.666617  0.115628  1
  Mo  Mo1  1  0.666690  0.333381  0.346973  1
  W  W2  1  0.333308  0.666615  0.578357  1
  Se  Se3  1  0.333353  0.666708  0.402846  1
  Se  Se4  1  0.666650  0.333299  0.522092  1
  Se  Se5  1  0.666650  0.333298  0.634596  1
  Se  Se6  1  0.333350  0.666700  0.291063  1
  S  S7  1  0.666647  0.333292  0.064747  1
  S  S8  1  0.666646  0.333290  0.166539  1
