# generated using pymatgen
data_Te2Mo(WSe2)3
_symmetry_space_group_name_H-M   'P 1'
_cell_length_a   3.38164382
_cell_length_b   3.38159577
_cell_length_c   38.48617178
_cell_angle_alpha   90.00049949
_cell_angle_beta   90.00000142
_cell_angle_gamma   120.00046189
_symmetry_Int_Tables_number   1
_chemical_formula_structural   Te2Mo(WSe2)3
_chemical_formula_sum   'Te2 Mo1 W3 Se6'
_cell_volume   381.13855063
_cell_formula_units_Z   1
loop_
 _symmetry_equiv_pos_site_id
 _symmetry_equiv_pos_as_xyz
  1  'x, y, z'
loop_
 _atom_site_type_symbol
 _atom_site_label
 _atom_site_symmetry_multiplicity
 _atom_site_fract_x
 _atom_site_fract_y
 _atom_site_fract_z
 _atom_site_occupancy
  Te  Te0  1  0.333354  0.666708  0.706656  1
  Te  Te1  1  0.333351  0.666704  0.608419  1
  Mo  Mo2  1  0.666692  0.333384  0.281818  1
  W  W3  1  0.333309  0.666617  0.093922  1
  W  W4  1  0.333309  0.666618  0.469662  1
  W  W5  1  0.666690  0.333381  0.657560  1
  Se  Se6  1  0.333364  0.666729  0.324813  1
  Se  Se7  1  0.666642  0.333284  0.050772  1
  Se  Se8  1  0.666647  0.333292  0.426492  1
  Se  Se9  1  0.666648  0.333294  0.137076  1
  Se  Se10  1  0.666643  0.333286  0.512793  1
  Se  Se11  1  0.333350  0.666702  0.238765  1
