# generated using pymatgen
data_V2NiO6
_symmetry_space_group_name_H-M   'P 1'
_cell_length_a   8.06731904
_cell_length_b   9.71663119
_cell_length_c   14.91244442
_cell_angle_alpha   90.00000000
_cell_angle_beta   90.00000000
_cell_angle_gamma   90.00000000
_symmetry_Int_Tables_number   1
_chemical_formula_structural   V2NiO6
_chemical_formula_sum   'V16 Ni8 O48'
_cell_volume   1168.94422346
_cell_formula_units_Z   8
loop_
 _symmetry_equiv_pos_site_id
 _symmetry_equiv_pos_as_xyz
  1  'x, y, z'
loop_
 _atom_site_type_symbol
 _atom_site_label
 _atom_site_symmetry_multiplicity
 _atom_site_fract_x
 _atom_site_fract_y
 _atom_site_fract_z
 _atom_site_occupancy
  V  V0  1  0.352250  0.728010  0.384475  1
  V  V1  1  0.647750  0.228010  0.115525  1
  V  V2  1  0.147750  0.271990  0.884475  1
  V  V3  1  0.852250  0.771990  0.615525  1
  V  V4  1  0.647750  0.271990  0.615525  1
  V  V5  1  0.352250  0.771990  0.884475  1
  V  V6  1  0.852250  0.728010  0.115525  1
  V  V7  1  0.147750  0.228010  0.384475  1
  V  V8  1  0.939161  0.799661  0.392941  1
  V  V9  1  0.060839  0.299661  0.107059  1
  V  V10  1  0.560839  0.200339  0.892942  1
  V  V11  1  0.439161  0.700339  0.607058  1
  V  V12  1  0.060839  0.200339  0.607058  1
  V  V13  1  0.939161  0.700339  0.892942  1
  V  V14  1  0.439161  0.799661  0.107059  1
  V  V15  1  0.560839  0.299661  0.392941  1
  Ni  Ni16  1  0.377390  0.477229  0.208644  1
  Ni  Ni17  1  0.622610  0.977229  0.291356  1
  Ni  Ni18  1  0.122610  0.522771  0.708644  1
  Ni  Ni19  1  0.877390  0.022771  0.791356  1
  Ni  Ni20  1  0.622610  0.522771  0.791356  1
  Ni  Ni21  1  0.377390  0.022771  0.708644  1
  Ni  Ni22  1  0.877390  0.477229  0.291356  1
  Ni  Ni23  1  0.122610  0.977229  0.208644  1
  O  O24  1  0.510516  0.835692  0.361544  1
  O  O25  1  0.489484  0.335692  0.138456  1
  O  O26  1  0.989484  0.164308  0.861544  1
  O  O27  1  0.010516  0.664308  0.638456  1
  O  O28  1  0.489484  0.164308  0.638456  1
  O  O29  1  0.510516  0.664308  0.861544  1
  O  O30  1  0.010516  0.835692  0.138456  1
  O  O31  1  0.989484  0.335692  0.361544  1
  O  O32  1  0.340767  0.598957  0.309855  1
  O  O33  1  0.659233  0.098957  0.190145  1
  O  O34  1  0.159233  0.401043  0.809855  1
  O  O35  1  0.840767  0.901043  0.690145  1
  O  O36  1  0.659233  0.401043  0.690145  1
  O  O37  1  0.340767  0.901043  0.809855  1
  O  O38  1  0.840767  0.598957  0.190145  1
  O  O39  1  0.159233  0.098957  0.309855  1
  O  O40  1  0.847409  0.902621  0.314480  1
  O  O41  1  0.152591  0.402621  0.185520  1
  O  O42  1  0.652591  0.097379  0.814480  1
  O  O43  1  0.347409  0.597379  0.685520  1
  O  O44  1  0.152591  0.097379  0.685520  1
  O  O45  1  0.847409  0.597379  0.814480  1
  O  O46  1  0.347409  0.902621  0.185520  1
  O  O47  1  0.652591  0.402621  0.314480  1
  O  O48  1  0.898295  0.632273  0.375810  1
  O  O49  1  0.101705  0.132273  0.124190  1
  O  O50  1  0.601705  0.367727  0.875810  1
  O  O51  1  0.398295  0.867727  0.624190  1
  O  O52  1  0.101705  0.367727  0.624190  1
  O  O53  1  0.898295  0.867727  0.875810  1
  O  O54  1  0.398295  0.632273  0.124190  1
  O  O55  1  0.601705  0.132273  0.375810  1
  O  O56  1  0.159386  0.823176  0.379381  1
  O  O57  1  0.840614  0.323176  0.120619  1
  O  O58  1  0.340614  0.176824  0.879381  1
  O  O59  1  0.659386  0.676824  0.620619  1
  O  O60  1  0.840614  0.176824  0.620619  1
  O  O61  1  0.159386  0.676824  0.879381  1
  O  O62  1  0.659386  0.823176  0.120619  1
  O  O63  1  0.340614  0.323176  0.379381  1
  O  O64  1  0.376895  0.653864  0.495094  1
  O  O65  1  0.623105  0.153864  0.004906  1
  O  O66  1  0.123105  0.346136  0.995094  1
  O  O67  1  0.876895  0.846136  0.504906  1
  O  O68  1  0.623105  0.346136  0.504906  1
  O  O69  1  0.376895  0.846136  0.995094  1
  O  O70  1  0.876895  0.653864  0.004906  1
  O  O71  1  0.123105  0.153864  0.495094  1
