# generated using pymatgen
data_CsZr2Al(PO4)4
_symmetry_space_group_name_H-M   'P 1'
_cell_length_a   8.86450120
_cell_length_b   9.55197000
_cell_length_c   18.27578340
_cell_angle_alpha   90.00000000
_cell_angle_beta   90.00000000
_cell_angle_gamma   90.00000000
_symmetry_Int_Tables_number   1
_chemical_formula_structural   CsZr2Al(PO4)4
_chemical_formula_sum   'Cs4 Zr8 Al4 P16 O64'
_cell_volume   1547.47362329
_cell_formula_units_Z   4
loop_
 _symmetry_equiv_pos_site_id
 _symmetry_equiv_pos_as_xyz
  1  'x, y, z'
loop_
 _atom_site_type_symbol
 _atom_site_label
 _atom_site_symmetry_multiplicity
 _atom_site_fract_x
 _atom_site_fract_y
 _atom_site_fract_z
 _atom_site_occupancy
  Cs  Cs0  1  0.347341  0.750151  0.250000  1
  Cs  Cs1  1  0.652659  0.249849  0.750000  1
  Cs  Cs2  1  0.347341  0.749849  0.750000  1
  Cs  Cs3  1  0.652659  0.250151  0.250000  1
  Zr  Zr4  1  0.248700  0.031102  0.428597  1
  Zr  Zr5  1  0.751300  0.968898  0.928597  1
  Zr  Zr6  1  0.248700  0.468898  0.571403  1
  Zr  Zr7  1  0.751300  0.531102  0.071403  1
  Zr  Zr8  1  0.751300  0.968898  0.571403  1
  Zr  Zr9  1  0.248700  0.031102  0.071403  1
  Zr  Zr10  1  0.751300  0.531102  0.428597  1
  Zr  Zr11  1  0.248700  0.468898  0.928597  1
  Al  Al12  1  0.800497  0.897374  0.250000  1
  Al  Al13  1  0.199503  0.102626  0.750000  1
  Al  Al14  1  0.800497  0.602626  0.750000  1
  Al  Al15  1  0.199503  0.397374  0.250000  1
  P  P16  1  0.098769  0.076879  0.250000  1
  P  P17  1  0.901231  0.923121  0.750000  1
  P  P18  1  0.098769  0.423121  0.750000  1
  P  P19  1  0.901231  0.576879  0.250000  1
  P  P20  1  0.034980  0.750000  0.500000  1
  P  P21  1  0.965020  0.250000  0.000000  1
  P  P22  1  0.965020  0.250000  0.500000  1
  P  P23  1  0.034980  0.750000  0.000000  1
  P  P24  1  0.608667  0.873487  0.398315  1
  P  P25  1  0.391333  0.126513  0.898315  1
  P  P26  1  0.608667  0.626513  0.601685  1
  P  P27  1  0.391333  0.373487  0.101685  1
  P  P28  1  0.391333  0.126513  0.601685  1
  P  P29  1  0.608667  0.873487  0.101685  1
  P  P30  1  0.391333  0.373487  0.398315  1
  P  P31  1  0.608667  0.626513  0.898315  1
  O  O32  1  0.103432  0.238463  0.250000  1
  O  O33  1  0.896568  0.761537  0.750000  1
  O  O34  1  0.103432  0.261537  0.750000  1
  O  O35  1  0.896568  0.738463  0.250000  1
  O  O36  1  0.929524  0.036778  0.250000  1
  O  O37  1  0.070476  0.963222  0.750000  1
  O  O38  1  0.929524  0.463222  0.750000  1
  O  O39  1  0.070476  0.536778  0.250000  1
  O  O40  1  0.177422  0.017376  0.317986  1
  O  O41  1  0.822578  0.982624  0.817986  1
  O  O42  1  0.177422  0.482624  0.682014  1
  O  O43  1  0.822578  0.517376  0.182014  1
  O  O44  1  0.822578  0.982624  0.682014  1
  O  O45  1  0.177422  0.017376  0.182014  1
  O  O46  1  0.822578  0.517376  0.317986  1
  O  O47  1  0.177422  0.482624  0.817986  1
  O  O48  1  0.064116  0.160168  0.448804  1
  O  O49  1  0.935884  0.839832  0.948804  1
  O  O50  1  0.064116  0.339832  0.551196  1
  O  O51  1  0.935884  0.660168  0.051196  1
  O  O52  1  0.935884  0.839832  0.551196  1
  O  O53  1  0.064116  0.160168  0.051196  1
  O  O54  1  0.935884  0.660168  0.448804  1
  O  O55  1  0.064116  0.339832  0.948804  1
  O  O56  1  0.135097  0.847491  0.453155  1
  O  O57  1  0.864903  0.152509  0.953155  1
  O  O58  1  0.135097  0.652509  0.546845  1
  O  O59  1  0.864903  0.347491  0.046845  1
  O  O60  1  0.864903  0.152509  0.546845  1
  O  O61  1  0.135097  0.847491  0.046845  1
  O  O62  1  0.864903  0.347491  0.453155  1
  O  O63  1  0.135097  0.652509  0.953155  1
  O  O64  1  0.440207  0.913569  0.395961  1
  O  O65  1  0.559793  0.086431  0.895961  1
  O  O66  1  0.440207  0.586431  0.604039  1
  O  O67  1  0.559793  0.413569  0.104039  1
  O  O68  1  0.559793  0.086431  0.604039  1
  O  O69  1  0.440207  0.913569  0.104039  1
  O  O70  1  0.559793  0.413569  0.395961  1
  O  O71  1  0.440207  0.586431  0.895961  1
  O  O72  1  0.685841  0.947449  0.462754  1
  O  O73  1  0.314159  0.052551  0.962754  1
  O  O74  1  0.685841  0.552551  0.537246  1
  O  O75  1  0.314159  0.447449  0.037246  1
  O  O76  1  0.314159  0.052551  0.537246  1
  O  O77  1  0.685841  0.947449  0.037246  1
  O  O78  1  0.314159  0.447449  0.462754  1
  O  O79  1  0.685841  0.552551  0.962754  1
  O  O80  1  0.624585  0.713578  0.401937  1
  O  O81  1  0.375415  0.286422  0.901937  1
  O  O82  1  0.624585  0.786422  0.598063  1
  O  O83  1  0.375415  0.213578  0.098063  1
  O  O84  1  0.375415  0.286422  0.598063  1
  O  O85  1  0.624585  0.713578  0.098063  1
  O  O86  1  0.375415  0.213578  0.401937  1
  O  O87  1  0.624585  0.786422  0.901937  1
  O  O88  1  0.681325  0.925083  0.325291  1
  O  O89  1  0.318675  0.074917  0.825291  1
  O  O90  1  0.681325  0.574917  0.674709  1
  O  O91  1  0.318675  0.425083  0.174709  1
  O  O92  1  0.318675  0.074917  0.674709  1
  O  O93  1  0.681325  0.925083  0.174709  1
  O  O94  1  0.318675  0.425083  0.325291  1
  O  O95  1  0.681325  0.574917  0.825291  1
