# generated using pymatgen
data_Te2W
_symmetry_space_group_name_H-M   'P 1'
_cell_length_a   3.55324382
_cell_length_b   3.55251599
_cell_length_c   15.11730756
_cell_angle_alpha   90.00000000
_cell_angle_beta   90.00000000
_cell_angle_gamma   120.00677752
_symmetry_Int_Tables_number   1
_chemical_formula_structural   Te2W
_chemical_formula_sum   'Te4 W2'
_cell_volume   165.24809715
_cell_formula_units_Z   2
loop_
 _symmetry_equiv_pos_site_id
 _symmetry_equiv_pos_as_xyz
  1  'x, y, z'
loop_
 _atom_site_type_symbol
 _atom_site_label
 _atom_site_symmetry_multiplicity
 _atom_site_fract_x
 _atom_site_fract_y
 _atom_site_fract_z
 _atom_site_occupancy
  Te  Te0  1  0.333337  0.666675  0.870595  1
  Te  Te1  1  0.666663  0.333325  0.129405  1
  Te  Te2  1  0.666663  0.333325  0.370595  1
  Te  Te3  1  0.333337  0.666675  0.629405  1
  W  W4  1  0.333275  0.666550  0.250000  1
  W  W5  1  0.666725  0.333450  0.750000  1
