# generated using pymatgen
data_TeMo2SeS2
_symmetry_space_group_name_H-M   'P 1'
_cell_length_a   3.30791639
_cell_length_b   3.30797841
_cell_length_c   37.55734980
_cell_angle_alpha   90.00016184
_cell_angle_beta   90.00000000
_cell_angle_gamma   119.99937989
_symmetry_Int_Tables_number   1
_chemical_formula_structural   TeMo2SeS2
_chemical_formula_sum   'Te2 Mo4 Se2 S4'
_cell_volume   355.91433066
_cell_formula_units_Z   2
loop_
 _symmetry_equiv_pos_site_id
 _symmetry_equiv_pos_as_xyz
  1  'x, y, z'
loop_
 _atom_site_type_symbol
 _atom_site_label
 _atom_site_symmetry_multiplicity
 _atom_site_fract_x
 _atom_site_fract_y
 _atom_site_fract_z
 _atom_site_occupancy
  Te  Te0  1  0.333350  0.666701  0.708497  1
  Te  Te1  1  0.333354  0.666709  0.606590  1
  Mo  Mo2  1  0.333316  0.666631  0.093907  1
  Mo  Mo3  1  0.333332  0.666665  0.469641  1
  Mo  Mo4  1  0.666689  0.333379  0.281801  1
  Mo  Mo5  1  0.666687  0.333373  0.657573  1
  Se  Se6  1  0.666649  0.333297  0.049168  1
  Se  Se7  1  0.666645  0.333290  0.138678  1
  S  S8  1  0.333353  0.666707  0.322485  1
  S  S9  1  0.666638  0.333274  0.429033  1
  S  S10  1  0.666636  0.333271  0.510248  1
  S  S11  1  0.333351  0.666703  0.241127  1
