# generated using pymatgen
data_Te2MoWSeS
_symmetry_space_group_name_H-M   'P 1'
_cell_length_a   3.39637407
_cell_length_b   3.39637021
_cell_length_c   38.80381924
_cell_angle_alpha   89.99988613
_cell_angle_beta   90.00000000
_cell_angle_gamma   120.00003765
_symmetry_Int_Tables_number   1
_chemical_formula_structural   Te2MoWSeS
_chemical_formula_sum   'Te4 Mo2 W2 Se2 S2'
_cell_volume   387.64615426
_cell_formula_units_Z   2
loop_
 _symmetry_equiv_pos_site_id
 _symmetry_equiv_pos_as_xyz
  1  'x, y, z'
loop_
 _atom_site_type_symbol
 _atom_site_label
 _atom_site_symmetry_multiplicity
 _atom_site_fract_x
 _atom_site_fract_y
 _atom_site_fract_z
 _atom_site_occupancy
  Te  Te0  1  0.333360  0.666720  0.329987  1
  Te  Te1  1  0.666645  0.333289  0.421144  1
  Te  Te2  1  0.666623  0.333246  0.518267  1
  Te  Te3  1  0.333354  0.666710  0.233522  1
  Mo  Mo4  1  0.333310  0.666619  0.093910  1
  Mo  Mo5  1  0.666693  0.333387  0.281731  1
  W  W6  1  0.333313  0.666626  0.469740  1
  W  W7  1  0.666696  0.333393  0.657532  1
  Se  Se8  1  0.666645  0.333289  0.051418  1
  Se  Se9  1  0.666645  0.333289  0.136444  1
  S  S10  1  0.333357  0.666714  0.696384  1
  S  S11  1  0.333359  0.666718  0.618669  1
