# generated using pymatgen
data_In2P2O7
_symmetry_space_group_name_H-M   'P 1'
_cell_length_a   7.65664689
_cell_length_b   8.61560007
_cell_length_c   10.62309388
_cell_angle_alpha   90.00000000
_cell_angle_beta   90.00000000
_cell_angle_gamma   106.37113607
_symmetry_Int_Tables_number   1
_chemical_formula_structural   In2P2O7
_chemical_formula_sum   'In8 P8 O28'
_cell_volume   672.35752880
_cell_formula_units_Z   4
loop_
 _symmetry_equiv_pos_site_id
 _symmetry_equiv_pos_as_xyz
  1  'x, y, z'
loop_
 _atom_site_type_symbol
 _atom_site_label
 _atom_site_symmetry_multiplicity
 _atom_site_fract_x
 _atom_site_fract_y
 _atom_site_fract_z
 _atom_site_occupancy
  O  O0  1  0.183453  0.978880  0.604735  1
  O  O1  1  0.816547  0.521120  0.104735  1
  O  O2  1  0.816547  0.021120  0.395265  1
  O  O3  1  0.183453  0.478880  0.895265  1
  O  O4  1  0.873805  0.765308  0.576747  1
  O  O5  1  0.126195  0.734692  0.076747  1
  O  O6  1  0.126195  0.234692  0.423253  1
  O  O7  1  0.873805  0.265308  0.923253  1
  O  O8  1  0.165967  0.686608  0.568752  1
  O  O9  1  0.834033  0.813392  0.068752  1
  O  O10  1  0.834033  0.313392  0.431248  1
  O  O11  1  0.165967  0.186608  0.931248  1
  O  O12  1  0.427320  0.749872  0.729100  1
  O  O13  1  0.572680  0.750128  0.229100  1
  O  O14  1  0.572680  0.250128  0.270900  1
  O  O15  1  0.427320  0.249872  0.770900  1
  O  O16  1  0.364128  0.998531  0.907684  1
  O  O17  1  0.635872  0.501469  0.407684  1
  O  O18  1  0.635872  0.001469  0.092316  1
  O  O19  1  0.364128  0.498531  0.592316  1
  O  O20  1  0.044981  0.766278  0.776018  1
  O  O21  1  0.955019  0.733722  0.276018  1
  O  O22  1  0.955019  0.233722  0.223982  1
  O  O23  1  0.044981  0.266278  0.723982  1
  O  O24  1  0.507234  0.721245  0.996017  1
  O  O25  1  0.492766  0.778755  0.496017  1
  O  O26  1  0.492766  0.278755  0.003983  1
  O  O27  1  0.507234  0.221245  0.503983  1
  P  P28  1  0.064006  0.809147  0.634955  1
  P  P29  1  0.935994  0.690853  0.134955  1
  P  P30  1  0.935994  0.190853  0.365045  1
  P  P31  1  0.064006  0.309147  0.865045  1
  P  P32  1  0.370048  0.674497  0.597863  1
  P  P33  1  0.629952  0.825503  0.097863  1
  P  P34  1  0.629952  0.325503  0.402137  1
  P  P35  1  0.370048  0.174497  0.902137  1
  In  In36  1  0.671870  0.064704  0.679783  1
  In  In37  1  0.328130  0.435296  0.179783  1
  In  In38  1  0.328130  0.935296  0.320217  1
  In  In39  1  0.671870  0.564704  0.820217  1
  In  In40  1  0.260840  0.241654  0.600794  1
  In  In41  1  0.739160  0.258346  0.100794  1
  In  In42  1  0.739160  0.758346  0.399206  1
  In  In43  1  0.260840  0.741654  0.899206  1
