# generated using pymatgen
data_Cr3N4
_symmetry_space_group_name_H-M   'P 1'
_cell_length_a   6.03048207
_cell_length_b   8.17809594
_cell_length_c   8.18778616
_cell_angle_alpha   119.96085948
_cell_angle_beta   89.94092214
_cell_angle_gamma   90.11829580
_symmetry_Int_Tables_number   1
_chemical_formula_structural   Cr3N4
_chemical_formula_sum   'Cr12 N16'
_cell_volume   349.84170624
_cell_formula_units_Z   4
loop_
 _symmetry_equiv_pos_site_id
 _symmetry_equiv_pos_as_xyz
  1  'x, y, z'
loop_
 _atom_site_type_symbol
 _atom_site_label
 _atom_site_symmetry_multiplicity
 _atom_site_fract_x
 _atom_site_fract_y
 _atom_site_fract_z
 _atom_site_occupancy
  Cr  Cr0  1  0.792898  0.513768  0.431841  1
  Cr  Cr1  1  0.792462  0.918986  0.487586  1
  Cr  Cr2  1  0.794315  0.568277  0.081982  1
  Cr  Cr3  1  0.292898  0.081926  0.568159  1
  Cr  Cr4  1  0.292462  0.431400  0.512414  1
  Cr  Cr5  1  0.294315  0.486295  0.918018  1
  Cr  Cr6  1  0.022710  0.167476  0.913301  1
  Cr  Cr7  1  0.020854  0.744720  0.831557  1
  Cr  Cr8  1  0.020369  0.087147  0.255028  1
  Cr  Cr9  1  0.522710  0.254174  0.086699  1
  Cr  Cr10  1  0.520854  0.913163  0.168443  1
  Cr  Cr11  1  0.520369  0.832119  0.744972  1
  N  N12  1  0.024713  0.607752  -0.045290  1
  N  N13  1  0.023127  0.347012  0.390682  1
  N  N14  1  0.023892  0.044622  0.653347  1
  N  N15  1  0.524713  0.653042  0.045290  1
  N  N16  1  0.523127  -0.043670  0.609318  1
  N  N17  1  0.523892  0.391275  0.346653  1
  N  N18  1  0.772036  0.313307  -0.002221  1
  N  N19  1  0.769836  0.684236  0.686218  1
  N  N20  1  0.769209  0.003400  0.317466  1
  N  N21  1  0.272036  0.315528  0.002221  1
  N  N22  1  0.269836  -0.001982  0.313782  1
  N  N23  1  0.269209  0.685933  0.682534  1
  N  N24  1  0.020565  -0.000596  0.000137  1
  N  N25  1  0.520565  -0.000733  -0.000137  1
  N  N26  1  0.357314  0.333770  0.666216  1
  N  N27  1  0.857314  0.667554  0.333784  1
