# generated using pymatgen
data_Te2MoW2(SeS)2
_symmetry_space_group_name_H-M   'P 1'
_cell_length_a   3.35015895
_cell_length_b   3.35019850
_cell_length_c   32.04871011
_cell_angle_alpha   90.02236549
_cell_angle_beta   90.00000000
_cell_angle_gamma   119.99960940
_symmetry_Int_Tables_number   1
_chemical_formula_structural   Te2MoW2(SeS)2
_chemical_formula_sum   'Te2 Mo1 W2 Se2 S2'
_cell_volume   311.51488574
_cell_formula_units_Z   1
loop_
 _symmetry_equiv_pos_site_id
 _symmetry_equiv_pos_as_xyz
  1  'x, y, z'
loop_
 _atom_site_type_symbol
 _atom_site_label
 _atom_site_symmetry_multiplicity
 _atom_site_fract_x
 _atom_site_fract_y
 _atom_site_fract_z
 _atom_site_occupancy
  Te  Te0  1  0.666464  0.332927  0.519993  1
  Te  Te1  1  0.667040  0.334080  0.638874  1
  Mo  Mo2  1  0.333056  0.666113  0.113170  1
  W  W3  1  0.333375  0.666750  0.579398  1
  W  W4  1  0.666812  0.333624  0.348301  1
  Se  Se5  1  0.666447  0.332893  0.061238  1
  Se  Se6  1  0.666498  0.332995  0.165199  1
  S  S7  1  0.333578  0.667158  0.395831  1
  S  S8  1  0.333329  0.666659  0.300838  1
