# generated using pymatgen
data_Rb2VCuS4
_symmetry_space_group_name_H-M   'P 1'
_cell_length_a   5.45237101
_cell_length_b   7.33926782
_cell_length_c   12.26238731
_cell_angle_alpha   85.26303102
_cell_angle_beta   77.15461015
_cell_angle_gamma   68.19480796
_symmetry_Int_Tables_number   1
_chemical_formula_structural   Rb2VCuS4
_chemical_formula_sum   'Rb4 V2 Cu2 S8'
_cell_volume   444.18667862
_cell_formula_units_Z   2
loop_
 _symmetry_equiv_pos_site_id
 _symmetry_equiv_pos_as_xyz
  1  'x, y, z'
loop_
 _atom_site_type_symbol
 _atom_site_label
 _atom_site_symmetry_multiplicity
 _atom_site_fract_x
 _atom_site_fract_y
 _atom_site_fract_z
 _atom_site_occupancy
  S  S0  1  0.396606  0.564179  0.854735  1
  S  S1  1  0.315520  0.935821  0.645265  1
  S  S2  1  0.039215  0.564179  0.645265  1
  S  S3  1  0.748659  0.935821  0.854735  1
  S  S4  1  0.251341  0.064179  0.145265  1
  S  S5  1  0.684480  0.064179  0.354735  1
  S  S6  1  0.960785  0.435821  0.354735  1
  S  S7  1  0.603394  0.435821  0.145265  1
  V  V8  1  0.875000  0.250000  0.250000  1
  V  V9  1  0.125000  0.750000  0.750000  1
  Cu  Cu10  1  0.625000  0.750000  0.750000  1
  Cu  Cu11  1  0.375000  0.250000  0.250000  1
  Rb  Rb12  1  0.052583  0.250000  0.894833  1
  Rb  Rb13  1  0.697417  0.250000  0.605167  1
  Rb  Rb14  1  0.302583  0.750000  0.394833  1
  Rb  Rb15  1  0.947417  0.750000  0.105167  1
