# generated using pymatgen
data_K2Ca2(SO4)3
_symmetry_space_group_name_H-M   'P 1'
_cell_length_a   10.42719984
_cell_length_b   10.56521740
_cell_length_c   10.63988546
_cell_angle_alpha   90.00000000
_cell_angle_beta   90.00000000
_cell_angle_gamma   90.00000000
_symmetry_Int_Tables_number   1
_chemical_formula_structural   K2Ca2(SO4)3
_chemical_formula_sum   'K8 Ca8 S12 O48'
_cell_volume   1172.14971869
_cell_formula_units_Z   4
loop_
 _symmetry_equiv_pos_site_id
 _symmetry_equiv_pos_as_xyz
  1  'x, y, z'
loop_
 _atom_site_type_symbol
 _atom_site_label
 _atom_site_symmetry_multiplicity
 _atom_site_fract_x
 _atom_site_fract_y
 _atom_site_fract_z
 _atom_site_occupancy
  O  O0  1  0.081354  0.899416  0.801939  1
  O  O1  1  0.581354  0.600584  0.198061  1
  O  O2  1  0.918646  0.399416  0.698061  1
  O  O3  1  0.418646  0.100584  0.301939  1
  O  O4  1  0.241091  0.067715  0.780586  1
  O  O5  1  0.741091  0.432285  0.219414  1
  O  O6  1  0.758909  0.567715  0.719414  1
  O  O7  1  0.258909  0.932285  0.280586  1
  O  O8  1  0.029706  0.094991  0.691757  1
  O  O9  1  0.529706  0.405009  0.308243  1
  O  O10  1  0.970294  0.594991  0.808243  1
  O  O11  1  0.470294  0.905009  0.191757  1
  O  O12  1  0.179168  0.943475  0.598639  1
  O  O13  1  0.679168  0.556525  0.401361  1
  O  O14  1  0.820832  0.443475  0.901361  1
  O  O15  1  0.320832  0.056525  0.098639  1
  O  O16  1  0.383427  0.661732  0.490972  1
  O  O17  1  0.883427  0.838268  0.509028  1
  O  O18  1  0.159453  0.690734  0.435708  1
  O  O19  1  0.616573  0.161732  0.009028  1
  O  O20  1  0.243178  0.479287  0.456851  1
  O  O21  1  0.743178  0.020713  0.543149  1
  O  O22  1  0.756822  0.979287  0.043149  1
  O  O23  1  0.256822  0.520713  0.956851  1
  O  O24  1  0.214106  0.607163  0.642758  1
  O  O25  1  0.714106  0.892837  0.357242  1
  O  O26  1  0.785894  0.107163  0.857242  1
  O  O27  1  0.285894  0.392837  0.142758  1
  O  O28  1  0.024777  0.303952  0.266121  1
  O  O29  1  0.524777  0.196048  0.733879  1
  O  O30  1  0.975223  0.803952  0.233879  1
  O  O31  1  0.475223  0.696048  0.766121  1
  O  O32  1  0.989570  0.083059  0.324503  1
  O  O33  1  0.489570  0.416941  0.675497  1
  O  O34  1  0.010430  0.583059  0.175497  1
  O  O35  1  0.510430  0.916941  0.824503  1
  O  O36  1  0.922559  0.254018  0.463468  1
  O  O37  1  0.422559  0.245982  0.536532  1
  O  O38  1  0.077441  0.754018  0.036532  1
  O  O39  1  0.577441  0.745982  0.963468  1
  O  O40  1  0.150865  0.209269  0.432708  1
  O  O41  1  0.650865  0.290731  0.567292  1
  O  O42  1  0.849135  0.709269  0.067292  1
  O  O43  1  0.349135  0.790731  0.932708  1
  O  O44  1  0.340547  0.309266  0.935708  1
  O  O45  1  0.840547  0.190734  0.064292  1
  O  O46  1  0.659453  0.809266  0.564292  1
  O  O47  1  0.116573  0.338268  0.990972  1
  S  S48  1  0.132191  0.001281  0.718124  1
  S  S49  1  0.632191  0.498719  0.281876  1
  S  S50  1  0.867809  0.501281  0.781876  1
  S  S51  1  0.367809  0.998719  0.218124  1
  S  S52  1  0.251523  0.610746  0.508019  1
  S  S53  1  0.751523  0.889254  0.491981  1
  S  S54  1  0.748477  0.110746  0.991981  1
  S  S55  1  0.248477  0.389254  0.008019  1
  S  S56  1  0.477804  0.787876  0.871936  1
  S  S57  1  0.022196  0.212124  0.371936  1
  S  S58  1  0.522196  0.287876  0.628064  1
  S  S59  1  0.977804  0.712124  0.128064  1
  K  K60  1  0.309231  0.671399  0.184579  1
  K  K61  1  0.190769  0.328601  0.684579  1
  K  K62  1  0.440201  0.972287  0.564387  1
  K  K63  1  0.690769  0.171399  0.315421  1
  K  K64  1  0.059799  0.027713  0.064387  1
  K  K65  1  0.559799  0.472287  0.935613  1
  K  K66  1  0.940201  0.527713  0.435613  1
  K  K67  1  0.809231  0.828601  0.815421  1
  Ca  Ca68  1  0.331392  0.309146  0.342325  1
  Ca  Ca69  1  0.831392  0.190854  0.657675  1
  Ca  Ca70  1  0.668608  0.809146  0.157675  1
  Ca  Ca71  1  0.168608  0.690854  0.842325  1
  Ca  Ca72  1  0.577058  0.605793  0.592153  1
  Ca  Ca73  1  0.422942  0.105793  0.907847  1
  Ca  Ca74  1  0.922942  0.394207  0.092153  1
  Ca  Ca75  1  0.077058  0.894207  0.407847  1
