# generated using pymatgen
data_Te6Mo3WS2
_symmetry_space_group_name_H-M   'P 1'
_cell_length_a   3.45899071
_cell_length_b   3.45910747
_cell_length_c   39.24182179
_cell_angle_alpha   89.99994935
_cell_angle_beta   90.00000627
_cell_angle_gamma   119.99877037
_symmetry_Int_Tables_number   1
_chemical_formula_structural   Te6Mo3WS2
_chemical_formula_sum   'Te6 Mo3 W1 S2'
_cell_volume   406.62925920
_cell_formula_units_Z   1
loop_
 _symmetry_equiv_pos_site_id
 _symmetry_equiv_pos_as_xyz
  1  'x, y, z'
loop_
 _atom_site_type_symbol
 _atom_site_label
 _atom_site_symmetry_multiplicity
 _atom_site_fract_x
 _atom_site_fract_y
 _atom_site_fract_z
 _atom_site_occupancy
  Te  Te0  1  0.333350  0.666701  0.704700  1
  Te  Te1  1  0.666644  0.333286  0.046827  1
  Te  Te2  1  0.666649  0.333297  0.422216  1
  Te  Te3  1  0.666648  0.333296  0.141093  1
  Te  Te4  1  0.666647  0.333292  0.516912  1
  Te  Te5  1  0.333350  0.666700  0.610499  1
  Mo  Mo6  1  0.333314  0.666627  0.093915  1
  Mo  Mo7  1  0.666690  0.333380  0.281798  1
  Mo  Mo8  1  0.666685  0.333372  0.657624  1
  W  W9  1  0.333313  0.666625  0.469560  1
  S  S10  1  0.333357  0.666714  0.319738  1
  S  S11  1  0.333354  0.666709  0.243865  1
