# generated using pymatgen
data_P
_symmetry_space_group_name_H-M   'P 1'
_cell_length_a   6.00087235
_cell_length_b   6.81542413
_cell_length_c   6.81542413
_cell_angle_alpha   83.15697245
_cell_angle_beta   89.84714668
_cell_angle_gamma   89.84714663
_symmetry_Int_Tables_number   1
_chemical_formula_structural   P
_chemical_formula_sum   P8
_cell_volume   276.75313597
_cell_formula_units_Z   8
loop_
 _symmetry_equiv_pos_site_id
 _symmetry_equiv_pos_as_xyz
  1  'x, y, z'
loop_
 _atom_site_type_symbol
 _atom_site_label
 _atom_site_symmetry_multiplicity
 _atom_site_fract_x
 _atom_site_fract_y
 _atom_site_fract_z
 _atom_site_occupancy
  P  P0  1  0.244980  0.162498  0.162498  1
  P  P1  1  0.755020  0.837502  0.837502  1
  P  P2  1  0.549729  0.282135  0.282135  1
  P  P3  1  0.450271  0.717865  0.717865  1
  P  P4  1  0.252576  0.471310  0.227717  1
  P  P5  1  0.747424  0.772283  0.528690  1
  P  P6  1  0.747424  0.528690  0.772283  1
  P  P7  1  0.252576  0.227717  0.471310  1
