# generated using pymatgen
data_Rb2TaCuSe4
_symmetry_space_group_name_H-M   'P 1'
_cell_length_a   5.80242325
_cell_length_b   7.71366829
_cell_length_c   12.93446393
_cell_angle_alpha   85.16063302
_cell_angle_beta   77.03822922
_cell_angle_gamma   67.90687461
_symmetry_Int_Tables_number   1
_chemical_formula_structural   Rb2TaCuSe4
_chemical_formula_sum   'Rb4 Ta2 Cu2 Se8'
_cell_volume   522.74456656
_cell_formula_units_Z   2
loop_
 _symmetry_equiv_pos_site_id
 _symmetry_equiv_pos_as_xyz
  1  'x, y, z'
loop_
 _atom_site_type_symbol
 _atom_site_label
 _atom_site_symmetry_multiplicity
 _atom_site_fract_x
 _atom_site_fract_y
 _atom_site_fract_z
 _atom_site_occupancy
  Cu  Cu0  1  0.125000  0.750000  0.750000  1
  Cu  Cu1  1  0.875000  0.250000  0.250000  1
  Se  Se2  1  0.825698  0.946179  0.639651  1
  Se  Se3  1  0.911527  0.553821  0.860349  1
  Se  Se4  1  0.228123  0.946179  0.860349  1
  Se  Se5  1  0.534652  0.553821  0.639651  1
  Se  Se6  1  0.465348  0.446179  0.360349  1
  Se  Se7  1  0.771877  0.053821  0.139651  1
  Se  Se8  1  0.088473  0.446179  0.139651  1
  Se  Se9  1  0.174302  0.053821  0.360349  1
  Rb  Rb10  1  0.803871  0.750000  0.392258  1
  Rb  Rb11  1  0.446129  0.750000  0.107742  1
  Rb  Rb12  1  0.196129  0.250000  0.607742  1
  Rb  Rb13  1  0.553871  0.250000  0.892258  1
  Ta  Ta14  1  0.625000  0.750000  0.750000  1
  Ta  Ta15  1  0.375000  0.250000  0.250000  1
