# generated using pymatgen
data_BaMn2V2O8
_symmetry_space_group_name_H-M   'P 1'
_cell_length_a   8.84590843
_cell_length_b   10.08322283
_cell_length_c   10.08322283
_cell_angle_alpha   78.90657578
_cell_angle_beta   63.98254804
_cell_angle_gamma   63.98254802
_symmetry_Int_Tables_number   1
_chemical_formula_structural   BaMn2V2O8
_chemical_formula_sum   'Ba4 Mn8 V8 O32'
_cell_volume   726.32744546
_cell_formula_units_Z   4
loop_
 _symmetry_equiv_pos_site_id
 _symmetry_equiv_pos_as_xyz
  1  'x, y, z'
loop_
 _atom_site_type_symbol
 _atom_site_label
 _atom_site_symmetry_multiplicity
 _atom_site_fract_x
 _atom_site_fract_y
 _atom_site_fract_z
 _atom_site_occupancy
  O  O0  1  0.341311  0.587798  0.409764  1
  O  O1  1  0.338873  0.912202  0.090236  1
  O  O2  1  0.251075  0.090236  0.587798  1
  O  O3  1  0.929108  0.409764  0.912202  1
  O  O4  1  0.158689  0.090236  0.912202  1
  O  O5  1  0.570891  0.587798  0.090236  1
  O  O6  1  0.248926  0.912202  0.409764  1
  O  O7  1  0.161128  0.409764  0.587798  1
  O  O8  1  0.658689  0.412202  0.590236  1
  O  O9  1  0.661127  0.087798  0.909764  1
  O  O10  1  0.748925  0.909764  0.412202  1
  O  O11  1  0.070891  0.590236  0.087798  1
  O  O12  1  0.841311  0.909764  0.087798  1
  O  O13  1  0.429109  0.412202  0.909764  1
  O  O14  1  0.751075  0.087798  0.590236  1
  O  O15  1  0.838873  0.590236  0.412202  1
  O  O16  1  0.962853  0.727311  0.584339  1
  O  O17  1  0.274503  0.772689  0.915660  1
  O  O18  1  0.047191  0.915660  0.727311  1
  O  O19  1  0.690163  0.584339  0.772689  1
  O  O20  1  0.774502  0.415660  0.272689  1
  O  O21  1  0.547192  0.227311  0.415660  1
  O  O22  1  0.190164  0.272689  0.084340  1
  O  O23  1  0.462852  0.084339  0.227311  1
  O  O24  1  0.309836  0.415660  0.227312  1
  O  O25  1  0.952808  0.084339  0.272690  1
  O  O26  1  0.537148  0.915660  0.772689  1
  O  O27  1  0.037148  0.272689  0.415661  1
  O  O28  1  0.225498  0.584339  0.727310  1
  O  O29  1  0.452808  0.772689  0.584339  1
  O  O30  1  0.809837  0.727311  0.915661  1
  O  O31  1  0.725497  0.227311  0.084339  1
  V  V32  1  0.329960  0.920040  0.920039  1
  V  V33  1  0.750000  0.579960  0.920039  1
  V  V34  1  0.250000  0.920040  0.579960  1
  V  V35  1  0.170040  0.579960  0.579960  1
  V  V36  1  0.670040  0.079960  0.079960  1
  V  V37  1  0.250000  0.420040  0.079960  1
  V  V38  1  0.750000  0.079960  0.420040  1
  V  V39  1  0.829960  0.420040  0.420040  1
  Mn  Mn40  1  0.042645  0.750000  0.914709  1
  Mn  Mn41  1  0.457355  0.585290  0.750000  1
  Mn  Mn42  1  0.292645  0.250000  0.414709  1
  Mn  Mn43  1  0.707355  0.750000  0.585291  1
  Mn  Mn44  1  0.957355  0.250000  0.085291  1
  Mn  Mn45  1  0.542646  0.414709  0.250000  1
  Mn  Mn46  1  0.207355  0.085291  0.250000  1
  Mn  Mn47  1  0.792646  0.914709  0.750000  1
  Ba  Ba48  1  0.375000  0.250000  0.750000  1
  Ba  Ba49  1  0.625001  0.750000  0.250000  1
  Ba  Ba50  1  0.875000  0.250000  0.750000  1
  Ba  Ba51  1  0.125000  0.750000  0.250000  1
