# generated using pymatgen
data_Al2Pb3F12
_symmetry_space_group_name_H-M   'P 1'
_cell_length_a   9.56430055
_cell_length_b   9.81226977
_cell_length_c   10.40500980
_cell_angle_alpha   90.00000000
_cell_angle_beta   91.00616352
_cell_angle_gamma   90.00000000
_symmetry_Int_Tables_number   1
_chemical_formula_structural   Al2Pb3F12
_chemical_formula_sum   'Al8 Pb12 F48'
_cell_volume   976.33356531
_cell_formula_units_Z   4
loop_
 _symmetry_equiv_pos_site_id
 _symmetry_equiv_pos_as_xyz
  1  'x, y, z'
loop_
 _atom_site_type_symbol
 _atom_site_label
 _atom_site_symmetry_multiplicity
 _atom_site_fract_x
 _atom_site_fract_y
 _atom_site_fract_z
 _atom_site_occupancy
  F  F0  1  0.428067  0.960380  0.655654  1
  F  F1  1  0.071933  0.460380  0.844346  1
  F  F2  1  0.571933  0.039620  0.344346  1
  F  F3  1  0.928067  0.539620  0.155654  1
  F  F4  1  0.509635  0.374517  0.068072  1
  F  F5  1  0.990365  0.874517  0.431928  1
  F  F6  1  0.490365  0.625483  0.931928  1
  F  F7  1  0.009635  0.125483  0.568072  1
  F  F8  1  0.708362  0.766668  0.545809  1
  F  F9  1  0.791638  0.266668  0.954191  1
  F  F10  1  0.291638  0.233332  0.454191  1
  F  F11  1  0.208362  0.733332  0.045809  1
  F  F12  1  0.873844  0.585820  0.442824  1
  F  F13  1  0.626156  0.085820  0.057176  1
  F  F14  1  0.126156  0.414180  0.557176  1
  F  F15  1  0.373844  0.914180  0.942824  1
  F  F16  1  0.661246  0.507594  0.304944  1
  F  F17  1  0.766255  0.261763  0.200343  1
  F  F18  1  0.233745  0.738237  0.799657  1
  F  F19  1  0.266255  0.238237  0.700343  1
  F  F20  1  0.122042  0.086571  0.281782  1
  F  F21  1  0.377958  0.586571  0.218218  1
  F  F22  1  0.877958  0.913429  0.718218  1
  F  F23  1  0.622042  0.413429  0.781782  1
  F  F24  1  0.360114  0.102506  0.168437  1
  F  F25  1  0.139886  0.602506  0.331563  1
  F  F26  1  0.639886  0.897494  0.831563  1
  F  F27  1  0.860114  0.397494  0.668437  1
  F  F28  1  0.270445  0.714986  0.527347  1
  F  F29  1  0.229555  0.214986  0.972653  1
  F  F30  1  0.729555  0.285014  0.472653  1
  F  F31  1  0.770445  0.785014  0.027347  1
  F  F32  1  0.299545  0.823902  0.306816  1
  F  F33  1  0.200455  0.323902  0.193184  1
  F  F34  1  0.700455  0.176098  0.693184  1
  F  F35  1  0.799545  0.676098  0.806816  1
  F  F36  1  0.504657  0.693922  0.410605  1
  F  F37  1  0.995343  0.193922  0.089395  1
  F  F38  1  0.495343  0.306078  0.589395  1
  F  F39  1  0.004657  0.806078  0.910605  1
  F  F40  1  0.642842  0.519466  0.556081  1
  F  F41  1  0.857158  0.019466  0.943919  1
  F  F42  1  0.357158  0.480534  0.443919  1
  F  F43  1  0.142842  0.980534  0.056081  1
  F  F44  1  0.161246  0.992406  0.804944  1
  F  F45  1  0.338754  0.492406  0.695056  1
  F  F46  1  0.838754  0.007594  0.195056  1
  F  F47  1  0.733745  0.761763  0.299657  1
  Al  Al48  1  0.309029  0.362987  0.576940  1
  Al  Al49  1  0.190971  0.862987  0.923060  1
  Al  Al50  1  0.690971  0.637013  0.423060  1
  Al  Al51  1  0.809029  0.137013  0.076940  1
  Al  Al52  1  0.318247  0.650303  0.370172  1
  Al  Al53  1  0.181753  0.150303  0.129828  1
  Al  Al54  1  0.681753  0.349697  0.629828  1
  Al  Al55  1  0.818247  0.849697  0.870172  1
  Pb  Pb56  1  0.792525  0.001986  0.512142  1
  Pb  Pb57  1  0.707475  0.501986  0.987858  1
  Pb  Pb58  1  0.207475  0.998014  0.487858  1
  Pb  Pb59  1  0.292525  0.498014  0.012142  1
  Pb  Pb60  1  0.029013  0.213595  0.791180  1
  Pb  Pb61  1  0.470987  0.713595  0.708820  1
  Pb  Pb62  1  0.970987  0.786405  0.208820  1
  Pb  Pb63  1  0.529013  0.286405  0.291180  1
  Pb  Pb64  1  0.481594  0.104780  0.823590  1
  Pb  Pb65  1  0.018406  0.604780  0.676410  1
  Pb  Pb66  1  0.518406  0.895220  0.176410  1
  Pb  Pb67  1  0.981594  0.395220  0.323590  1
