# generated using pymatgen
data_Ba3Si2(B3O8)2
_symmetry_space_group_name_H-M   'P 1'
_cell_length_a   5.08421707
_cell_length_b   7.68159642
_cell_length_c   8.62702756
_cell_angle_alpha   77.17018223
_cell_angle_beta   77.68898940
_cell_angle_gamma   87.28812014
_symmetry_Int_Tables_number   1
_chemical_formula_structural   Ba3Si2(B3O8)2
_chemical_formula_sum   'Ba3 Si2 B6 O16'
_cell_volume   320.96161643
_cell_formula_units_Z   1
loop_
 _symmetry_equiv_pos_site_id
 _symmetry_equiv_pos_as_xyz
  1  'x, y, z'
loop_
 _atom_site_type_symbol
 _atom_site_label
 _atom_site_symmetry_multiplicity
 _atom_site_fract_x
 _atom_site_fract_y
 _atom_site_fract_z
 _atom_site_occupancy
  Ba  Ba0  1  0.500000  0.000000  0.500000  1
  Ba  Ba1  1  0.618919  0.579772  0.234769  1
  Ba  Ba2  1  0.381081  0.420228  0.765231  1
  Si  Si3  1  0.240528  0.826100  0.940022  1
  Si  Si4  1  0.759472  0.173900  0.059978  1
  B  B5  1  0.816691  0.760725  0.796055  1
  B  B6  1  0.183309  0.239275  0.203945  1
  B  B7  1  0.968934  0.303120  0.475847  1
  B  B8  1  0.031066  0.696880  0.524153  1
  B  B9  1  0.021816  0.909428  0.246334  1
  B  B10  1  0.978184  0.090572  0.753666  1
  O  O11  1  0.214651  0.821902  0.133157  1
  O  O12  1  0.785349  0.178098  0.866843  1
  O  O13  1  0.144968  0.358358  0.322003  1
  O  O14  1  0.855032  0.641642  0.677997  1
  O  O15  1  0.998102  0.705793  0.914808  1
  O  O16  1  0.001898  0.294207  0.085192  1
  O  O17  1  0.905243  0.773377  0.395026  1
  O  O18  1  0.094757  0.226623  0.604974  1
  O  O19  1  0.701396  0.324360  0.494163  1
  O  O20  1  0.298604  0.675640  0.505837  1
  O  O21  1  0.471709  0.273426  0.111158  1
  O  O22  1  0.528291  0.726574  0.888842  1
  O  O23  1  0.864106  0.945179  0.706267  1
  O  O24  1  0.135894  0.054821  0.293733  1
  O  O25  1  0.779048  0.972791  0.172890  1
  O  O26  1  0.220952  0.027209  0.827110  1
