# generated using pymatgen
data_Te2MoW3(Se2S)2
_symmetry_space_group_name_H-M   'P 1'
_cell_length_a   3.34106222
_cell_length_b   3.34105464
_cell_length_c   38.72186643
_cell_angle_alpha   90.00329150
_cell_angle_beta   90.00000000
_cell_angle_gamma   120.00007508
_symmetry_Int_Tables_number   1
_chemical_formula_structural   Te2MoW3(Se2S)2
_chemical_formula_sum   'Te2 Mo1 W3 Se4 S2'
_cell_volume   374.33007905
_cell_formula_units_Z   1
loop_
 _symmetry_equiv_pos_site_id
 _symmetry_equiv_pos_as_xyz
  1  'x, y, z'
loop_
 _atom_site_type_symbol
 _atom_site_label
 _atom_site_symmetry_multiplicity
 _atom_site_fract_x
 _atom_site_fract_y
 _atom_site_fract_z
 _atom_site_occupancy
  Te  Te0  1  0.333382  0.666765  0.330942  1
  Te  Te1  1  0.333340  0.666681  0.232413  1
  Mo  Mo2  1  0.333281  0.666562  0.093507  1
  W  W3  1  0.333325  0.666651  0.470148  1
  W  W4  1  0.666699  0.333399  0.281685  1
  W  W5  1  0.666695  0.333391  0.657593  1
  Se  Se6  1  0.666602  0.333203  0.050451  1
  Se  Se7  1  0.666625  0.333249  0.426866  1
  Se  Se8  1  0.666633  0.333265  0.136578  1
  Se  Se9  1  0.666697  0.333393  0.513382  1
  S  S10  1  0.333378  0.666758  0.696914  1
  S  S11  1  0.333342  0.666684  0.618269  1
