# generated using pymatgen
data_Li3AlSiO5
_symmetry_space_group_name_H-M   'P 1'
_cell_length_a   5.39188841
_cell_length_b   15.73823127
_cell_length_c   4.85273515
_cell_angle_alpha   90.00000000
_cell_angle_beta   90.00000000
_cell_angle_gamma   90.00000000
_symmetry_Int_Tables_number   1
_chemical_formula_structural   Li3AlSiO5
_chemical_formula_sum   'Li12 Al4 Si4 O20'
_cell_volume   411.79721739
_cell_formula_units_Z   4
loop_
 _symmetry_equiv_pos_site_id
 _symmetry_equiv_pos_as_xyz
  1  'x, y, z'
loop_
 _atom_site_type_symbol
 _atom_site_label
 _atom_site_symmetry_multiplicity
 _atom_site_fract_x
 _atom_site_fract_y
 _atom_site_fract_z
 _atom_site_occupancy
  Li  Li0  1  0.171727  0.697180  0.896114  1
  Li  Li1  1  0.828273  0.302820  0.396114  1
  Li  Li2  1  0.328273  0.197180  0.396114  1
  Li  Li3  1  0.671727  0.802820  0.896114  1
  Li  Li4  1  0.165243  0.503950  0.893732  1
  Li  Li5  1  0.834757  0.496050  0.393732  1
  Li  Li6  1  0.334757  0.003950  0.393732  1
  Li  Li7  1  0.665243  0.996050  0.893732  1
  Li  Li8  1  0.669458  0.404182  0.895722  1
  Li  Li9  1  0.330542  0.595818  0.395722  1
  Li  Li10  1  0.830542  0.904182  0.395722  1
  Li  Li11  1  0.169458  0.095818  0.895722  1
  Al  Al12  1  0.828022  0.700237  0.398542  1
  Al  Al13  1  0.171978  0.299763  0.898542  1
  Al  Al14  1  0.671978  0.200237  0.898542  1
  Al  Al15  1  0.328022  0.799763  0.398542  1
  Si  Si16  1  0.666959  0.598470  0.894672  1
  Si  Si17  1  0.333041  0.401530  0.394672  1
  Si  Si18  1  0.833041  0.098470  0.394672  1
  Si  Si19  1  0.166959  0.901530  0.894672  1
  O  O20  1  0.812735  0.513566  0.799151  1
  O  O21  1  0.187265  0.486434  0.299151  1
  O  O22  1  0.687265  0.013566  0.299151  1
  O  O23  1  0.312735  0.986434  0.799151  1
  O  O24  1  0.377574  0.602404  0.803257  1
  O  O25  1  0.622426  0.397596  0.303257  1
  O  O26  1  0.122426  0.102404  0.303257  1
  O  O27  1  0.877574  0.897596  0.803257  1
  O  O28  1  0.811686  0.685756  0.765766  1
  O  O29  1  0.188314  0.314244  0.265766  1
  O  O30  1  0.688314  0.185756  0.265766  1
  O  O31  1  0.311686  0.814244  0.765766  1
  O  O32  1  0.692089  0.609637  0.238375  1
  O  O33  1  0.307911  0.390363  0.738375  1
  O  O34  1  0.807911  0.109637  0.738375  1
  O  O35  1  0.192089  0.890363  0.238375  1
  O  O36  1  0.645098  0.789945  0.310169  1
  O  O37  1  0.354902  0.210055  0.810168  1
  O  O38  1  0.854902  0.289945  0.810168  1
  O  O39  1  0.145098  0.710055  0.310169  1
