# generated using pymatgen
data_Rb2TbO3
_symmetry_space_group_name_H-M   'P 1'
_cell_length_a   6.39543285
_cell_length_b   6.73727088
_cell_length_c   6.73727089
_cell_angle_alpha   112.95296806
_cell_angle_beta   90.00000000
_cell_angle_gamma   90.00000000
_symmetry_Int_Tables_number   1
_chemical_formula_structural   Rb2TbO3
_chemical_formula_sum   'Rb4 Tb2 O6'
_cell_volume   267.30999372
_cell_formula_units_Z   2
loop_
 _symmetry_equiv_pos_site_id
 _symmetry_equiv_pos_as_xyz
  1  'x, y, z'
loop_
 _atom_site_type_symbol
 _atom_site_label
 _atom_site_symmetry_multiplicity
 _atom_site_fract_x
 _atom_site_fract_y
 _atom_site_fract_z
 _atom_site_occupancy
  O  O0  1  0.638285  0.629515  0.629515  1
  O  O1  1  0.138285  0.370485  0.370485  1
  O  O2  1  0.998462  0.843277  0.094377  1
  O  O3  1  0.498462  0.156723  0.905623  1
  O  O4  1  0.998462  0.094377  0.843277  1
  O  O5  1  0.498462  0.905623  0.156723  1
  Rb  Rb6  1  0.767678  0.198348  0.525479  1
  Rb  Rb7  1  0.767678  0.525479  0.198348  1
  Rb  Rb8  1  0.267678  0.801652  0.474521  1
  Rb  Rb9  1  0.267678  0.474521  0.801652  1
  Tb  Tb10  1  0.229436  0.095582  0.095582  1
  Tb  Tb11  1  0.729436  0.904418  0.904418  1
