# generated using pymatgen
data_Rb(Zr3Te4)4
_symmetry_space_group_name_H-M   'P 1'
_cell_length_a   11.20332843
_cell_length_b   11.19859300
_cell_length_c   15.88822159
_cell_angle_alpha   89.99949857
_cell_angle_beta   90.00000012
_cell_angle_gamma   120.01117768
_symmetry_Int_Tables_number   1
_chemical_formula_structural   Rb(Zr3Te4)4
_chemical_formula_sum   'Rb2 Zr24 Te32'
_cell_volume   1726.10623621
_cell_formula_units_Z   2
loop_
 _symmetry_equiv_pos_site_id
 _symmetry_equiv_pos_as_xyz
  1  'x, y, z'
loop_
 _atom_site_type_symbol
 _atom_site_label
 _atom_site_symmetry_multiplicity
 _atom_site_fract_x
 _atom_site_fract_y
 _atom_site_fract_z
 _atom_site_occupancy
  Rb  Rb0  1  0.999992  0.000022  0.674012  1
  Rb  Rb1  1  0.999982  0.999993  0.950008  1
  Zr  Zr2  1  0.123278  0.628719  0.064108  1
  Zr  Zr3  1  0.122949  0.631858  0.312473  1
  Zr  Zr4  1  0.123301  0.628575  0.560895  1
  Zr  Zr5  1  0.123143  0.623263  0.812559  1
  Zr  Zr6  1  0.505394  0.876740  0.064099  1
  Zr  Zr7  1  0.500073  0.876882  0.812567  1
  Zr  Zr8  1  0.508872  0.877056  0.312469  1
  Zr  Zr9  1  0.505245  0.876703  0.560894  1
  Zr  Zr10  1  0.371259  0.494587  0.064098  1
  Zr  Zr11  1  0.376744  0.499910  0.812569  1
  Zr  Zr12  1  0.368098  0.491106  0.312460  1
  Zr  Zr13  1  0.371383  0.494732  0.560907  1
  Zr  Zr14  1  0.635689  0.511411  0.187615  1
  Zr  Zr15  1  0.635716  0.511465  0.437404  1
  Zr  Zr16  1  0.638269  0.515151  0.687831  1
  Zr  Zr17  1  0.638180  0.515056  0.937186  1
  Zr  Zr18  1  0.488614  0.124227  0.187625  1
  Zr  Zr19  1  0.488561  0.124191  0.437398  1
  Zr  Zr20  1  0.484858  0.123092  0.687821  1
  Zr  Zr21  1  0.484948  0.123094  0.937194  1
  Zr  Zr22  1  0.875758  0.364343  0.187632  1
  Zr  Zr23  1  0.875801  0.364332  0.437398  1
  Zr  Zr24  1  0.876910  0.361741  0.687816  1
  Zr  Zr25  1  0.876901  0.361829  0.937193  1
  Te  Te26  1  0.284483  0.944506  0.064020  1
  Te  Te27  1  0.287685  0.945263  0.312497  1
  Te  Te28  1  0.284368  0.944443  0.561003  1
  Te  Te29  1  0.278229  0.943858  0.812528  1
  Te  Te30  1  0.055524  0.339998  0.064026  1
  Te  Te31  1  0.054752  0.342403  0.312493  1
  Te  Te32  1  0.055593  0.339930  0.561003  1
  Te  Te33  1  0.056189  0.334419  0.812527  1
  Te  Te34  1  0.333316  0.666688  0.188324  1
  Te  Te35  1  0.333318  0.666677  0.687150  1
  Te  Te36  1  0.333328  0.666682  0.436746  1
  Te  Te37  1  0.333312  0.666682  0.938027  1
  Te  Te38  1  0.345593  0.291203  0.187516  1
  Te  Te39  1  0.345661  0.291336  0.437501  1
  Te  Te40  1  0.350231  0.297820  0.687845  1
  Te  Te41  1  0.350191  0.297710  0.937251  1
  Te  Te42  1  0.659951  0.715529  0.064011  1
  Te  Te43  1  0.660048  0.715677  0.561015  1
  Te  Te44  1  0.657560  0.712361  0.312488  1
  Te  Te45  1  0.665562  0.721769  0.812527  1
  Te  Te46  1  0.666738  0.333300  0.312527  1
  Te  Te47  1  0.666738  0.333301  0.061960  1
  Te  Te48  1  0.666735  0.333283  0.812500  1
  Te  Te49  1  0.666717  0.333275  0.563078  1
  Te  Te50  1  0.945641  0.654425  0.187526  1
  Te  Te51  1  0.945739  0.654381  0.437500  1
  Te  Te52  1  0.947586  0.649782  0.687830  1
  Te  Te53  1  0.947530  0.649824  0.937250  1
  Te  Te54  1  0.708746  0.054328  0.187513  1
  Te  Te55  1  0.708626  0.054252  0.437497  1
  Te  Te56  1  0.702145  0.052373  0.687840  1
  Te  Te57  1  0.702249  0.052444  0.937251  1
