# generated using pymatgen
data_Sr3CdIrO6
_symmetry_space_group_name_H-M   'P 1'
_cell_length_a   6.86368448
_cell_length_b   6.86368448
_cell_length_c   6.86368448
_cell_angle_alpha   90.04731228
_cell_angle_beta   90.04731233
_cell_angle_gamma   90.04731228
_symmetry_Int_Tables_number   1
_chemical_formula_structural   Sr3CdIrO6
_chemical_formula_sum   'Sr6 Cd2 Ir2 O12'
_cell_volume   323.34897509
_cell_formula_units_Z   2
loop_
 _symmetry_equiv_pos_site_id
 _symmetry_equiv_pos_as_xyz
  1  'x, y, z'
loop_
 _atom_site_type_symbol
 _atom_site_label
 _atom_site_symmetry_multiplicity
 _atom_site_fract_x
 _atom_site_fract_y
 _atom_site_fract_z
 _atom_site_occupancy
  O  O0  1  0.782517  0.583608  0.448242  1
  O  O1  1  0.583608  0.448242  0.782517  1
  O  O2  1  0.448242  0.782517  0.583608  1
  O  O3  1  0.051758  0.916392  0.717483  1
  O  O4  1  0.916392  0.717483  0.051758  1
  O  O5  1  0.717483  0.051758  0.916392  1
  O  O6  1  0.217483  0.416392  0.551758  1
  O  O7  1  0.416392  0.551758  0.217483  1
  O  O8  1  0.551758  0.217483  0.416392  1
  O  O9  1  0.948242  0.083608  0.282517  1
  O  O10  1  0.282517  0.948242  0.083608  1
  O  O11  1  0.083608  0.282517  0.948242  1
  Sr  Sr12  1  0.888189  0.250000  0.611811  1
  Sr  Sr13  1  0.250000  0.611811  0.888189  1
  Sr  Sr14  1  0.111811  0.750000  0.388189  1
  Sr  Sr15  1  0.611811  0.888189  0.250000  1
  Sr  Sr16  1  0.388189  0.111811  0.750000  1
  Sr  Sr17  1  0.750000  0.388189  0.111811  1
  Cd  Cd18  1  0.750000  0.750000  0.750000  1
  Cd  Cd19  1  0.250000  0.250000  0.250000  1
  Ir  Ir20  1  0.000000  0.000000  0.000000  1
  Ir  Ir21  1  0.500000  0.500000  0.500000  1
