# generated using pymatgen
data_Te6Mo3WSe2
_symmetry_space_group_name_H-M   'P 1'
_cell_length_a   3.49678409
_cell_length_b   3.49675090
_cell_length_c   39.64073215
_cell_angle_alpha   90.00020857
_cell_angle_beta   90.00000000
_cell_angle_gamma   120.00031404
_symmetry_Int_Tables_number   1
_chemical_formula_structural   Te6Mo3WSe2
_chemical_formula_sum   'Te6 Mo3 W1 Se2'
_cell_volume   419.76327324
_cell_formula_units_Z   1
loop_
 _symmetry_equiv_pos_site_id
 _symmetry_equiv_pos_as_xyz
  1  'x, y, z'
loop_
 _atom_site_type_symbol
 _atom_site_label
 _atom_site_symmetry_multiplicity
 _atom_site_fract_x
 _atom_site_fract_y
 _atom_site_fract_z
 _atom_site_occupancy
  Te  Te0  1  0.333357  0.666715  0.328078  1
  Te  Te1  1  0.666637  0.333274  0.047642  1
  Te  Te2  1  0.666642  0.333283  0.423391  1
  Te  Te3  1  0.666643  0.333285  0.140206  1
  Te  Te4  1  0.666649  0.333296  0.515942  1
  Te  Te5  1  0.333354  0.666710  0.235521  1
  Mo  Mo6  1  0.333310  0.666620  0.093903  1
  Mo  Mo7  1  0.333310  0.666620  0.469686  1
  Mo  Mo8  1  0.666695  0.333389  0.281801  1
  W  W9  1  0.666690  0.333381  0.657539  1
  Se  Se10  1  0.333357  0.666714  0.698472  1
  Se  Se11  1  0.333356  0.666714  0.616568  1
