# generated using pymatgen
data_LiEu2IrO6
_symmetry_space_group_name_H-M   'P 1'
_cell_length_a   5.46167769
_cell_length_b   5.82225307
_cell_length_c   7.72391891
_cell_angle_alpha   90.00000000
_cell_angle_beta   90.57084176
_cell_angle_gamma   90.00000000
_symmetry_Int_Tables_number   1
_chemical_formula_structural   LiEu2IrO6
_chemical_formula_sum   'Li2 Eu4 Ir2 O12'
_cell_volume   245.60279040
_cell_formula_units_Z   2
loop_
 _symmetry_equiv_pos_site_id
 _symmetry_equiv_pos_as_xyz
  1  'x, y, z'
loop_
 _atom_site_type_symbol
 _atom_site_label
 _atom_site_symmetry_multiplicity
 _atom_site_fract_x
 _atom_site_fract_y
 _atom_site_fract_z
 _atom_site_occupancy
  Li  Li0  1  0.000000  0.000000  0.000000  1
  Li  Li1  1  0.500000  0.500000  0.500000  1
  O  O2  1  0.177112  0.286551  0.447028  1
  O  O3  1  0.322888  0.786551  0.052972  1
  O  O4  1  0.822888  0.713449  0.552972  1
  O  O5  1  0.677112  0.213449  0.947028  1
  O  O6  1  0.096680  0.031758  0.744467  1
  O  O7  1  0.403320  0.531758  0.755533  1
  O  O8  1  0.203273  0.317073  0.046335  1
  O  O9  1  0.296727  0.817073  0.453665  1
  O  O10  1  0.796727  0.682927  0.953665  1
  O  O11  1  0.703273  0.182927  0.546335  1
  O  O12  1  0.596680  0.468242  0.244467  1
  O  O13  1  0.903320  0.968242  0.255533  1
  Eu  Eu14  1  0.484421  0.070878  0.251279  1
  Eu  Eu15  1  0.015579  0.570878  0.248721  1
  Eu  Eu16  1  0.984421  0.429122  0.751279  1
  Eu  Eu17  1  0.515579  0.929122  0.748721  1
  Ir  Ir18  1  0.500000  0.500000  0.000000  1
  Ir  Ir19  1  0.000000  0.000000  0.500000  1
