# generated using pymatgen
data_Ba2NbN3
_symmetry_space_group_name_H-M   'P 1'
_cell_length_a   6.25267209
_cell_length_b   6.74455224
_cell_length_c   13.38179698
_cell_angle_alpha   89.39440579
_cell_angle_beta   88.69344198
_cell_angle_gamma   62.38454896
_symmetry_Int_Tables_number   1
_chemical_formula_structural   Ba2NbN3
_chemical_formula_sum   'Ba8 Nb4 N12'
_cell_volume   499.91081984
_cell_formula_units_Z   4
loop_
 _symmetry_equiv_pos_site_id
 _symmetry_equiv_pos_as_xyz
  1  'x, y, z'
loop_
 _atom_site_type_symbol
 _atom_site_label
 _atom_site_symmetry_multiplicity
 _atom_site_fract_x
 _atom_site_fract_y
 _atom_site_fract_z
 _atom_site_occupancy
  N  N0  1  0.312038  0.820679  0.950966  1
  N  N1  1  0.867283  0.820679  0.549034  1
  N  N2  1  0.687962  0.179321  0.049034  1
  N  N3  1  0.132717  0.179321  0.450966  1
  N  N4  1  0.005062  0.989876  0.750000  1
  N  N5  1  0.994938  0.010124  0.250000  1
  N  N6  1  0.564139  0.871722  0.750000  1
  N  N7  1  0.843394  0.685086  0.128041  1
  N  N8  1  0.528481  0.314914  0.628041  1
  N  N9  1  0.156606  0.314914  0.871959  1
  N  N10  1  0.471519  0.685086  0.371959  1
  N  N11  1  0.435861  0.128278  0.250000  1
  Nb  Nb12  1  0.263912  0.994269  0.334111  1
  Nb  Nb13  1  0.736088  0.005731  0.665889  1
  Nb  Nb14  1  0.741819  0.994269  0.165889  1
  Nb  Nb15  1  0.258181  0.005731  0.834111  1
  Ba  Ba16  1  0.447230  0.603984  0.142257  1
  Ba  Ba17  1  0.051214  0.396016  0.642257  1
  Ba  Ba18  1  0.552770  0.396016  0.857743  1
  Ba  Ba19  1  0.948786  0.603984  0.357743  1
  Ba  Ba20  1  0.354007  0.773673  0.577213  1
  Ba  Ba21  1  0.872319  0.773673  0.922787  1
  Ba  Ba22  1  0.645993  0.226327  0.422787  1
  Ba  Ba23  1  0.127681  0.226327  0.077213  1
