# generated using pymatgen
data_Lu3Al5O12
_symmetry_space_group_name_H-M   'P 1'
_cell_length_a   10.36223001
_cell_length_b   10.36223001
_cell_length_c   10.36223001
_cell_angle_alpha   109.47122064
_cell_angle_beta   109.47122064
_cell_angle_gamma   109.47122063
_symmetry_Int_Tables_number   1
_chemical_formula_structural   Lu3Al5O12
_chemical_formula_sum   'Lu12 Al20 O48'
_cell_volume   856.52056159
_cell_formula_units_Z   4
loop_
 _symmetry_equiv_pos_site_id
 _symmetry_equiv_pos_as_xyz
  1  'x, y, z'
loop_
 _atom_site_type_symbol
 _atom_site_label
 _atom_site_symmetry_multiplicity
 _atom_site_fract_x
 _atom_site_fract_y
 _atom_site_fract_z
 _atom_site_occupancy
  O  O0  1  0.797445  0.418428  0.821156  1
  O  O1  1  0.081572  0.879017  0.402729  1
  O  O2  1  0.678844  0.097271  0.976289  1
  O  O3  1  0.702555  0.523711  0.620983  1
  O  O4  1  0.702555  0.678844  0.081572  1
  O  O5  1  0.523711  0.620983  0.702555  1
  O  O6  1  0.097271  0.620983  0.418428  1
  O  O7  1  0.620983  0.702555  0.523711  1
  O  O8  1  0.402729  0.821156  0.523711  1
  O  O9  1  0.879017  0.976289  0.797445  1
  O  O10  1  0.976289  0.797445  0.879017  1
  O  O11  1  0.081572  0.702555  0.678844  1
  O  O12  1  0.620983  0.418428  0.097271  1
  O  O13  1  0.523711  0.402729  0.821156  1
  O  O14  1  0.678844  0.081572  0.702555  1
  O  O15  1  0.418428  0.097271  0.620983  1
  O  O16  1  0.821156  0.523711  0.402729  1
  O  O17  1  0.402729  0.081572  0.879017  1
  O  O18  1  0.097271  0.976289  0.678844  1
  O  O19  1  0.597271  0.178844  0.476289  1
  O  O20  1  0.976289  0.678844  0.097271  1
  O  O21  1  0.821156  0.797445  0.418428  1
  O  O22  1  0.879017  0.402729  0.081572  1
  O  O23  1  0.797445  0.879017  0.976289  1
  O  O24  1  0.202555  0.581572  0.178844  1
  O  O25  1  0.918428  0.120983  0.597271  1
  O  O26  1  0.321156  0.902729  0.023711  1
  O  O27  1  0.297445  0.476289  0.379017  1
  O  O28  1  0.297445  0.321156  0.918428  1
  O  O29  1  0.476289  0.379017  0.297445  1
  O  O30  1  0.902729  0.379017  0.581572  1
  O  O31  1  0.379017  0.297445  0.476289  1
  O  O32  1  0.202555  0.120983  0.023711  1
  O  O33  1  0.120983  0.597271  0.918428  1
  O  O34  1  0.178844  0.202555  0.581572  1
  O  O35  1  0.581572  0.178844  0.202555  1
  O  O36  1  0.023711  0.321156  0.902729  1
  O  O37  1  0.902729  0.023711  0.321156  1
  O  O38  1  0.597271  0.918428  0.120983  1
  O  O39  1  0.178844  0.476289  0.597271  1
  O  O40  1  0.581572  0.902729  0.379017  1
  O  O41  1  0.321156  0.918428  0.297445  1
  O  O42  1  0.476289  0.597271  0.178844  1
  O  O43  1  0.379017  0.581572  0.902729  1
  O  O44  1  0.918428  0.297445  0.321156  1
  O  O45  1  0.023711  0.202555  0.120983  1
  O  O46  1  0.120983  0.023711  0.202555  1
  O  O47  1  0.418428  0.821156  0.797445  1
  Al  Al48  1  0.000000  0.000000  0.000000  1
  Al  Al49  1  0.000000  0.500000  0.000000  1
  Al  Al50  1  0.000000  0.000000  0.500000  1
  Al  Al51  1  0.500000  0.000000  0.000000  1
  Al  Al52  1  0.000000  0.500000  0.500000  1
  Al  Al53  1  0.500000  0.000000  0.500000  1
  Al  Al54  1  0.500000  0.500000  0.000000  1
  Al  Al55  1  0.500000  0.500000  0.500000  1
  Al  Al56  1  0.250000  0.625000  0.375000  1
  Al  Al57  1  0.625000  0.750000  0.375000  1
  Al  Al58  1  0.875000  0.250000  0.125000  1
  Al  Al59  1  0.125000  0.875000  0.250000  1
  Al  Al60  1  0.250000  0.125000  0.875000  1
  Al  Al61  1  0.750000  0.875000  0.125000  1
  Al  Al62  1  0.375000  0.250000  0.625000  1
  Al  Al63  1  0.625000  0.375000  0.250000  1
  Al  Al64  1  0.125000  0.750000  0.875000  1
  Al  Al65  1  0.875000  0.125000  0.750000  1
  Al  Al66  1  0.750000  0.375000  0.625000  1
  Al  Al67  1  0.375000  0.625000  0.750000  1
  Lu  Lu68  1  0.250000  0.375000  0.125000  1
  Lu  Lu69  1  0.375000  0.750000  0.125000  1
  Lu  Lu70  1  0.125000  0.250000  0.375000  1
  Lu  Lu71  1  0.375000  0.125000  0.250000  1
  Lu  Lu72  1  0.125000  0.375000  0.750000  1
  Lu  Lu73  1  0.750000  0.125000  0.375000  1
  Lu  Lu74  1  0.750000  0.625000  0.875000  1
  Lu  Lu75  1  0.625000  0.250000  0.875000  1
  Lu  Lu76  1  0.875000  0.750000  0.625000  1
  Lu  Lu77  1  0.625000  0.875000  0.750000  1
  Lu  Lu78  1  0.875000  0.625000  0.250000  1
  Lu  Lu79  1  0.250000  0.875000  0.625000  1
