# generated using pymatgen
data_C4O3
_symmetry_space_group_name_H-M   'P 1'
_cell_length_a   10.49430007
_cell_length_b   10.49430007
_cell_length_c   10.49430007
_cell_angle_alpha   90.10102300
_cell_angle_beta   90.10102300
_cell_angle_gamma   90.10102300
_symmetry_Int_Tables_number   1
_chemical_formula_structural   C4O3
_chemical_formula_sum   'C48 O36'
_cell_volume   1155.73537668
_cell_formula_units_Z   12
loop_
 _symmetry_equiv_pos_site_id
 _symmetry_equiv_pos_as_xyz
  1  'x, y, z'
loop_
 _atom_site_type_symbol
 _atom_site_label
 _atom_site_symmetry_multiplicity
 _atom_site_fract_x
 _atom_site_fract_y
 _atom_site_fract_z
 _atom_site_occupancy
  C  C0  1  0.198278  0.514686  0.618105  1
  C  C1  1  0.618105  0.198278  0.514686  1
  C  C2  1  0.514686  0.618105  0.198278  1
  C  C3  1  0.302770  0.419468  0.609733  1
  C  C4  1  0.609733  0.302770  0.419468  1
  C  C5  1  0.419468  0.609733  0.302770  1
  C  C6  1  0.992434  0.177090  0.115502  1
  C  C7  1  0.115502  0.992434  0.177090  1
  C  C8  1  0.177090  0.115502  0.992434  1
  C  C9  1  0.870795  0.238727  0.153987  1
  C  C10  1  0.153987  0.870795  0.238727  1
  C  C11  1  0.238727  0.153987  0.870795  1
  C  C12  1  0.699061  0.678611  0.074181  1
  C  C13  1  0.074181  0.699061  0.678611  1
  C  C14  1  0.678611  0.074181  0.699061  1
  C  C15  1  0.803118  0.774702  0.081762  1
  C  C16  1  0.081762  0.803118  0.774702  1
  C  C17  1  0.774702  0.081762  0.803118  1
  C  C18  1  0.494060  0.013477  0.574856  1
  C  C19  1  0.574856  0.494060  0.013477  1
  C  C20  1  0.013477  0.574856  0.494060  1
  C  C21  1  0.389712  0.917659  0.582394  1
  C  C22  1  0.582394  0.389712  0.917659  1
  C  C23  1  0.917659  0.582394  0.389712  1
  C  C24  1  0.991924  0.677368  0.576559  1
  C  C25  1  0.576559  0.991924  0.677368  1
  C  C26  1  0.677368  0.576559  0.991924  1
  C  C27  1  0.871227  0.740078  0.536629  1
  C  C28  1  0.536629  0.871227  0.740078  1
  C  C29  1  0.740078  0.536629  0.871227  1
  C  C30  1  0.198729  0.014217  0.075295  1
  C  C31  1  0.075295  0.198729  0.014217  1
  C  C32  1  0.014217  0.075295  0.198729  1
  C  C33  1  0.302820  0.918544  0.083814  1
  C  C34  1  0.083814  0.302820  0.918544  1
  C  C35  1  0.918544  0.083814  0.302820  1
  C  C36  1  0.492400  0.516075  0.115065  1
  C  C37  1  0.115065  0.492400  0.516075  1
  C  C38  1  0.516075  0.115065  0.492400  1
  C  C39  1  0.371591  0.453319  0.154348  1
  C  C40  1  0.154348  0.371591  0.453319  1
  C  C41  1  0.453319  0.154348  0.371591  1
  C  C42  1  0.701123  0.175952  0.616058  1
  C  C43  1  0.616058  0.701123  0.175952  1
  C  C44  1  0.175952  0.616058  0.701123  1
  C  C45  1  0.822687  0.237728  0.655337  1
  C  C46  1  0.655337  0.822687  0.237728  1
  C  C47  1  0.237728  0.655337  0.822687  1
  O  O48  1  0.268018  0.332811  0.513042  1
  O  O49  1  0.513042  0.268018  0.332811  1
  O  O50  1  0.332811  0.513042  0.268018  1
  O  O51  1  0.403792  0.411874  0.663497  1
  O  O52  1  0.663497  0.403792  0.411874  1
  O  O53  1  0.411874  0.663497  0.403792  1
  O  O54  1  0.806314  0.317796  0.101815  1
  O  O55  1  0.101815  0.806314  0.317796  1
  O  O56  1  0.317796  0.101815  0.806314  1
  O  O57  1  0.768303  0.861782  0.178026  1
  O  O58  1  0.178026  0.768303  0.861782  1
  O  O59  1  0.861782  0.178026  0.768303  1
  O  O60  1  0.903821  0.782176  0.027891  1
  O  O61  1  0.027891  0.903821  0.782176  1
  O  O62  1  0.782176  0.027891  0.903821  1
  O  O63  1  0.423126  0.832273  0.679991  1
  O  O64  1  0.679991  0.423126  0.832273  1
  O  O65  1  0.832273  0.679991  0.423126  1
  O  O66  1  0.289786  0.909378  0.526691  1
  O  O67  1  0.526691  0.289786  0.909378  1
  O  O68  1  0.909378  0.526691  0.289786  1
  O  O69  1  0.808456  0.821746  0.586565  1
  O  O70  1  0.586565  0.808456  0.821746  1
  O  O71  1  0.821746  0.586565  0.808456  1
  O  O72  1  0.268061  0.832497  0.180610  1
  O  O73  1  0.180610  0.268061  0.832497  1
  O  O74  1  0.832497  0.180610  0.268061  1
  O  O75  1  0.402838  0.909864  0.028826  1
  O  O76  1  0.028826  0.402838  0.909864  1
  O  O77  1  0.909864  0.028826  0.402838  1
  O  O78  1  0.308814  0.370937  0.104908  1
  O  O79  1  0.104908  0.308814  0.370937  1
  O  O80  1  0.370937  0.104908  0.308814  1
  O  O81  1  0.885708  0.319457  0.605290  1
  O  O82  1  0.605290  0.885708  0.319457  1
  O  O83  1  0.319457  0.605290  0.885708  1
