# generated using pymatgen
data_Ca2Sb2O7
_symmetry_space_group_name_H-M   'P 1'
_cell_length_a   7.40481474
_cell_length_b   7.40036268
_cell_length_c   7.40036268
_cell_angle_alpha   61.43730508
_cell_angle_beta   59.98009723
_cell_angle_gamma   59.98009726
_symmetry_Int_Tables_number   1
_chemical_formula_structural   Ca2Sb2O7
_chemical_formula_sum   'Ca4 Sb4 O14'
_cell_volume   289.64627178
_cell_formula_units_Z   2
loop_
 _symmetry_equiv_pos_site_id
 _symmetry_equiv_pos_as_xyz
  1  'x, y, z'
loop_
 _atom_site_type_symbol
 _atom_site_label
 _atom_site_symmetry_multiplicity
 _atom_site_fract_x
 _atom_site_fract_y
 _atom_site_fract_z
 _atom_site_occupancy
  O  O0  1  0.328306  0.319877  0.443758  1
  O  O1  1  0.091942  0.680123  0.556242  1
  O  O2  1  0.171694  0.056242  0.180123  1
  O  O3  1  0.408058  0.943758  0.819877  1
  O  O4  1  0.671694  0.680123  0.556242  1
  O  O5  1  0.908058  0.319877  0.443758  1
  O  O6  1  0.828306  0.943758  0.819877  1
  O  O7  1  0.591942  0.056242  0.180123  1
  O  O8  1  0.250000  0.901377  0.598623  1
  O  O9  1  0.750000  0.098623  0.401377  1
  O  O10  1  0.094163  0.634991  0.176683  1
  O  O11  1  0.905837  0.365009  0.823317  1
  O  O12  1  0.405837  0.323317  0.865009  1
  O  O13  1  0.594163  0.676683  0.134991  1
  Ca  Ca14  1  0.500000  0.500000  0.000000  1
  Ca  Ca15  1  0.000000  0.500000  0.000000  1
  Ca  Ca16  1  0.000000  0.000000  0.000000  1
  Ca  Ca17  1  0.500000  0.500000  0.500000  1
  Sb  Sb18  1  0.500000  0.000000  0.500000  1
  Sb  Sb19  1  0.000000  0.000000  0.500000  1
  Sb  Sb20  1  0.000000  0.500000  0.500000  1
  Sb  Sb21  1  0.500000  0.000000  0.000000  1
