# generated using pymatgen
data_Mo3W(SeS3)2
_symmetry_space_group_name_H-M   'P 1'
_cell_length_a   3.22390410
_cell_length_b   3.22390704
_cell_length_c   36.41591967
_cell_angle_alpha   89.99980319
_cell_angle_beta   90.00000000
_cell_angle_gamma   119.99996988
_symmetry_Int_Tables_number   1
_chemical_formula_structural   Mo3W(SeS3)2
_chemical_formula_sum   'Mo3 W1 Se2 S6'
_cell_volume   327.78318474
_cell_formula_units_Z   1
loop_
 _symmetry_equiv_pos_site_id
 _symmetry_equiv_pos_as_xyz
  1  'x, y, z'
loop_
 _atom_site_type_symbol
 _atom_site_label
 _atom_site_symmetry_multiplicity
 _atom_site_fract_x
 _atom_site_fract_y
 _atom_site_fract_z
 _atom_site_occupancy
  Mo  Mo0  1  0.333312  0.666624  0.093911  1
  Mo  Mo1  1  0.333312  0.666623  0.469651  1
  Mo  Mo2  1  0.666688  0.333375  0.281806  1
  W  W3  1  0.666690  0.333380  0.657524  1
  Se  Se4  1  0.333352  0.666704  0.328805  1
  Se  Se5  1  0.333354  0.666709  0.234777  1
  S  S6  1  0.333354  0.666709  0.700458  1
  S  S7  1  0.666647  0.333293  0.051174  1
  S  S8  1  0.666646  0.333291  0.426986  1
  S  S9  1  0.666647  0.333294  0.136638  1
  S  S10  1  0.666646  0.333291  0.512389  1
  S  S11  1  0.333353  0.666706  0.614627  1
