# generated using pymatgen
data_TeMoWSe2S
_symmetry_space_group_name_H-M   'P 1'
_cell_length_a   3.34392322
_cell_length_b   3.34377015
_cell_length_c   38.05167349
_cell_angle_alpha   89.99968262
_cell_angle_beta   90.00000000
_cell_angle_gamma   120.00151437
_symmetry_Int_Tables_number   1
_chemical_formula_structural   TeMoWSe2S
_chemical_formula_sum   'Te2 Mo2 W2 Se4 S2'
_cell_volume   368.46011106
_cell_formula_units_Z   2
loop_
 _symmetry_equiv_pos_site_id
 _symmetry_equiv_pos_as_xyz
  1  'x, y, z'
loop_
 _atom_site_type_symbol
 _atom_site_label
 _atom_site_symmetry_multiplicity
 _atom_site_fract_x
 _atom_site_fract_y
 _atom_site_fract_z
 _atom_site_occupancy
  Te  Te0  1  0.666648  0.333294  0.044029  1
  Te  Te1  1  0.666644  0.333287  0.143805  1
  Mo  Mo2  1  0.333301  0.666603  0.093893  1
  Mo  Mo3  1  0.666687  0.333375  0.281797  1
  W  W4  1  0.333306  0.666611  0.469664  1
  W  W5  1  0.666697  0.333395  0.657551  1
  Se  Se6  1  0.333352  0.666705  0.701552  1
  Se  Se7  1  0.666650  0.333298  0.425633  1
  Se  Se8  1  0.666651  0.333300  0.513700  1
  Se  Se9  1  0.333355  0.666711  0.613528  1
  S  S10  1  0.333355  0.666712  0.321649  1
  S  S11  1  0.333354  0.666709  0.241950  1
