# generated using pymatgen
data_ErNi3
_symmetry_space_group_name_H-M   'P 1'
_cell_length_a   8.54811673
_cell_length_b   8.54811673
_cell_length_c   8.54811673
_cell_angle_alpha   33.50574649
_cell_angle_beta   33.50574643
_cell_angle_gamma   33.50574645
_symmetry_Int_Tables_number   1
_chemical_formula_structural   ErNi3
_chemical_formula_sum   'Er3 Ni9'
_cell_volume   169.52277745
_cell_formula_units_Z   3
loop_
 _symmetry_equiv_pos_site_id
 _symmetry_equiv_pos_as_xyz
  1  'x, y, z'
loop_
 _atom_site_type_symbol
 _atom_site_label
 _atom_site_symmetry_multiplicity
 _atom_site_fract_x
 _atom_site_fract_y
 _atom_site_fract_z
 _atom_site_occupancy
  Ni  Ni0  1  0.417009  0.417009  0.919041  1
  Ni  Ni1  1  0.417009  0.919041  0.417009  1
  Ni  Ni2  1  0.919041  0.417009  0.417009  1
  Ni  Ni3  1  0.500000  0.500000  0.500000  1
  Ni  Ni4  1  0.333177  0.333177  0.333177  1
  Ni  Ni5  1  0.666823  0.666823  0.666823  1
  Ni  Ni6  1  0.582991  0.080959  0.582991  1
  Ni  Ni7  1  0.582991  0.582991  0.080959  1
  Ni  Ni8  1  0.080959  0.582991  0.582991  1
  Er  Er9  1  0.861029  0.861029  0.861029  1
  Er  Er10  1  0.138971  0.138971  0.138971  1
  Er  Er11  1  0.000000  0.000000  0.000000  1
