# generated using pymatgen
data_Rb2Mo9S11
_symmetry_space_group_name_H-M   'P 1'
_cell_length_a   13.24924764
_cell_length_b   13.24924765
_cell_length_c   13.24924764
_cell_angle_alpha   41.99949951
_cell_angle_beta   41.99949948
_cell_angle_gamma   41.99949952
_symmetry_Int_Tables_number   1
_chemical_formula_structural   Rb2Mo9S11
_chemical_formula_sum   'Rb4 Mo18 S22'
_cell_volume   941.95243052
_cell_formula_units_Z   2
loop_
 _symmetry_equiv_pos_site_id
 _symmetry_equiv_pos_as_xyz
  1  'x, y, z'
loop_
 _atom_site_type_symbol
 _atom_site_label
 _atom_site_symmetry_multiplicity
 _atom_site_fract_x
 _atom_site_fract_y
 _atom_site_fract_z
 _atom_site_occupancy
  S  S0  1  0.050298  0.449702  0.750000  1
  S  S1  1  0.017979  0.289391  0.617046  1
  S  S2  1  0.750000  0.050298  0.449702  1
  S  S3  1  0.617046  0.017979  0.289391  1
  S  S4  1  0.863709  0.863709  0.863709  1
  S  S5  1  0.636291  0.636291  0.636291  1
  S  S6  1  0.136291  0.136291  0.136291  1
  S  S7  1  0.363709  0.363709  0.363709  1
  S  S8  1  0.517979  0.117046  0.789391  1
  S  S9  1  0.117046  0.789391  0.517979  1
  S  S10  1  0.789391  0.517979  0.117046  1
  S  S11  1  0.710609  0.382954  0.982021  1
  S  S12  1  0.382954  0.982021  0.710609  1
  S  S13  1  0.982021  0.710609  0.382954  1
  S  S14  1  0.482021  0.882954  0.210609  1
  S  S15  1  0.882954  0.210609  0.482021  1
  S  S16  1  0.210609  0.482021  0.882954  1
  S  S17  1  0.289391  0.617046  0.017979  1
  S  S18  1  0.550298  0.250000  0.949702  1
  S  S19  1  0.949702  0.550298  0.250000  1
  S  S20  1  0.250000  0.949702  0.550298  1
  S  S21  1  0.449702  0.750000  0.050298  1
  Rb  Rb22  1  0.948678  0.948678  0.948678  1
  Rb  Rb23  1  0.051322  0.051322  0.051322  1
  Rb  Rb24  1  0.551322  0.551322  0.551322  1
  Rb  Rb25  1  0.448678  0.448678  0.448678  1
  Mo  Mo26  1  0.853917  0.529184  0.677899  1
  Mo  Mo27  1  0.529184  0.677899  0.853917  1
  Mo  Mo28  1  0.677899  0.853917  0.529184  1
  Mo  Mo29  1  0.822101  0.970816  0.646083  1
  Mo  Mo30  1  0.970816  0.646083  0.822101  1
  Mo  Mo31  1  0.646083  0.822101  0.970816  1
  Mo  Mo32  1  0.146083  0.470816  0.322101  1
  Mo  Mo33  1  0.470816  0.322101  0.146083  1
  Mo  Mo34  1  0.322101  0.146083  0.470816  1
  Mo  Mo35  1  0.177899  0.029184  0.353917  1
  Mo  Mo36  1  0.029184  0.353917  0.177899  1
  Mo  Mo37  1  0.353917  0.177899  0.029184  1
  Mo  Mo38  1  0.583735  0.916265  0.750000  1
  Mo  Mo39  1  0.916265  0.750000  0.583735  1
  Mo  Mo40  1  0.750000  0.583735  0.916265  1
  Mo  Mo41  1  0.416265  0.083735  0.250000  1
  Mo  Mo42  1  0.083735  0.250000  0.416265  1
  Mo  Mo43  1  0.250000  0.416265  0.083735  1
