# generated using pymatgen
data_Rb2MgCl4
_symmetry_space_group_name_H-M   'P 1'
_cell_length_a   5.05879453
_cell_length_b   5.05879453
_cell_length_c   8.93944750
_cell_angle_alpha   106.43621947
_cell_angle_beta   106.43621947
_cell_angle_gamma   90.00000000
_symmetry_Int_Tables_number   1
_chemical_formula_structural   Rb2MgCl4
_chemical_formula_sum   'Rb2 Mg1 Cl4'
_cell_volume   209.65906773
_cell_formula_units_Z   1
loop_
 _symmetry_equiv_pos_site_id
 _symmetry_equiv_pos_as_xyz
  1  'x, y, z'
loop_
 _atom_site_type_symbol
 _atom_site_label
 _atom_site_symmetry_multiplicity
 _atom_site_fract_x
 _atom_site_fract_y
 _atom_site_fract_z
 _atom_site_occupancy
  Rb  Rb0  1  0.356317  0.356317  0.712634  1
  Rb  Rb1  1  0.643683  0.643683  0.287366  1
  Mg  Mg2  1  -0.000000  -0.000000  -0.000000  1
  Cl  Cl3  1  0.153971  0.153971  0.307943  1
  Cl  Cl4  1  0.846029  0.846029  0.692057  1
  Cl  Cl5  1  0.000000  0.500000  0.000000  1
  Cl  Cl6  1  0.500000  0.000000  -0.000000  1
