# generated using pymatgen
data_EuInAu
_symmetry_space_group_name_H-M   'P 1'
_cell_length_a   4.75311658
_cell_length_b   7.58103683
_cell_length_c   8.57330252
_cell_angle_alpha   90.00000000
_cell_angle_beta   90.00000000
_cell_angle_gamma   90.00000000
_symmetry_Int_Tables_number   1
_chemical_formula_structural   EuInAu
_chemical_formula_sum   'Eu4 In4 Au4'
_cell_volume   308.92654088
_cell_formula_units_Z   4
loop_
 _symmetry_equiv_pos_site_id
 _symmetry_equiv_pos_as_xyz
  1  'x, y, z'
loop_
 _atom_site_type_symbol
 _atom_site_label
 _atom_site_symmetry_multiplicity
 _atom_site_fract_x
 _atom_site_fract_y
 _atom_site_fract_z
 _atom_site_occupancy
  In  In0  1  0.250000  0.657170  0.434543  1
  In  In1  1  0.250000  0.157170  0.065457  1
  In  In2  1  0.750000  0.342830  0.565457  1
  In  In3  1  0.750000  0.842830  0.934543  1
  Eu  Eu4  1  0.750000  0.474693  0.184457  1
  Eu  Eu5  1  0.250000  0.025307  0.684457  1
  Eu  Eu6  1  0.750000  0.974693  0.315543  1
  Eu  Eu7  1  0.250000  0.525307  0.815543  1
  Au  Au8  1  0.250000  0.773932  0.116775  1
  Au  Au9  1  0.250000  0.273932  0.383225  1
  Au  Au10  1  0.750000  0.726068  0.616775  1
  Au  Au11  1  0.750000  0.226068  0.883225  1
