# generated using pymatgen
data_EuGe3Pt
_symmetry_space_group_name_H-M   'P 1'
_cell_length_a   4.50318384
_cell_length_b   4.50318384
_cell_length_c   5.99631436
_cell_angle_alpha   112.05497059
_cell_angle_beta   112.05497061
_cell_angle_gamma   90.00000003
_symmetry_Int_Tables_number   1
_chemical_formula_structural   EuGe3Pt
_chemical_formula_sum   'Eu1 Ge3 Pt1'
_cell_volume   103.03568088
_cell_formula_units_Z   1
loop_
 _symmetry_equiv_pos_site_id
 _symmetry_equiv_pos_as_xyz
  1  'x, y, z'
loop_
 _atom_site_type_symbol
 _atom_site_label
 _atom_site_symmetry_multiplicity
 _atom_site_fract_x
 _atom_site_fract_y
 _atom_site_fract_z
 _atom_site_occupancy
  Ge  Ge0  1  0.757205  0.257205  0.514411  1
  Ge  Ge1  1  0.257205  0.757205  0.514411  1
  Ge  Ge2  1  0.405097  0.405097  0.810193  1
  Eu  Eu3  1  0.998869  0.998869  0.997737  1
  Pt  Pt4  1  0.647394  0.647394  0.294788  1
