# generated using pymatgen
data_TeMoWS3
_symmetry_space_group_name_H-M   'P 1'
_cell_length_a   3.27197338
_cell_length_b   3.27198880
_cell_length_c   37.17972520
_cell_angle_alpha   90.00025580
_cell_angle_beta   90.00000000
_cell_angle_gamma   119.99984413
_symmetry_Int_Tables_number   1
_chemical_formula_structural   TeMoWS3
_chemical_formula_sum   'Te2 Mo2 W2 S6'
_cell_volume   344.71410887
_cell_formula_units_Z   2
loop_
 _symmetry_equiv_pos_site_id
 _symmetry_equiv_pos_as_xyz
  1  'x, y, z'
loop_
 _atom_site_type_symbol
 _atom_site_label
 _atom_site_symmetry_multiplicity
 _atom_site_fract_x
 _atom_site_fract_y
 _atom_site_fract_z
 _atom_site_occupancy
  Te  Te0  1  0.666639  0.333277  0.041985  1
  Te  Te1  1  0.666650  0.333300  0.145704  1
  Mo  Mo2  1  0.333311  0.666622  0.093846  1
  Mo  Mo3  1  0.333311  0.666622  0.469654  1
  W  W4  1  0.666695  0.333390  0.281851  1
  W  W5  1  0.666693  0.333387  0.657564  1
  S  S6  1  0.333354  0.666709  0.323396  1
  S  S7  1  0.333357  0.666715  0.699129  1
  S  S8  1  0.666638  0.333275  0.428288  1
  S  S9  1  0.666646  0.333290  0.511050  1
  S  S10  1  0.333352  0.666705  0.240301  1
  S  S11  1  0.333353  0.666708  0.615978  1
