# generated using pymatgen
data_YbPrSe3
_symmetry_space_group_name_H-M   'P 1'
_cell_length_a   4.14541786
_cell_length_b   7.55711011
_cell_length_c   9.30085475
_cell_angle_alpha   90.00000000
_cell_angle_beta   90.00000000
_cell_angle_gamma   105.91867603
_symmetry_Int_Tables_number   1
_chemical_formula_structural   YbPrSe3
_chemical_formula_sum   'Yb2 Pr2 Se6'
_cell_volume   280.19788122
_cell_formula_units_Z   2
loop_
 _symmetry_equiv_pos_site_id
 _symmetry_equiv_pos_as_xyz
  1  'x, y, z'
loop_
 _atom_site_type_symbol
 _atom_site_label
 _atom_site_symmetry_multiplicity
 _atom_site_fract_x
 _atom_site_fract_y
 _atom_site_fract_z
 _atom_site_occupancy
  Se  Se0  1  0.891139  0.782277  0.250000  1
  Se  Se1  1  0.108861  0.217723  0.750000  1
  Se  Se2  1  0.359358  0.718716  0.574971  1
  Se  Se3  1  0.640642  0.281284  0.425029  1
  Se  Se4  1  0.359358  0.718716  0.925029  1
  Se  Se5  1  0.640642  0.281284  0.074971  1
  Pr  Pr6  1  0.751068  0.502135  0.750000  1
  Pr  Pr7  1  0.248932  0.497865  0.250000  1
  Yb  Yb8  1  0.000000  0.000000  0.000000  1
  Yb  Yb9  1  0.000000  0.000000  0.500000  1
