# generated using pymatgen
data_KMoO3
_symmetry_space_group_name_H-M   'P 1'
_cell_length_a   3.98479374
_cell_length_b   3.98540584
_cell_length_c   3.98498462
_cell_angle_alpha   89.99225550
_cell_angle_beta   89.98435560
_cell_angle_gamma   89.99897417
_symmetry_Int_Tables_number   1
_chemical_formula_structural   KMoO3
_chemical_formula_sum   'K1 Mo1 O3'
_cell_volume   63.28561846
_cell_formula_units_Z   1
loop_
 _symmetry_equiv_pos_site_id
 _symmetry_equiv_pos_as_xyz
  1  'x, y, z'
loop_
 _atom_site_type_symbol
 _atom_site_label
 _atom_site_symmetry_multiplicity
 _atom_site_fract_x
 _atom_site_fract_y
 _atom_site_fract_z
 _atom_site_occupancy
  K  K0  1  0.988935  0.999862  0.997837  1
  Mo  Mo1  1  0.487882  0.500005  0.498041  1
  O  O2  1  0.487700  0.000053  0.497958  1
  O  O3  1  0.987697  0.499980  0.498134  1
  O  O4  1  0.487784  0.500098  0.998029  1
