# generated using pymatgen
data_Sr2Ge(S2O7)4
_symmetry_space_group_name_H-M   'P 1'
_cell_length_a   7.09495119
_cell_length_b   13.24635671
_cell_length_c   12.50230827
_cell_angle_alpha   90.00000000
_cell_angle_beta   97.05391576
_cell_angle_gamma   90.00000000
_symmetry_Int_Tables_number   1
_chemical_formula_structural   Sr2Ge(S2O7)4
_chemical_formula_sum   'Sr4 Ge2 S16 O56'
_cell_volume   1166.10161452
_cell_formula_units_Z   2
loop_
 _symmetry_equiv_pos_site_id
 _symmetry_equiv_pos_as_xyz
  1  'x, y, z'
loop_
 _atom_site_type_symbol
 _atom_site_label
 _atom_site_symmetry_multiplicity
 _atom_site_fract_x
 _atom_site_fract_y
 _atom_site_fract_z
 _atom_site_occupancy
  Sr  Sr0  1  0.300787  0.864973  0.159024  1
  Sr  Sr1  1  0.800787  0.635027  0.659024  1
  Sr  Sr2  1  0.699213  0.135027  0.840976  1
  Sr  Sr3  1  0.199213  0.364973  0.340976  1
  Ge  Ge4  1  0.500000  0.500000  0.000000  1
  Ge  Ge5  1  0.000000  -0.000000  0.500000  1
  S  S6  1  0.157064  0.649070  0.940971  1
  S  S7  1  0.657064  0.850930  0.440971  1
  S  S8  1  0.842936  0.350930  0.059029  1
  S  S9  1  0.342936  0.149070  0.559029  1
  S  S10  1  0.788225  0.971388  0.105211  1
  S  S11  1  0.288225  0.528612  0.605211  1
  S  S12  1  0.211775  0.028612  0.894789  1
  S  S13  1  0.711775  0.471388  0.394789  1
  S  S14  1  0.532278  0.720065  0.911022  1
  S  S15  1  0.032278  0.779935  0.411022  1
  S  S16  1  0.467722  0.279935  0.088978  1
  S  S17  1  0.967722  0.220065  0.588978  1
  S  S18  1  0.465653  0.584785  0.229658  1
  S  S19  1  0.965653  0.915215  0.729658  1
  S  S20  1  0.534347  0.415215  0.770342  1
  S  S21  1  0.034347  0.084785  0.270342  1
  O  O22  1  0.999708  0.618363  0.865551  1
  O  O23  1  0.499708  0.881637  0.365551  1
  O  O24  1  0.000292  0.381637  0.134449  1
  O  O25  1  0.500292  0.118363  0.634449  1
  O  O26  1  0.618062  0.583307  0.332518  1
  O  O27  1  0.118062  0.916693  0.832518  1
  O  O28  1  0.381938  0.416693  0.667482  1
  O  O29  1  0.881938  0.083307  0.167482  1
  O  O30  1  0.294462  0.533577  0.250418  1
  O  O31  1  0.794462  0.966423  0.750418  1
  O  O32  1  0.705538  0.466423  0.749582  1
  O  O33  1  0.205538  0.033577  0.249582  1
  O  O34  1  0.253199  0.559136  0.001479  1
  O  O35  1  0.753199  0.940864  0.501479  1
  O  O36  1  0.746801  0.440864  0.998521  1
  O  O37  1  0.246801  0.059136  0.498521  1
  O  O38  1  0.936337  0.896836  0.129701  1
  O  O39  1  0.436337  0.603164  0.629701  1
  O  O40  1  0.063663  0.103164  0.870299  1
  O  O41  1  0.563663  0.396836  0.370299  1
  O  O42  1  0.313802  0.685956  0.862076  1
  O  O43  1  0.813802  0.814044  0.362076  1
  O  O44  1  0.686198  0.314044  0.137924  1
  O  O45  1  0.186198  0.185956  0.637924  1
  O  O46  1  0.569224  0.524852  0.148946  1
  O  O47  1  0.069224  0.975148  0.648946  1
  O  O48  1  0.430776  0.475148  0.851054  1
  O  O49  1  0.930776  0.024852  0.351054  1
  O  O50  1  0.128812  0.728908  0.015271  1
  O  O51  1  0.628812  0.771092  0.515271  1
  O  O52  1  0.871188  0.271092  0.984729  1
  O  O53  1  0.371188  0.228908  0.484729  1
  O  O54  1  0.613277  0.626123  0.970324  1
  O  O55  1  0.113277  0.873877  0.470324  1
  O  O56  1  0.386723  0.373877  0.029676  1
  O  O57  1  0.886723  0.126123  0.529676  1
  O  O58  1  0.620322  0.736995  0.815512  1
  O  O59  1  0.120322  0.763005  0.315512  1
  O  O60  1  0.379678  0.263005  0.184488  1
  O  O61  1  0.879678  0.236995  0.684488  1
  O  O62  1  0.517810  0.801795  0.984773  1
  O  O63  1  0.017810  0.698205  0.484773  1
  O  O64  1  0.482190  0.198205  0.015227  1
  O  O65  1  0.982190  0.301795  0.515227  1
  O  O66  1  0.620066  0.955991  0.157709  1
  O  O67  1  0.120066  0.544009  0.657709  1
  O  O68  1  0.379934  0.044009  0.842291  1
  O  O69  1  0.879934  0.455991  0.342291  1
  O  O70  1  0.758068  0.007083  0.995468  1
  O  O71  1  0.258068  0.492917  0.495468  1
  O  O72  1  0.241932  0.992917  0.004532  1
  O  O73  1  0.741932  0.507083  0.504532  1
  O  O74  1  0.449775  0.689847  0.200150  1
  O  O75  1  0.949775  0.810153  0.700149  1
  O  O76  1  0.550225  0.310153  0.799851  1
  O  O77  1  0.050225  0.189847  0.299851  1
