# generated using pymatgen
data_CaS3O10
_symmetry_space_group_name_H-M   'P 1'
_cell_length_a   8.57258358
_cell_length_b   9.18871144
_cell_length_c   10.26095090
_cell_angle_alpha   90.00000000
_cell_angle_beta   91.65055076
_cell_angle_gamma   90.00000000
_symmetry_Int_Tables_number   1
_chemical_formula_structural   CaS3O10
_chemical_formula_sum   'Ca4 S12 O40'
_cell_volume   807.92997432
_cell_formula_units_Z   4
loop_
 _symmetry_equiv_pos_site_id
 _symmetry_equiv_pos_as_xyz
  1  'x, y, z'
loop_
 _atom_site_type_symbol
 _atom_site_label
 _atom_site_symmetry_multiplicity
 _atom_site_fract_x
 _atom_site_fract_y
 _atom_site_fract_z
 _atom_site_occupancy
  Ca  Ca0  1  0.296878  0.225874  0.523031  1
  Ca  Ca1  1  0.796878  0.274126  0.023031  1
  Ca  Ca2  1  0.703122  0.774126  0.476969  1
  Ca  Ca3  1  0.203122  0.725874  0.976969  1
  S  S4  1  0.148560  0.832854  0.500819  1
  S  S5  1  0.648560  0.667146  0.000819  1
  S  S6  1  0.851440  0.167146  0.499181  1
  S  S7  1  0.351440  0.332854  0.999181  1
  S  S8  1  0.344489  0.923755  0.287360  1
  S  S9  1  0.844489  0.576245  0.787360  1
  S  S10  1  0.655511  0.076245  0.712640  1
  S  S11  1  0.155511  0.423755  0.212640  1
  S  S12  1  0.344257  0.612668  0.639217  1
  S  S13  1  0.844257  0.887332  0.139217  1
  S  S14  1  0.655743  0.387332  0.360783  1
  S  S15  1  0.155743  0.112668  0.860783  1
  O  O16  1  0.331914  0.074360  0.327847  1
  O  O17  1  0.831914  0.425640  0.827847  1
  O  O18  1  0.668086  0.925640  0.672153  1
  O  O19  1  0.168086  0.574360  0.172153  1
  O  O20  1  0.247671  0.934310  0.570294  1
  O  O21  1  0.747671  0.565690  0.070294  1
  O  O22  1  0.752329  0.065690  0.429706  1
  O  O23  1  0.252329  0.434310  0.929706  1
  O  O24  1  0.982516  0.838446  0.516176  1
  O  O25  1  0.482516  0.661554  0.016176  1
  O  O26  1  0.017484  0.161554  0.483824  1
  O  O27  1  0.517484  0.338446  0.983824  1
  O  O28  1  0.313899  0.895613  0.150953  1
  O  O29  1  0.813899  0.604387  0.650953  1
  O  O30  1  0.686101  0.104387  0.849047  1
  O  O31  1  0.186101  0.395613  0.349047  1
  O  O32  1  0.196130  0.670467  0.530304  1
  O  O33  1  0.696130  0.829533  0.030304  1
  O  O34  1  0.803870  0.329533  0.469696  1
  O  O35  1  0.303870  0.170467  0.969696  1
  O  O36  1  0.174414  0.844169  0.349328  1
  O  O37  1  0.674414  0.655831  0.849328  1
  O  O38  1  0.825586  0.155831  0.650672  1
  O  O39  1  0.325586  0.344169  0.150672  1
  O  O40  1  0.472358  0.843059  0.347918  1
  O  O41  1  0.972358  0.656941  0.847918  1
  O  O42  1  0.527642  0.156941  0.652082  1
  O  O43  1  0.027642  0.343059  0.152082  1
  O  O44  1  0.309833  0.458855  0.633359  1
  O  O45  1  0.809833  0.041145  0.133359  1
  O  O46  1  0.690167  0.541145  0.366641  1
  O  O47  1  0.190167  0.958855  0.866641  1
  O  O48  1  0.309787  0.684830  0.759877  1
  O  O49  1  0.809787  0.815170  0.259877  1
  O  O50  1  0.690213  0.315170  0.240123  1
  O  O51  1  0.190213  0.184830  0.740123  1
  O  O52  1  0.485807  0.658417  0.578873  1
  O  O53  1  0.985807  0.841583  0.078873  1
  O  O54  1  0.514193  0.341583  0.421127  1
  O  O55  1  0.014193  0.158417  0.921127  1
