# generated using pymatgen
data_Cs5Ti6AgSe27
_symmetry_space_group_name_H-M   'P 1'
_cell_length_a   14.11708448
_cell_length_b   14.11708448
_cell_length_c   14.08958026
_cell_angle_alpha   90.00000000
_cell_angle_beta   90.00000000
_cell_angle_gamma   119.99999999
_symmetry_Int_Tables_number   1
_chemical_formula_structural   Cs5Ti6AgSe27
_chemical_formula_sum   'Cs10 Ti12 Ag2 Se54'
_cell_volume   2431.74882334
_cell_formula_units_Z   2
loop_
 _symmetry_equiv_pos_site_id
 _symmetry_equiv_pos_as_xyz
  1  'x, y, z'
loop_
 _atom_site_type_symbol
 _atom_site_label
 _atom_site_symmetry_multiplicity
 _atom_site_fract_x
 _atom_site_fract_y
 _atom_site_fract_z
 _atom_site_occupancy
  Ti  Ti0  1  0.016050  0.337596  0.393027  1
  Ti  Ti1  1  0.985668  0.311542  0.633751  1
  Ti  Ti2  1  0.688458  0.674127  0.633751  1
  Ti  Ti3  1  0.325873  0.014332  0.633751  1
  Ti  Ti4  1  0.311542  0.985668  0.133751  1
  Ti  Ti5  1  0.674127  0.688458  0.133751  1
  Ti  Ti6  1  0.014332  0.325873  0.133751  1
  Ti  Ti7  1  0.983950  0.321546  0.893027  1
  Ti  Ti8  1  0.678454  0.662404  0.893027  1
  Ti  Ti9  1  0.337596  0.016050  0.893027  1
  Ti  Ti10  1  0.321546  0.983950  0.393027  1
  Ti  Ti11  1  0.662404  0.678454  0.393027  1
  Se  Se12  1  0.155005  0.350680  0.009270  1
  Se  Se13  1  0.478158  0.178631  0.175851  1
  Se  Se14  1  0.821369  0.299528  0.175851  1
  Se  Se15  1  0.700472  0.521842  0.175851  1
  Se  Se16  1  0.178631  0.478158  0.675851  1
  Se  Se17  1  0.299528  0.821369  0.675851  1
  Se  Se18  1  0.521842  0.700472  0.675851  1
  Se  Se19  1  0.525410  0.125049  0.398503  1
  Se  Se20  1  0.874951  0.400361  0.398503  1
  Se  Se21  1  0.599639  0.474590  0.398503  1
  Se  Se22  1  0.125049  0.525410  0.898503  1
  Se  Se23  1  0.400361  0.874951  0.898503  1
  Se  Se24  1  0.987286  0.461319  0.019941  1
  Se  Se25  1  0.538681  0.525967  0.019941  1
  Se  Se26  1  0.474033  0.012714  0.019941  1
  Se  Se27  1  0.461319  0.987286  0.519941  1
  Se  Se28  1  0.525967  0.538681  0.519941  1
  Se  Se29  1  0.012714  0.474033  0.519941  1
  Se  Se30  1  0.095111  0.201663  0.117705  1
  Se  Se31  1  0.798337  0.893448  0.117705  1
  Se  Se32  1  0.106552  0.904889  0.117705  1
  Se  Se33  1  0.201663  0.095111  0.617705  1
  Se  Se34  1  0.893448  0.798337  0.617705  1
  Se  Se35  1  0.904889  0.106552  0.617705  1
  Se  Se36  1  0.074750  0.190715  0.388083  1
  Se  Se37  1  0.809285  0.884035  0.388083  1
  Se  Se38  1  0.115965  0.925250  0.388083  1
  Se  Se39  1  0.190715  0.074750  0.888083  1
  Se  Se40  1  0.884035  0.809285  0.888083  1
  Se  Se41  1  0.925250  0.115965  0.888083  1
  Se  Se42  1  0.134339  0.461992  0.260326  1
  Se  Se43  1  0.538008  0.672347  0.260326  1
  Se  Se44  1  0.327653  0.865661  0.260326  1
  Se  Se45  1  0.461992  0.134339  0.760326  1
  Se  Se46  1  0.672347  0.538008  0.760326  1
  Se  Se47  1  0.865661  0.327653  0.760326  1
  Se  Se48  1  0.474590  0.599639  0.898503  1
  Se  Se49  1  0.649320  0.804325  0.009270  1
  Se  Se50  1  0.195675  0.844995  0.009270  1
  Se  Se51  1  0.350680  0.155005  0.509270  1
  Se  Se52  1  0.804325  0.649320  0.509270  1
  Se  Se53  1  0.844995  0.195675  0.509270  1
  Se  Se54  1  0.309569  0.109130  0.264651  1
  Se  Se55  1  0.890870  0.200439  0.264651  1
  Se  Se56  1  0.799561  0.690431  0.264651  1
  Se  Se57  1  0.109130  0.309569  0.764651  1
  Se  Se58  1  0.669672  0.818549  0.509080  1
  Se  Se59  1  0.690431  0.799561  0.764651  1
  Se  Se60  1  0.330328  0.148877  0.009080  1
  Se  Se61  1  0.851123  0.181451  0.009080  1
  Se  Se62  1  0.818549  0.669672  0.009080  1
  Se  Se63  1  0.148877  0.330328  0.509080  1
  Se  Se64  1  0.181451  0.851123  0.509080  1
  Se  Se65  1  0.200439  0.890870  0.764651  1
  Ag  Ag66  1  0.000000  0.000000  0.506606  1
  Ag  Ag67  1  0.000000  0.000000  0.006606  1
  Cs  Cs68  1  0.653707  0.031165  0.752855  1
  Cs  Cs69  1  0.333333  0.666667  0.449695  1
  Cs  Cs70  1  0.666667  0.333333  0.583435  1
  Cs  Cs71  1  0.333333  0.666667  0.083435  1
  Cs  Cs72  1  0.666667  0.333333  0.949695  1
  Cs  Cs73  1  0.968835  0.622542  0.752855  1
  Cs  Cs74  1  0.377458  0.346293  0.752855  1
  Cs  Cs75  1  0.031165  0.653707  0.252855  1
  Cs  Cs76  1  0.622542  0.968835  0.252855  1
  Cs  Cs77  1  0.346293  0.377458  0.252855  1
