# generated using pymatgen
data_Sm2CuAs3O
_symmetry_space_group_name_H-M   'P 1'
_cell_length_a   34.82254098
_cell_length_b   3.99137594
_cell_length_c   3.99956782
_cell_angle_alpha   90.00000000
_cell_angle_beta   89.99340509
_cell_angle_gamma   90.00000000
_symmetry_Int_Tables_number   1
_chemical_formula_structural   Sm2CuAs3O
_chemical_formula_sum   'Sm8 Cu4 As12 O4'
_cell_volume   555.89933613
_cell_formula_units_Z   4
loop_
 _symmetry_equiv_pos_site_id
 _symmetry_equiv_pos_as_xyz
  1  'x, y, z'
loop_
 _atom_site_type_symbol
 _atom_site_label
 _atom_site_symmetry_multiplicity
 _atom_site_fract_x
 _atom_site_fract_y
 _atom_site_fract_z
 _atom_site_occupancy
  Sm  Sm0  1  0.466872  0.750002  0.251153  1
  Sm  Sm1  1  0.033152  0.250002  0.751072  1
  Sm  Sm2  1  0.966848  0.750002  0.248929  1
  Sm  Sm3  1  0.533128  0.250002  0.748846  1
  Sm  Sm4  1  0.324166  0.250002  0.807894  1
  Sm  Sm5  1  0.175811  0.750002  0.307911  1
  Sm  Sm6  1  0.824189  0.250002  0.692091  1
  Sm  Sm7  1  0.675834  0.750002  0.192105  1
  Cu  Cu8  1  0.250024  0.250002  0.308301  1
  Cu  Cu9  1  0.249953  0.750002  0.808458  1
  Cu  Cu10  1  0.750047  0.250002  0.191541  1
  Cu  Cu11  1  0.749977  0.750002  0.691700  1
  As  As12  1  0.392968  0.250002  0.330913  1
  As  As13  1  0.107024  0.750002  0.831073  1
  As  As14  1  0.892976  0.250002  0.168929  1
  As  As15  1  0.607032  0.750002  0.669086  1
  As  As16  1  0.394084  0.750002  0.751209  1
  As  As17  1  0.105866  0.250002  0.251167  1
  As  As18  1  0.894134  0.750002  0.748832  1
  As  As19  1  0.605916  0.250002  0.248790  1
  As  As20  1  0.205466  0.250002  0.808973  1
  As  As21  1  0.294504  0.750002  0.308975  1
  As  As22  1  0.705496  0.250002  0.691027  1
  As  As23  1  0.794534  0.750002  0.191028  1
  O  O24  1  0.500124  0.750002  0.751220  1
  O  O25  1  0.999866  0.250002  0.251204  1
  O  O26  1  0.000133  0.750002  0.748795  1
  O  O27  1  0.499876  0.250002  0.248779  1
