# generated using pymatgen
data_CdIn2O4
_symmetry_space_group_name_H-M   'P 1'
_cell_length_a   6.57992464
_cell_length_b   6.57992464
_cell_length_c   6.60747114
_cell_angle_alpha   119.86218638
_cell_angle_beta   119.86218643
_cell_angle_gamma   89.99999997
_symmetry_Int_Tables_number   1
_chemical_formula_structural   CdIn2O4
_chemical_formula_sum   'Cd2 In4 O8'
_cell_volume   203.12409204
_cell_formula_units_Z   2
loop_
 _symmetry_equiv_pos_site_id
 _symmetry_equiv_pos_as_xyz
  1  'x, y, z'
loop_
 _atom_site_type_symbol
 _atom_site_label
 _atom_site_symmetry_multiplicity
 _atom_site_fract_x
 _atom_site_fract_y
 _atom_site_fract_z
 _atom_site_occupancy
  O  O0  1  0.764480  0.789572  0.528959  1
  O  O1  1  0.760613  0.235520  0.971041  1
  O  O2  1  0.210428  0.235520  0.971041  1
  O  O3  1  0.235520  0.210428  0.471041  1
  O  O4  1  0.235520  0.760613  0.471041  1
  O  O5  1  0.239387  0.764480  0.028959  1
  O  O6  1  0.764480  0.239387  0.528959  1
  O  O7  1  0.789572  0.764480  0.028959  1
  Cd  Cd8  1  0.375000  0.625000  0.750000  1
  Cd  Cd9  1  0.625000  0.375000  0.250000  1
  In  In10  1  0.500000  0.000000  0.500000  1
  In  In11  1  0.000000  0.000000  0.000000  1
  In  In12  1  0.000000  0.000000  0.500000  1
  In  In13  1  0.000000  0.500000  0.000000  1
