# generated using pymatgen
data_TeMoWSeS2
_symmetry_space_group_name_H-M   'P 1'
_cell_length_a   3.31319585
_cell_length_b   3.31334307
_cell_length_c   39.32829331
_cell_angle_alpha   89.99974692
_cell_angle_beta   90.00000000
_cell_angle_gamma   119.99853010
_symmetry_Int_Tables_number   1
_chemical_formula_structural   TeMoWSeS2
_chemical_formula_sum   'Te2 Mo2 W2 Se2 S4'
_cell_volume   373.90018400
_cell_formula_units_Z   2
loop_
 _symmetry_equiv_pos_site_id
 _symmetry_equiv_pos_as_xyz
  1  'x, y, z'
loop_
 _atom_site_type_symbol
 _atom_site_label
 _atom_site_symmetry_multiplicity
 _atom_site_fract_x
 _atom_site_fract_y
 _atom_site_fract_z
 _atom_site_occupancy
  Te  Te0  1  0.666674  0.333346  0.422021  1
  Te  Te1  1  0.666656  0.333312  0.519865  1
  Mo  Mo2  1  0.333304  0.666608  0.093729  1
  Mo  Mo3  1  0.666798  0.333595  0.657936  1
  W  W4  1  0.333305  0.666611  0.470908  1
  W  W5  1  0.666626  0.333251  0.280323  1
  Se  Se6  1  0.333298  0.666598  0.323141  1
  Se  Se7  1  0.333250  0.666501  0.237481  1
  S  S8  1  0.333332  0.666666  0.696760  1
  S  S9  1  0.666699  0.333397  0.054895  1
  S  S10  1  0.666734  0.333467  0.132541  1
  S  S11  1  0.333324  0.666648  0.619148  1
