# generated using pymatgen
data_Rb2MgSi5O12
_symmetry_space_group_name_H-M   'P 1'
_cell_length_a   13.72487303
_cell_length_b   13.92872161
_cell_length_c   13.64715308
_cell_angle_alpha   90.00000000
_cell_angle_beta   90.00000000
_cell_angle_gamma   90.00000000
_symmetry_Int_Tables_number   1
_chemical_formula_structural   Rb2MgSi5O12
_chemical_formula_sum   'Rb16 Mg8 Si40 O96'
_cell_volume   2608.92537498
_cell_formula_units_Z   8
loop_
 _symmetry_equiv_pos_site_id
 _symmetry_equiv_pos_as_xyz
  1  'x, y, z'
loop_
 _atom_site_type_symbol
 _atom_site_label
 _atom_site_symmetry_multiplicity
 _atom_site_fract_x
 _atom_site_fract_y
 _atom_site_fract_z
 _atom_site_occupancy
  Rb  Rb0  1  0.638529  0.144325  0.346732  1
  Rb  Rb1  1  0.138529  0.355675  0.653268  1
  Rb  Rb2  1  0.361471  0.644325  0.153268  1
  Rb  Rb3  1  0.861471  0.855675  0.846732  1
  Rb  Rb4  1  0.361471  0.855675  0.653268  1
  Rb  Rb5  1  0.861471  0.644325  0.346732  1
  Rb  Rb6  1  0.638529  0.355675  0.846732  1
  Rb  Rb7  1  0.138529  0.144325  0.153268  1
  Rb  Rb8  1  0.896393  0.409766  0.107949  1
  Rb  Rb9  1  0.396393  0.090234  0.892051  1
  Rb  Rb10  1  0.103607  0.909766  0.392051  1
  Rb  Rb11  1  0.603607  0.590234  0.607949  1
  Rb  Rb12  1  0.103607  0.590234  0.892051  1
  Rb  Rb13  1  0.603607  0.909766  0.107949  1
  Rb  Rb14  1  0.896393  0.090234  0.607949  1
  Rb  Rb15  1  0.396393  0.409766  0.392051  1
  Mg  Mg16  1  0.874052  0.834285  0.560253  1
  Mg  Mg17  1  0.374052  0.665715  0.439747  1
  Mg  Mg18  1  0.125948  0.334285  0.939747  1
  Mg  Mg19  1  0.625948  0.165715  0.060253  1
  Mg  Mg20  1  0.125948  0.165715  0.439747  1
  Mg  Mg21  1  0.625948  0.334285  0.560253  1
  Mg  Mg22  1  0.874052  0.665715  0.060253  1
  Mg  Mg23  1  0.374052  0.834285  0.939747  1
  Si  Si24  1  0.622084  0.662881  0.892888  1
  Si  Si25  1  0.122084  0.837119  0.107112  1
  Si  Si26  1  0.377916  0.162881  0.607112  1
  Si  Si27  1  0.877916  0.337119  0.392888  1
  Si  Si28  1  0.377916  0.337119  0.107112  1
  Si  Si29  1  0.877916  0.162881  0.892888  1
  Si  Si30  1  0.622084  0.837119  0.392888  1
  Si  Si31  1  0.122084  0.662881  0.607112  1
  Si  Si32  1  0.096535  0.113406  0.873749  1
  Si  Si33  1  0.596535  0.386594  0.126251  1
  Si  Si34  1  0.903465  0.613406  0.626251  1
  Si  Si35  1  0.403465  0.886594  0.373749  1
  Si  Si36  1  0.903465  0.886594  0.126251  1
  Si  Si37  1  0.403465  0.613406  0.873749  1
  Si  Si38  1  0.096535  0.386594  0.373749  1
  Si  Si39  1  0.596535  0.113406  0.626251  1
  Si  Si40  1  0.151506  0.599595  0.396144  1
  Si  Si41  1  0.651506  0.900405  0.603856  1
  Si  Si42  1  0.848494  0.099595  0.103856  1
  Si  Si43  1  0.348494  0.400405  0.896144  1
  Si  Si44  1  0.848494  0.400405  0.603856  1
  Si  Si45  1  0.348494  0.099595  0.396144  1
  Si  Si46  1  0.151506  0.900405  0.896144  1
  Si  Si47  1  0.651506  0.599595  0.103856  1
  Si  Si48  1  0.411895  0.367953  0.685110  1
  Si  Si49  1  0.911895  0.132047  0.314889  1
  Si  Si50  1  0.588105  0.867953  0.814890  1
  Si  Si51  1  0.088105  0.632047  0.185111  1
  Si  Si52  1  0.588105  0.632047  0.314889  1
  Si  Si53  1  0.088105  0.867953  0.685110  1
  Si  Si54  1  0.411895  0.132047  0.185111  1
  Si  Si55  1  0.911895  0.367953  0.814890  1
  Si  Si56  1  0.324447  0.927479  0.157245  1
  Si  Si57  1  0.824447  0.572521  0.842755  1
  Si  Si58  1  0.675553  0.427479  0.342755  1
  Si  Si59  1  0.175553  0.072521  0.657245  1
  Si  Si60  1  0.675553  0.072521  0.842755  1
  Si  Si61  1  0.175553  0.427479  0.157245  1
  Si  Si62  1  0.324447  0.572521  0.657245  1
  Si  Si63  1  0.824447  0.927479  0.342755  1
  O  O64  1  0.978848  0.377567  0.345117  1
  O  O65  1  0.478848  0.122433  0.654883  1
  O  O66  1  0.021152  0.877567  0.154883  1
  O  O67  1  0.521152  0.622433  0.845117  1
  O  O68  1  0.021152  0.622433  0.654883  1
  O  O69  1  0.521152  0.877567  0.345117  1
  O  O70  1  0.978848  0.122433  0.845117  1
  O  O71  1  0.478848  0.377567  0.154883  1
  O  O72  1  0.611958  0.491870  0.074006  1
  O  O73  1  0.111958  0.008130  0.925994  1
  O  O74  1  0.388042  0.991870  0.425994  1
  O  O75  1  0.888042  0.508130  0.574006  1
  O  O76  1  0.388042  0.508130  0.925994  1
  O  O77  1  0.888042  0.991870  0.074006  1
  O  O78  1  0.611958  0.008130  0.574006  1
  O  O79  1  0.111958  0.491870  0.425994  1
  O  O80  1  0.881698  0.170979  0.012059  1
  O  O81  1  0.381698  0.329021  0.987941  1
  O  O82  1  0.118302  0.670979  0.487941  1
  O  O83  1  0.618302  0.829021  0.512059  1
  O  O84  1  0.118302  0.829021  0.987941  1
  O  O85  1  0.618302  0.670979  0.012059  1
  O  O86  1  0.881698  0.329021  0.512059  1
  O  O87  1  0.381698  0.170979  0.487941  1
  O  O88  1  0.234637  0.397983  0.873998  1
  O  O89  1  0.734637  0.102017  0.126002  1
  O  O90  1  0.765363  0.897983  0.626002  1
  O  O91  1  0.265363  0.602017  0.373998  1
  O  O92  1  0.765363  0.602017  0.126002  1
  O  O93  1  0.265363  0.897983  0.873998  1
  O  O94  1  0.234637  0.102017  0.373998  1
  O  O95  1  0.734637  0.397983  0.626002  1
  O  O96  1  0.147201  0.729945  0.149020  1
  O  O97  1  0.647201  0.770055  0.850980  1
  O  O98  1  0.852799  0.229945  0.350980  1
  O  O99  1  0.352799  0.270055  0.649020  1
  O  O100  1  0.852799  0.270055  0.850980  1
  O  O101  1  0.352799  0.229945  0.149020  1
  O  O102  1  0.147201  0.770055  0.649020  1
  O  O103  1  0.647201  0.729945  0.350980  1
  O  O104  1  0.847156  0.614234  0.732609  1
  O  O105  1  0.347156  0.885766  0.267391  1
  O  O106  1  0.152844  0.114234  0.767391  1
  O  O107  1  0.652844  0.385766  0.232609  1
  O  O108  1  0.152844  0.385766  0.267391  1
  O  O109  1  0.652844  0.114234  0.732609  1
  O  O110  1  0.847156  0.885766  0.232609  1
  O  O111  1  0.347156  0.614234  0.767391  1
  O  O112  1  0.483538  0.882223  0.862535  1
  O  O113  1  0.983538  0.617777  0.137465  1
  O  O114  1  0.516462  0.382223  0.637465  1
  O  O115  1  0.016462  0.117777  0.362535  1
  O  O116  1  0.516462  0.117777  0.137465  1
  O  O117  1  0.016462  0.382223  0.862535  1
  O  O118  1  0.483538  0.617777  0.362535  1
  O  O119  1  0.983538  0.882223  0.637465  1
  O  O120  1  0.165372  0.954276  0.656399  1
  O  O121  1  0.665372  0.545724  0.343601  1
  O  O122  1  0.834628  0.454276  0.843601  1
  O  O123  1  0.334628  0.045724  0.156399  1
  O  O124  1  0.834628  0.045724  0.343601  1
  O  O125  1  0.334628  0.454276  0.656399  1
  O  O126  1  0.165372  0.545724  0.156399  1
  O  O127  1  0.665372  0.954276  0.843601  1
  O  O128  1  0.389798  0.623322  0.575876  1
  O  O129  1  0.889798  0.876678  0.424124  1
  O  O130  1  0.610202  0.123322  0.924124  1
  O  O131  1  0.110202  0.376678  0.075876  1
  O  O132  1  0.610202  0.376678  0.424124  1
  O  O133  1  0.110202  0.123322  0.575876  1
  O  O134  1  0.389798  0.876678  0.075876  1
  O  O135  1  0.889798  0.623322  0.924124  1
  O  O136  1  0.705455  0.912627  0.356896  1
  O  O137  1  0.205455  0.587373  0.643104  1
  O  O138  1  0.294545  0.412627  0.143104  1
  O  O139  1  0.794545  0.087373  0.856896  1
  O  O140  1  0.294545  0.087373  0.643104  1
  O  O141  1  0.794545  0.412627  0.356896  1
  O  O142  1  0.705455  0.587373  0.856896  1
  O  O143  1  0.205455  0.912627  0.143104  1
  O  O144  1  0.634047  0.195788  0.555231  1
  O  O145  1  0.134047  0.304212  0.444769  1
  O  O146  1  0.365953  0.695788  0.944769  1
  O  O147  1  0.865953  0.804212  0.055231  1
  O  O148  1  0.365953  0.804212  0.444769  1
  O  O149  1  0.865953  0.695788  0.555231  1
  O  O150  1  0.634047  0.304212  0.055231  1
  O  O151  1  0.134047  0.195788  0.944769  1
  O  O152  1  0.418774  0.139123  0.305733  1
  O  O153  1  0.918774  0.360877  0.694267  1
  O  O154  1  0.581226  0.639123  0.194267  1
  O  O155  1  0.081226  0.860877  0.805733  1
  O  O156  1  0.581226  0.860877  0.694267  1
  O  O157  1  0.081226  0.639123  0.305733  1
  O  O158  1  0.418774  0.360877  0.805733  1
  O  O159  1  0.918774  0.139123  0.194267  1
