# generated using pymatgen
data_LuPt
_symmetry_space_group_name_H-M   'P 1'
_cell_length_a   4.40264653
_cell_length_b   6.91270101
_cell_length_c   5.53906793
_cell_angle_alpha   90.00000000
_cell_angle_beta   90.00000000
_cell_angle_gamma   90.00000000
_symmetry_Int_Tables_number   1
_chemical_formula_structural   LuPt
_chemical_formula_sum   'Lu4 Pt4'
_cell_volume   168.57698551
_cell_formula_units_Z   4
loop_
 _symmetry_equiv_pos_site_id
 _symmetry_equiv_pos_as_xyz
  1  'x, y, z'
loop_
 _atom_site_type_symbol
 _atom_site_label
 _atom_site_symmetry_multiplicity
 _atom_site_fract_x
 _atom_site_fract_y
 _atom_site_fract_z
 _atom_site_occupancy
  Lu  Lu0  1  0.750000  0.819755  0.359862  1
  Lu  Lu1  1  0.250000  0.180245  0.640138  1
  Lu  Lu2  1  0.250000  0.680245  0.859862  1
  Lu  Lu3  1  0.750000  0.319755  0.140138  1
  Pt  Pt4  1  0.750000  0.954446  0.842876  1
  Pt  Pt5  1  0.250000  0.045554  0.157124  1
  Pt  Pt6  1  0.250000  0.545554  0.342876  1
  Pt  Pt7  1  0.750000  0.454446  0.657124  1
