# generated using pymatgen
data_K2V3O8
_symmetry_space_group_name_H-M   'P 1'
_cell_length_a   5.50644272
_cell_length_b   9.02440653
_cell_length_c   9.02440653
_cell_angle_alpha   90.00000000
_cell_angle_beta   90.00000000
_cell_angle_gamma   90.00000000
_symmetry_Int_Tables_number   1
_chemical_formula_structural   K2V3O8
_chemical_formula_sum   'K4 V6 O16'
_cell_volume   448.44421726
_cell_formula_units_Z   2
loop_
 _symmetry_equiv_pos_site_id
 _symmetry_equiv_pos_as_xyz
  1  'x, y, z'
loop_
 _atom_site_type_symbol
 _atom_site_label
 _atom_site_symmetry_multiplicity
 _atom_site_fract_x
 _atom_site_fract_y
 _atom_site_fract_z
 _atom_site_occupancy
  O  O0  1  0.933083  0.500000  0.500000  1
  O  O1  1  0.933083  0.000000  0.000000  1
  O  O2  1  0.525013  0.500000  0.000000  1
  O  O3  1  0.525013  0.000000  0.500000  1
  O  O4  1  0.946028  0.631934  0.868066  1
  O  O5  1  0.946028  0.131934  0.631934  1
  O  O6  1  0.946028  0.868066  0.368066  1
  O  O7  1  0.946028  0.368066  0.131934  1
  O  O8  1  0.528998  0.586832  0.691985  1
  O  O9  1  0.528998  0.413168  0.308015  1
  O  O10  1  0.528998  0.191985  0.086832  1
  O  O11  1  0.528998  0.913168  0.191985  1
  O  O12  1  0.528998  0.086832  0.808015  1
  O  O13  1  0.528998  0.808015  0.913168  1
  O  O14  1  0.528998  0.308015  0.586832  1
  O  O15  1  0.528998  0.691985  0.413168  1
  K  K16  1  0.177407  0.670070  0.170070  1
  K  K17  1  0.177407  0.829930  0.670070  1
  K  K18  1  0.177407  0.170070  0.329930  1
  K  K19  1  0.177407  0.329930  0.829930  1
  V  V20  1  0.643090  0.865691  0.365691  1
  V  V21  1  0.643090  0.365691  0.134309  1
  V  V22  1  0.643090  0.134309  0.634309  1
  V  V23  1  0.643090  0.634309  0.865691  1
  V  V24  1  0.634804  0.000000  0.000000  1
  V  V25  1  0.634804  0.500000  0.500000  1
