# generated using pymatgen
data_Rb2Pd3Se4
_symmetry_space_group_name_H-M   'P 1'
_cell_length_a   6.48239540
_cell_length_b   6.53828464
_cell_length_c   14.44674546
_cell_angle_alpha   83.61443602
_cell_angle_beta   77.03505486
_cell_angle_gamma   60.28236488
_symmetry_Int_Tables_number   1
_chemical_formula_structural   Rb2Pd3Se4
_chemical_formula_sum   'Rb4 Pd6 Se8'
_cell_volume   518.21963415
_cell_formula_units_Z   2
loop_
 _symmetry_equiv_pos_site_id
 _symmetry_equiv_pos_as_xyz
  1  'x, y, z'
loop_
 _atom_site_type_symbol
 _atom_site_label
 _atom_site_symmetry_multiplicity
 _atom_site_fract_x
 _atom_site_fract_y
 _atom_site_fract_z
 _atom_site_occupancy
  Se  Se0  1  0.897126  0.081974  0.866143  1
  Se  Se1  1  0.763268  0.581974  0.133857  1
  Se  Se2  1  0.979100  0.918026  0.366143  1
  Se  Se3  1  0.654757  0.581974  0.366143  1
  Se  Se4  1  0.345243  0.418026  0.633857  1
  Se  Se5  1  0.020900  0.081974  0.633857  1
  Se  Se6  1  0.236732  0.418026  0.866143  1
  Se  Se7  1  0.102874  0.918026  0.133857  1
  Rb  Rb8  1  0.550618  0.750000  0.898764  1
  Rb  Rb9  1  0.300618  0.250000  0.398764  1
  Rb  Rb10  1  0.449382  0.250000  0.101236  1
  Rb  Rb11  1  0.699382  0.750000  0.601236  1
  Pd  Pd12  1  0.374409  0.750000  0.251182  1
  Pd  Pd13  1  0.124409  0.250000  0.751182  1
  Pd  Pd14  1  0.625591  0.250000  0.748818  1
  Pd  Pd15  1  0.125000  0.750000  0.750000  1
  Pd  Pd16  1  0.875000  0.250000  0.250000  1
  Pd  Pd17  1  0.875591  0.750000  0.248818  1
