# generated using pymatgen
data_BaNd2BeO5
_symmetry_space_group_name_H-M   'P 1'
_cell_length_a   6.77191543
_cell_length_b   7.46121936
_cell_length_c   9.85398847
_cell_angle_alpha   90.82586577
_cell_angle_beta   90.00000000
_cell_angle_gamma   90.00000000
_symmetry_Int_Tables_number   1
_chemical_formula_structural   BaNd2BeO5
_chemical_formula_sum   'Ba4 Nd8 Be4 O20'
_cell_volume   497.83825605
_cell_formula_units_Z   4
loop_
 _symmetry_equiv_pos_site_id
 _symmetry_equiv_pos_as_xyz
  1  'x, y, z'
loop_
 _atom_site_type_symbol
 _atom_site_label
 _atom_site_symmetry_multiplicity
 _atom_site_fract_x
 _atom_site_fract_y
 _atom_site_fract_z
 _atom_site_occupancy
  Be  Be0  1  0.807133  0.738467  0.903426  1
  Be  Be1  1  0.692867  0.738467  0.403426  1
  Be  Be2  1  0.192867  0.261533  0.096574  1
  Be  Be3  1  0.307133  0.261533  0.596574  1
  O  O4  1  0.630723  0.719907  0.231751  1
  O  O5  1  0.130723  0.280093  0.268249  1
  O  O6  1  0.369277  0.280093  0.768249  1
  O  O7  1  0.869277  0.719907  0.731751  1
  O  O8  1  0.165003  0.714852  0.284754  1
  O  O9  1  0.665003  0.285148  0.215246  1
  O  O10  1  0.834997  0.285148  0.715246  1
  O  O11  1  0.334997  0.714852  0.784754  1
  O  O12  1  0.017713  0.719082  0.990357  1
  O  O13  1  0.482287  0.719082  0.490357  1
  O  O14  1  0.982287  0.280918  0.009643  1
  O  O15  1  0.517713  0.280918  0.509643  1
  O  O16  1  0.192289  0.068971  0.561595  1
  O  O17  1  0.692289  0.931029  0.938405  1
  O  O18  1  0.807711  0.931029  0.438405  1
  O  O19  1  0.307711  0.068971  0.061595  1
  O  O20  1  0.821374  0.558765  0.434130  1
  O  O21  1  0.321374  0.441235  0.065870  1
  O  O22  1  0.178626  0.441235  0.565870  1
  O  O23  1  0.678626  0.558765  0.934130  1
  Ba  Ba24  1  0.581980  0.979668  0.673207  1
  Ba  Ba25  1  0.081980  0.020332  0.826793  1
  Ba  Ba26  1  0.418020  0.020332  0.326793  1
  Ba  Ba27  1  0.918020  0.979668  0.173207  1
  Nd  Nd28  1  0.417181  0.479450  0.323580  1
  Nd  Nd29  1  0.917181  0.520550  0.176420  1
  Nd  Nd30  1  0.582819  0.520550  0.676420  1
  Nd  Nd31  1  0.082819  0.479450  0.823580  1
  Nd  Nd32  1  0.090660  0.742978  0.520529  1
  Nd  Nd33  1  0.590660  0.257022  0.979471  1
  Nd  Nd34  1  0.909340  0.257022  0.479471  1
  Nd  Nd35  1  0.409340  0.742978  0.020529  1
