# generated using pymatgen
data_Ta2GaC
_symmetry_space_group_name_H-M   'P 1'
_cell_length_a   3.12914012
_cell_length_b   3.12914012
_cell_length_c   13.62534084
_cell_angle_alpha   90.00000000
_cell_angle_beta   90.00000000
_cell_angle_gamma   120.00000253
_symmetry_Int_Tables_number   1
_chemical_formula_structural   Ta2GaC
_chemical_formula_sum   'Ta4 Ga2 C2'
_cell_volume   115.53884382
_cell_formula_units_Z   2
loop_
 _symmetry_equiv_pos_site_id
 _symmetry_equiv_pos_as_xyz
  1  'x, y, z'
loop_
 _atom_site_type_symbol
 _atom_site_label
 _atom_site_symmetry_multiplicity
 _atom_site_fract_x
 _atom_site_fract_y
 _atom_site_fract_z
 _atom_site_occupancy
  Ta  Ta0  1  0.666667  0.333333  0.409907  1
  Ta  Ta1  1  0.333333  0.666667  0.590093  1
  Ta  Ta2  1  0.333333  0.666667  0.909907  1
  Ta  Ta3  1  0.666667  0.333333  0.090093  1
  Ga  Ga4  1  0.666667  0.333333  0.750000  1
  Ga  Ga5  1  0.333333  0.666667  0.250000  1
  C  C6  1  0.000000  0.000000  0.000000  1
  C  C7  1  -0.000000  -0.000000  0.500000  1
