# generated using pymatgen
data_Te2Mo2WS4
_symmetry_space_group_name_H-M   'P 1'
_cell_length_a   3.29871668
_cell_length_b   3.29869684
_cell_length_c   30.52455469
_cell_angle_alpha   90.00006942
_cell_angle_beta   90.00000000
_cell_angle_gamma   120.00019892
_symmetry_Int_Tables_number   1
_chemical_formula_structural   Te2Mo2WS4
_chemical_formula_sum   'Te2 Mo2 W1 S4'
_cell_volume   287.65141818
_cell_formula_units_Z   1
loop_
 _symmetry_equiv_pos_site_id
 _symmetry_equiv_pos_as_xyz
  1  'x, y, z'
loop_
 _atom_site_type_symbol
 _atom_site_label
 _atom_site_symmetry_multiplicity
 _atom_site_fract_x
 _atom_site_fract_y
 _atom_site_fract_z
 _atom_site_occupancy
  Te  Te0  1  0.333353  0.666707  0.409801  1
  Te  Te1  1  0.333356  0.666714  0.284132  1
  Mo  Mo2  1  0.333302  0.666604  0.115602  1
  Mo  Mo3  1  0.666693  0.333386  0.346975  1
  W  W4  1  0.333303  0.666607  0.578369  1
  S  S5  1  0.666652  0.333303  0.065497  1
  S  S6  1  0.666643  0.333285  0.527971  1
  S  S7  1  0.666652  0.333303  0.165749  1
  S  S8  1  0.666646  0.333291  0.628744  1
