# generated using pymatgen
data_MgSiO3
_symmetry_space_group_name_H-M   'P 1'
_cell_length_a   18.49544699
_cell_length_b   8.95946511
_cell_length_c   5.25217728
_cell_angle_alpha   90.00000000
_cell_angle_beta   89.78433306
_cell_angle_gamma   90.00000000
_symmetry_Int_Tables_number   1
_chemical_formula_structural   MgSiO3
_chemical_formula_sum   'Mg16 Si16 O48'
_cell_volume   870.32851792
_cell_formula_units_Z   16
loop_
 _symmetry_equiv_pos_site_id
 _symmetry_equiv_pos_as_xyz
  1  'x, y, z'
loop_
 _atom_site_type_symbol
 _atom_site_label
 _atom_site_symmetry_multiplicity
 _atom_site_fract_x
 _atom_site_fract_y
 _atom_site_fract_z
 _atom_site_occupancy
  Mg  Mg0  1  0.874238  0.848240  0.070440  1
  Mg  Mg1  1  0.125762  0.348240  0.429560  1
  Mg  Mg2  1  0.125762  0.151760  0.929560  1
  Mg  Mg3  1  0.874238  0.651760  0.570440  1
  Mg  Mg4  1  0.874160  0.490318  0.069001  1
  Mg  Mg5  1  0.125840  0.990318  0.430999  1
  Mg  Mg6  1  0.125840  0.509682  0.930999  1
  Mg  Mg7  1  0.874160  0.009682  0.569001  1
  Mg  Mg8  1  0.374636  0.848204  0.366590  1
  Mg  Mg9  1  0.625364  0.348204  0.133410  1
  Mg  Mg10  1  0.625364  0.151796  0.633410  1
  Mg  Mg11  1  0.374636  0.651796  0.866590  1
  Mg  Mg12  1  0.379485  0.490485  0.364130  1
  Mg  Mg13  1  0.620515  0.990485  0.135870  1
  Mg  Mg14  1  0.620515  0.509515  0.635870  1
  Mg  Mg15  1  0.379485  0.009515  0.864130  1
  Si  Si16  1  0.977160  0.339792  0.767644  1
  Si  Si17  1  0.022840  0.839792  0.732356  1
  Si  Si18  1  0.022840  0.660208  0.232356  1
  Si  Si19  1  0.977160  0.160208  0.267644  1
  Si  Si20  1  0.273738  0.161211  0.583759  1
  Si  Si21  1  0.726262  0.661211  0.916241  1
  Si  Si22  1  0.726262  0.838789  0.416241  1
  Si  Si23  1  0.273738  0.338789  0.083759  1
  Si  Si24  1  0.227456  0.839002  0.022848  1
  Si  Si25  1  0.772544  0.339002  0.477152  1
  Si  Si26  1  0.772544  0.160998  0.977152  1
  Si  Si27  1  0.227456  0.660998  0.522848  1
  Si  Si28  1  0.473888  0.336626  0.802785  1
  Si  Si29  1  0.526112  0.836626  0.697215  1
  Si  Si30  1  0.526112  0.663374  0.197215  1
  Si  Si31  1  0.473888  0.163374  0.302785  1
  O  O32  1  0.065259  0.339829  0.760475  1
  O  O33  1  0.934741  0.839829  0.739525  1
  O  O34  1  0.934741  0.660171  0.239525  1
  O  O35  1  0.065259  0.160171  0.260475  1
  O  O36  1  0.936789  0.497924  0.747751  1
  O  O37  1  0.063211  0.997924  0.752249  1
  O  O38  1  0.063211  0.502076  0.252249  1
  O  O39  1  0.936789  0.002076  0.247751  1
  O  O40  1  0.946614  0.217553  0.553551  1
  O  O41  1  0.053386  0.717553  0.946449  1
  O  O42  1  0.053386  0.782447  0.446449  1
  O  O43  1  0.946614  0.282447  0.053551  1
  O  O44  1  0.185490  0.162126  0.589429  1
  O  O45  1  0.814510  0.662126  0.910571  1
  O  O46  1  0.814510  0.837874  0.410571  1
  O  O47  1  0.185490  0.337874  0.089429  1
  O  O48  1  0.314286  0.004540  0.551401  1
  O  O49  1  0.685714  0.504540  0.948599  1
  O  O50  1  0.685714  0.995460  0.448599  1
  O  O51  1  0.314286  0.495460  0.051401  1
  O  O52  1  0.303361  0.212850  0.873725  1
  O  O53  1  0.696639  0.712850  0.626275  1
  O  O54  1  0.696639  0.787150  0.126275  1
  O  O55  1  0.303361  0.287150  0.373725  1
  O  O56  1  0.316147  0.841587  0.030996  1
  O  O57  1  0.683853  0.341587  0.469004  1
  O  O58  1  0.683853  0.158413  0.969004  1
  O  O59  1  0.316147  0.658413  0.530996  1
  O  O60  1  0.185704  0.988602  0.111729  1
  O  O61  1  0.814296  0.488602  0.388271  1
  O  O62  1  0.814296  0.011398  0.888271  1
  O  O63  1  0.185704  0.511398  0.611729  1
  O  O64  1  0.200211  0.793670  0.728895  1
  O  O65  1  0.799789  0.293670  0.771105  1
  O  O66  1  0.799789  0.206330  0.271105  1
  O  O67  1  0.200211  0.706330  0.228895  1
  O  O68  1  0.562423  0.338568  0.801899  1
  O  O69  1  0.437577  0.838568  0.698101  1
  O  O70  1  0.437577  0.661432  0.198101  1
  O  O71  1  0.562423  0.161432  0.301899  1
  O  O72  1  0.433514  0.482180  0.694158  1
  O  O73  1  0.566486  0.982180  0.805842  1
  O  O74  1  0.566486  0.517820  0.305842  1
  O  O75  1  0.433514  0.017820  0.194158  1
  O  O76  1  0.447979  0.195573  0.607933  1
  O  O77  1  0.552021  0.695573  0.892067  1
  O  O78  1  0.552021  0.804427  0.392067  1
  O  O79  1  0.447979  0.304427  0.107933  1
