# generated using pymatgen
data_Ho2Si2O7
_symmetry_space_group_name_H-M   'P 1'
_cell_length_a   5.07739521
_cell_length_b   8.15874857
_cell_length_c   13.75106833
_cell_angle_alpha   90.00000000
_cell_angle_beta   90.00000000
_cell_angle_gamma   90.00000000
_symmetry_Int_Tables_number   1
_chemical_formula_structural   Ho2Si2O7
_chemical_formula_sum   'Ho8 Si8 O28'
_cell_volume   569.64063077
_cell_formula_units_Z   4
loop_
 _symmetry_equiv_pos_site_id
 _symmetry_equiv_pos_as_xyz
  1  'x, y, z'
loop_
 _atom_site_type_symbol
 _atom_site_label
 _atom_site_symmetry_multiplicity
 _atom_site_fract_x
 _atom_site_fract_y
 _atom_site_fract_z
 _atom_site_occupancy
  O  O0  1  0.847836  0.743414  0.899821  1
  O  O1  1  0.152164  0.243414  0.100179  1
  O  O2  1  0.652164  0.743414  0.399821  1
  O  O3  1  0.347836  0.243414  0.600179  1
  O  O4  1  0.294003  0.913110  0.952339  1
  O  O5  1  0.705997  0.413110  0.047661  1
  O  O6  1  0.205997  0.913110  0.452339  1
  O  O7  1  0.794003  0.413110  0.547661  1
  O  O8  1  0.294127  0.573811  0.952370  1
  O  O9  1  0.705873  0.073811  0.047630  1
  O  O10  1  0.205873  0.573811  0.452370  1
  O  O11  1  0.794127  0.073811  0.547630  1
  O  O12  1  0.066449  0.743424  0.080489  1
  O  O13  1  0.933551  0.243424  0.919511  1
  O  O14  1  0.433551  0.743424  0.580489  1
  O  O15  1  0.566449  0.243424  0.419511  1
  O  O16  1  0.491523  0.077863  0.266495  1
  O  O17  1  0.508477  0.577863  0.733505  1
  O  O18  1  0.008477  0.077863  0.766495  1
  O  O19  1  0.991523  0.577863  0.233505  1
  O  O20  1  0.491390  0.409158  0.266553  1
  O  O21  1  0.508610  0.909158  0.733447  1
  O  O22  1  0.008610  0.409158  0.766553  1
  O  O23  1  0.991390  0.909158  0.233447  1
  O  O24  1  0.068740  0.243418  0.344902  1
  O  O25  1  0.931260  0.743418  0.655098  1
  O  O26  1  0.431260  0.243418  0.844902  1
  O  O27  1  0.568740  0.743418  0.155098  1
  Si  Si28  1  0.125815  0.743438  0.959183  1
  Si  Si29  1  0.874185  0.243438  0.040817  1
  Si  Si30  1  0.374185  0.743438  0.459183  1
  Si  Si31  1  0.625815  0.243438  0.540817  1
  Si  Si32  1  0.880164  0.743463  0.181787  1
  Si  Si33  1  0.119836  0.243463  0.818213  1
  Si  Si34  1  0.619836  0.743463  0.681787  1
  Si  Si35  1  0.380164  0.243463  0.318213  1
  Ho  Ho36  1  0.842542  0.003483  0.374391  1
  Ho  Ho37  1  0.157458  0.503483  0.625609  1
  Ho  Ho38  1  0.657458  0.003483  0.874391  1
  Ho  Ho39  1  0.342542  0.503483  0.125609  1
  Ho  Ho40  1  0.842572  0.483417  0.374397  1
  Ho  Ho41  1  0.157428  0.983417  0.625603  1
  Ho  Ho42  1  0.657428  0.483417  0.874397  1
  Ho  Ho43  1  0.342572  0.983417  0.125603  1
