# generated using pymatgen
data_Sr2CdWO6
_symmetry_space_group_name_H-M   'P 1'
_cell_length_a   5.82887693
_cell_length_b   6.06382422
_cell_length_c   8.33515874
_cell_angle_alpha   90.00000000
_cell_angle_beta   90.00000000
_cell_angle_gamma   90.00000000
_symmetry_Int_Tables_number   1
_chemical_formula_structural   Sr2CdWO6
_chemical_formula_sum   'Sr4 Cd2 W2 O12'
_cell_volume   294.60856205
_cell_formula_units_Z   2
loop_
 _symmetry_equiv_pos_site_id
 _symmetry_equiv_pos_as_xyz
  1  'x, y, z'
loop_
 _atom_site_type_symbol
 _atom_site_label
 _atom_site_symmetry_multiplicity
 _atom_site_fract_x
 _atom_site_fract_y
 _atom_site_fract_z
 _atom_site_occupancy
  O  O0  1  0.500000  0.511918  0.733038  1
  O  O1  1  0.500000  0.511918  0.266962  1
  O  O2  1  0.000000  0.950002  0.766959  1
  O  O3  1  0.000000  0.950002  0.233041  1
  O  O4  1  0.733747  0.729256  0.500000  1
  O  O5  1  0.266253  0.729256  0.500000  1
  O  O6  1  0.742767  0.279986  0.500000  1
  O  O7  1  0.257233  0.279986  0.500000  1
  O  O8  1  0.242709  0.182082  0.000000  1
  O  O9  1  0.757291  0.182082  0.000000  1
  O  O10  1  0.766195  0.732798  0.000000  1
  O  O11  1  0.233805  0.732798  0.000000  1
  Sr  Sr12  1  0.500000  0.940799  0.763964  1
  Sr  Sr13  1  0.500000  0.940799  0.236036  1
  Sr  Sr14  1  0.000000  0.521175  0.736021  1
  Sr  Sr15  1  0.000000  0.521175  0.263979  1
  Cd  Cd16  1  0.000000  0.004948  0.500000  1
  Cd  Cd17  1  0.500000  0.457059  0.000000  1
  W  W18  1  0.500000  0.493720  0.500000  1
  W  W19  1  0.000000  0.968239  0.000000  1
