# generated using pymatgen
data_Rb5Li6(BO2)11
_symmetry_space_group_name_H-M   'P 1'
_cell_length_a   6.91087208
_cell_length_b   6.91087208
_cell_length_c   13.90918776
_cell_angle_alpha   75.49352253
_cell_angle_beta   75.49352253
_cell_angle_gamma   62.92486597
_symmetry_Int_Tables_number   1
_chemical_formula_structural   Rb5Li6(BO2)11
_chemical_formula_sum   'Rb5 Li6 B11 O22'
_cell_volume   565.42403397
_cell_formula_units_Z   1
loop_
 _symmetry_equiv_pos_site_id
 _symmetry_equiv_pos_as_xyz
  1  'x, y, z'
loop_
 _atom_site_type_symbol
 _atom_site_label
 _atom_site_symmetry_multiplicity
 _atom_site_fract_x
 _atom_site_fract_y
 _atom_site_fract_z
 _atom_site_occupancy
  Rb  Rb0  1  0.950794  0.696110  0.787053  1
  Rb  Rb1  1  0.303890  0.049206  0.212947  1
  Rb  Rb2  1  0.531628  0.874233  0.588316  1
  Rb  Rb3  1  0.125767  0.468372  0.411684  1
  Rb  Rb4  1  0.979360  0.020640  -0.000000  1
  Li  Li5  1  0.425261  0.414185  0.595531  1
  Li  Li6  1  0.585815  0.574739  0.404469  1
  Li  Li7  1  0.430488  0.115884  0.767993  1
  Li  Li8  1  0.884116  0.569512  0.232007  1
  Li  Li9  1  0.087901  0.497677  0.045841  1
  Li  Li10  1  0.502323  0.912099  0.954159  1
  B  B11  1  0.448758  0.645812  0.835839  1
  B  B12  1  0.354188  0.551242  0.164161  1
  B  B13  1  0.842519  0.168958  0.590622  1
  B  B14  1  0.831042  0.157481  0.409378  1
  B  B15  1  0.684876  0.288795  0.765124  1
  B  B16  1  0.711205  0.315124  0.234876  1
  B  B17  1  0.045966  0.266978  0.683960  1
  B  B18  1  0.733022  0.954034  0.316040  1
  B  B19  1  0.129546  0.870454  0.500000  1
  B  B20  1  0.398399  0.310139  0.925303  1
  B  B21  1  0.689861  0.601601  0.074697  1
  O  O22  1  0.436042  0.841903  0.840862  1
  O  O23  1  0.158097  0.563958  0.159138  1
  O  O24  1  0.575037  0.188291  0.858230  1
  O  O25  1  0.811709  0.424963  0.141770  1
  O  O26  1  0.222453  0.302382  0.683539  1
  O  O27  1  0.697618  0.777547  0.316461  1
  O  O28  1  0.333184  0.539799  0.914310  1
  O  O29  1  0.460201  0.666816  0.085690  1
  O  O30  1  0.566400  0.534282  0.754446  1
  O  O31  1  0.465718  0.433600  0.245554  1
  O  O32  1  0.317021  0.682979  0.500000  1
  O  O33  1  0.987770  0.272930  0.593475  1
  O  O34  1  0.727070  0.012230  0.406525  1
  O  O35  1  0.982037  0.928345  0.589313  1
  O  O36  1  0.071655  0.017963  0.410687  1
  O  O37  1  0.913464  0.225819  0.774506  1
  O  O38  1  0.774181  0.086536  0.225494  1
  O  O39  1  0.669274  0.204247  0.681145  1
  O  O40  1  0.795753  0.330726  0.318855  1
  O  O41  1  0.731056  0.268944  0.500000  1
  O  O42  1  0.290465  0.210991  0.998148  1
  O  O43  1  0.789009  0.709535  0.001852  1
