# generated using pymatgen
data_MoWSeS3
_symmetry_space_group_name_H-M   'P 1'
_cell_length_a   3.22027647
_cell_length_b   3.22024834
_cell_length_c   36.37122050
_cell_angle_alpha   89.99987602
_cell_angle_beta   90.00000000
_cell_angle_gamma   120.00028903
_symmetry_Int_Tables_number   1
_chemical_formula_structural   MoWSeS3
_chemical_formula_sum   'Mo2 W2 Se2 S6'
_cell_volume   326.64030010
_cell_formula_units_Z   2
loop_
 _symmetry_equiv_pos_site_id
 _symmetry_equiv_pos_as_xyz
  1  'x, y, z'
loop_
 _atom_site_type_symbol
 _atom_site_label
 _atom_site_symmetry_multiplicity
 _atom_site_fract_x
 _atom_site_fract_y
 _atom_site_fract_z
 _atom_site_occupancy
  Mo  Mo0  1  0.333307  0.666614  0.093910  1
  Mo  Mo1  1  0.666690  0.333379  0.281794  1
  W  W2  1  0.333311  0.666623  0.469651  1
  W  W3  1  0.666693  0.333386  0.657543  1
  Se  Se4  1  0.666642  0.333284  0.046864  1
  Se  Se5  1  0.666643  0.333285  0.140964  1
  S  S6  1  0.333355  0.666711  0.324584  1
  S  S7  1  0.333355  0.666711  0.700500  1
  S  S8  1  0.666646  0.333292  0.426723  1
  S  S9  1  0.666646  0.333291  0.512606  1
  S  S10  1  0.333355  0.666711  0.239019  1
  S  S11  1  0.333357  0.666714  0.614590  1
