# generated using pymatgen
data_Sm3Gd
_symmetry_space_group_name_H-M   'P 1'
_cell_length_a   7.27433447
_cell_length_b   7.27433439
_cell_length_c   5.88440356
_cell_angle_alpha   90.00000000
_cell_angle_beta   90.00000000
_cell_angle_gamma   120.00000031
_symmetry_Int_Tables_number   1
_chemical_formula_structural   Sm3Gd
_chemical_formula_sum   'Sm6 Gd2'
_cell_volume   269.66191038
_cell_formula_units_Z   2
loop_
 _symmetry_equiv_pos_site_id
 _symmetry_equiv_pos_as_xyz
  1  'x, y, z'
loop_
 _atom_site_type_symbol
 _atom_site_label
 _atom_site_symmetry_multiplicity
 _atom_site_fract_x
 _atom_site_fract_y
 _atom_site_fract_z
 _atom_site_occupancy
  Sm  Sm0  1  0.169266  0.338532  0.250002  1
  Sm  Sm1  1  0.661466  0.830733  0.250002  1
  Sm  Sm2  1  0.169267  0.830733  0.250002  1
  Sm  Sm3  1  0.830733  0.661468  0.750002  1
  Sm  Sm4  1  0.338533  0.169267  0.750002  1
  Sm  Sm5  1  0.830735  0.169267  0.750002  1
  Gd  Gd6  1  0.333334  0.666668  0.750002  1
  Gd  Gd7  1  0.666667  0.333333  0.250002  1
