# generated using pymatgen
data_Ho2Ge6Pd
_symmetry_space_group_name_H-M   'P 1'
_cell_length_a   4.02877934
_cell_length_b   4.09596617
_cell_length_c   11.19111393
_cell_angle_alpha   90.00000000
_cell_angle_beta   100.36970344
_cell_angle_gamma   90.00000000
_symmetry_Int_Tables_number   1
_chemical_formula_structural   Ho2Ge6Pd
_chemical_formula_sum   'Ho2 Ge6 Pd1'
_cell_volume   181.65659399
_cell_formula_units_Z   1
loop_
 _symmetry_equiv_pos_site_id
 _symmetry_equiv_pos_as_xyz
  1  'x, y, z'
loop_
 _atom_site_type_symbol
 _atom_site_label
 _atom_site_symmetry_multiplicity
 _atom_site_fract_x
 _atom_site_fract_y
 _atom_site_fract_z
 _atom_site_occupancy
  Ge  Ge0  1  0.212194  0.500000  0.424389  1
  Ge  Ge1  1  0.098181  0.500000  0.196362  1
  Ge  Ge2  1  0.889938  0.500000  0.779876  1
  Ge  Ge3  1  0.713665  0.000000  0.427330  1
  Ge  Ge4  1  0.599852  0.000000  0.199704  1
  Ge  Ge5  1  0.462325  0.500000  0.924651  1
  Pd  Pd6  1  0.779518  0.500000  0.559036  1
  Ho  Ho7  1  0.338201  0.000000  0.676401  1
  Ho  Ho8  1  0.998126  0.000000  0.996251  1
