# generated using pymatgen
data_Cr3N2
_symmetry_space_group_name_H-M   'P 1'
_cell_length_a   7.92175220
_cell_length_b   7.92175220
_cell_length_c   7.92175220
_cell_angle_alpha   109.47122093
_cell_angle_beta   109.47122049
_cell_angle_gamma   109.47122049
_symmetry_Int_Tables_number   1
_chemical_formula_structural   Cr3N2
_chemical_formula_sum   'Cr24 N16'
_cell_volume   382.68537839
_cell_formula_units_Z   8
loop_
 _symmetry_equiv_pos_site_id
 _symmetry_equiv_pos_as_xyz
  1  'x, y, z'
loop_
 _atom_site_type_symbol
 _atom_site_label
 _atom_site_symmetry_multiplicity
 _atom_site_fract_x
 _atom_site_fract_y
 _atom_site_fract_z
 _atom_site_occupancy
  Cr  Cr0  1  0.775966  0.723435  0.731230  1
  Cr  Cr1  1  0.507795  0.776565  0.052532  1
  Cr  Cr2  1  0.724034  0.955264  0.447468  1
  Cr  Cr3  1  0.992205  0.544736  0.768770  1
  Cr  Cr4  1  0.955264  0.947468  0.224034  1
  Cr  Cr5  1  0.544736  0.268770  0.492205  1
  Cr  Cr6  1  0.723435  0.231230  0.275966  1
  Cr  Cr7  1  0.776565  0.552532  0.007795  1
  Cr  Cr8  1  0.268770  0.992205  0.044736  1
  Cr  Cr9  1  0.947468  0.724034  0.455264  1
  Cr  Cr10  1  0.552532  0.507795  0.276565  1
  Cr  Cr11  1  0.231230  0.775966  0.223435  1
  Cr  Cr12  1  0.224034  0.276565  0.268770  1
  Cr  Cr13  1  0.492205  0.223435  0.947468  1
  Cr  Cr14  1  0.275966  0.044736  0.552532  1
  Cr  Cr15  1  0.007795  0.455264  0.231230  1
  Cr  Cr16  1  0.044736  0.052532  0.775966  1
  Cr  Cr17  1  0.455264  0.731230  0.507795  1
  Cr  Cr18  1  0.276565  0.768770  0.724034  1
  Cr  Cr19  1  0.223435  0.447468  0.992205  1
  Cr  Cr20  1  0.731230  0.007795  0.955264  1
  Cr  Cr21  1  0.052532  0.275966  0.544736  1
  Cr  Cr22  1  0.447468  0.492205  0.723435  1
  Cr  Cr23  1  0.768770  0.224034  0.776565  1
  N  N24  1  0.500000  0.500000  0.500000  1
  N  N25  1  0.500000  0.000000  -0.000000  1
  N  N26  1  0.000000  0.000000  0.500000  1
  N  N27  1  0.000000  0.500000  -0.000000  1
  N  N28  1  0.206303  0.750000  0.456303  1
  N  N29  1  0.293697  0.250000  0.043697  1
  N  N30  1  0.250000  0.543697  0.793697  1
  N  N31  1  0.750000  0.956303  0.706303  1
  N  N32  1  0.543697  0.293697  0.750000  1
  N  N33  1  0.956303  0.206303  0.250000  1
  N  N34  1  0.793697  0.250000  0.543697  1
  N  N35  1  0.706303  0.750000  0.956303  1
  N  N36  1  0.750000  0.456303  0.206303  1
  N  N37  1  0.250000  0.043697  0.293697  1
  N  N38  1  0.456303  0.706303  0.250000  1
  N  N39  1  0.043697  0.793697  0.750000  1
