# generated using pymatgen
data_Te2MoWSeS
_symmetry_space_group_name_H-M   'P 1'
_cell_length_a   3.39700676
_cell_length_b   3.39702067
_cell_length_c   38.71870370
_cell_angle_alpha   89.99917551
_cell_angle_beta   90.00000000
_cell_angle_gamma   119.99986457
_symmetry_Int_Tables_number   1
_chemical_formula_structural   Te2MoWSeS
_chemical_formula_sum   'Te4 Mo2 W2 Se2 S2'
_cell_volume   386.94267823
_cell_formula_units_Z   2
loop_
 _symmetry_equiv_pos_site_id
 _symmetry_equiv_pos_as_xyz
  1  'x, y, z'
loop_
 _atom_site_type_symbol
 _atom_site_label
 _atom_site_symmetry_multiplicity
 _atom_site_fract_x
 _atom_site_fract_y
 _atom_site_fract_z
 _atom_site_occupancy
  Te  Te0  1  0.666646  0.333291  0.045578  1
  Te  Te1  1  0.666649  0.333296  0.421005  1
  Te  Te2  1  0.666636  0.333270  0.142272  1
  Te  Te3  1  0.666641  0.333282  0.518353  1
  Mo  Mo4  1  0.333311  0.666621  0.093906  1
  Mo  Mo5  1  0.666687  0.333373  0.281772  1
  W  W6  1  0.333311  0.666622  0.469646  1
  W  W7  1  0.666691  0.333381  0.657531  1
  Se  Se8  1  0.333351  0.666704  0.324384  1
  Se  Se9  1  0.333358  0.666717  0.239228  1
  S  S10  1  0.333363  0.666726  0.696452  1
  S  S11  1  0.333358  0.666716  0.618620  1
