# generated using pymatgen
data_Sb9S4F39
_symmetry_space_group_name_H-M   'P 1'
_cell_length_a   13.49557515
_cell_length_b   15.89880585
_cell_length_c   17.32283422
_cell_angle_alpha   91.30727923
_cell_angle_beta   90.00000000
_cell_angle_gamma   90.00000000
_symmetry_Int_Tables_number   1
_chemical_formula_structural   Sb9S4F39
_chemical_formula_sum   'Sb36 S16 F156'
_cell_volume   3715.88102046
_cell_formula_units_Z   4
loop_
 _symmetry_equiv_pos_site_id
 _symmetry_equiv_pos_as_xyz
  1  'x, y, z'
loop_
 _atom_site_type_symbol
 _atom_site_label
 _atom_site_symmetry_multiplicity
 _atom_site_fract_x
 _atom_site_fract_y
 _atom_site_fract_z
 _atom_site_occupancy
  F  F0  1  0.479385  0.932800  0.968824  1
  F  F1  1  0.979385  0.067200  0.531176  1
  F  F2  1  0.520615  0.067200  0.031176  1
  F  F3  1  0.020615  0.932800  0.468824  1
  F  F4  1  0.676938  0.991908  0.952825  1
  F  F5  1  0.176938  0.008092  0.547175  1
  F  F6  1  0.323062  0.008092  0.047175  1
  F  F7  1  0.823062  0.991908  0.452825  1
  F  F8  1  0.519155  0.565587  0.968263  1
  F  F9  1  0.019155  0.434413  0.531737  1
  F  F10  1  0.480845  0.434413  0.031737  1
  F  F11  1  0.980845  0.565587  0.468263  1
  F  F12  1  0.317337  0.505743  0.966374  1
  F  F13  1  0.817337  0.494257  0.533626  1
  F  F14  1  0.682663  0.494257  0.033626  1
  F  F15  1  0.182663  0.505743  0.466374  1
  F  F16  1  0.568369  0.911892  0.834528  1
  F  F17  1  0.068369  0.088108  0.665472  1
  F  F18  1  0.431631  0.088108  0.165472  1
  F  F19  1  0.931631  0.911892  0.334528  1
  F  F20  1  0.552615  0.830918  0.693587  1
  F  F21  1  0.052615  0.169082  0.806413  1
  F  F22  1  0.447385  0.169082  0.306413  1
  F  F23  1  0.947385  0.830918  0.193587  1
  F  F24  1  0.490758  0.749285  0.823552  1
  F  F25  1  0.990758  0.250715  0.676448  1
  F  F26  1  0.509242  0.250715  0.176448  1
  F  F27  1  0.009242  0.749285  0.323552  1
  F  F28  1  0.407067  0.588438  0.845743  1
  F  F29  1  0.907067  0.411562  0.654257  1
  F  F30  1  0.592933  0.411562  0.154257  1
  F  F31  1  0.092933  0.588438  0.345743  1
  F  F32  1  0.420754  0.651109  0.700197  1
  F  F33  1  0.920754  0.348891  0.799803  1
  F  F34  1  0.579246  0.348891  0.299803  1
  F  F35  1  0.079246  0.651109  0.200197  1
  F  F36  1  0.237213  0.582479  0.758035  1
  F  F37  1  0.737213  0.417521  0.741965  1
  F  F38  1  0.762787  0.417521  0.241965  1
  F  F39  1  0.262787  0.582479  0.258035  1
  F  F40  1  0.134723  0.353386  0.749751  1
  F  F41  1  0.634723  0.646614  0.750249  1
  F  F42  1  0.865277  0.646614  0.250249  1
  F  F43  1  0.365277  0.353386  0.249751  1
  F  F44  1  0.302864  0.430897  0.807724  1
  F  F45  1  0.802864  0.569103  0.692276  1
  F  F46  1  0.697136  0.569103  0.192276  1
  F  F47  1  0.197136  0.430897  0.307724  1
  F  F48  1  0.072307  0.508125  0.701526  1
  F  F49  1  0.572307  0.491875  0.798474  1
  F  F50  1  0.927693  0.491875  0.298474  1
  F  F51  1  0.427693  0.508125  0.201526  1
  F  F52  1  0.252361  0.448516  0.658236  1
  F  F53  1  0.752361  0.551484  0.841764  1
  F  F54  1  0.747639  0.551484  0.341764  1
  F  F55  1  0.247639  0.448516  0.158236  1
  F  F56  1  0.122632  0.486841  0.850771  1
  F  F57  1  0.622632  0.513159  0.649229  1
  F  F58  1  0.877368  0.513159  0.149229  1
  F  F59  1  0.377368  0.486841  0.350771  1
  F  F60  1  0.739145  0.916073  0.749563  1
  F  F61  1  0.239145  0.083927  0.750437  1
  F  F62  1  0.260855  0.083927  0.250437  1
  F  F63  1  0.760855  0.916073  0.249563  1
  F  F64  1  0.824340  0.144718  0.717394  1
  F  F65  1  0.324340  0.855282  0.782606  1
  F  F66  1  0.175660  0.855282  0.282606  1
  F  F67  1  0.675660  0.144718  0.217394  1
  F  F68  1  0.865614  0.025231  0.822219  1
  F  F69  1  0.365614  0.974769  0.677781  1
  F  F70  1  0.134386  0.974769  0.177781  1
  F  F71  1  0.634386  0.025231  0.322219  1
  F  F72  1  0.692402  0.036082  0.647413  1
  F  F73  1  0.192402  0.963918  0.852587  1
  F  F74  1  0.307598  0.963918  0.352587  1
  F  F75  1  0.807598  0.036082  0.147413  1
  F  F76  1  0.676320  0.069300  0.801660  1
  F  F77  1  0.176320  0.930700  0.698340  1
  F  F78  1  0.323680  0.930700  0.198340  1
  F  F79  1  0.823680  0.069300  0.301660  1
  F  F80  1  0.884685  0.990195  0.668547  1
  F  F81  1  0.384685  0.009805  0.831453  1
  F  F82  1  0.115315  0.009805  0.331453  1
  F  F83  1  0.615315  0.990195  0.168547  1
  F  F84  1  0.692238  0.278024  0.051385  1
  F  F85  1  0.192238  0.721976  0.448615  1
  F  F86  1  0.307762  0.721976  0.948615  1
  F  F87  1  0.807762  0.278024  0.551385  1
  F  F88  1  0.741283  0.259589  0.832749  1
  F  F89  1  0.241283  0.740411  0.667251  1
  F  F90  1  0.258717  0.740411  0.167251  1
  F  F91  1  0.758717  0.259589  0.332749  1
  F  F92  1  0.808339  0.363177  0.949980  1
  F  F93  1  0.308339  0.636823  0.550020  1
  F  F94  1  0.191661  0.636823  0.050020  1
  F  F95  1  0.691661  0.363177  0.449980  1
  F  F96  1  0.625726  0.174755  0.935243  1
  F  F97  1  0.125726  0.825245  0.564757  1
  F  F98  1  0.374274  0.825245  0.064757  1
  F  F99  1  0.874274  0.174755  0.435243  1
  F  F100  1  0.823631  0.192813  0.959515  1
  F  F101  1  0.323631  0.807187  0.540485  1
  F  F102  1  0.176369  0.807187  0.040485  1
  F  F103  1  0.676369  0.192813  0.459515  1
  F  F104  1  0.610583  0.344293  0.922776  1
  F  F105  1  0.110583  0.655707  0.577224  1
  F  F106  1  0.389417  0.655707  0.077224  1
  F  F107  1  0.889417  0.344293  0.422776  1
  F  F108  1  0.174007  0.307970  0.980496  1
  F  F109  1  0.674007  0.692030  0.519504  1
  F  F110  1  0.825993  0.692030  0.019504  1
  F  F111  1  0.325993  0.307970  0.480496  1
  F  F112  1  0.385594  0.159634  0.926034  1
  F  F113  1  0.885594  0.840366  0.573966  1
  F  F114  1  0.614406  0.840366  0.073966  1
  F  F115  1  0.114406  0.159634  0.426034  1
  F  F116  1  0.367380  0.328540  0.942762  1
  F  F117  1  0.867380  0.671460  0.557238  1
  F  F118  1  0.632620  0.671460  0.057238  1
  F  F119  1  0.132620  0.328540  0.442762  1
  F  F120  1  0.189757  0.137193  0.962177  1
  F  F121  1  0.689757  0.862807  0.537823  1
  F  F122  1  0.810243  0.862807  0.037823  1
  F  F123  1  0.310243  0.137193  0.462177  1
  F  F124  1  0.243505  0.240008  0.846318  1
  F  F125  1  0.743505  0.759992  0.653682  1
  F  F126  1  0.756495  0.759992  0.153682  1
  F  F127  1  0.256495  0.240008  0.346318  1
  F  F128  1  0.316608  0.224970  0.059742  1
  F  F129  1  0.816608  0.775030  0.440258  1
  F  F130  1  0.683392  0.775030  0.940258  1
  F  F131  1  0.183392  0.224970  0.559742  1
  F  F132  1  0.986478  0.817897  0.910336  1
  F  F133  1  0.486478  0.182103  0.589664  1
  F  F134  1  0.013522  0.182103  0.089664  1
  F  F135  1  0.513522  0.817897  0.410336  1
  F  F136  1  0.975010  0.687559  0.721813  1
  F  F137  1  0.475010  0.312441  0.778187  1
  F  F138  1  0.024990  0.312441  0.278187  1
  F  F139  1  0.524990  0.687559  0.221813  1
  F  F140  1  0.120451  0.732766  0.823792  1
  F  F141  1  0.620451  0.267234  0.676208  1
  F  F142  1  0.879549  0.267234  0.176208  1
  F  F143  1  0.379549  0.732766  0.323792  1
  F  F144  1  0.840130  0.770816  0.812846  1
  F  F145  1  0.340130  0.229184  0.687154  1
  F  F146  1  0.159870  0.229184  0.187154  1
  F  F147  1  0.659870  0.770816  0.312846  1
  F  F148  1  0.956508  0.652758  0.873593  1
  F  F149  1  0.456508  0.347242  0.626407  1
  F  F150  1  0.043492  0.347242  0.126407  1
  F  F151  1  0.543492  0.652758  0.373593  1
  F  F152  1  0.002083  0.854760  0.757946  1
  F  F153  1  0.502084  0.145240  0.742054  1
  F  F154  1  0.997916  0.145240  0.242054  1
  F  F155  1  0.497916  0.854760  0.257946  1
  S  S156  1  0.597225  0.981316  0.471143  1
  S  S157  1  0.097225  0.018684  0.028857  1
  S  S158  1  0.402775  0.018684  0.528857  1
  S  S159  1  0.902775  0.981316  0.971143  1
  S  S160  1  0.514300  0.940416  0.559688  1
  S  S161  1  0.014300  0.059584  0.940312  1
  S  S162  1  0.485700  0.059584  0.440312  1
  S  S163  1  0.985700  0.940416  0.059688  1
  S  S164  1  0.580501  0.509922  0.446947  1
  S  S165  1  0.080501  0.490078  0.053053  1
  S  S166  1  0.419499  0.490078  0.553053  1
  S  S167  1  0.919499  0.509922  0.946947  1
  S  S168  1  0.468211  0.583794  0.484956  1
  S  S169  1  0.968211  0.416206  0.015044  1
  S  S170  1  0.531789  0.416206  0.515044  1
  S  S171  1  0.031789  0.583794  0.984956  1
  Sb  Sb172  1  0.552828  0.031322  0.911672  1
  Sb  Sb173  1  0.052828  0.968678  0.588328  1
  Sb  Sb174  1  0.447172  0.968678  0.088328  1
  Sb  Sb175  1  0.947172  0.031322  0.411672  1
  Sb  Sb176  1  0.435645  0.465872  0.916032  1
  Sb  Sb177  1  0.935645  0.534128  0.583968  1
  Sb  Sb178  1  0.564355  0.534128  0.083968  1
  Sb  Sb179  1  0.064355  0.465872  0.416032  1
  Sb  Sb180  1  0.625138  0.804336  0.785855  1
  Sb  Sb181  1  0.125138  0.195664  0.714145  1
  Sb  Sb182  1  0.374862  0.195664  0.214145  1
  Sb  Sb183  1  0.874862  0.804336  0.285855  1
  Sb  Sb184  1  0.351390  0.688506  0.791659  1
  Sb  Sb185  1  0.851390  0.311494  0.708341  1
  Sb  Sb186  1  0.648610  0.311494  0.208341  1
  Sb  Sb187  1  0.148610  0.688506  0.291659  1
  Sb  Sb188  1  0.186019  0.466637  0.753875  1
  Sb  Sb189  1  0.686019  0.533363  0.746125  1
  Sb  Sb190  1  0.813981  0.533363  0.246125  1
  Sb  Sb191  1  0.313981  0.466637  0.253875  1
  Sb  Sb192  1  0.780223  0.031862  0.733165  1
  Sb  Sb193  1  0.280223  0.968138  0.766835  1
  Sb  Sb194  1  0.219777  0.968138  0.266835  1
  Sb  Sb195  1  0.719777  0.031862  0.233165  1
  Sb  Sb196  1  0.717285  0.269146  0.942150  1
  Sb  Sb197  1  0.217285  0.730854  0.557850  1
  Sb  Sb198  1  0.282715  0.730854  0.057850  1
  Sb  Sb199  1  0.782715  0.269146  0.442150  1
  Sb  Sb200  1  0.278593  0.232684  0.953120  1
  Sb  Sb201  1  0.778593  0.767316  0.546880  1
  Sb  Sb202  1  0.721407  0.767316  0.046880  1
  Sb  Sb203  1  0.221408  0.232684  0.453120  1
  Sb  Sb204  1  0.981196  0.754653  0.814319  1
  Sb  Sb205  1  0.481196  0.245347  0.685681  1
  Sb  Sb206  1  0.018804  0.245347  0.185681  1
  Sb  Sb207  1  0.518804  0.754653  0.314319  1
