# generated using pymatgen
data_Na3TiP8O23
_symmetry_space_group_name_H-M   'P 1'
_cell_length_a   12.19252600
_cell_length_b   12.19252600
_cell_length_c   12.19252600
_cell_angle_alpha   90.00000000
_cell_angle_beta   90.00000000
_cell_angle_gamma   90.00000000
_symmetry_Int_Tables_number   1
_chemical_formula_structural   Na3TiP8O23
_chemical_formula_sum   'Na12 Ti4 P32 O92'
_cell_volume   1812.51275360
_cell_formula_units_Z   4
loop_
 _symmetry_equiv_pos_site_id
 _symmetry_equiv_pos_as_xyz
  1  'x, y, z'
loop_
 _atom_site_type_symbol
 _atom_site_label
 _atom_site_symmetry_multiplicity
 _atom_site_fract_x
 _atom_site_fract_y
 _atom_site_fract_z
 _atom_site_occupancy
  O  O0  1  0.662557  0.662557  0.662557  1
  O  O1  1  0.912557  0.587443  0.412557  1
  O  O2  1  0.587443  0.412557  0.912557  1
  O  O3  1  0.412557  0.912557  0.587443  1
  O  O4  1  0.162557  0.837443  0.337443  1
  O  O5  1  0.837443  0.337443  0.162557  1
  O  O6  1  0.337443  0.162557  0.837443  1
  O  O7  1  0.087443  0.087443  0.087443  1
  O  O8  1  0.436600  0.511331  0.683282  1
  O  O9  1  0.936600  0.988669  0.316718  1
  O  O10  1  0.511331  0.683282  0.436600  1
  O  O11  1  0.488669  0.183282  0.063400  1
  O  O12  1  0.683282  0.436600  0.511331  1
  O  O13  1  0.816718  0.563400  0.011331  1
  O  O14  1  0.186600  0.933282  0.738669  1
  O  O15  1  0.686600  0.566718  0.261331  1
  O  O16  1  0.813400  0.433282  0.761331  1
  O  O17  1  0.566718  0.261331  0.686600  1
  O  O18  1  0.761331  0.813400  0.433282  1
  O  O19  1  0.261331  0.686600  0.566718  1
  O  O20  1  0.933282  0.738669  0.186600  1
  O  O21  1  0.738669  0.186600  0.933282  1
  O  O22  1  0.433282  0.761331  0.813400  1
  O  O23  1  0.066718  0.238669  0.313400  1
  O  O24  1  0.238669  0.313400  0.066718  1
  O  O25  1  0.316718  0.936600  0.988669  1
  O  O26  1  0.183282  0.063400  0.488669  1
  O  O27  1  0.011331  0.816718  0.563400  1
  O  O28  1  0.988669  0.316718  0.936600  1
  O  O29  1  0.063400  0.488669  0.183282  1
  O  O30  1  0.563400  0.011331  0.816718  1
  O  O31  1  0.313400  0.066718  0.238669  1
  O  O32  1  0.625000  0.234322  0.484322  1
  O  O33  1  0.765678  0.984322  0.875000  1
  O  O34  1  0.741139  0.324581  0.345969  1
  O  O35  1  0.484322  0.625000  0.234322  1
  O  O36  1  0.234322  0.484322  0.625000  1
  O  O37  1  0.515678  0.125000  0.265678  1
  O  O38  1  0.984322  0.875000  0.765678  1
  O  O39  1  0.734322  0.015678  0.375000  1
  O  O40  1  0.265678  0.515678  0.125000  1
  O  O41  1  0.875000  0.765678  0.984322  1
  O  O42  1  0.375000  0.734322  0.015678  1
  O  O43  1  0.125000  0.265678  0.515678  1
  O  O44  1  0.324581  0.345969  0.741139  1
  O  O45  1  0.824581  0.154031  0.258861  1
  O  O46  1  0.345969  0.741139  0.324581  1
  O  O47  1  0.654031  0.241139  0.175419  1
  O  O48  1  0.041606  0.120378  0.635191  1
  O  O49  1  0.291606  0.614809  0.870378  1
  O  O50  1  0.791606  0.885191  0.129622  1
  O  O51  1  0.385191  0.370378  0.208394  1
  O  O52  1  0.614809  0.870378  0.291606  1
  O  O53  1  0.129622  0.791606  0.885191  1
  O  O54  1  0.370378  0.208394  0.385191  1
  O  O55  1  0.635191  0.041606  0.120378  1
  O  O56  1  0.120378  0.635191  0.041606  1
  O  O57  1  0.379622  0.364809  0.541606  1
  O  O58  1  0.135191  0.458394  0.879622  1
  O  O59  1  0.879622  0.135191  0.458394  1
  O  O60  1  0.864809  0.958394  0.620378  1
  O  O61  1  0.364809  0.541606  0.379622  1
  O  O62  1  0.620378  0.864809  0.958394  1
  O  O63  1  0.541606  0.379622  0.364809  1
  O  O64  1  0.958394  0.620378  0.864809  1
  O  O65  1  0.458394  0.879622  0.135191  1
  O  O66  1  0.870378  0.291606  0.614809  1
  O  O67  1  0.629622  0.708394  0.114809  1
  O  O68  1  0.885191  0.129622  0.791606  1
  O  O69  1  0.114809  0.629622  0.708394  1
  O  O70  1  0.208394  0.385191  0.370378  1
  O  O71  1  0.708394  0.114809  0.629622  1
  O  O72  1  0.425419  0.008861  0.404031  1
  O  O73  1  0.675419  0.845969  0.758861  1
  O  O74  1  0.175419  0.654031  0.241139  1
  O  O75  1  0.154031  0.258861  0.824581  1
  O  O76  1  0.845969  0.758861  0.675419  1
  O  O77  1  0.241139  0.175419  0.654031  1
  O  O78  1  0.258861  0.824581  0.154031  1
  O  O79  1  0.404031  0.425419  0.008861  1
  O  O80  1  0.008861  0.404031  0.425419  1
  O  O81  1  0.491139  0.595969  0.925419  1
  O  O82  1  0.904031  0.074581  0.991139  1
  O  O83  1  0.991139  0.904031  0.074581  1
  O  O84  1  0.095969  0.574581  0.508861  1
  O  O85  1  0.595969  0.925419  0.491139  1
  O  O86  1  0.508861  0.095969  0.574581  1
  O  O87  1  0.925419  0.491139  0.595969  1
  O  O88  1  0.574581  0.508861  0.095969  1
  O  O89  1  0.074581  0.991139  0.904031  1
  O  O90  1  0.758861  0.675419  0.845969  1
  O  O91  1  0.015678  0.375000  0.734322  1
  Na  Na92  1  0.375000  0.955667  0.794333  1
  Na  Na93  1  0.875000  0.544333  0.205667  1
  Na  Na94  1  0.044333  0.294333  0.125000  1
  Na  Na95  1  0.955667  0.794333  0.375000  1
  Na  Na96  1  0.205667  0.875000  0.544333  1
  Na  Na97  1  0.294333  0.125000  0.044333  1
  Na  Na98  1  0.455667  0.705667  0.625000  1
  Na  Na99  1  0.794333  0.375000  0.955667  1
  Na  Na100  1  0.705667  0.625000  0.455667  1
  Na  Na101  1  0.544333  0.205667  0.875000  1
  Na  Na102  1  0.625000  0.455667  0.705667  1
  Na  Na103  1  0.125000  0.044333  0.294333  1
  P  P104  1  0.068316  0.358039  0.854073  1
  P  P105  1  0.895927  0.391961  0.681684  1
  P  P106  1  0.358039  0.854073  0.068316  1
  P  P107  1  0.858039  0.645927  0.931684  1
  P  P108  1  0.641961  0.354073  0.431684  1
  P  P109  1  0.645927  0.931684  0.858039  1
  P  P110  1  0.431684  0.641961  0.354073  1
  P  P111  1  0.931684  0.858039  0.645927  1
  P  P112  1  0.854073  0.068316  0.358039  1
  P  P113  1  0.604073  0.608039  0.181684  1
  P  P114  1  0.354073  0.431684  0.641961  1
  P  P115  1  0.145927  0.568316  0.141961  1
  P  P116  1  0.818316  0.104073  0.891961  1
  P  P117  1  0.395927  0.108039  0.318316  1
  P  P118  1  0.104073  0.891961  0.818316  1
  P  P119  1  0.681684  0.895927  0.391961  1
  P  P120  1  0.318316  0.395927  0.108039  1
  P  P121  1  0.891961  0.818316  0.104073  1
  P  P122  1  0.391961  0.681684  0.895927  1
  P  P123  1  0.141961  0.145927  0.568316  1
  P  P124  1  0.181684  0.604073  0.608039  1
  P  P125  1  0.108039  0.318316  0.395927  1
  P  P126  1  0.608039  0.181684  0.604073  1
  P  P127  1  0.017214  0.017214  0.017214  1
  P  P128  1  0.267214  0.232786  0.767214  1
  P  P129  1  0.767214  0.267214  0.232786  1
  P  P130  1  0.232786  0.767214  0.267214  1
  P  P131  1  0.482786  0.982786  0.517214  1
  P  P132  1  0.517214  0.482786  0.982786  1
  P  P133  1  0.982786  0.517214  0.482786  1
  P  P134  1  0.732786  0.732786  0.732786  1
  P  P135  1  0.568316  0.141961  0.145927  1
  Ti  Ti136  1  0.875000  0.125000  0.625000  1
  Ti  Ti137  1  0.125000  0.625000  0.875000  1
  Ti  Ti138  1  0.625000  0.875000  0.125000  1
  Ti  Ti139  1  0.375000  0.375000  0.375000  1
