# generated using pymatgen
data_K3HoSi2O7
_symmetry_space_group_name_H-M   'P 1'
_cell_length_a   9.93255437
_cell_length_b   9.93255437
_cell_length_c   14.46513185
_cell_angle_alpha   90.00000000
_cell_angle_beta   90.00000000
_cell_angle_gamma   119.99999997
_symmetry_Int_Tables_number   1
_chemical_formula_structural   K3HoSi2O7
_chemical_formula_sum   'K18 Ho6 Si12 O42'
_cell_volume   1235.87609061
_cell_formula_units_Z   6
loop_
 _symmetry_equiv_pos_site_id
 _symmetry_equiv_pos_as_xyz
  1  'x, y, z'
loop_
 _atom_site_type_symbol
 _atom_site_label
 _atom_site_symmetry_multiplicity
 _atom_site_fract_x
 _atom_site_fract_y
 _atom_site_fract_z
 _atom_site_occupancy
  O  O0  1  0.408639  0.000000  0.750000  1
  O  O1  1  0.408639  0.408639  0.250000  1
  O  O2  1  0.000000  0.591361  0.250000  1
  O  O3  1  0.000000  0.408639  0.750000  1
  O  O4  1  0.591361  0.591361  0.750000  1
  O  O5  1  0.591361  0.000000  0.250000  1
  O  O6  1  0.823026  0.823026  0.851720  1
  O  O7  1  0.176974  0.000000  0.851720  1
  O  O8  1  0.000000  0.176974  0.851720  1
  O  O9  1  0.000000  0.823026  0.351720  1
  O  O10  1  0.176974  0.000000  0.648280  1
  O  O11  1  0.176974  0.176974  0.351720  1
  O  O12  1  0.823026  0.000000  0.351720  1
  O  O13  1  0.176974  0.176974  0.148280  1
  O  O14  1  0.000000  0.823026  0.148280  1
  O  O15  1  0.000000  0.176974  0.648280  1
  O  O16  1  0.823026  0.823026  0.648280  1
  O  O17  1  0.823026  0.000000  0.148280  1
  O  O18  1  0.321939  0.844193  0.908639  1
  O  O19  1  0.155807  0.477746  0.908639  1
  O  O20  1  0.522254  0.678061  0.908639  1
  O  O21  1  0.477746  0.321939  0.408639  1
  O  O22  1  0.678061  0.522254  0.591361  1
  O  O23  1  0.678061  0.155807  0.408639  1
  O  O24  1  0.844193  0.522254  0.408639  1
  O  O25  1  0.155807  0.678061  0.091361  1
  O  O26  1  0.522254  0.844193  0.091361  1
  O  O27  1  0.477746  0.155807  0.591361  1
  O  O28  1  0.844193  0.321939  0.591361  1
  O  O29  1  0.321939  0.477746  0.091361  1
  O  O30  1  0.678061  0.155807  0.091361  1
  O  O31  1  0.844193  0.522254  0.091361  1
  O  O32  1  0.477746  0.321939  0.091361  1
  O  O33  1  0.522254  0.678061  0.591361  1
  O  O34  1  0.321939  0.477746  0.408639  1
  O  O35  1  0.321939  0.844193  0.591361  1
  O  O36  1  0.678061  0.522254  0.908639  1
  O  O37  1  0.155807  0.678061  0.408639  1
  O  O38  1  0.522254  0.844193  0.408639  1
  O  O39  1  0.477746  0.155807  0.908639  1
  O  O40  1  0.844193  0.321939  0.908639  1
  O  O41  1  0.155807  0.477746  0.591361  1
  Si  Si42  1  0.658248  0.658248  0.857334  1
  Si  Si43  1  0.341752  0.000000  0.857334  1
  Si  Si44  1  0.000000  0.341752  0.857334  1
  Si  Si45  1  0.000000  0.658248  0.357334  1
  Si  Si46  1  0.341752  0.000000  0.642666  1
  Si  Si47  1  0.341752  0.341752  0.357334  1
  Si  Si48  1  0.658248  0.000000  0.357334  1
  Si  Si49  1  0.341752  0.341752  0.142666  1
  Si  Si50  1  0.000000  0.658248  0.142666  1
  Si  Si51  1  0.000000  0.341752  0.642666  1
  Si  Si52  1  0.658248  0.658248  0.642666  1
  Si  Si53  1  0.658248  0.000000  0.142666  1
  K  K54  1  0.000000  0.000000  0.500000  1
  K  K55  1  0.331878  0.000000  0.091834  1
  K  K56  1  0.331878  0.331878  0.591834  1
  K  K57  1  0.000000  0.668122  0.591834  1
  K  K58  1  0.000000  0.331878  0.091834  1
  K  K59  1  0.668122  0.668122  0.091834  1
  K  K60  1  0.331878  0.000000  0.408166  1
  K  K61  1  0.000000  0.000000  0.000000  1
  K  K62  1  0.333333  0.666667  0.750000  1
  K  K63  1  0.666667  0.333333  0.250000  1
  K  K64  1  0.666667  0.333333  0.750000  1
  K  K65  1  0.333333  0.666667  0.250000  1
  K  K66  1  0.668122  0.668122  0.408166  1
  K  K67  1  0.668122  0.000000  0.908166  1
  K  K68  1  0.000000  0.668122  0.908166  1
  K  K69  1  0.000000  0.331878  0.408166  1
  K  K70  1  0.668122  0.000000  0.591834  1
  K  K71  1  0.331878  0.331878  0.908166  1
  Ho  Ho72  1  0.000000  0.000000  0.750000  1
  Ho  Ho73  1  0.333333  0.666667  0.000000  1
  Ho  Ho74  1  0.666667  0.333333  0.500000  1
  Ho  Ho75  1  0.666667  0.333333  0.000000  1
  Ho  Ho76  1  0.333333  0.666667  0.500000  1
  Ho  Ho77  1  0.000000  0.000000  0.250000  1
