# generated using pymatgen
data_CaAl2SiO6
_symmetry_space_group_name_H-M   'P 1'
_cell_length_a   9.75624258
_cell_length_b   8.74307535
_cell_length_c   5.33382743
_cell_angle_alpha   90.67889843
_cell_angle_beta   106.43392980
_cell_angle_gamma   90.02101084
_symmetry_Int_Tables_number   1
_chemical_formula_structural   CaAl2SiO6
_chemical_formula_sum   'Ca4 Al8 Si4 O24'
_cell_volume   436.35204328
_cell_formula_units_Z   4
loop_
 _symmetry_equiv_pos_site_id
 _symmetry_equiv_pos_as_xyz
  1  'x, y, z'
loop_
 _atom_site_type_symbol
 _atom_site_label
 _atom_site_symmetry_multiplicity
 _atom_site_fract_x
 _atom_site_fract_y
 _atom_site_fract_z
 _atom_site_occupancy
  Ca  Ca0  1  0.004315  0.310914  0.242726  1
  Ca  Ca1  1  0.488940  0.811930  0.240658  1
  Ca  Ca2  1  0.003876  0.688669  0.751813  1
  Ca  Ca3  1  0.484524  0.187911  0.747454  1
  Al  Al4  1  0.289088  0.094872  0.209710  1
  Al  Al5  1  0.214873  0.596391  0.291697  1
  Al  Al6  1  0.288392  0.899912  0.704826  1
  Al  Al7  1  0.786689  0.402612  0.711370  1
  Al  Al8  1  0.002170  0.909354  0.249021  1
  Al  Al9  1  0.492842  0.408570  0.269797  1
  Al  Al10  1  0.004886  0.091721  0.754948  1
  Al  Al11  1  0.501506  0.592405  0.749702  1
  Si  Si12  1  0.789518  0.597688  0.213682  1
  Si  Si13  1  0.714171  0.098399  0.282663  1
  Si  Si14  1  0.713623  0.906685  0.778995  1
  Si  Si15  1  0.211426  0.402256  0.789551  1
  O  O16  1  0.098321  0.077018  0.118271  1
  O  O17  1  0.364114  0.272280  0.328536  1
  O  O18  1  0.364212  0.022580  0.973044  1
  O  O19  1  0.611933  0.580971  0.121233  1
  O  O20  1  0.856700  0.767593  0.305234  1
  O  O21  1  0.856993  0.525950  0.988743  1
  O  O22  1  0.889469  0.086919  0.369185  1
  O  O23  1  0.633302  0.260108  0.209692  1
  O  O24  1  0.655185  0.012523  0.509000  1
  O  O25  1  0.403001  0.585334  0.379368  1
  O  O26  1  0.123075  0.764269  0.185838  1
  O  O27  1  0.148148  0.510141  0.531115  1
  O  O28  1  0.888198  0.913035  0.871936  1
  O  O29  1  0.634283  0.744658  0.696714  1
  O  O30  1  0.654019  0.993077  0.007395  1
  O  O31  1  0.389430  0.412971  0.890310  1
  O  O32  1  0.139908  0.234650  0.694395  1
  O  O33  1  0.143294  0.474995  0.011911  1
  O  O34  1  0.095984  0.922993  0.616227  1
  O  O35  1  0.368111  0.723653  0.816504  1
  O  O36  1  0.364786  0.972578  0.472261  1
  O  O37  1  0.599272  0.421967  0.632238  1
  O  O38  1  0.873769  0.231165  0.811619  1
  O  O39  1  0.853656  0.488284  0.470615  1
