# generated using pymatgen
data_Na2TiZn2GeO7
_symmetry_space_group_name_H-M   'P 1'
_cell_length_a   5.29738183
_cell_length_b   11.98916315
_cell_length_c   20.70852269
_cell_angle_alpha   90.00000000
_cell_angle_beta   90.00000000
_cell_angle_gamma   90.00000000
_symmetry_Int_Tables_number   1
_chemical_formula_structural   Na2TiZn2GeO7
_chemical_formula_sum   'Na16 Ti8 Zn16 Ge8 O56'
_cell_volume   1315.22260913
_cell_formula_units_Z   8
loop_
 _symmetry_equiv_pos_site_id
 _symmetry_equiv_pos_as_xyz
  1  'x, y, z'
loop_
 _atom_site_type_symbol
 _atom_site_label
 _atom_site_symmetry_multiplicity
 _atom_site_fract_x
 _atom_site_fract_y
 _atom_site_fract_z
 _atom_site_occupancy
  O  O0  1  0.695064  0.348096  0.655746  1
  O  O1  1  0.195064  0.651904  0.844254  1
  O  O2  1  0.804936  0.848096  0.344254  1
  O  O3  1  0.304936  0.151904  0.155746  1
  O  O4  1  0.304936  0.651904  0.344254  1
  O  O5  1  0.804936  0.348096  0.155746  1
  O  O6  1  0.195064  0.151904  0.655746  1
  O  O7  1  0.695064  0.848096  0.844254  1
  O  O8  1  0.651996  0.067735  0.902081  1
  O  O9  1  0.151996  0.932265  0.597919  1
  O  O10  1  0.848004  0.567735  0.097919  1
  O  O11  1  0.348004  0.432265  0.402081  1
  O  O12  1  0.348004  0.932265  0.097919  1
  O  O13  1  0.848004  0.067735  0.402081  1
  O  O14  1  0.151996  0.432265  0.902081  1
  O  O15  1  0.651996  0.567735  0.597919  1
  O  O16  1  0.674176  0.362786  0.517378  1
  O  O17  1  0.174176  0.637214  0.982622  1
  O  O18  1  0.825824  0.862786  0.482622  1
  O  O19  1  0.325824  0.137214  0.017378  1
  O  O20  1  0.325824  0.637214  0.482622  1
  O  O21  1  0.825824  0.362786  0.017378  1
  O  O22  1  0.174176  0.137214  0.517378  1
  O  O23  1  0.674176  0.862786  0.982622  1
  O  O24  1  0.951894  0.305178  0.785692  1
  O  O25  1  0.588170  0.297722  0.886827  1
  O  O26  1  0.451894  0.694822  0.714308  1
  O  O27  1  0.048106  0.194822  0.285692  1
  O  O28  1  0.048106  0.694822  0.214308  1
  O  O29  1  0.548106  0.305178  0.285692  1
  O  O30  1  0.451894  0.194822  0.785692  1
  O  O31  1  0.951894  0.805178  0.714308  1
  O  O32  1  0.617329  0.062553  0.584225  1
  O  O33  1  0.117330  0.937447  0.915775  1
  O  O34  1  0.882671  0.562553  0.415775  1
  O  O35  1  0.382671  0.437447  0.084225  1
  O  O36  1  0.382671  0.937447  0.415775  1
  O  O37  1  0.882671  0.062553  0.084225  1
  O  O38  1  0.117330  0.437447  0.584225  1
  O  O39  1  0.617329  0.562553  0.915775  1
  O  O40  1  0.895733  0.069080  0.775900  1
  O  O41  1  0.395733  0.930920  0.724100  1
  O  O42  1  0.604267  0.569080  0.224100  1
  O  O43  1  0.104267  0.430920  0.275900  1
  O  O44  1  0.104267  0.930920  0.224100  1
  O  O45  1  0.604267  0.069080  0.275900  1
  O  O46  1  0.395733  0.430920  0.775900  1
  O  O47  1  0.895733  0.569080  0.724100  1
  O  O48  1  0.588170  0.797722  0.613173  1
  O  O49  1  0.088170  0.202278  0.886827  1
  O  O50  1  0.911830  0.297722  0.386827  1
  O  O51  1  0.411830  0.702278  0.113173  1
  O  O52  1  0.411830  0.202278  0.386827  1
  O  O53  1  0.911830  0.797722  0.113173  1
  O  O54  1  0.088170  0.702278  0.613173  1
  O  O55  1  0.548106  0.805178  0.214308  1
  Na  Na56  1  0.755589  0.663894  0.825744  1
  Na  Na57  1  0.255589  0.336106  0.674256  1
  Na  Na58  1  0.744411  0.163894  0.174256  1
  Na  Na59  1  0.244411  0.836106  0.325744  1
  Na  Na60  1  0.244411  0.336106  0.174256  1
  Na  Na61  1  0.744411  0.663894  0.325744  1
  Na  Na62  1  0.255589  0.836106  0.825744  1
  Na  Na63  1  0.755589  0.163894  0.674256  1
  Na  Na64  1  0.758020  0.174387  0.997454  1
  Na  Na65  1  0.258020  0.825613  0.502546  1
  Na  Na66  1  0.258020  0.325613  0.997454  1
  Na  Na67  1  0.758020  0.674387  0.502546  1
  Na  Na68  1  0.241980  0.825613  0.002546  1
  Na  Na69  1  0.741980  0.174387  0.497454  1
  Na  Na70  1  0.741980  0.674387  0.002546  1
  Na  Na71  1  0.241980  0.325613  0.497454  1
  Ti  Ti72  1  0.791396  0.686578  0.666568  1
  Ti  Ti73  1  0.791396  0.186578  0.833432  1
  Ti  Ti74  1  0.291396  0.813422  0.666568  1
  Ti  Ti75  1  0.708604  0.686578  0.166568  1
  Ti  Ti76  1  0.208604  0.313422  0.333432  1
  Ti  Ti77  1  0.208604  0.813422  0.166568  1
  Ti  Ti78  1  0.708604  0.186578  0.333432  1
  Ti  Ti79  1  0.291396  0.313422  0.833432  1
  Zn  Zn80  1  0.254619  0.079392  0.240794  1
  Zn  Zn81  1  0.245381  0.579392  0.759206  1
  Zn  Zn82  1  0.754619  0.920608  0.259206  1
  Zn  Zn83  1  0.785288  0.919789  0.572257  1
  Zn  Zn84  1  0.254619  0.579392  0.259206  1
  Zn  Zn85  1  0.754619  0.420608  0.240794  1
  Zn  Zn86  1  0.245381  0.079392  0.740794  1
  Zn  Zn87  1  0.745381  0.920608  0.759206  1
  Zn  Zn88  1  0.285288  0.080212  0.927743  1
  Zn  Zn89  1  0.714712  0.419789  0.427743  1
  Zn  Zn90  1  0.214712  0.580211  0.072257  1
  Zn  Zn91  1  0.785288  0.419789  0.927743  1
  Zn  Zn92  1  0.714712  0.919789  0.072257  1
  Zn  Zn93  1  0.285288  0.580211  0.572257  1
  Zn  Zn94  1  0.214712  0.080212  0.427743  1
  Zn  Zn95  1  0.745381  0.420608  0.740794  1
  Ge  Ge96  1  0.782896  0.928985  0.911542  1
  Ge  Ge97  1  0.282896  0.071015  0.588458  1
  Ge  Ge98  1  0.717104  0.428985  0.088458  1
  Ge  Ge99  1  0.217104  0.571015  0.411542  1
  Ge  Ge100  1  0.217104  0.071015  0.088458  1
  Ge  Ge101  1  0.717104  0.928985  0.411542  1
  Ge  Ge102  1  0.282896  0.571015  0.911542  1
  Ge  Ge103  1  0.782896  0.428985  0.588458  1
