# generated using pymatgen
data_Ba6Ga5N
_symmetry_space_group_name_H-M   'P 1'
_cell_length_a   14.84930034
_cell_length_b   14.84930046
_cell_length_c   14.84930073
_cell_angle_alpha   31.33886882
_cell_angle_beta   31.33886803
_cell_angle_gamma   31.33886890
_symmetry_Int_Tables_number   1
_chemical_formula_structural   Ba6Ga5N
_chemical_formula_sum   'Ba12 Ga10 N2'
_cell_volume   786.13328929
_cell_formula_units_Z   2
loop_
 _symmetry_equiv_pos_site_id
 _symmetry_equiv_pos_as_xyz
  1  'x, y, z'
loop_
 _atom_site_type_symbol
 _atom_site_label
 _atom_site_symmetry_multiplicity
 _atom_site_fract_x
 _atom_site_fract_y
 _atom_site_fract_z
 _atom_site_occupancy
  Ba  Ba0  1  0.638751  0.210509  0.759358  1
  Ba  Ba1  1  0.759358  0.638751  0.210509  1
  Ba  Ba2  1  0.789491  0.240642  0.361249  1
  Ba  Ba3  1  0.259358  0.710509  0.138751  1
  Ba  Ba4  1  0.289491  0.861249  0.740642  1
  Ba  Ba5  1  0.361249  0.789491  0.240642  1
  Ba  Ba6  1  0.861249  0.740642  0.289491  1
  Ba  Ba7  1  0.138751  0.259358  0.710509  1
  Ba  Ba8  1  0.210509  0.759358  0.638751  1
  Ba  Ba9  1  0.710509  0.138751  0.259358  1
  Ba  Ba10  1  0.740642  0.289491  0.861249  1
  Ba  Ba11  1  0.240642  0.361249  0.789491  1
  Ga  Ga12  1  0.697846  0.697846  0.697846  1
  Ga  Ga13  1  0.048135  0.250000  0.451865  1
  Ga  Ga14  1  0.451865  0.048135  0.250000  1
  Ga  Ga15  1  0.951865  0.750000  0.548135  1
  Ga  Ga16  1  0.548135  0.951865  0.750000  1
  Ga  Ga17  1  0.802154  0.802154  0.802154  1
  Ga  Ga18  1  0.302154  0.302154  0.302154  1
  Ga  Ga19  1  0.197846  0.197846  0.197846  1
  Ga  Ga20  1  0.250000  0.451865  0.048135  1
  Ga  Ga21  1  0.750000  0.548135  0.951865  1
  N  N22  1  0.000000  -0.000000  0.000000  1
  N  N23  1  0.500000  0.500000  0.500000  1
