# generated using pymatgen
data_Te4MoW3S4
_symmetry_space_group_name_H-M   'P 1'
_cell_length_a   3.35849533
_cell_length_b   3.35847018
_cell_length_c   39.99822690
_cell_angle_alpha   90.00090223
_cell_angle_beta   90.00000000
_cell_angle_gamma   120.00024759
_symmetry_Int_Tables_number   1
_chemical_formula_structural   Te4MoW3S4
_chemical_formula_sum   'Te4 Mo1 W3 S4'
_cell_volume   390.71180527
_cell_formula_units_Z   1
loop_
 _symmetry_equiv_pos_site_id
 _symmetry_equiv_pos_as_xyz
  1  'x, y, z'
loop_
 _atom_site_type_symbol
 _atom_site_label
 _atom_site_symmetry_multiplicity
 _atom_site_fract_x
 _atom_site_fract_y
 _atom_site_fract_z
 _atom_site_occupancy
  Te  Te0  1  0.333326  0.666653  0.706968  1
  Te  Te1  1  0.666663  0.333324  0.420740  1
  Te  Te2  1  0.666672  0.333343  0.515298  1
  Te  Te3  1  0.333316  0.666633  0.611931  1
  Mo  Mo4  1  0.333331  0.666663  0.468014  1
  W  W5  1  0.333300  0.666599  0.093871  1
  W  W6  1  0.666725  0.333449  0.281563  1
  W  W7  1  0.666654  0.333308  0.659496  1
  S  S8  1  0.333396  0.666793  0.319472  1
  S  S9  1  0.666618  0.333236  0.055961  1
  S  S10  1  0.666625  0.333249  0.131778  1
  S  S11  1  0.333375  0.666751  0.243657  1
