# generated using pymatgen
data_Mn3P
_symmetry_space_group_name_H-M   'P 1'
_cell_length_a   4.44867326
_cell_length_b   6.70221596
_cell_length_c   6.70221595
_cell_angle_alpha   83.67633450
_cell_angle_beta   70.61702926
_cell_angle_gamma   70.61702928
_symmetry_Int_Tables_number   1
_chemical_formula_structural   Mn3P
_chemical_formula_sum   'Mn12 P4'
_cell_volume   177.82247992
_cell_formula_units_Z   4
loop_
 _symmetry_equiv_pos_site_id
 _symmetry_equiv_pos_as_xyz
  1  'x, y, z'
loop_
 _atom_site_type_symbol
 _atom_site_label
 _atom_site_symmetry_multiplicity
 _atom_site_fract_x
 _atom_site_fract_y
 _atom_site_fract_z
 _atom_site_occupancy
  P  P0  1  0.201304  0.250238  0.331428  1
  P  P1  1  0.467268  0.331428  0.749762  1
  P  P2  1  0.548458  0.668572  0.250238  1
  P  P3  1  0.782970  0.749762  0.668572  1
  Mn  Mn4  1  0.342410  0.674030  0.614834  1
  Mn  Mn5  1  0.042756  0.614834  0.325970  1
  Mn  Mn6  1  0.983560  0.385166  0.674030  1
  Mn  Mn7  1  0.631274  0.325970  0.385166  1
  Mn  Mn8  1  0.929580  0.046872  0.607232  1
  Mn  Mn9  1  0.463188  0.607232  0.953128  1
  Mn  Mn10  1  0.023548  0.392768  0.046872  1
  Mn  Mn11  1  0.583684  0.953128  0.392768  1
  Mn  Mn12  1  0.135301  0.977126  0.189217  1
  Mn  Mn13  1  0.675482  0.189217  0.022874  1
  Mn  Mn14  1  0.887574  0.810783  0.977126  1
  Mn  Mn15  1  0.301644  0.022874  0.810783  1
