# generated using pymatgen
data_BaPS3
_symmetry_space_group_name_H-M   'P 1'
_cell_length_a   6.85668046
_cell_length_b   7.92195276
_cell_length_c   10.03915320
_cell_angle_alpha   90.00000000
_cell_angle_beta   91.44361675
_cell_angle_gamma   90.00000000
_symmetry_Int_Tables_number   1
_chemical_formula_structural   BaPS3
_chemical_formula_sum   'Ba4 P4 S12'
_cell_volume   545.13664096
_cell_formula_units_Z   4
loop_
 _symmetry_equiv_pos_site_id
 _symmetry_equiv_pos_as_xyz
  1  'x, y, z'
loop_
 _atom_site_type_symbol
 _atom_site_label
 _atom_site_symmetry_multiplicity
 _atom_site_fract_x
 _atom_site_fract_y
 _atom_site_fract_z
 _atom_site_occupancy
  P  P0  1  0.052264  0.891507  0.437473  1
  P  P1  1  0.447736  0.391507  0.062527  1
  P  P2  1  0.947736  0.108493  0.562527  1
  P  P3  1  0.552264  0.608493  0.937473  1
  S  S4  1  0.572003  0.517786  0.749401  1
  S  S5  1  0.927997  0.017786  0.750599  1
  S  S6  1  0.427997  0.482214  0.250599  1
  S  S7  1  0.072003  0.982214  0.249401  1
  S  S8  1  0.807370  0.688618  0.024110  1
  S  S9  1  0.692630  0.188618  0.475890  1
  S  S10  1  0.192630  0.311382  0.975890  1
  S  S11  1  0.307370  0.811382  0.524110  1
  S  S12  1  0.341110  0.788609  0.953989  1
  S  S13  1  0.158890  0.288609  0.546011  1
  S  S14  1  0.658890  0.211391  0.046011  1
  S  S15  1  0.841110  0.711391  0.453989  1
  Ba  Ba16  1  0.542856  0.897687  0.246437  1
  Ba  Ba17  1  0.957144  0.397687  0.253563  1
  Ba  Ba18  1  0.457144  0.102313  0.753563  1
  Ba  Ba19  1  0.042856  0.602313  0.746437  1
