# generated using pymatgen
data_K2SiO3
_symmetry_space_group_name_H-M   'P 1'
_cell_length_a   6.33032024
_cell_length_b   13.26891838
_cell_length_c   15.24502302
_cell_angle_alpha   90.00000000
_cell_angle_beta   95.35768494
_cell_angle_gamma   90.00000000
_symmetry_Int_Tables_number   1
_chemical_formula_structural   K2SiO3
_chemical_formula_sum   'K24 Si12 O36'
_cell_volume   1274.93423548
_cell_formula_units_Z   12
loop_
 _symmetry_equiv_pos_site_id
 _symmetry_equiv_pos_as_xyz
  1  'x, y, z'
loop_
 _atom_site_type_symbol
 _atom_site_label
 _atom_site_symmetry_multiplicity
 _atom_site_fract_x
 _atom_site_fract_y
 _atom_site_fract_z
 _atom_site_occupancy
  O  O0  1  0.642356  0.258197  0.853320  1
  O  O1  1  0.857644  0.758197  0.646680  1
  O  O2  1  0.357644  0.741803  0.146680  1
  O  O3  1  0.142356  0.241803  0.353320  1
  O  O4  1  0.970708  0.249766  0.590979  1
  O  O5  1  0.529292  0.749766  0.909021  1
  O  O6  1  0.029292  0.750234  0.409021  1
  O  O7  1  0.470708  0.250234  0.090979  1
  O  O8  1  0.637773  0.128169  0.535410  1
  O  O9  1  0.862227  0.628169  0.964590  1
  O  O10  1  0.362227  0.871831  0.464590  1
  O  O11  1  0.137773  0.371831  0.035410  1
  O  O12  1  0.228108  0.397698  0.651326  1
  O  O13  1  0.271892  0.897698  0.848674  1
  O  O14  1  0.771892  0.602302  0.348674  1
  O  O15  1  0.728108  0.102302  0.151326  1
  O  O16  1  0.898762  0.344936  0.741941  1
  O  O17  1  0.316918  0.060360  0.085095  1
  O  O18  1  0.101238  0.655064  0.258059  1
  O  O19  1  0.398762  0.155064  0.241941  1
  O  O20  1  0.740599  0.161695  0.707626  1
  O  O21  1  0.759401  0.661695  0.792374  1
  O  O22  1  0.259401  0.838305  0.292374  1
  O  O23  1  0.240599  0.338305  0.207626  1
  O  O24  1  0.011025  0.052186  0.617490  1
  O  O25  1  0.488975  0.552186  0.882510  1
  O  O26  1  0.988975  0.947814  0.382510  1
  O  O27  1  0.511025  0.447814  0.117490  1
  O  O28  1  0.049658  0.187560  0.840823  1
  O  O29  1  0.450342  0.687560  0.659177  1
  O  O30  1  0.950342  0.812440  0.159177  1
  O  O31  1  0.549658  0.312440  0.340823  1
  O  O32  1  0.816918  0.439640  0.585095  1
  O  O33  1  0.683082  0.939640  0.914905  1
  O  O34  1  0.183082  0.560360  0.414905  1
  O  O35  1  0.601238  0.844936  0.758059  1
  Si  Si36  1  0.834015  0.236917  0.792695  1
  Si  Si37  1  0.665985  0.736917  0.707305  1
  Si  Si38  1  0.165985  0.763083  0.207305  1
  Si  Si39  1  0.334015  0.263083  0.292695  1
  Si  Si40  1  0.981262  0.364521  0.640256  1
  Si  Si41  1  0.518738  0.864521  0.859744  1
  Si  Si42  1  0.018738  0.635479  0.359744  1
  Si  Si43  1  0.481262  0.135479  0.140256  1
  Si  Si44  1  0.836832  0.142565  0.608716  1
  Si  Si45  1  0.663168  0.642565  0.891284  1
  Si  Si46  1  0.163168  0.857435  0.391284  1
  Si  Si47  1  0.336832  0.357435  0.108716  1
  K  K48  1  0.539659  0.665840  0.487649  1
  K  K49  1  0.084428  0.599431  0.581748  1
  K  K50  1  0.584428  0.900569  0.081748  1
  K  K51  1  0.915572  0.400569  0.418252  1
  K  K52  1  0.460341  0.334160  0.512351  1
  K  K53  1  0.039659  0.834160  0.987649  1
  K  K54  1  0.415572  0.099431  0.918252  1
  K  K55  1  0.960341  0.165840  0.012351  1
  K  K56  1  0.749704  0.417451  0.974256  1
  K  K57  1  0.750296  0.917451  0.525744  1
  K  K58  1  0.250296  0.582549  0.025744  1
  K  K59  1  0.249704  0.082549  0.474256  1
  K  K60  1  0.324877  0.182803  0.702407  1
  K  K61  1  0.175123  0.682803  0.797593  1
  K  K62  1  0.675123  0.817197  0.297593  1
  K  K63  1  0.824877  0.317197  0.202407  1
  K  K64  1  0.574227  0.487871  0.714568  1
  K  K65  1  0.925773  0.987871  0.785432  1
  K  K66  1  0.425773  0.512129  0.285432  1
  K  K67  1  0.074227  0.012129  0.214568  1
  K  K68  1  0.269206  0.369270  0.864368  1
  K  K69  1  0.230794  0.869270  0.635632  1
  K  K70  1  0.730794  0.630730  0.135632  1
  K  K71  1  0.769206  0.130730  0.364368  1
