# generated using pymatgen
data_Te4Mo3W(SeS)2
_symmetry_space_group_name_H-M   'P 1'
_cell_length_a   3.40149599
_cell_length_b   3.40151821
_cell_length_c   40.68593184
_cell_angle_alpha   89.99915062
_cell_angle_beta   90.00000000
_cell_angle_gamma   119.99978403
_symmetry_Int_Tables_number   1
_chemical_formula_structural   Te4Mo3W(SeS)2
_chemical_formula_sum   'Te4 Mo3 W1 Se2 S2'
_cell_volume   407.67924994
_cell_formula_units_Z   1
loop_
 _symmetry_equiv_pos_site_id
 _symmetry_equiv_pos_as_xyz
  1  'x, y, z'
loop_
 _atom_site_type_symbol
 _atom_site_label
 _atom_site_symmetry_multiplicity
 _atom_site_fract_x
 _atom_site_fract_y
 _atom_site_fract_z
 _atom_site_occupancy
  Te  Te0  1  0.333401  0.666802  0.706205  1
  Te  Te1  1  0.666612  0.333223  0.421289  1
  Te  Te2  1  0.666605  0.333210  0.513376  1
  Te  Te3  1  0.333432  0.666865  0.613592  1
  Mo  Mo4  1  0.333272  0.666543  0.093975  1
  Mo  Mo5  1  0.333271  0.666543  0.467339  1
  Mo  Mo6  1  0.666715  0.333430  0.281701  1
  W  W7  1  0.666755  0.333510  0.659913  1
  Se  Se8  1  0.666606  0.333211  0.053469  1
  Se  Se9  1  0.666593  0.333184  0.134484  1
  S  S10  1  0.333394  0.666790  0.318634  1
  S  S11  1  0.333344  0.666689  0.244771  1
