# generated using pymatgen
data_Sr3As4
_symmetry_space_group_name_H-M   'P 1'
_cell_length_a   6.04277640
_cell_length_b   8.09023116
_cell_length_c   9.52536740
_cell_angle_alpha   83.19678793
_cell_angle_beta   71.50669308
_cell_angle_gamma   68.07075673
_symmetry_Int_Tables_number   1
_chemical_formula_structural   Sr3As4
_chemical_formula_sum   'Sr6 As8'
_cell_volume   409.67070729
_cell_formula_units_Z   2
loop_
 _symmetry_equiv_pos_site_id
 _symmetry_equiv_pos_as_xyz
  1  'x, y, z'
loop_
 _atom_site_type_symbol
 _atom_site_label
 _atom_site_symmetry_multiplicity
 _atom_site_fract_x
 _atom_site_fract_y
 _atom_site_fract_z
 _atom_site_occupancy
  As  As0  1  0.414246  0.672297  0.505113  1
  As  As1  1  0.591656  0.327703  0.494887  1
  As  As2  1  0.836543  0.827703  0.005113  1
  As  As3  1  0.669359  0.172297  0.994887  1
  As  As4  1  0.316967  0.170416  0.659382  1
  As  As5  1  0.146765  0.829584  0.340618  1
  As  As6  1  0.726349  0.670416  0.840618  1
  As  As7  1  0.237383  0.329584  0.159382  1
  Sr  Sr8  1  0.553086  0.005576  0.333980  1
  Sr  Sr9  1  0.892641  0.994424  0.666020  1
  Sr  Sr10  1  0.308661  0.494424  0.833980  1
  Sr  Sr11  1  0.637066  0.505576  0.166020  1
  Sr  Sr12  1  0.003839  0.500000  0.500000  1
  Sr  Sr13  1  0.253839  0.000000  0.000000  1
