# generated using pymatgen
data_Te4Mo(WSe)2
_symmetry_space_group_name_H-M   'P 1'
_cell_length_a   3.47497756
_cell_length_b   3.47497732
_cell_length_c   32.09874218
_cell_angle_alpha   90.00062143
_cell_angle_beta   90.00000000
_cell_angle_gamma   120.00000226
_symmetry_Int_Tables_number   1
_chemical_formula_structural   Te4Mo(WSe)2
_chemical_formula_sum   'Te4 Mo1 W2 Se2'
_cell_volume   335.67779631
_cell_formula_units_Z   1
loop_
 _symmetry_equiv_pos_site_id
 _symmetry_equiv_pos_as_xyz
  1  'x, y, z'
loop_
 _atom_site_type_symbol
 _atom_site_label
 _atom_site_symmetry_multiplicity
 _atom_site_fract_x
 _atom_site_fract_y
 _atom_site_fract_z
 _atom_site_occupancy
  Te  Te0  1  0.333356  0.666714  0.404678  1
  Te  Te1  1  0.666647  0.333293  0.058292  1
  Te  Te2  1  0.666642  0.333283  0.172971  1
  Te  Te3  1  0.333349  0.666700  0.289349  1
  Mo  Mo4  1  0.333311  0.666623  0.115617  1
  W  W5  1  0.333312  0.666624  0.578308  1
  W  W6  1  0.666686  0.333373  0.347023  1
  Se  Se7  1  0.666648  0.333294  0.527542  1
  Se  Se8  1  0.666649  0.333297  0.629062  1
