# generated using pymatgen
data_NaSn2F5
_symmetry_space_group_name_H-M   'P 1'
_cell_length_a   9.22690643
_cell_length_b   9.22690643
_cell_length_c   14.03372446
_cell_angle_alpha   90.00000000
_cell_angle_beta   90.00000000
_cell_angle_gamma   90.00000000
_symmetry_Int_Tables_number   1
_chemical_formula_structural   NaSn2F5
_chemical_formula_sum   'Na8 Sn16 F40'
_cell_volume   1194.77239071
_cell_formula_units_Z   8
loop_
 _symmetry_equiv_pos_site_id
 _symmetry_equiv_pos_as_xyz
  1  'x, y, z'
loop_
 _atom_site_type_symbol
 _atom_site_label
 _atom_site_symmetry_multiplicity
 _atom_site_fract_x
 _atom_site_fract_y
 _atom_site_fract_z
 _atom_site_occupancy
  F  F0  1  0.556507  0.556507  0.250000  1
  F  F1  1  0.600018  0.660830  0.634992  1
  F  F2  1  0.839170  0.899982  0.865008  1
  F  F3  1  0.839170  0.600018  0.134992  1
  F  F4  1  0.660830  0.899982  0.134992  1
  F  F5  1  0.600018  0.839170  0.365008  1
  F  F6  1  0.899982  0.660830  0.365008  1
  F  F7  1  0.660830  0.600018  0.865008  1
  F  F8  1  0.056507  0.056507  0.750000  1
  F  F9  1  0.443493  0.056507  0.250000  1
  F  F10  1  0.056507  0.443493  0.250000  1
  F  F11  1  0.443493  0.443493  0.750000  1
  F  F12  1  0.943493  0.943493  0.250000  1
  F  F13  1  0.556507  0.943493  0.750000  1
  F  F14  1  0.943493  0.556507  0.750000  1
  F  F15  1  0.899982  0.839170  0.634992  1
  F  F16  1  0.120236  0.030986  0.549035  1
  F  F17  1  0.120236  0.469014  0.450965  1
  F  F18  1  0.379764  0.030986  0.450965  1
  F  F19  1  0.469014  0.120236  0.049035  1
  F  F20  1  0.030986  0.379764  0.049035  1
  F  F21  1  0.030986  0.120236  0.950965  1
  F  F22  1  0.379764  0.469014  0.549035  1
  F  F23  1  0.100018  0.160830  0.365008  1
  F  F24  1  0.530986  0.620236  0.049035  1
  F  F25  1  0.879764  0.530986  0.549035  1
  F  F26  1  0.620236  0.969014  0.549035  1
  F  F27  1  0.530986  0.879764  0.950965  1
  F  F28  1  0.969014  0.620236  0.950965  1
  F  F29  1  0.969014  0.879764  0.049035  1
  F  F30  1  0.620236  0.530986  0.450965  1
  F  F31  1  0.879764  0.969014  0.450965  1
  F  F32  1  0.339170  0.399982  0.134992  1
  F  F33  1  0.100018  0.339170  0.634992  1
  F  F34  1  0.399982  0.160830  0.634992  1
  F  F35  1  0.339170  0.100018  0.865008  1
  F  F36  1  0.160830  0.399982  0.865008  1
  F  F37  1  0.160830  0.100018  0.134992  1
  F  F38  1  0.399982  0.339170  0.365008  1
  F  F39  1  0.469014  0.379764  0.950965  1
  Na  Na40  1  0.250000  0.250000  0.000000  1
  Na  Na41  1  0.250000  0.250000  0.500000  1
  Na  Na42  1  0.750000  0.750000  0.000000  1
  Na  Na43  1  0.750000  0.750000  0.500000  1
  Na  Na44  1  0.250000  0.250000  0.250000  1
  Na  Na45  1  0.250000  0.250000  0.750000  1
  Na  Na46  1  0.750000  0.750000  0.750000  1
  Na  Na47  1  0.750000  0.750000  0.250000  1
  Sn  Sn48  1  0.435188  0.918135  0.117265  1
  Sn  Sn49  1  0.581865  0.435188  0.617265  1
  Sn  Sn50  1  0.064812  0.918135  0.882735  1
  Sn  Sn51  1  0.064812  0.581865  0.117265  1
  Sn  Sn52  1  0.918135  0.064812  0.617265  1
  Sn  Sn53  1  0.581865  0.064812  0.382735  1
  Sn  Sn54  1  0.918135  0.435188  0.382735  1
  Sn  Sn55  1  0.435188  0.581865  0.882735  1
  Sn  Sn56  1  0.081865  0.935188  0.382735  1
  Sn  Sn57  1  0.418135  0.564812  0.382735  1
  Sn  Sn58  1  0.935188  0.081865  0.117265  1
  Sn  Sn59  1  0.935188  0.418135  0.882735  1
  Sn  Sn60  1  0.564812  0.081865  0.882735  1
  Sn  Sn61  1  0.418135  0.935188  0.617265  1
  Sn  Sn62  1  0.081865  0.564812  0.617265  1
  Sn  Sn63  1  0.564812  0.418135  0.117265  1
