# generated using pymatgen
data_Mn7SiO12
_symmetry_space_group_name_H-M   'P 1'
_cell_length_a   9.60183555
_cell_length_b   9.60183555
_cell_length_c   11.69559875
_cell_angle_alpha   114.23557359
_cell_angle_beta   114.23557357
_cell_angle_gamma   89.99999997
_symmetry_Int_Tables_number   1
_chemical_formula_structural   Mn7SiO12
_chemical_formula_sum   'Mn28 Si4 O48'
_cell_volume   877.98441832
_cell_formula_units_Z   4
loop_
 _symmetry_equiv_pos_site_id
 _symmetry_equiv_pos_as_xyz
  1  'x, y, z'
loop_
 _atom_site_type_symbol
 _atom_site_label
 _atom_site_symmetry_multiplicity
 _atom_site_fract_x
 _atom_site_fract_y
 _atom_site_fract_z
 _atom_site_occupancy
  O  O0  1  0.785827  0.824941  0.358742  1
  O  O1  1  0.572914  0.533801  0.358743  1
  O  O2  1  0.072915  0.324941  0.358742  1
  O  O3  1  0.466198  0.214173  0.641258  1
  O  O4  1  0.175059  0.427085  0.641257  1
  O  O5  1  0.966199  0.927085  0.641258  1
  O  O6  1  0.675058  0.714172  0.641257  1
  O  O7  1  0.285828  0.033802  0.358743  1
  O  O8  1  0.677058  0.925096  0.141258  1
  O  O9  1  0.464199  0.216162  0.141258  1
  O  O10  1  0.964200  0.425097  0.141258  1
  O  O11  1  0.783838  0.322942  0.858742  1
  O  O12  1  0.074904  0.535801  0.858743  1
  O  O13  1  0.283838  0.035800  0.858742  1
  O  O14  1  0.574904  0.822942  0.858743  1
  O  O15  1  0.177058  0.716161  0.141258  1
  O  O16  1  0.813327  0.282196  0.400886  1
  O  O17  1  0.587559  0.118690  0.400886  1
  O  O18  1  0.087559  0.782195  0.400886  1
  O  O19  1  0.742045  0.210613  0.135169  1
  O  O20  1  0.717805  0.412442  0.599115  1
  O  O21  1  0.381310  0.912441  0.599114  1
  O  O22  1  0.217804  0.686673  0.599114  1
  O  O23  1  0.313328  0.618691  0.400886  1
  O  O24  1  0.856864  0.539442  0.364843  1
  O  O25  1  0.507979  0.825401  0.364843  1
  O  O26  1  0.007980  0.039442  0.364843  1
  O  O27  1  0.174600  0.143136  0.635157  1
  O  O28  1  0.460558  0.492020  0.635157  1
  O  O29  1  0.674599  0.992020  0.635157  1
  O  O30  1  0.960557  0.643137  0.635157  1
  O  O31  1  0.356863  0.325401  0.364843  1
  O  O32  1  0.162465  0.131270  0.099114  1
  O  O33  1  0.032157  0.837534  0.900886  1
  O  O34  1  0.868730  0.063351  0.900886  1
  O  O35  1  0.532157  0.563352  0.900886  1
  O  O36  1  0.368730  0.337535  0.900887  1
  O  O37  1  0.936649  0.967844  0.099114  1
  O  O38  1  0.436648  0.631270  0.099114  1
  O  O39  1  0.662465  0.467844  0.099114  1
  O  O40  1  0.242045  0.424556  0.135169  1
  O  O41  1  0.289387  0.757955  0.864830  1
  O  O42  1  0.575443  0.106876  0.864831  1
  O  O43  1  0.789387  0.606875  0.864831  1
  O  O44  1  0.075444  0.257955  0.864831  1
  O  O45  1  0.893125  0.710613  0.135169  1
  O  O46  1  0.393125  0.924557  0.135170  1
  O  O47  1  0.881310  0.186672  0.599114  1
  Si  Si48  1  0.750000  0.250001  0.500000  1
  Si  Si49  1  0.000000  0.000000  0.000000  1
  Si  Si50  1  0.500000  0.500000  1.000000  1
  Si  Si51  1  0.250000  0.750000  0.500000  1
  Mn  Mn52  1  0.982849  0.982849  0.500000  1
  Mn  Mn53  1  0.158761  0.374993  0.250007  1
  Mn  Mn54  1  0.091247  0.875014  0.250007  1
  Mn  Mn55  1  0.124987  0.841240  0.749993  1
  Mn  Mn56  1  0.875003  0.625020  0.250010  1
  Mn  Mn57  1  0.375007  0.624991  0.250010  1
  Mn  Mn58  1  0.875006  0.125019  0.250009  1
  Mn  Mn59  1  0.375010  0.124997  0.749991  1
  Mn  Mn60  1  0.374981  0.624994  0.749991  1
  Mn  Mn61  1  0.875009  0.124994  0.749991  1
  Mn  Mn62  1  0.874981  0.624997  0.749990  1
  Mn  Mn63  1  0.375002  0.124990  0.250009  1
  Mn  Mn64  1  0.591246  0.874993  0.250007  1
  Mn  Mn65  1  0.482849  0.017152  0.500000  1
  Mn  Mn66  1  0.017151  0.482848  0.500000  1
  Mn  Mn67  1  0.517151  0.517152  0.500000  1
  Mn  Mn68  1  0.767187  0.267187  1.000000  1
  Mn  Mn69  1  0.267187  0.232814  0.000000  1
  Mn  Mn70  1  0.732814  0.767187  1.000000  1
  Mn  Mn71  1  0.232814  0.732813  1.000000  1
  Mn  Mn72  1  0.624986  0.408753  0.749993  1
  Mn  Mn73  1  0.658760  0.375015  0.250007  1
  Mn  Mn74  1  0.625007  0.908753  0.749993  1
  Mn  Mn75  1  0.125006  0.341239  0.749992  1
  Mn  Mn76  1  0.500000  1.000000  1.000000  1
  Mn  Mn77  1  0.000000  0.500000  1.000000  1
  Mn  Mn78  1  0.750000  0.750000  0.500000  1
  Mn  Mn79  1  0.250001  0.250001  0.500001  1
