# generated using pymatgen
data_LaSn2Rh
_symmetry_space_group_name_H-M   'P 1'
_cell_length_a   4.68430644
_cell_length_b   8.96149270
_cell_length_c   9.77219587
_cell_angle_alpha   90.00000000
_cell_angle_beta   90.00000000
_cell_angle_gamma   105.15062592
_symmetry_Int_Tables_number   1
_chemical_formula_structural   LaSn2Rh
_chemical_formula_sum   'La4 Sn8 Rh4'
_cell_volume   395.96250347
_cell_formula_units_Z   4
loop_
 _symmetry_equiv_pos_site_id
 _symmetry_equiv_pos_as_xyz
  1  'x, y, z'
loop_
 _atom_site_type_symbol
 _atom_site_label
 _atom_site_symmetry_multiplicity
 _atom_site_fract_x
 _atom_site_fract_y
 _atom_site_fract_z
 _atom_site_occupancy
  Rh  Rh0  1  0.853544  0.707088  0.504563  1
  Rh  Rh1  1  0.146456  0.292912  0.004563  1
  Rh  Rh2  1  0.853544  0.707088  0.995437  1
  Rh  Rh3  1  0.146456  0.292912  0.495437  1
  Sn  Sn4  1  0.091540  0.183081  0.750000  1
  Sn  Sn5  1  0.073524  0.147047  0.250000  1
  Sn  Sn6  1  0.908460  0.816919  0.250000  1
  Sn  Sn7  1  0.926476  0.852953  0.750000  1
  Sn  Sn8  1  0.302040  0.604079  0.410270  1
  Sn  Sn9  1  0.697960  0.395921  0.589730  1
  Sn  Sn10  1  0.697960  0.395921  0.910270  1
  Sn  Sn11  1  0.302040  0.604079  0.089730  1
  La  La12  1  0.500000  0.000000  0.500000  1
  La  La13  1  0.500000  0.000000  0.000000  1
  La  La14  1  0.703954  0.407907  0.250000  1
  La  La15  1  0.296046  0.592093  0.750000  1
