# generated using pymatgen
data_Gd2Re2Si2C
_symmetry_space_group_name_H-M   'P 1'
_cell_length_a   4.01968057
_cell_length_b   5.86046931
_cell_length_c   6.02906199
_cell_angle_alpha   72.34514719
_cell_angle_beta   70.52723756
_cell_angle_gamma   69.94337344
_symmetry_Int_Tables_number   1
_chemical_formula_structural   Gd2Re2Si2C
_chemical_formula_sum   'Gd2 Re2 Si2 C1'
_cell_volume   122.88684861
_cell_formula_units_Z   1
loop_
 _symmetry_equiv_pos_site_id
 _symmetry_equiv_pos_as_xyz
  1  'x, y, z'
loop_
 _atom_site_type_symbol
 _atom_site_label
 _atom_site_symmetry_multiplicity
 _atom_site_fract_x
 _atom_site_fract_y
 _atom_site_fract_z
 _atom_site_occupancy
  Gd  Gd0  1  0.428507  0.842218  0.300767  1
  Gd  Gd1  1  0.571493  0.157782  0.699233  1
  Re  Re2  1  0.793707  0.322213  0.090374  1
  Re  Re3  1  0.206293  0.677787  0.909626  1
  Si  Si4  1  0.856201  0.601464  0.686134  1
  Si  Si5  1  0.143799  0.398536  0.313866  1
  C  C6  1  0.000000  0.000000  0.000000  1
