# generated using pymatgen
data_Dy3(CuSi)4
_symmetry_space_group_name_H-M   'P 1'
_cell_length_a   4.13307239
_cell_length_b   6.54629311
_cell_length_c   7.86185054
_cell_angle_alpha   114.60709326
_cell_angle_beta   105.23960693
_cell_angle_gamma   90.00000004
_symmetry_Int_Tables_number   1
_chemical_formula_structural   Dy3(CuSi)4
_chemical_formula_sum   'Dy3 Si4 Cu4'
_cell_volume   185.13614178
_cell_formula_units_Z   1
loop_
 _symmetry_equiv_pos_site_id
 _symmetry_equiv_pos_as_xyz
  1  'x, y, z'
loop_
 _atom_site_type_symbol
 _atom_site_label
 _atom_site_symmetry_multiplicity
 _atom_site_fract_x
 _atom_site_fract_y
 _atom_site_fract_z
 _atom_site_occupancy
  Si  Si0  1  0.499986  0.815418  0.999972  1
  Si  Si1  1  0.500014  0.184582  0.000028  1
  Si  Si2  1  0.783900  0.283922  0.567800  1
  Si  Si3  1  0.216100  0.716078  0.432200  1
  Cu  Cu4  1  0.331508  0.522139  0.663015  1
  Cu  Cu5  1  0.668474  0.859000  0.336947  1
  Cu  Cu6  1  0.331526  0.141000  0.663053  1
  Cu  Cu7  1  0.668492  0.477861  0.336985  1
  Dy  Dy8  1  0.870046  0.870069  0.740091  1
  Dy  Dy9  1  0.129954  0.129931  0.259909  1
  Dy  Dy10  1  0.000000  0.500000  0.000000  1
