# generated using pymatgen
data_Yb2Ge2Ir
_symmetry_space_group_name_H-M   'P 1'
_cell_length_a   4.32038776
_cell_length_b   5.87360638
_cell_length_c   9.26777338
_cell_angle_alpha   82.63075600
_cell_angle_beta   76.52113816
_cell_angle_gamma   68.42124211
_symmetry_Int_Tables_number   1
_chemical_formula_structural   Yb2Ge2Ir
_chemical_formula_sum   'Yb4 Ge4 Ir2'
_cell_volume   212.43895586
_cell_formula_units_Z   2
loop_
 _symmetry_equiv_pos_site_id
 _symmetry_equiv_pos_as_xyz
  1  'x, y, z'
loop_
 _atom_site_type_symbol
 _atom_site_label
 _atom_site_symmetry_multiplicity
 _atom_site_fract_x
 _atom_site_fract_y
 _atom_site_fract_z
 _atom_site_occupancy
  Ge  Ge0  1  0.490358  0.140436  0.878849  1
  Ge  Ge1  1  0.352089  0.733059  0.562763  1
  Ge  Ge2  1  0.509642  0.859564  0.121151  1
  Ge  Ge3  1  0.647911  0.266941  0.437237  1
  Yb  Yb4  1  0.816073  0.257449  0.110405  1
  Yb  Yb5  1  0.003150  0.668356  0.325344  1
  Yb  Yb6  1  0.183927  0.742551  0.889595  1
  Yb  Yb7  1  0.996850  0.331644  0.674656  1
  Ir  Ir8  1  0.724323  0.920384  0.630970  1
  Ir  Ir9  1  0.275677  0.079616  0.369030  1
