# generated using pymatgen
data_Te2MoW3(SeS2)2
_symmetry_space_group_name_H-M   'P 1'
_cell_length_a   3.30401105
_cell_length_b   3.30399712
_cell_length_c   37.66154058
_cell_angle_alpha   90.00020492
_cell_angle_beta   90.00000000
_cell_angle_gamma   120.00013938
_symmetry_Int_Tables_number   1
_chemical_formula_structural   Te2MoW3(SeS2)2
_chemical_formula_sum   'Te2 Mo1 W3 Se2 S4'
_cell_volume   356.04857669
_cell_formula_units_Z   1
loop_
 _symmetry_equiv_pos_site_id
 _symmetry_equiv_pos_as_xyz
  1  'x, y, z'
loop_
 _atom_site_type_symbol
 _atom_site_label
 _atom_site_symmetry_multiplicity
 _atom_site_fract_x
 _atom_site_fract_y
 _atom_site_fract_z
 _atom_site_occupancy
  Te  Te0  1  0.333352  0.666704  0.332538  1
  Te  Te1  1  0.333361  0.666722  0.231041  1
  Mo  Mo2  1  0.666691  0.333382  0.281804  1
  W  W3  1  0.333311  0.666622  0.093906  1
  W  W4  1  0.333309  0.666617  0.469689  1
  W  W5  1  0.666691  0.333382  0.657532  1
  Se  Se6  1  0.333352  0.666705  0.702367  1
  Se  Se7  1  0.333352  0.666704  0.612705  1
  S  S8  1  0.666643  0.333285  0.053164  1
  S  S9  1  0.666647  0.333293  0.428941  1
  S  S10  1  0.666646  0.333291  0.134653  1
  S  S11  1  0.666646  0.333291  0.510407  1
