# generated using pymatgen
data_RbNd2CuS4
_symmetry_space_group_name_H-M   'P 1'
_cell_length_a   4.09609088
_cell_length_b   7.37361927
_cell_length_c   14.08177704
_cell_angle_alpha   90.00000000
_cell_angle_beta   90.00000000
_cell_angle_gamma   106.12614697
_symmetry_Int_Tables_number   1
_chemical_formula_structural   RbNd2CuS4
_chemical_formula_sum   'Rb2 Nd4 Cu2 S8'
_cell_volume   408.57715041
_cell_formula_units_Z   2
loop_
 _symmetry_equiv_pos_site_id
 _symmetry_equiv_pos_as_xyz
  1  'x, y, z'
loop_
 _atom_site_type_symbol
 _atom_site_label
 _atom_site_symmetry_multiplicity
 _atom_site_fract_x
 _atom_site_fract_y
 _atom_site_fract_z
 _atom_site_occupancy
  S  S0  1  0.000000  0.000000  0.500000  1
  S  S1  1  0.000000  0.000000  0.000000  1
  S  S2  1  0.575798  0.151597  0.250000  1
  S  S3  1  0.424202  0.848403  0.750000  1
  S  S4  1  0.259994  0.519989  0.387227  1
  S  S5  1  0.740006  0.480011  0.887227  1
  S  S6  1  0.740006  0.480011  0.612773  1
  S  S7  1  0.259994  0.519989  0.112773  1
  Cu  Cu8  1  0.835350  0.670700  0.750000  1
  Cu  Cu9  1  0.164650  0.329300  0.250000  1
  Rb  Rb10  1  0.894051  0.788103  0.250000  1
  Rb  Rb11  1  0.105949  0.211897  0.750000  1
  Nd  Nd12  1  0.365543  0.731086  0.938514  1
  Nd  Nd13  1  0.634457  0.268914  0.438514  1
  Nd  Nd14  1  0.365543  0.731086  0.561486  1
  Nd  Nd15  1  0.634457  0.268914  0.061486  1
