# generated using pymatgen
data_Te2Mo3WS6
_symmetry_space_group_name_H-M   'P 1'
_cell_length_a   3.27281329
_cell_length_b   3.27282142
_cell_length_c   37.26166877
_cell_angle_alpha   89.99976987
_cell_angle_beta   90.00000425
_cell_angle_gamma   120.00012134
_symmetry_Int_Tables_number   1
_chemical_formula_structural   Te2Mo3WS6
_chemical_formula_sum   'Te2 Mo3 W1 S6'
_cell_volume   345.64950587
_cell_formula_units_Z   1
loop_
 _symmetry_equiv_pos_site_id
 _symmetry_equiv_pos_as_xyz
  1  'x, y, z'
loop_
 _atom_site_type_symbol
 _atom_site_label
 _atom_site_symmetry_multiplicity
 _atom_site_fract_x
 _atom_site_fract_y
 _atom_site_fract_z
 _atom_site_occupancy
  Te  Te0  1  0.666642  0.333284  0.417899  1
  Te  Te1  1  0.666639  0.333278  0.521354  1
  Mo  Mo2  1  0.333314  0.666626  0.093916  1
  Mo  Mo3  1  0.333307  0.666613  0.469638  1
  Mo  Mo4  1  0.666680  0.333356  0.281725  1
  W  W5  1  0.666690  0.333381  0.657642  1
  S  S6  1  0.333357  0.666718  0.323026  1
  S  S7  1  0.333355  0.666711  0.699069  1
  S  S8  1  0.666648  0.333294  0.052617  1
  S  S9  1  0.666647  0.333294  0.135227  1
  S  S10  1  0.333360  0.666724  0.240456  1
  S  S11  1  0.333360  0.666721  0.616177  1
