# generated using pymatgen
data_K2VAgSe4
_symmetry_space_group_name_H-M   'P 1'
_cell_length_a   6.02782565
_cell_length_b   7.45776760
_cell_length_c   12.16199929
_cell_angle_alpha   84.25223692
_cell_angle_beta   75.65181068
_cell_angle_gamma   66.16333637
_symmetry_Int_Tables_number   1
_chemical_formula_structural   K2VAgSe4
_chemical_formula_sum   'K4 V2 Ag2 Se8'
_cell_volume   484.49726912
_cell_formula_units_Z   2
loop_
 _symmetry_equiv_pos_site_id
 _symmetry_equiv_pos_as_xyz
  1  'x, y, z'
loop_
 _atom_site_type_symbol
 _atom_site_label
 _atom_site_symmetry_multiplicity
 _atom_site_fract_x
 _atom_site_fract_y
 _atom_site_fract_z
 _atom_site_occupancy
  K  K0  1  0.942979  0.750000  0.114043  1
  K  K1  1  0.307021  0.750000  0.385957  1
  K  K2  1  0.057021  0.250000  0.885957  1
  K  K3  1  0.692979  0.250000  0.614043  1
  V  V4  1  0.125000  0.750000  0.750000  1
  V  V5  1  0.875000  0.250000  0.250000  1
  Se  Se6  1  0.242998  0.045379  0.133260  1
  Se  Se7  1  0.376258  0.545379  0.866740  1
  Se  Se8  1  0.623742  0.454621  0.133260  1
  Se  Se9  1  0.921637  0.454621  0.366740  1
  Se  Se10  1  0.711623  0.045379  0.366740  1
  Se  Se11  1  0.078363  0.545379  0.633260  1
  Se  Se12  1  0.757002  0.954621  0.866740  1
  Se  Se13  1  0.288377  0.954621  0.633260  1
  Ag  Ag14  1  0.625000  0.750000  0.750000  1
  Ag  Ag15  1  0.375000  0.250000  0.250000  1
