# generated using pymatgen
data_NaV(SiO3)2
_symmetry_space_group_name_H-M   'P 1'
_cell_length_a   5.39500786
_cell_length_b   6.61502659
_cell_length_c   6.61502588
_cell_angle_alpha   84.46111486
_cell_angle_beta   77.31254494
_cell_angle_gamma   77.31254165
_symmetry_Int_Tables_number   1
_chemical_formula_structural   NaV(SiO3)2
_chemical_formula_sum   'Na2 V2 Si4 O12'
_cell_volume   224.40049249
_cell_formula_units_Z   2
loop_
 _symmetry_equiv_pos_site_id
 _symmetry_equiv_pos_as_xyz
  1  'x, y, z'
loop_
 _atom_site_type_symbol
 _atom_site_label
 _atom_site_symmetry_multiplicity
 _atom_site_fract_x
 _atom_site_fract_y
 _atom_site_fract_z
 _atom_site_occupancy
  Na  Na0  1  0.750000  0.296381  0.703619  1
  Na  Na1  1  0.250000  0.703619  0.296381  1
  V  V2  1  0.750000  0.904616  0.095384  1
  V  V3  1  0.250000  0.095384  0.904616  1
  Si  Si4  1  0.257790  0.202824  0.381384  1
  Si  Si5  1  0.757790  0.381384  0.202824  1
  Si  Si6  1  0.242210  0.618616  0.797176  1
  Si  Si7  1  0.742210  0.797176  0.618616  1
  O  O8  1  0.647455  0.962079  0.805202  1
  O  O9  1  0.352545  0.037921  0.194798  1
  O  O10  1  0.696587  0.616541  0.107672  1
  O  O11  1  0.979217  0.356908  0.347038  1
  O  O12  1  0.147455  0.805202  0.962079  1
  O  O13  1  0.520783  0.652962  0.643092  1
  O  O14  1  0.303413  0.383459  0.892328  1
  O  O15  1  0.852545  0.194798  0.037921  1
  O  O16  1  0.479216  0.347038  0.356908  1
  O  O17  1  0.803413  0.892328  0.383459  1
  O  O18  1  0.020783  0.643092  0.652962  1
  O  O19  1  0.196587  0.107672  0.616541  1
