# generated using pymatgen
data_CeAsO4
_symmetry_space_group_name_H-M   'P 1'
_cell_length_a   6.83103447
_cell_length_b   7.01781156
_cell_length_c   7.26654190
_cell_angle_alpha   90.00000000
_cell_angle_beta   90.00000000
_cell_angle_gamma   105.13443946
_symmetry_Int_Tables_number   1
_chemical_formula_structural   CeAsO4
_chemical_formula_sum   'Ce4 As4 O16'
_cell_volume   336.26789720
_cell_formula_units_Z   4
loop_
 _symmetry_equiv_pos_site_id
 _symmetry_equiv_pos_as_xyz
  1  'x, y, z'
loop_
 _atom_site_type_symbol
 _atom_site_label
 _atom_site_symmetry_multiplicity
 _atom_site_fract_x
 _atom_site_fract_y
 _atom_site_fract_z
 _atom_site_occupancy
  Ce  Ce0  1  0.597743  0.783928  0.848106  1
  Ce  Ce1  1  0.097743  0.283928  0.651894  1
  Ce  Ce2  1  0.902257  0.716072  0.348106  1
  Ce  Ce3  1  0.402257  0.216072  0.151894  1
  As  As4  1  0.113012  0.803760  0.837417  1
  As  As5  1  0.386988  0.696240  0.337417  1
  As  As6  1  0.886988  0.196240  0.162583  1
  As  As7  1  0.613012  0.303760  0.662583  1
  O  O8  1  0.170398  0.516005  0.393416  1
  O  O9  1  0.670398  0.016005  0.106584  1
  O  O10  1  0.002048  0.106930  0.342778  1
  O  O11  1  0.502048  0.606930  0.157222  1
  O  O12  1  0.224228  0.617431  0.784869  1
  O  O13  1  0.426995  0.253129  0.496404  1
  O  O14  1  0.497952  0.393070  0.842778  1
  O  O15  1  0.275772  0.882569  0.284869  1
  O  O16  1  0.926995  0.753129  0.003596  1
  O  O17  1  0.829602  0.483995  0.606584  1
  O  O18  1  0.073005  0.246871  0.996404  1
  O  O19  1  0.724228  0.117431  0.715131  1
  O  O20  1  0.775772  0.382569  0.215131  1
  O  O21  1  0.329602  0.983995  0.893416  1
  O  O22  1  0.997952  0.893070  0.657222  1
  O  O23  1  0.573005  0.746871  0.503596  1
