# generated using pymatgen
data_Li3In2(PO4)3
_symmetry_space_group_name_H-M   'P 1'
_cell_length_a   8.70171693
_cell_length_b   9.00054826
_cell_length_c   12.45342981
_cell_angle_alpha   90.00000000
_cell_angle_beta   89.96936905
_cell_angle_gamma   90.00000000
_symmetry_Int_Tables_number   1
_chemical_formula_structural   Li3In2(PO4)3
_chemical_formula_sum   'Li12 In8 P12 O48'
_cell_volume   975.35526309
_cell_formula_units_Z   4
loop_
 _symmetry_equiv_pos_site_id
 _symmetry_equiv_pos_as_xyz
  1  'x, y, z'
loop_
 _atom_site_type_symbol
 _atom_site_label
 _atom_site_symmetry_multiplicity
 _atom_site_fract_x
 _atom_site_fract_y
 _atom_site_fract_z
 _atom_site_occupancy
  Li  Li0  1  0.820502  0.217869  0.179846  1
  Li  Li1  1  0.679498  0.717869  0.320154  1
  Li  Li2  1  0.179498  0.782131  0.820154  1
  Li  Li3  1  0.320502  0.282131  0.679846  1
  Li  Li4  1  0.564782  0.987701  0.151513  1
  Li  Li5  1  0.935218  0.487701  0.348487  1
  Li  Li6  1  0.435218  0.012299  0.848487  1
  Li  Li7  1  0.064782  0.512299  0.651513  1
  Li  Li8  1  0.915428  0.913989  0.685563  1
  Li  Li9  1  0.584572  0.413989  0.814437  1
  Li  Li10  1  0.084572  0.086011  0.314437  1
  Li  Li11  1  0.415428  0.586011  0.185563  1
  O  O12  1  0.880715  0.790648  0.817651  1
  O  O13  1  0.619285  0.290648  0.682349  1
  O  O14  1  0.119285  0.209352  0.182349  1
  O  O15  1  0.380715  0.709352  0.317651  1
  O  O16  1  0.558565  0.922031  0.306356  1
  O  O17  1  0.941435  0.422031  0.193644  1
  O  O18  1  0.441435  0.077969  0.693644  1
  O  O19  1  0.058565  0.577969  0.806356  1
  O  O20  1  0.548919  0.830272  0.903114  1
  O  O21  1  0.951081  0.330272  0.596886  1
  O  O22  1  0.451081  0.169728  0.096886  1
  O  O23  1  0.048919  0.669728  0.403114  1
  O  O24  1  0.958956  0.128431  0.447324  1
  O  O25  1  0.541044  0.628431  0.052676  1
  O  O26  1  0.041044  0.871569  0.552676  1
  O  O27  1  0.458956  0.371569  0.947324  1
  O  O28  1  0.882441  0.006612  0.249462  1
  O  O29  1  0.617559  0.506612  0.250538  1
  O  O30  1  0.117559  0.993388  0.750538  1
  O  O31  1  0.382441  0.493388  0.749462  1
  O  O32  1  0.675583  0.239088  0.306883  1
  O  O33  1  0.824417  0.739088  0.193117  1
  O  O34  1  0.324417  0.760912  0.693117  1
  O  O35  1  0.175583  0.260912  0.806883  1
  O  O36  1  0.762562  0.957189  0.072656  1
  O  O37  1  0.737438  0.457189  0.427344  1
  O  O38  1  0.237438  0.042811  0.927344  1
  O  O39  1  0.262562  0.542811  0.572656  1
  O  O40  1  0.727459  0.027284  0.721445  1
  O  O41  1  0.772541  0.527284  0.778555  1
  O  O42  1  0.272541  0.972716  0.278555  1
  O  O43  1  0.227459  0.472716  0.221445  1
  O  O44  1  0.805599  0.811924  0.439488  1
  O  O45  1  0.694401  0.311924  0.060512  1
  O  O46  1  0.194401  0.188076  0.560512  1
  O  O47  1  0.305599  0.688076  0.939488  1
  O  O48  1  0.956678  0.114983  0.896925  1
  O  O49  1  0.543322  0.614983  0.603075  1
  O  O50  1  0.043322  0.885017  0.103075  1
  O  O51  1  0.456678  0.385017  0.396925  1
  O  O52  1  0.592067  0.137208  0.917538  1
  O  O53  1  0.907933  0.637208  0.582462  1
  O  O54  1  0.407933  0.862792  0.082462  1
  O  O55  1  0.092067  0.362792  0.417538  1
  O  O56  1  0.626338  0.098513  0.536478  1
  O  O57  1  0.873662  0.598513  0.963522  1
  O  O58  1  0.373662  0.901487  0.463522  1
  O  O59  1  0.126338  0.401487  0.036478  1
  P  P60  1  0.545975  0.247832  0.008154  1
  P  P61  1  0.954025  0.747832  0.491846  1
  P  P62  1  0.454025  0.752168  0.991846  1
  P  P63  1  0.045975  0.252168  0.508154  1
  P  P64  1  0.610274  0.120306  0.657271  1
  P  P65  1  0.889726  0.620306  0.842729  1
  P  P66  1  0.389726  0.879694  0.342729  1
  P  P67  1  0.110274  0.379694  0.157271  1
  P  P68  1  0.883425  0.892897  0.153796  1
  P  P69  1  0.616575  0.392897  0.346204  1
  P  P70  1  0.116575  0.107103  0.846204  1
  P  P71  1  0.383425  0.607103  0.653796  1
  In  In72  1  0.740827  0.038125  0.397120  1
  In  In73  1  0.759173  0.538125  0.102880  1
  In  In74  1  0.259173  0.961875  0.602880  1
  In  In75  1  0.240827  0.461875  0.897120  1
  In  In76  1  0.762297  0.968907  0.898347  1
  In  In77  1  0.737703  0.468907  0.601653  1
  In  In78  1  0.237703  0.031093  0.101653  1
  In  In79  1  0.262297  0.531093  0.398347  1
