# generated using pymatgen
data_ZnGeO3
_symmetry_space_group_name_H-M   'P 1'
_cell_length_a   5.09373498
_cell_length_b   5.09373480
_cell_length_c   5.30978011
_cell_angle_alpha   61.33706876
_cell_angle_beta   61.33707190
_cell_angle_gamma   60.00000120
_symmetry_Int_Tables_number   1
_chemical_formula_structural   ZnGeO3
_chemical_formula_sum   'Zn2 Ge2 O6'
_cell_volume   99.33945022
_cell_formula_units_Z   2
loop_
 _symmetry_equiv_pos_site_id
 _symmetry_equiv_pos_as_xyz
  1  'x, y, z'
loop_
 _atom_site_type_symbol
 _atom_site_label
 _atom_site_symmetry_multiplicity
 _atom_site_fract_x
 _atom_site_fract_y
 _atom_site_fract_z
 _atom_site_occupancy
  Zn  Zn0  1  0.722470  0.722470  0.832589  1
  Zn  Zn1  1  0.222470  0.222470  0.332589  1
  Ge  Ge2  1  0.498878  0.498878  0.503366  1
  Ge  Ge3  1  0.998878  0.998878  0.003366  1
  O  O4  1  0.272686  0.635124  0.218748  1
  O  O5  1  0.873441  0.272686  0.218748  1
  O  O6  1  0.635124  0.873441  0.218748  1
  O  O7  1  0.135124  0.772686  0.718748  1
  O  O8  1  0.373441  0.135124  0.718748  1
  O  O9  1  0.772686  0.373441  0.718748  1
