# generated using pymatgen
data_Te4Mo3WS4
_symmetry_space_group_name_H-M   'P 1'
_cell_length_a   3.36099184
_cell_length_b   3.36072271
_cell_length_c   39.83882016
_cell_angle_alpha   90.00240780
_cell_angle_beta   90.00000000
_cell_angle_gamma   120.00264914
_symmetry_Int_Tables_number   1
_chemical_formula_structural   Te4Mo3WS4
_chemical_formula_sum   'Te4 Mo3 W1 S4'
_cell_volume   389.69572684
_cell_formula_units_Z   1
loop_
 _symmetry_equiv_pos_site_id
 _symmetry_equiv_pos_as_xyz
  1  'x, y, z'
loop_
 _atom_site_type_symbol
 _atom_site_label
 _atom_site_symmetry_multiplicity
 _atom_site_fract_x
 _atom_site_fract_y
 _atom_site_fract_z
 _atom_site_occupancy
  Te  Te0  1  0.333455  0.666910  0.706518  1
  Te  Te1  1  0.666584  0.333167  0.420446  1
  Te  Te2  1  0.666622  0.333244  0.515952  1
  Te  Te3  1  0.333416  0.666834  0.611621  1
  Mo  Mo4  1  0.333278  0.666556  0.093945  1
  Mo  Mo5  1  0.666660  0.333320  0.281709  1
  Mo  Mo6  1  0.666766  0.333532  0.659087  1
  W  W7  1  0.333271  0.666543  0.468197  1
  S  S8  1  0.333373  0.666748  0.319692  1
  S  S9  1  0.666594  0.333187  0.055935  1
  S  S10  1  0.666636  0.333271  0.131946  1
  S  S11  1  0.333344  0.666689  0.243700  1
