# generated using pymatgen
data_BaCe2MnS5
_symmetry_space_group_name_H-M   'P 1'
_cell_length_a   7.86906384
_cell_length_b   7.86906384
_cell_length_c   8.79436821
_cell_angle_alpha   116.57649419
_cell_angle_beta   116.57649416
_cell_angle_gamma   90.00000003
_symmetry_Int_Tables_number   1
_chemical_formula_structural   BaCe2MnS5
_chemical_formula_sum   'Ba2 Ce4 Mn2 S10'
_cell_volume   421.70690392
_cell_formula_units_Z   2
loop_
 _symmetry_equiv_pos_site_id
 _symmetry_equiv_pos_as_xyz
  1  'x, y, z'
loop_
 _atom_site_type_symbol
 _atom_site_label
 _atom_site_symmetry_multiplicity
 _atom_site_fract_x
 _atom_site_fract_y
 _atom_site_fract_z
 _atom_site_occupancy
  S  S0  1  0.482716  0.982716  0.267404  1
  S  S1  1  0.215312  0.715312  0.732596  1
  S  S2  1  0.517284  0.017284  0.732596  1
  S  S3  1  0.715312  0.517284  0.732596  1
  S  S4  1  0.017284  0.215312  0.732596  1
  S  S5  1  0.284688  0.482716  0.267404  1
  S  S6  1  0.982716  0.784688  0.267404  1
  S  S7  1  0.784688  0.284688  0.267404  1
  S  S8  1  0.000000  0.000000  0.000000  1
  S  S9  1  0.500000  0.500000  0.000000  1
  Mn  Mn10  1  0.750000  0.250000  0.500000  1
  Mn  Mn11  1  0.250000  0.750000  0.500000  1
  Ba  Ba12  1  0.750000  0.750000  0.500000  1
  Ba  Ba13  1  0.250000  0.250000  0.500000  1
  Ce  Ce14  1  0.658665  0.841335  0.000000  1
  Ce  Ce15  1  0.158665  0.658665  0.000000  1
  Ce  Ce16  1  0.841335  0.341335  0.000000  1
  Ce  Ce17  1  0.341335  0.158665  0.000000  1
