# generated using pymatgen
data_Sr2VN3
_symmetry_space_group_name_H-M   'P 1'
_cell_length_a   5.75561822
_cell_length_b   6.24020540
_cell_length_c   12.36163671
_cell_angle_alpha   89.63735827
_cell_angle_beta   89.21363286
_cell_angle_gamma   62.53722813
_symmetry_Int_Tables_number   1
_chemical_formula_structural   Sr2VN3
_chemical_formula_sum   'Sr8 V4 N12'
_cell_volume   393.91420162
_cell_formula_units_Z   4
loop_
 _symmetry_equiv_pos_site_id
 _symmetry_equiv_pos_as_xyz
  1  'x, y, z'
loop_
 _atom_site_type_symbol
 _atom_site_label
 _atom_site_symmetry_multiplicity
 _atom_site_fract_x
 _atom_site_fract_y
 _atom_site_fract_z
 _atom_site_occupancy
  N  N0  1  0.326474  0.820972  0.953854  1
  N  N1  1  0.852555  0.820972  0.546146  1
  N  N2  1  0.673526  0.179028  0.046146  1
  N  N3  1  0.147445  0.179028  0.453854  1
  N  N4  1  0.020229  0.959542  0.750000  1
  N  N5  1  0.979771  0.040458  0.250000  1
  N  N6  1  0.552960  0.894081  0.750000  1
  N  N7  1  0.879220  0.678434  0.132662  1
  N  N8  1  0.557654  0.321566  0.632662  1
  N  N9  1  0.120780  0.321566  0.867338  1
  N  N10  1  0.442346  0.678434  0.367338  1
  N  N11  1  0.447040  0.105919  0.250000  1
  V  V12  1  0.258846  0.994571  0.336050  1
  V  V13  1  0.741154  0.005429  0.663950  1
  V  V14  1  0.746584  0.994571  0.163950  1
  V  V15  1  0.253416  0.005429  0.836050  1
  Sr  Sr16  1  0.444971  0.605092  0.145755  1
  Sr  Sr17  1  0.050063  0.394908  0.645755  1
  Sr  Sr18  1  0.555029  0.394908  0.854245  1
  Sr  Sr19  1  0.949937  0.605092  0.354245  1
  Sr  Sr20  1  0.354525  0.778873  0.577433  1
  Sr  Sr21  1  0.866602  0.778873  0.922567  1
  Sr  Sr22  1  0.645475  0.221127  0.422567  1
  Sr  Sr23  1  0.133398  0.221127  0.077433  1
