# generated using pymatgen
data_K2Ca3Si3O10
_symmetry_space_group_name_H-M   'P 1'
_cell_length_a   5.72137086
_cell_length_b   7.48623329
_cell_length_c   12.05345369
_cell_angle_alpha   85.40303641
_cell_angle_beta   80.44944833
_cell_angle_gamma   88.31946683
_symmetry_Int_Tables_number   1
_chemical_formula_structural   K2Ca3Si3O10
_chemical_formula_sum   'K4 Ca6 Si6 O20'
_cell_volume   507.40680421
_cell_formula_units_Z   2
loop_
 _symmetry_equiv_pos_site_id
 _symmetry_equiv_pos_as_xyz
  1  'x, y, z'
loop_
 _atom_site_type_symbol
 _atom_site_label
 _atom_site_symmetry_multiplicity
 _atom_site_fract_x
 _atom_site_fract_y
 _atom_site_fract_z
 _atom_site_occupancy
  K  K0  1  0.720720  0.960271  0.625837  1
  K  K1  1  0.279280  0.039729  0.374163  1
  K  K2  1  0.167307  0.938733  0.848546  1
  K  K3  1  0.832693  0.061267  0.151454  1
  Ca  Ca4  1  0.206853  0.244443  0.623029  1
  Ca  Ca5  1  0.793147  0.755557  0.376971  1
  Ca  Ca6  1  0.169156  0.470181  0.860229  1
  Ca  Ca7  1  0.830844  0.529819  0.139771  1
  Ca  Ca8  1  0.728090  0.495778  0.660123  1
  Ca  Ca9  1  0.271910  0.504222  0.339877  1
  Si  Si10  1  0.249119  0.728767  0.578330  1
  Si  Si11  1  0.750881  0.271233  0.421670  1
  Si  Si12  1  0.658099  0.185272  0.850099  1
  Si  Si13  1  0.341901  0.814728  0.149901  1
  Si  Si14  1  0.363794  0.254559  0.089195  1
  Si  Si15  1  0.636206  0.745441  0.910805  1
  O  O16  1  0.211650  0.932636  0.622776  1
  O  O17  1  0.788350  0.067364  0.377224  1
  O  O18  1  0.462750  0.311173  0.458380  1
  O  O19  1  0.537250  0.688827  0.541620  1
  O  O20  1  0.128702  0.570020  0.673652  1
  O  O21  1  0.871298  0.429980  0.326348  1
  O  O22  1  0.883946  0.284563  0.533266  1
  O  O23  1  0.116054  0.715437  0.466734  1
  O  O24  1  0.917027  0.261655  0.795937  1
  O  O25  1  0.082973  0.738345  0.204063  1
  O  O26  1  0.461562  0.250083  0.770253  1
  O  O27  1  0.538438  0.749917  0.229747  1
  O  O28  1  0.580336  0.249343  0.978850  1
  O  O29  1  0.419664  0.750657  0.021150  1
  O  O30  1  0.323545  0.038093  0.137374  1
  O  O31  1  0.676455  0.961907  0.862626  1
  O  O32  1  0.531047  0.645762  0.816458  1
  O  O33  1  0.468953  0.354238  0.183542  1
  O  O34  1  0.122046  0.333459  0.049776  1
  O  O35  1  0.877954  0.666541  0.950224  1
