# generated using pymatgen
data_BaCdSnS4
_symmetry_space_group_name_H-M   'P 1'
_cell_length_a   12.87067593
_cell_length_b   12.87067593
_cell_length_c   13.01833826
_cell_angle_alpha   105.37940861
_cell_angle_beta   105.37940862
_cell_angle_gamma   117.61288954
_symmetry_Int_Tables_number   1
_chemical_formula_structural   BaCdSnS4
_chemical_formula_sum   'Ba8 Cd8 Sn8 S32'
_cell_volume   1641.38164737
_cell_formula_units_Z   8
loop_
 _symmetry_equiv_pos_site_id
 _symmetry_equiv_pos_as_xyz
  1  'x, y, z'
loop_
 _atom_site_type_symbol
 _atom_site_label
 _atom_site_symmetry_multiplicity
 _atom_site_fract_x
 _atom_site_fract_y
 _atom_site_fract_z
 _atom_site_occupancy
  S  S0  1  0.463550  0.220562  0.417841  1
  S  S1  1  0.802720  0.045709  0.582159  1
  S  S2  1  0.970562  0.713550  0.917841  1
  S  S3  1  0.795709  0.052720  0.082159  1
  S  S4  1  0.473620  0.213273  0.917863  1
  S  S5  1  0.295409  0.555756  0.082137  1
  S  S6  1  0.963273  0.723620  0.417863  1
  S  S7  1  0.305756  0.545409  0.582137  1
  S  S8  1  0.177695  0.767493  0.248799  1
  S  S9  1  0.518695  0.928896  0.751201  1
  S  S10  1  0.517493  0.427695  0.748799  1
  S  S11  1  0.678896  0.768695  0.251201  1
  S  S12  1  0.216534  0.273366  0.248639  1
  S  S13  1  0.024727  0.967895  0.751361  1
  S  S14  1  0.023366  0.466534  0.748639  1
  S  S15  1  0.717895  0.274727  0.251361  1
  S  S16  1  0.049973  0.466213  0.247405  1
  S  S17  1  0.218808  0.802568  0.752595  1
  S  S18  1  0.216213  0.299973  0.747405  1
  S  S19  1  0.552568  0.468808  0.252595  1
  S  S20  1  0.026216  0.963426  0.247511  1
  S  S21  1  0.715915  0.778705  0.752489  1
  S  S22  1  0.713426  0.276216  0.747511  1
  S  S23  1  0.528705  0.965915  0.252489  1
  S  S24  1  0.461048  0.720567  0.416977  1
  S  S25  1  0.303590  0.044071  0.583023  1
  S  S26  1  0.470567  0.711048  0.916977  1
  S  S27  1  0.794071  0.553590  0.083023  1
  S  S28  1  0.297172  0.054201  0.081363  1
  S  S29  1  0.972838  0.215809  0.918637  1
  S  S30  1  0.804201  0.547172  0.581363  1
  S  S31  1  0.965809  0.222838  0.418637  1
  Cd  Cd32  1  0.330407  0.978738  0.249475  1
  Cd  Cd33  1  0.830933  0.979264  0.250525  1
  Cd  Cd34  1  0.728738  0.580407  0.749475  1
  Cd  Cd35  1  0.729264  0.080933  0.750525  1
  Cd  Cd36  1  0.262000  0.484635  0.248501  1
  Cd  Cd37  1  0.236134  0.013499  0.751499  1
  Cd  Cd38  1  0.234635  0.512000  0.748501  1
  Cd  Cd39  1  0.763499  0.486134  0.251499  1
  Sn  Sn40  1  0.903059  0.265793  0.249917  1
  Sn  Sn41  1  0.985259  0.762186  0.249385  1
  Sn  Sn42  1  0.485874  0.762801  0.250615  1
  Sn  Sn43  1  0.512186  0.235259  0.749385  1
  Sn  Sn44  1  0.015876  0.653142  0.750083  1
  Sn  Sn45  1  0.403142  0.265876  0.250083  1
  Sn  Sn46  1  0.015793  0.153059  0.749917  1
  Sn  Sn47  1  0.512801  0.735874  0.750615  1
  Ba  Ba48  1  0.246688  0.243780  0.495605  1
  Ba  Ba49  1  0.748174  0.751082  0.504395  1
  Ba  Ba50  1  0.993780  0.496688  0.995605  1
  Ba  Ba51  1  0.501082  0.998174  0.004395  1
  Ba  Ba52  1  0.245477  0.745477  0.500000  1
  Ba  Ba53  1  0.495477  0.495477  0.000000  1
  Ba  Ba54  1  0.749553  0.249553  0.500000  1
  Ba  Ba55  1  0.999553  0.999553  0.000000  1
