# generated using pymatgen
data_La2MgCu2
_symmetry_space_group_name_H-M   'P 1'
_cell_length_a   3.91188419
_cell_length_b   7.93713344
_cell_length_c   7.93713344
_cell_angle_alpha   90.00000000
_cell_angle_beta   90.00000000
_cell_angle_gamma   90.00000000
_symmetry_Int_Tables_number   1
_chemical_formula_structural   La2MgCu2
_chemical_formula_sum   'La4 Mg2 Cu4'
_cell_volume   246.44122149
_cell_formula_units_Z   2
loop_
 _symmetry_equiv_pos_site_id
 _symmetry_equiv_pos_as_xyz
  1  'x, y, z'
loop_
 _atom_site_type_symbol
 _atom_site_label
 _atom_site_symmetry_multiplicity
 _atom_site_fract_x
 _atom_site_fract_y
 _atom_site_fract_z
 _atom_site_occupancy
  Mg  Mg0  1  0.000000  0.500000  0.500000  1
  Mg  Mg1  1  0.000000  0.000000  0.000000  1
  Cu  Cu2  1  0.000000  0.619582  0.119582  1
  Cu  Cu3  1  0.000000  0.880418  0.619582  1
  Cu  Cu4  1  0.000000  0.380418  0.880418  1
  Cu  Cu5  1  0.000000  0.119582  0.380418  1
  La  La6  1  0.500000  0.826774  0.326774  1
  La  La7  1  0.500000  0.673226  0.826774  1
  La  La8  1  0.500000  0.326774  0.173226  1
  La  La9  1  0.500000  0.173226  0.673226  1
