# generated using pymatgen
data_BaLa2BeO5
_symmetry_space_group_name_H-M   'P 1'
_cell_length_a   6.89573408
_cell_length_b   7.52232561
_cell_length_c   10.00082616
_cell_angle_alpha   90.78167520
_cell_angle_beta   90.00000000
_cell_angle_gamma   90.00000000
_symmetry_Int_Tables_number   1
_chemical_formula_structural   BaLa2BeO5
_chemical_formula_sum   'Ba4 La8 Be4 O20'
_cell_volume   518.71414792
_cell_formula_units_Z   4
loop_
 _symmetry_equiv_pos_site_id
 _symmetry_equiv_pos_as_xyz
  1  'x, y, z'
loop_
 _atom_site_type_symbol
 _atom_site_label
 _atom_site_symmetry_multiplicity
 _atom_site_fract_x
 _atom_site_fract_y
 _atom_site_fract_z
 _atom_site_occupancy
  Be  Be0  1  0.806624  0.739681  0.903234  1
  Be  Be1  1  0.306624  0.260319  0.596766  1
  Be  Be2  1  0.193376  0.260319  0.096766  1
  Be  Be3  1  0.693376  0.739681  0.403234  1
  O  O4  1  0.368099  0.276580  0.765667  1
  O  O5  1  0.013373  0.721863  0.989581  1
  O  O6  1  0.513373  0.278137  0.510419  1
  O  O7  1  0.986627  0.278137  0.010419  1
  O  O8  1  0.486627  0.721863  0.489581  1
  O  O9  1  0.631901  0.723420  0.234333  1
  O  O10  1  0.131901  0.276580  0.265667  1
  O  O11  1  0.806452  0.930379  0.437533  1
  O  O12  1  0.868099  0.723420  0.734333  1
  O  O13  1  0.164204  0.716751  0.286322  1
  O  O14  1  0.664204  0.283249  0.213678  1
  O  O15  1  0.835796  0.283249  0.713678  1
  O  O16  1  0.193548  0.069621  0.562467  1
  O  O17  1  0.693548  0.930379  0.937533  1
  O  O18  1  0.820647  0.559977  0.434501  1
  O  O19  1  0.306452  0.069621  0.062467  1
  O  O20  1  0.679353  0.559977  0.934501  1
  O  O21  1  0.320647  0.440023  0.065499  1
  O  O22  1  0.179353  0.440023  0.565499  1
  O  O23  1  0.335796  0.716751  0.786322  1
  Ba  Ba24  1  0.582036  0.980889  0.672465  1
  Ba  Ba25  1  0.917964  0.980889  0.172465  1
  Ba  Ba26  1  0.082036  0.019111  0.827535  1
  Ba  Ba27  1  0.417964  0.019111  0.327535  1
  La  La28  1  0.412024  0.744840  0.020368  1
  La  La29  1  0.417705  0.478247  0.323862  1
  La  La30  1  0.917705  0.521753  0.176138  1
  La  La31  1  0.582295  0.521753  0.676137  1
  La  La32  1  0.082295  0.478247  0.823863  1
  La  La33  1  0.087976  0.744840  0.520368  1
  La  La34  1  0.587976  0.255160  0.979632  1
  La  La35  1  0.912024  0.255160  0.479632  1
