# generated using pymatgen
data_Te2MoW3(SeS2)2
_symmetry_space_group_name_H-M   'P 1'
_cell_length_a   3.30854624
_cell_length_b   3.30859936
_cell_length_c   37.69478792
_cell_angle_alpha   90.00038723
_cell_angle_beta   90.00000000
_cell_angle_gamma   119.99946891
_symmetry_Int_Tables_number   1
_chemical_formula_structural   Te2MoW3(SeS2)2
_chemical_formula_sum   'Te2 Mo1 W3 Se2 S4'
_cell_volume   357.35153342
_cell_formula_units_Z   1
loop_
 _symmetry_equiv_pos_site_id
 _symmetry_equiv_pos_as_xyz
  1  'x, y, z'
loop_
 _atom_site_type_symbol
 _atom_site_label
 _atom_site_symmetry_multiplicity
 _atom_site_fract_x
 _atom_site_fract_y
 _atom_site_fract_z
 _atom_site_occupancy
  Te  Te0  1  0.333360  0.666721  0.332853  1
  Te  Te1  1  0.333352  0.666705  0.230769  1
  Mo  Mo2  1  0.333296  0.666591  0.469678  1
  W  W3  1  0.333312  0.666623  0.093893  1
  W  W4  1  0.666693  0.333386  0.281791  1
  W  W5  1  0.666687  0.333374  0.657542  1
  Se  Se6  1  0.333350  0.666701  0.702378  1
  Se  Se7  1  0.333350  0.666702  0.612698  1
  S  S8  1  0.666647  0.333293  0.053218  1
  S  S9  1  0.666655  0.333309  0.429144  1
  S  S10  1  0.666645  0.333289  0.134586  1
  S  S11  1  0.666653  0.333304  0.510196  1
