# generated using pymatgen
data_Ca10P6SeO24
_symmetry_space_group_name_H-M   'P 1'
_cell_length_a   9.60492353
_cell_length_b   9.60492353
_cell_length_c   6.89718767
_cell_angle_alpha   90.00000000
_cell_angle_beta   90.00000000
_cell_angle_gamma   119.99999996
_symmetry_Int_Tables_number   1
_chemical_formula_structural   Ca10P6SeO24
_chemical_formula_sum   'Ca10 P6 Se1 O24'
_cell_volume   551.04935456
_cell_formula_units_Z   1
loop_
 _symmetry_equiv_pos_site_id
 _symmetry_equiv_pos_as_xyz
  1  'x, y, z'
loop_
 _atom_site_type_symbol
 _atom_site_label
 _atom_site_symmetry_multiplicity
 _atom_site_fract_x
 _atom_site_fract_y
 _atom_site_fract_z
 _atom_site_occupancy
  O  O0  1  0.326117  0.483378  0.254796  1
  O  O1  1  0.516622  0.842739  0.254796  1
  O  O2  1  0.157261  0.673883  0.254796  1
  O  O3  1  0.673883  0.516622  0.745204  1
  O  O4  1  0.483378  0.157261  0.745204  1
  O  O5  1  0.842739  0.326117  0.745204  1
  O  O6  1  0.582330  0.467180  0.197212  1
  O  O7  1  0.532820  0.115150  0.197212  1
  O  O8  1  0.884850  0.417670  0.197212  1
  O  O9  1  0.417670  0.532820  0.802788  1
  O  O10  1  0.467180  0.884850  0.802788  1
  O  O11  1  0.115150  0.582330  0.802788  1
  O  O12  1  0.305318  0.236054  0.097066  1
  O  O13  1  0.763946  0.069265  0.097066  1
  O  O14  1  0.930735  0.694682  0.097066  1
  O  O15  1  0.694682  0.763946  0.902934  1
  O  O16  1  0.236054  0.930735  0.902934  1
  O  O17  1  0.069265  0.305318  0.902934  1
  O  O18  1  0.389987  0.291565  0.447730  1
  O  O19  1  0.708435  0.098422  0.447730  1
  O  O20  1  0.901578  0.610013  0.447730  1
  O  O21  1  0.610013  0.708435  0.552270  1
  O  O22  1  0.291565  0.901578  0.552270  1
  O  O23  1  0.098422  0.389987  0.552270  1
  P  P24  1  0.371042  0.971768  0.750934  1
  P  P25  1  0.600726  0.628958  0.750934  1
  P  P26  1  0.971768  0.600726  0.249066  1
  P  P27  1  0.628958  0.028232  0.249066  1
  P  P28  1  0.399274  0.371042  0.249066  1
  P  P29  1  0.028232  0.399274  0.750934  1
  Ca  Ca30  1  0.738096  0.749142  0.250080  1
  Ca  Ca31  1  0.749142  0.011045  0.749920  1
  Ca  Ca32  1  0.988955  0.738096  0.749920  1
  Ca  Ca33  1  0.261904  0.250858  0.749920  1
  Ca  Ca34  1  0.250858  0.988955  0.250080  1
  Ca  Ca35  1  0.666667  0.333333  0.488812  1
  Ca  Ca36  1  0.333333  0.666667  0.511188  1
  Ca  Ca37  1  0.666667  0.333333  0.980177  1
  Ca  Ca38  1  0.333333  0.666667  0.019823  1
  Ca  Ca39  1  0.011045  0.261904  0.250080  1
  Se  Se40  1  0.000000  0.000000  0.500000  1
