# generated using pymatgen
data_MoW3(Se3S)2
_symmetry_space_group_name_H-M   'P 1'
_cell_length_a   3.28695377
_cell_length_b   3.28689900
_cell_length_c   37.38653023
_cell_angle_alpha   90.00015255
_cell_angle_beta   90.00000000
_cell_angle_gamma   120.00055131
_symmetry_Int_Tables_number   1
_chemical_formula_structural   MoW3(Se3S)2
_chemical_formula_sum   'Mo1 W3 Se6 S2'
_cell_volume   349.80284327
_cell_formula_units_Z   1
loop_
 _symmetry_equiv_pos_site_id
 _symmetry_equiv_pos_as_xyz
  1  'x, y, z'
loop_
 _atom_site_type_symbol
 _atom_site_label
 _atom_site_symmetry_multiplicity
 _atom_site_fract_x
 _atom_site_fract_y
 _atom_site_fract_z
 _atom_site_occupancy
  Mo  Mo0  1  0.333309  0.666618  0.093927  1
  W  W1  1  0.333314  0.666629  0.469650  1
  W  W2  1  0.666692  0.333384  0.281800  1
  W  W3  1  0.666685  0.333370  0.657542  1
  Se  Se4  1  0.333355  0.666711  0.702922  1
  Se  Se5  1  0.666644  0.333288  0.048823  1
  Se  Se6  1  0.666646  0.333291  0.424277  1
  Se  Se7  1  0.666643  0.333284  0.139032  1
  Se  Se8  1  0.666640  0.333280  0.515027  1
  Se  Se9  1  0.333355  0.666710  0.612151  1
  S  S10  1  0.333356  0.666712  0.323029  1
  S  S11  1  0.333362  0.666724  0.240570  1
