# generated using pymatgen
data_As2O3
_symmetry_space_group_name_H-M   'P 1'
_cell_length_a   4.65853148
_cell_length_b   5.65915327
_cell_length_c   13.82279280
_cell_angle_alpha   90.00000000
_cell_angle_beta   90.00000000
_cell_angle_gamma   94.42563179
_symmetry_Int_Tables_number   1
_chemical_formula_structural   As2O3
_chemical_formula_sum   'As8 O12'
_cell_volume   363.32847149
_cell_formula_units_Z   4
loop_
 _symmetry_equiv_pos_site_id
 _symmetry_equiv_pos_as_xyz
  1  'x, y, z'
loop_
 _atom_site_type_symbol
 _atom_site_label
 _atom_site_symmetry_multiplicity
 _atom_site_fract_x
 _atom_site_fract_y
 _atom_site_fract_z
 _atom_site_occupancy
  O  O0  1  0.366923  0.535342  0.352643  1
  O  O1  1  0.133077  0.964658  0.852643  1
  O  O2  1  0.633077  0.464658  0.647357  1
  O  O3  1  0.866923  0.035342  0.147357  1
  O  O4  1  0.347811  0.840845  0.110258  1
  O  O5  1  0.152189  0.659155  0.610258  1
  O  O6  1  0.652189  0.159155  0.889742  1
  O  O7  1  0.847811  0.340845  0.389742  1
  O  O8  1  0.934042  0.564216  0.216306  1
  O  O9  1  0.565958  0.935784  0.716306  1
  O  O10  1  0.065958  0.435784  0.783694  1
  O  O11  1  0.434042  0.064216  0.283694  1
  As  As12  1  0.501798  0.129276  0.155530  1
  As  As13  1  -0.001798  0.370724  0.655530  1
  As  As14  1  0.498202  0.870724  0.844470  1
  As  As15  1  1.001798  0.629276  0.344470  1
  As  As16  1  0.465658  0.243658  0.392339  1
  As  As17  1  0.034342  0.256342  0.892339  1
  As  As18  1  0.534342  0.756342  0.607661  1
  As  As19  1  0.965658  0.743658  0.107661  1
