# generated using pymatgen
data_Te2MoWS2
_symmetry_space_group_name_H-M   'P 1'
_cell_length_a   3.35231102
_cell_length_b   3.35227780
_cell_length_c   39.91731198
_cell_angle_alpha   89.99932923
_cell_angle_beta   90.00000000
_cell_angle_gamma   120.00032786
_symmetry_Int_Tables_number   1
_chemical_formula_structural   Te2MoWS2
_chemical_formula_sum   'Te4 Mo2 W2 S4'
_cell_volume   388.48547914
_cell_formula_units_Z   2
loop_
 _symmetry_equiv_pos_site_id
 _symmetry_equiv_pos_as_xyz
  1  'x, y, z'
loop_
 _atom_site_type_symbol
 _atom_site_label
 _atom_site_symmetry_multiplicity
 _atom_site_fract_x
 _atom_site_fract_y
 _atom_site_fract_z
 _atom_site_occupancy
  Te  Te0  1  0.333404  0.666808  0.330723  1
  Te  Te1  1  0.666624  0.333248  0.044819  1
  Te  Te2  1  0.666559  0.333118  0.139593  1
  Te  Te3  1  0.333396  0.666793  0.235937  1
  Mo  Mo4  1  0.333264  0.666528  0.092186  1
  Mo  Mo5  1  0.666743  0.333486  0.283356  1
  W  W6  1  0.333316  0.666633  0.469873  1
  W  W7  1  0.666685  0.333371  0.657522  1
  S  S8  1  0.333350  0.666702  0.695565  1
  S  S9  1  0.666654  0.333307  0.431797  1
  S  S10  1  0.666646  0.333291  0.507910  1
  S  S11  1  0.333358  0.666716  0.619468  1
