# generated using pymatgen
data_CoWO4
_symmetry_space_group_name_H-M   'P 1'
_cell_length_a   4.71891660
_cell_length_b   5.05234593
_cell_length_c   5.75757682
_cell_angle_alpha   89.99973896
_cell_angle_beta   89.99875848
_cell_angle_gamma   90.65857753
_symmetry_Int_Tables_number   1
_chemical_formula_structural   CoWO4
_chemical_formula_sum   'Co2 W2 O8'
_cell_volume   137.26077019
_cell_formula_units_Z   2
loop_
 _symmetry_equiv_pos_site_id
 _symmetry_equiv_pos_as_xyz
  1  'x, y, z'
loop_
 _atom_site_type_symbol
 _atom_site_label
 _atom_site_symmetry_multiplicity
 _atom_site_fract_x
 _atom_site_fract_y
 _atom_site_fract_z
 _atom_site_occupancy
  O  O0  1  0.742481  0.099954  0.376951  1
  O  O1  1  0.258771  0.400369  0.374467  1
  Co  Co2  1  0.500101  0.253852  0.660477  1
  W  W3  1  0.999965  0.749955  0.826072  1
  O  O4  1  0.742470  0.599949  0.623058  1
  O  O5  1  0.782271  0.567194  0.108070  1
  O  O6  1  0.216404  0.428677  0.890220  1
  Co  Co7  1  0.500112  0.753864  0.339511  1
  O  O8  1  0.782260  0.067187  0.891941  1
  O  O9  1  0.216413  0.928684  0.109774  1
  W  W10  1  0.999989  0.249956  0.173930  1
  O  O11  1  0.258762  0.900359  0.625529  1
