# generated using pymatgen
data_NdFe3(BO3)4
_symmetry_space_group_name_H-M   'P 1'
_cell_length_a   6.15805066
_cell_length_b   6.15805065
_cell_length_c   6.15805066
_cell_angle_alpha   103.75290672
_cell_angle_beta   103.75290678
_cell_angle_gamma   103.75290678
_symmetry_Int_Tables_number   1
_chemical_formula_structural   NdFe3(BO3)4
_chemical_formula_sum   'Nd1 Fe3 B4 O12'
_cell_volume   209.33532829
_cell_formula_units_Z   1
loop_
 _symmetry_equiv_pos_site_id
 _symmetry_equiv_pos_as_xyz
  1  'x, y, z'
loop_
 _atom_site_type_symbol
 _atom_site_label
 _atom_site_symmetry_multiplicity
 _atom_site_fract_x
 _atom_site_fract_y
 _atom_site_fract_z
 _atom_site_occupancy
  B  B0  1  0.053439  0.500000  0.946561  1
  B  B1  1  0.500000  0.946561  0.053439  1
  B  B2  1  0.946561  0.053439  0.500000  1
  B  B3  1  0.500000  0.500000  0.500000  1
  O  O4  1  0.210046  0.373627  0.970819  1
  O  O5  1  0.789954  0.029181  0.626373  1
  O  O6  1  0.626373  0.789954  0.029181  1
  O  O7  1  0.029181  0.626373  0.789954  1
  O  O8  1  0.356594  0.643406  0.500000  1
  O  O9  1  0.500000  0.356594  0.643406  1
  O  O10  1  0.643406  0.500000  0.356594  1
  O  O11  1  0.090010  0.909990  0.500000  1
  O  O12  1  0.500000  0.090010  0.909990  1
  O  O13  1  0.909990  0.500000  0.090010  1
  O  O14  1  0.970819  0.210046  0.373627  1
  O  O15  1  0.373627  0.970819  0.210046  1
  Fe  Fe16  1  0.449260  0.000000  0.550740  1
  Fe  Fe17  1  0.000000  0.550740  0.449260  1
  Fe  Fe18  1  0.550740  0.449260  0.000000  1
  Nd  Nd19  1  0.000000  0.000000  0.000000  1
