# generated using pymatgen
data_Al2FeS4
_symmetry_space_group_name_H-M   'P 1'
_cell_length_a   3.59610321
_cell_length_b   3.59610321
_cell_length_c   12.50717848
_cell_angle_alpha   81.73442899
_cell_angle_beta   81.73442899
_cell_angle_gamma   59.99999977
_symmetry_Int_Tables_number   1
_chemical_formula_structural   Al2FeS4
_chemical_formula_sum   'Al2 Fe1 S4'
_cell_volume   138.12950601
_cell_formula_units_Z   1
loop_
 _symmetry_equiv_pos_site_id
 _symmetry_equiv_pos_as_xyz
  1  'x, y, z'
loop_
 _atom_site_type_symbol
 _atom_site_label
 _atom_site_symmetry_multiplicity
 _atom_site_fract_x
 _atom_site_fract_y
 _atom_site_fract_z
 _atom_site_occupancy
  Al  Al0  1  0.701821  0.701821  0.894537  1
  Al  Al1  1  0.467134  0.467134  0.598599  1
  Fe  Fe2  1  0.938968  0.938968  0.183097  1
  S  S3  1  0.003351  0.003351  0.989946  1
  S  S4  1  0.826525  0.826525  0.520424  1
  S  S5  1  0.582745  0.582745  0.251764  1
  S  S6  1  0.406656  0.406656  0.780033  1
