# generated using pymatgen
data_NaLiZr(Si2O5)3
_symmetry_space_group_name_H-M   'P 1'
_cell_length_a   10.30604355
_cell_length_b   11.40345286
_cell_length_c   11.40345286
_cell_angle_alpha   100.61971353
_cell_angle_beta   90.00000000
_cell_angle_gamma   90.00000000
_symmetry_Int_Tables_number   1
_chemical_formula_structural   NaLiZr(Si2O5)3
_chemical_formula_sum   'Na4 Li4 Zr4 Si24 O60'
_cell_volume   1317.23020132
_cell_formula_units_Z   4
loop_
 _symmetry_equiv_pos_site_id
 _symmetry_equiv_pos_as_xyz
  1  'x, y, z'
loop_
 _atom_site_type_symbol
 _atom_site_label
 _atom_site_symmetry_multiplicity
 _atom_site_fract_x
 _atom_site_fract_y
 _atom_site_fract_z
 _atom_site_occupancy
  Li  Li0  1  0.000000  0.246780  0.246780  1
  Li  Li1  1  0.500000  0.746780  0.746780  1
  Li  Li2  1  0.000000  0.753220  0.753220  1
  Li  Li3  1  0.500000  0.253220  0.253220  1
  O  O4  1  0.922839  0.248218  0.406630  1
  O  O5  1  0.425872  0.678826  0.321174  1
  O  O6  1  0.925872  0.821174  0.178826  1
  O  O7  1  0.574128  0.321174  0.678826  1
  O  O8  1  0.817059  0.056486  0.943514  1
  O  O9  1  0.317059  0.443514  0.556486  1
  O  O10  1  0.182941  0.943514  0.056486  1
  O  O11  1  0.682941  0.556486  0.443514  1
  O  O12  1  0.498422  0.107101  0.892899  1
  O  O13  1  0.998422  0.392899  0.607101  1
  O  O14  1  0.501578  0.892899  0.107101  1
  O  O15  1  0.001578  0.607101  0.392899  1
  O  O16  1  0.833890  0.653943  0.003914  1
  O  O17  1  0.333890  0.846057  0.496086  1
  O  O18  1  0.166110  0.003914  0.653943  1
  O  O19  1  0.666110  0.496086  0.846057  1
  O  O20  1  0.166110  0.346057  0.996086  1
  O  O21  1  0.666110  0.153943  0.503914  1
  O  O22  1  0.833890  0.996086  0.346057  1
  O  O23  1  0.333890  0.503914  0.153943  1
  O  O24  1  0.084932  0.721010  0.002599  1
  O  O25  1  0.584932  0.778990  0.497401  1
  O  O26  1  0.915068  0.002599  0.721010  1
  O  O27  1  0.840023  0.168634  0.171466  1
  O  O28  1  0.915068  0.278990  0.997401  1
  O  O29  1  0.415068  0.221010  0.502599  1
  O  O30  1  0.084932  0.997401  0.278990  1
  O  O31  1  0.584932  0.502599  0.221010  1
  O  O32  1  0.159977  0.831366  0.828534  1
  O  O33  1  0.659977  0.668634  0.671466  1
  O  O34  1  0.840023  0.828534  0.831366  1
  O  O35  1  0.340023  0.671466  0.668634  1
  O  O36  1  0.006708  0.594232  0.155562  1
  O  O37  1  0.506708  0.905768  0.344438  1
  O  O38  1  0.993292  0.155562  0.594232  1
  O  O39  1  0.493292  0.344438  0.905768  1
  O  O40  1  0.993292  0.405768  0.844438  1
  O  O41  1  0.493292  0.094232  0.655562  1
  O  O42  1  0.006708  0.844438  0.405768  1
  O  O43  1  0.506708  0.655562  0.094232  1
  O  O44  1  0.077161  0.406630  0.248218  1
  O  O45  1  0.577161  0.093370  0.251782  1
  O  O46  1  0.074128  0.178826  0.821174  1
  O  O47  1  0.422839  0.251782  0.093370  1
  O  O48  1  0.922839  0.593370  0.751782  1
  O  O49  1  0.422839  0.906630  0.748218  1
  O  O50  1  0.077161  0.751782  0.593370  1
  O  O51  1  0.577161  0.748218  0.906630  1
  O  O52  1  0.829325  0.475146  0.250135  1
  O  O53  1  0.329325  0.024854  0.249865  1
  O  O54  1  0.170675  0.250135  0.475146  1
  O  O55  1  0.670675  0.249865  0.024854  1
  O  O56  1  0.170675  0.524854  0.749865  1
  O  O57  1  0.670675  0.975146  0.750135  1
  O  O58  1  0.829325  0.749865  0.524854  1
  O  O59  1  0.329325  0.750135  0.975146  1
  O  O60  1  0.659977  0.328534  0.331366  1
  O  O61  1  0.159977  0.171466  0.168634  1
  O  O62  1  0.340023  0.331366  0.328534  1
  O  O63  1  0.415068  0.497401  0.778990  1
  Na  Na64  1  0.750000  0.465621  0.034379  1
  Na  Na65  1  0.250000  0.034379  0.465621  1
  Na  Na66  1  0.250000  0.534379  0.965621  1
  Na  Na67  1  0.750000  0.965621  0.534379  1
  Si  Si68  1  0.481825  0.763822  0.020372  1
  Si  Si69  1  0.541007  0.199343  0.584595  1
  Si  Si70  1  0.958993  0.915405  0.300657  1
  Si  Si71  1  0.458993  0.584595  0.199343  1
  Si  Si72  1  0.189018  0.816823  0.963822  1
  Si  Si73  1  0.689018  0.683177  0.536178  1
  Si  Si74  1  0.810982  0.963822  0.816823  1
  Si  Si75  1  0.310982  0.536178  0.683177  1
  Si  Si76  1  0.810982  0.183177  0.036178  1
  Si  Si77  1  0.310982  0.316823  0.463822  1
  Si  Si78  1  0.189018  0.036178  0.183177  1
  Si  Si79  1  0.689018  0.463822  0.316823  1
  Si  Si80  1  0.041007  0.300657  0.915405  1
  Si  Si81  1  0.981825  0.736178  0.479628  1
  Si  Si82  1  0.541007  0.415405  0.800657  1
  Si  Si83  1  0.018175  0.479628  0.736178  1
  Si  Si84  1  0.518175  0.236178  0.979628  1
  Si  Si85  1  0.018175  0.263822  0.520372  1
  Si  Si86  1  0.481825  0.979628  0.236178  1
  Si  Si87  1  0.981825  0.520372  0.263822  1
  Si  Si88  1  0.958993  0.699343  0.084595  1
  Si  Si89  1  0.458993  0.800657  0.415405  1
  Si  Si90  1  0.041007  0.084595  0.699343  1
  Si  Si91  1  0.518175  0.020372  0.763822  1
  Zr  Zr92  1  0.750000  0.161565  0.338435  1
  Zr  Zr93  1  0.250000  0.338435  0.161565  1
  Zr  Zr94  1  0.250000  0.838435  0.661565  1
  Zr  Zr95  1  0.750000  0.661565  0.838435  1
