# generated using pymatgen
data_Ca3(GeP2)2
_symmetry_space_group_name_H-M   'P 1'
_cell_length_a   7.08852172
_cell_length_b   7.14861705
_cell_length_c   17.57216778
_cell_angle_alpha   90.00000000
_cell_angle_beta   90.00000000
_cell_angle_gamma   111.74353665
_symmetry_Int_Tables_number   1
_chemical_formula_structural   Ca3(GeP2)2
_chemical_formula_sum   'Ca12 Ge8 P16'
_cell_volume   827.08332417
_cell_formula_units_Z   4
loop_
 _symmetry_equiv_pos_site_id
 _symmetry_equiv_pos_as_xyz
  1  'x, y, z'
loop_
 _atom_site_type_symbol
 _atom_site_label
 _atom_site_symmetry_multiplicity
 _atom_site_fract_x
 _atom_site_fract_y
 _atom_site_fract_z
 _atom_site_occupancy
  P  P0  1  0.746261  0.501658  0.565877  1
  P  P1  1  0.276842  0.965557  0.314949  1
  P  P2  1  0.776842  0.965557  0.185051  1
  P  P3  1  0.723158  0.034443  0.685051  1
  P  P4  1  0.227490  0.512516  0.696836  1
  P  P5  1  0.272510  0.487484  0.196836  1
  P  P6  1  0.772510  0.487484  0.303164  1
  P  P7  1  0.727490  0.512516  0.803164  1
  P  P8  1  0.748417  0.003545  0.941313  1
  P  P9  1  0.223158  0.034443  0.814949  1
  P  P10  1  0.751583  0.996455  0.441313  1
  P  P11  1  0.251583  0.996455  0.058687  1
  P  P12  1  0.753739  0.498342  0.065877  1
  P  P13  1  0.253739  0.498342  0.434123  1
  P  P14  1  0.246261  0.501658  0.934123  1
  P  P15  1  0.248417  0.003545  0.558687  1
  Ca  Ca16  1  0.988015  0.785077  0.683050  1
  Ca  Ca17  1  0.511985  0.214923  0.183050  1
  Ca  Ca18  1  0.988246  0.742582  0.939883  1
  Ca  Ca19  1  0.488015  0.785077  0.816950  1
  Ca  Ca20  1  0.004092  0.262419  0.560238  1
  Ca  Ca21  1  0.495908  0.737581  0.060238  1
  Ca  Ca22  1  0.995908  0.737581  0.439762  1
  Ca  Ca23  1  0.504092  0.262419  0.939762  1
  Ca  Ca24  1  0.488246  0.742582  0.560117  1
  Ca  Ca25  1  0.011754  0.257418  0.060117  1
  Ca  Ca26  1  0.511754  0.257418  0.439883  1
  Ca  Ca27  1  0.011985  0.214923  0.316950  1
  Ge  Ge28  1  0.969792  0.790949  0.125501  1
  Ge  Ge29  1  0.030208  0.209051  0.874499  1
  Ge  Ge30  1  0.469792  0.790949  0.374499  1
  Ge  Ge31  1  0.915301  0.319557  0.757551  1
  Ge  Ge32  1  0.584699  0.680443  0.257551  1
  Ge  Ge33  1  0.084699  0.680443  0.242449  1
  Ge  Ge34  1  0.415301  0.319557  0.742449  1
  Ge  Ge35  1  0.530208  0.209051  0.625501  1
