# generated using pymatgen
data_TeMo2SeS2
_symmetry_space_group_name_H-M   'P 1'
_cell_length_a   3.30866463
_cell_length_b   3.30838912
_cell_length_c   38.97608436
_cell_angle_alpha   90.00429385
_cell_angle_beta   90.00000000
_cell_angle_gamma   120.00275490
_symmetry_Int_Tables_number   1
_chemical_formula_structural   TeMo2SeS2
_chemical_formula_sum   'Te2 Mo4 Se2 S4'
_cell_volume   369.47589731
_cell_formula_units_Z   2
loop_
 _symmetry_equiv_pos_site_id
 _symmetry_equiv_pos_as_xyz
  1  'x, y, z'
loop_
 _atom_site_type_symbol
 _atom_site_label
 _atom_site_symmetry_multiplicity
 _atom_site_fract_x
 _atom_site_fract_y
 _atom_site_fract_z
 _atom_site_occupancy
  Te  Te0  1  0.666640  0.333280  0.421191  1
  Te  Te1  1  0.666689  0.333377  0.519364  1
  Mo  Mo2  1  0.333290  0.666581  0.093830  1
  Mo  Mo3  1  0.333307  0.666614  0.470328  1
  Mo  Mo4  1  0.666640  0.333281  0.280773  1
  Mo  Mo5  1  0.666782  0.333564  0.658018  1
  Se  Se6  1  0.333293  0.666587  0.323927  1
  Se  Se7  1  0.333283  0.666567  0.237633  1
  S  S8  1  0.333415  0.666831  0.697203  1
  S  S9  1  0.666615  0.333229  0.054694  1
  S  S10  1  0.666668  0.333336  0.132966  1
  S  S11  1  0.333376  0.666754  0.618821  1
