# generated using pymatgen
data_K2Mg2Be3F12
_symmetry_space_group_name_H-M   'P 1'
_cell_length_a   10.03943749
_cell_length_b   10.03943749
_cell_length_c   10.03943749
_cell_angle_alpha   90.00000000
_cell_angle_beta   90.00000000
_cell_angle_gamma   90.00000000
_symmetry_Int_Tables_number   1
_chemical_formula_structural   K2Mg2Be3F12
_chemical_formula_sum   'K8 Mg8 Be12 F48'
_cell_volume   1011.87796781
_cell_formula_units_Z   4
loop_
 _symmetry_equiv_pos_site_id
 _symmetry_equiv_pos_as_xyz
  1  'x, y, z'
loop_
 _atom_site_type_symbol
 _atom_site_label
 _atom_site_symmetry_multiplicity
 _atom_site_fract_x
 _atom_site_fract_y
 _atom_site_fract_z
 _atom_site_occupancy
  Be  Be0  1  0.626191  0.460048  0.271450  1
  Be  Be1  1  0.873809  0.539952  0.771450  1
  Be  Be2  1  0.373809  0.960048  0.228550  1
  Be  Be3  1  0.126191  0.039952  0.728550  1
  Be  Be4  1  0.960048  0.228550  0.373809  1
  Be  Be5  1  0.728550  0.126191  0.039952  1
  Be  Be6  1  0.228550  0.373809  0.960048  1
  Be  Be7  1  0.539952  0.771450  0.873809  1
  Be  Be8  1  0.771450  0.873809  0.539952  1
  Be  Be9  1  0.039952  0.728550  0.126191  1
  Be  Be10  1  0.460048  0.271450  0.626191  1
  Be  Be11  1  0.271450  0.626191  0.460048  1
  F  F12  1  0.417194  0.652540  0.503548  1
  F  F13  1  0.423964  0.812786  0.233512  1
  F  F14  1  0.076036  0.187214  0.733512  1
  F  F15  1  0.812786  0.233512  0.423964  1
  F  F16  1  0.978319  0.447990  0.700116  1
  F  F17  1  0.521681  0.552010  0.200116  1
  F  F18  1  0.200116  0.521681  0.552010  1
  F  F19  1  0.552010  0.200116  0.521681  1
  F  F20  1  0.947990  0.799884  0.021681  1
  F  F21  1  0.700116  0.978319  0.447990  1
  F  F22  1  0.447990  0.700116  0.978319  1
  F  F23  1  0.299884  0.478319  0.052010  1
  F  F24  1  0.799884  0.021681  0.947990  1
  F  F25  1  0.052010  0.299884  0.478319  1
  F  F26  1  0.021681  0.947990  0.799884  1
  F  F27  1  0.478319  0.052010  0.299884  1
  F  F28  1  0.652540  0.503548  0.417194  1
  F  F29  1  0.923964  0.687214  0.766488  1
  F  F30  1  0.503548  0.417194  0.652540  1
  F  F31  1  0.996452  0.582806  0.152540  1
  F  F32  1  0.917194  0.847460  0.496452  1
  F  F33  1  0.496452  0.917194  0.847460  1
  F  F34  1  0.082806  0.347460  0.003548  1
  F  F35  1  0.582806  0.152540  0.996452  1
  F  F36  1  0.003548  0.082806  0.347460  1
  F  F37  1  0.152540  0.996452  0.582806  1
  F  F38  1  0.347460  0.003548  0.082806  1
  F  F39  1  0.847460  0.496452  0.917194  1
  F  F40  1  0.756957  0.479211  0.189585  1
  F  F41  1  0.189585  0.756957  0.479211  1
  F  F42  1  0.479211  0.189585  0.756957  1
  F  F43  1  0.020789  0.810415  0.256957  1
  F  F44  1  0.689585  0.743043  0.520789  1
  F  F45  1  0.520789  0.689585  0.743043  1
  F  F46  1  0.310415  0.243043  0.979211  1
  F  F47  1  0.810415  0.256957  0.020789  1
  F  F48  1  0.979211  0.310415  0.243043  1
  F  F49  1  0.256957  0.020789  0.810415  1
  F  F50  1  0.243043  0.979211  0.310415  1
  F  F51  1  0.743043  0.520789  0.689585  1
  F  F52  1  0.576036  0.312786  0.266488  1
  F  F53  1  0.266488  0.576036  0.312786  1
  F  F54  1  0.312786  0.266488  0.576036  1
  F  F55  1  0.187214  0.733512  0.076036  1
  F  F56  1  0.766488  0.923964  0.687214  1
  F  F57  1  0.733512  0.076036  0.187214  1
  F  F58  1  0.233512  0.423964  0.812786  1
  F  F59  1  0.687214  0.766488  0.923964  1
  Mg  Mg60  1  0.146704  0.353296  0.646704  1
  Mg  Mg61  1  0.353296  0.646704  0.146704  1
  Mg  Mg62  1  0.646704  0.146704  0.353296  1
  Mg  Mg63  1  0.853296  0.853296  0.853296  1
  Mg  Mg64  1  0.414693  0.085307  0.914693  1
  Mg  Mg65  1  0.085307  0.914693  0.414693  1
  Mg  Mg66  1  0.914693  0.414693  0.085307  1
  Mg  Mg67  1  0.585307  0.585307  0.585307  1
  K  K68  1  0.701505  0.798495  0.201505  1
  K  K69  1  0.798495  0.201505  0.701505  1
  K  K70  1  0.201505  0.701505  0.798495  1
  K  K71  1  0.298495  0.298495  0.298495  1
  K  K72  1  0.935197  0.564803  0.435197  1
  K  K73  1  0.564803  0.435197  0.935197  1
  K  K74  1  0.435197  0.935197  0.564803  1
  K  K75  1  0.064803  0.064803  0.064803  1
