# generated using pymatgen
data_Te2MoW3(Se2S)2
_symmetry_space_group_name_H-M   'P 1'
_cell_length_a   3.34295868
_cell_length_b   3.34292508
_cell_length_c   38.68831074
_cell_angle_alpha   89.99997122
_cell_angle_beta   90.00000000
_cell_angle_gamma   120.00032840
_symmetry_Int_Tables_number   1
_chemical_formula_structural   Te2MoW3(Se2S)2
_chemical_formula_sum   'Te2 Mo1 W3 Se4 S2'
_cell_volume   374.42653121
_cell_formula_units_Z   1
loop_
 _symmetry_equiv_pos_site_id
 _symmetry_equiv_pos_as_xyz
  1  'x, y, z'
loop_
 _atom_site_type_symbol
 _atom_site_label
 _atom_site_symmetry_multiplicity
 _atom_site_fract_x
 _atom_site_fract_y
 _atom_site_fract_z
 _atom_site_occupancy
  Te  Te0  1  0.333346  0.666693  0.706813  1
  Te  Te1  1  0.333348  0.666697  0.608223  1
  Mo  Mo2  1  0.333308  0.666615  0.469666  1
  W  W3  1  0.333305  0.666611  0.093948  1
  W  W4  1  0.666693  0.333387  0.281805  1
  W  W5  1  0.666691  0.333382  0.657550  1
  Se  Se6  1  0.666646  0.333291  0.050676  1
  Se  Se7  1  0.666649  0.333297  0.426573  1
  Se  Se8  1  0.666647  0.333293  0.137209  1
  Se  Se9  1  0.666650  0.333298  0.512717  1
  S  S10  1  0.333361  0.666723  0.321144  1
  S  S11  1  0.333356  0.666713  0.242424  1
