# generated using pymatgen
data_Tb2Cu(GeO3)4
_symmetry_space_group_name_H-M   'P 1'
_cell_length_a   4.99112481
_cell_length_b   7.31600602
_cell_length_c   8.04406384
_cell_angle_alpha   66.26618202
_cell_angle_beta   86.83751703
_cell_angle_gamma   76.78532797
_symmetry_Int_Tables_number   1
_chemical_formula_structural   Tb2Cu(GeO3)4
_chemical_formula_sum   'Tb2 Cu1 Ge4 O12'
_cell_volume   261.54383934
_cell_formula_units_Z   1
loop_
 _symmetry_equiv_pos_site_id
 _symmetry_equiv_pos_as_xyz
  1  'x, y, z'
loop_
 _atom_site_type_symbol
 _atom_site_label
 _atom_site_symmetry_multiplicity
 _atom_site_fract_x
 _atom_site_fract_y
 _atom_site_fract_z
 _atom_site_occupancy
  O  O0  1  0.772799  0.933141  0.612614  1
  O  O1  1  0.227201  0.066859  0.387386  1
  O  O2  1  0.791847  0.576446  0.386689  1
  O  O3  1  0.208153  0.423554  0.613311  1
  O  O4  1  0.419022  0.656123  0.707610  1
  O  O5  1  0.580978  0.343877  0.292390  1
  O  O6  1  0.732855  0.687148  0.988111  1
  O  O7  1  0.743305  0.223396  0.807854  1
  O  O8  1  0.256695  0.776604  0.192146  1
  O  O9  1  0.752635  0.995092  0.202431  1
  O  O10  1  0.247365  0.004908  0.797569  1
  O  O11  1  0.267145  0.312852  0.011889  1
  Cu  Cu12  1  0.000000  0.000000  0.000000  1
  Ge  Ge13  1  0.539829  0.830458  0.776491  1
  Ge  Ge14  1  0.460171  0.169542  0.223509  1
  Ge  Ge15  1  0.581310  0.616091  0.203172  1
  Ge  Ge16  1  0.418690  0.383909  0.796828  1
  Tb  Tb17  1  0.046476  0.769520  0.451624  1
  Tb  Tb18  1  0.953524  0.230480  0.548376  1
