# generated using pymatgen
data_Te2W3(SeS)2
_symmetry_space_group_name_H-M   'P 1'
_cell_length_a   3.34808550
_cell_length_b   3.34809017
_cell_length_c   31.01786267
_cell_angle_alpha   90.00026168
_cell_angle_beta   90.00000000
_cell_angle_gamma   119.99995386
_symmetry_Int_Tables_number   1
_chemical_formula_structural   Te2W3(SeS)2
_chemical_formula_sum   'Te2 W3 Se2 S2'
_cell_volume   301.11777199
_cell_formula_units_Z   1
loop_
 _symmetry_equiv_pos_site_id
 _symmetry_equiv_pos_as_xyz
  1  'x, y, z'
loop_
 _atom_site_type_symbol
 _atom_site_label
 _atom_site_symmetry_multiplicity
 _atom_site_fract_x
 _atom_site_fract_y
 _atom_site_fract_z
 _atom_site_occupancy
  Te  Te0  1  0.666647  0.333292  0.516921  1
  Te  Te1  1  0.666642  0.333283  0.639696  1
  W  W2  1  0.333307  0.666614  0.115653  1
  W  W3  1  0.333311  0.666622  0.578345  1
  W  W4  1  0.666690  0.333380  0.346982  1
  Se  Se5  1  0.666646  0.333291  0.061760  1
  Se  Se6  1  0.666641  0.333282  0.169535  1
  S  S7  1  0.333360  0.666721  0.396013  1
  S  S8  1  0.333357  0.666714  0.297935  1
