# generated using pymatgen
data_La2Ta3(SO4)2
_symmetry_space_group_name_H-M   'P 1'
_cell_length_a   7.70039102
_cell_length_b   9.96495187
_cell_length_c   11.89782852
_cell_angle_alpha   90.00000000
_cell_angle_beta   90.00000000
_cell_angle_gamma   90.00000000
_symmetry_Int_Tables_number   1
_chemical_formula_structural   La2Ta3(SO4)2
_chemical_formula_sum   'La8 Ta12 S8 O32'
_cell_volume   912.96828174
_cell_formula_units_Z   4
loop_
 _symmetry_equiv_pos_site_id
 _symmetry_equiv_pos_as_xyz
  1  'x, y, z'
loop_
 _atom_site_type_symbol
 _atom_site_label
 _atom_site_symmetry_multiplicity
 _atom_site_fract_x
 _atom_site_fract_y
 _atom_site_fract_z
 _atom_site_occupancy
  O  O0  1  0.500000  0.366004  0.053643  1
  O  O1  1  0.500000  0.633996  0.946357  1
  O  O2  1  0.000000  0.866004  0.446357  1
  O  O3  1  0.000000  0.133996  0.553643  1
  O  O4  1  0.500000  0.151042  0.549225  1
  O  O5  1  0.500000  0.848958  0.450775  1
  O  O6  1  0.000000  0.651042  0.950775  1
  O  O7  1  0.000000  0.348958  0.049225  1
  O  O8  1  0.749967  0.786898  0.276601  1
  O  O9  1  0.749967  0.213102  0.723399  1
  O  O10  1  0.750033  0.286898  0.223399  1
  O  O11  1  0.750033  0.713102  0.776601  1
  O  O12  1  0.250033  0.213102  0.723399  1
  O  O13  1  0.250033  0.786898  0.276601  1
  O  O14  1  0.265433  0.196978  0.975033  1
  O  O15  1  0.249967  0.713102  0.776601  1
  O  O16  1  0.755525  0.556179  0.103047  1
  O  O17  1  0.755525  0.443821  0.896953  1
  O  O18  1  0.744475  0.056179  0.396953  1
  O  O19  1  0.744475  0.943821  0.603047  1
  O  O20  1  0.244475  0.443821  0.896953  1
  O  O21  1  0.244475  0.556179  0.103047  1
  O  O22  1  0.255525  0.943821  0.603047  1
  O  O23  1  0.255525  0.056179  0.396953  1
  O  O24  1  0.734567  0.803022  0.024967  1
  O  O25  1  0.734567  0.196978  0.975033  1
  O  O26  1  0.765433  0.303022  0.475033  1
  O  O27  1  0.765433  0.696978  0.524967  1
  O  O28  1  0.234567  0.303022  0.475033  1
  O  O29  1  0.234567  0.696978  0.524967  1
  O  O30  1  0.265433  0.803022  0.024967  1
  O  O31  1  0.249967  0.286898  0.223399  1
  S  S32  1  0.500000  0.982118  0.846853  1
  S  S33  1  0.500000  0.017882  0.153147  1
  S  S34  1  0.000000  0.482118  0.653147  1
  S  S35  1  0.000000  0.517882  0.346853  1
  S  S36  1  0.500000  0.481089  0.632201  1
  S  S37  1  0.500000  0.518911  0.367799  1
  S  S38  1  0.000000  0.981089  0.867799  1
  S  S39  1  0.000000  0.018911  0.132201  1
  La  La40  1  0.000000  0.793056  0.664442  1
  La  La41  1  0.500000  0.706944  0.164442  1
  La  La42  1  0.500000  0.293056  0.835558  1
  La  La43  1  0.000000  0.729908  0.154733  1
  La  La44  1  0.000000  0.270092  0.845267  1
  La  La45  1  0.500000  0.229908  0.345267  1
  La  La46  1  0.000000  0.206944  0.335558  1
  La  La47  1  0.500000  0.770092  0.654733  1
  Ta  Ta48  1  0.250204  0.136389  0.580868  1
  Ta  Ta49  1  0.250204  0.863611  0.419132  1
  Ta  Ta50  1  0.249796  0.636389  0.919132  1
  Ta  Ta51  1  0.249796  0.363611  0.080868  1
  Ta  Ta52  1  0.750204  0.636389  0.919132  1
  Ta  Ta53  1  0.749796  0.136389  0.580868  1
  Ta  Ta54  1  0.749796  0.863611  0.419132  1
  Ta  Ta55  1  0.286409  0.000000  0.000000  1
  Ta  Ta56  1  0.213591  0.500000  0.500000  1
  Ta  Ta57  1  0.713591  0.000000  0.000000  1
  Ta  Ta58  1  0.786409  0.500000  0.500000  1
  Ta  Ta59  1  0.750204  0.363611  0.080868  1
