# generated using pymatgen
data_Hf6Zn6N
_symmetry_space_group_name_H-M   'P 1'
_cell_length_a   11.98226005
_cell_length_b   11.98226005
_cell_length_c   11.98226005
_cell_angle_alpha   90.00000000
_cell_angle_beta   90.00000000
_cell_angle_gamma   90.00000000
_symmetry_Int_Tables_number   1
_chemical_formula_structural   Hf6Zn6N
_chemical_formula_sum   'Hf48 Zn48 N8'
_cell_volume   1720.34766543
_cell_formula_units_Z   8
loop_
 _symmetry_equiv_pos_site_id
 _symmetry_equiv_pos_as_xyz
  1  'x, y, z'
loop_
 _atom_site_type_symbol
 _atom_site_label
 _atom_site_symmetry_multiplicity
 _atom_site_fract_x
 _atom_site_fract_y
 _atom_site_fract_z
 _atom_site_occupancy
  Hf  Hf0  1  0.000000  0.189535  0.000000  1
  Hf  Hf1  1  0.250000  0.439535  0.250000  1
  Hf  Hf2  1  0.060465  0.250000  0.250000  1
  Hf  Hf3  1  0.250000  0.250000  0.439535  1
  Hf  Hf4  1  0.810465  0.000000  0.000000  1
  Hf  Hf5  1  0.250000  0.060465  0.250000  1
  Hf  Hf6  1  0.500000  0.000000  0.310465  1
  Hf  Hf7  1  0.439535  0.250000  0.250000  1
  Hf  Hf8  1  0.500000  0.000000  0.689535  1
  Hf  Hf9  1  0.189535  0.000000  0.000000  1
  Hf  Hf10  1  0.500000  0.310465  0.000000  1
  Hf  Hf11  1  0.250000  0.250000  0.060465  1
  Hf  Hf12  1  0.000000  0.689535  0.500000  1
  Hf  Hf13  1  0.250000  0.939535  0.750000  1
  Hf  Hf14  1  0.060465  0.750000  0.750000  1
  Hf  Hf15  1  0.250000  0.750000  0.939535  1
  Hf  Hf16  1  0.810465  0.500000  0.500000  1
  Hf  Hf17  1  0.250000  0.560465  0.750000  1
  Hf  Hf18  1  0.500000  0.500000  0.810465  1
  Hf  Hf19  1  0.439535  0.750000  0.750000  1
  Hf  Hf20  1  0.500000  0.500000  0.189535  1
  Hf  Hf21  1  0.189535  0.500000  0.500000  1
  Hf  Hf22  1  0.500000  0.810465  0.500000  1
  Hf  Hf23  1  0.250000  0.750000  0.560465  1
  Hf  Hf24  1  0.500000  0.189535  0.500000  1
  Hf  Hf25  1  0.750000  0.439535  0.750000  1
  Hf  Hf26  1  0.560465  0.250000  0.750000  1
  Hf  Hf27  1  0.750000  0.250000  0.939535  1
  Hf  Hf28  1  0.310465  0.000000  0.500000  1
  Hf  Hf29  1  0.750000  0.060465  0.750000  1
  Hf  Hf30  1  0.000000  0.000000  0.810465  1
  Hf  Hf31  1  0.939535  0.250000  0.750000  1
  Hf  Hf32  1  0.000000  0.000000  0.189535  1
  Hf  Hf33  1  0.689535  0.000000  0.500000  1
  Hf  Hf34  1  0.000000  0.310465  0.500000  1
  Hf  Hf35  1  0.750000  0.250000  0.560465  1
  Hf  Hf36  1  0.500000  0.689535  0.000000  1
  Hf  Hf37  1  0.750000  0.939535  0.250000  1
  Hf  Hf38  1  0.560465  0.750000  0.250000  1
  Hf  Hf39  1  0.750000  0.750000  0.439535  1
  Hf  Hf40  1  0.310465  0.500000  0.000000  1
  Hf  Hf41  1  0.750000  0.560465  0.250000  1
  Hf  Hf42  1  0.000000  0.500000  0.310465  1
  Hf  Hf43  1  0.939535  0.750000  0.250000  1
  Hf  Hf44  1  0.000000  0.500000  0.689535  1
  Hf  Hf45  1  0.689535  0.500000  0.000000  1
  Hf  Hf46  1  0.000000  0.810465  0.000000  1
  Hf  Hf47  1  0.750000  0.750000  0.060465  1
  Zn  Zn48  1  0.167732  0.332268  0.667732  1
  Zn  Zn49  1  0.582268  0.082268  0.917732  1
  Zn  Zn50  1  0.417732  0.082268  0.082268  1
  Zn  Zn51  1  0.917732  0.417732  0.917732  1
  Zn  Zn52  1  0.167732  0.167732  0.832268  1
  Zn  Zn53  1  0.082268  0.417732  0.082268  1
  Zn  Zn54  1  0.332268  0.332268  0.832268  1
  Zn  Zn55  1  0.332268  0.167732  0.667732  1
  Zn  Zn56  1  0.375000  0.125000  0.875000  1
  Zn  Zn57  1  0.875000  0.375000  0.125000  1
  Zn  Zn58  1  0.125000  0.375000  0.875000  1
  Zn  Zn59  1  0.625000  0.125000  0.125000  1
  Zn  Zn60  1  0.167732  0.832268  0.167732  1
  Zn  Zn61  1  0.582268  0.582268  0.417732  1
  Zn  Zn62  1  0.417732  0.582268  0.582268  1
  Zn  Zn63  1  0.917732  0.917732  0.417732  1
  Zn  Zn64  1  0.167732  0.667732  0.332268  1
  Zn  Zn65  1  0.082268  0.917732  0.582268  1
  Zn  Zn66  1  0.332268  0.832268  0.332268  1
  Zn  Zn67  1  0.332268  0.667732  0.167732  1
  Zn  Zn68  1  0.375000  0.625000  0.375000  1
  Zn  Zn69  1  0.875000  0.875000  0.625000  1
  Zn  Zn70  1  0.125000  0.875000  0.375000  1
  Zn  Zn71  1  0.625000  0.625000  0.625000  1
  Zn  Zn72  1  0.667732  0.332268  0.167732  1
  Zn  Zn73  1  0.082268  0.082268  0.417732  1
  Zn  Zn74  1  0.917732  0.082268  0.582268  1
  Zn  Zn75  1  0.417732  0.417732  0.417732  1
  Zn  Zn76  1  0.667732  0.167732  0.332268  1
  Zn  Zn77  1  0.582268  0.417732  0.582268  1
  Zn  Zn78  1  0.832268  0.332268  0.332268  1
  Zn  Zn79  1  0.832268  0.167732  0.167732  1
  Zn  Zn80  1  0.875000  0.125000  0.375000  1
  Zn  Zn81  1  0.375000  0.375000  0.625000  1
  Zn  Zn82  1  0.625000  0.375000  0.375000  1
  Zn  Zn83  1  0.125000  0.125000  0.625000  1
  Zn  Zn84  1  0.667732  0.832268  0.667732  1
  Zn  Zn85  1  0.082268  0.582268  0.917732  1
  Zn  Zn86  1  0.917732  0.582268  0.082268  1
  Zn  Zn87  1  0.417732  0.917732  0.917732  1
  Zn  Zn88  1  0.667732  0.667732  0.832268  1
  Zn  Zn89  1  0.582268  0.917732  0.082268  1
  Zn  Zn90  1  0.832268  0.832268  0.832268  1
  Zn  Zn91  1  0.832268  0.667732  0.667732  1
  Zn  Zn92  1  0.875000  0.625000  0.875000  1
  Zn  Zn93  1  0.375000  0.875000  0.125000  1
  Zn  Zn94  1  0.625000  0.875000  0.875000  1
  Zn  Zn95  1  0.125000  0.625000  0.125000  1
  N  N96  1  0.000000  0.000000  0.000000  1
  N  N97  1  0.250000  0.250000  0.250000  1
  N  N98  1  0.000000  0.500000  0.500000  1
  N  N99  1  0.250000  0.750000  0.750000  1
  N  N100  1  0.500000  0.000000  0.500000  1
  N  N101  1  0.750000  0.250000  0.750000  1
  N  N102  1  0.500000  0.500000  0.000000  1
  N  N103  1  0.750000  0.750000  0.250000  1
