# generated using pymatgen
data_Te3MoWS
_symmetry_space_group_name_H-M   'P 1'
_cell_length_a   3.45610294
_cell_length_b   3.45610941
_cell_length_c   39.33774389
_cell_angle_alpha   90.00003078
_cell_angle_beta   90.00000000
_cell_angle_gamma   119.99993812
_symmetry_Int_Tables_number   1
_chemical_formula_structural   Te3MoWS
_chemical_formula_sum   'Te6 Mo2 W2 S2'
_cell_volume   406.92512205
_cell_formula_units_Z   2
loop_
 _symmetry_equiv_pos_site_id
 _symmetry_equiv_pos_as_xyz
  1  'x, y, z'
loop_
 _atom_site_type_symbol
 _atom_site_label
 _atom_site_symmetry_multiplicity
 _atom_site_fract_x
 _atom_site_fract_y
 _atom_site_fract_z
 _atom_site_occupancy
  Te  Te0  1  0.333358  0.666718  0.328941  1
  Te  Te1  1  0.333359  0.666718  0.704563  1
  Te  Te2  1  0.666649  0.333297  0.422448  1
  Te  Te3  1  0.666642  0.333284  0.516855  1
  Te  Te4  1  0.333349  0.666699  0.234484  1
  Te  Te5  1  0.333350  0.666700  0.610608  1
  Mo  Mo6  1  0.333313  0.666626  0.093960  1
  Mo  Mo7  1  0.666689  0.333378  0.657603  1
  W  W8  1  0.333310  0.666620  0.469656  1
  W  W9  1  0.666691  0.333381  0.281718  1
  S  S10  1  0.666645  0.333289  0.056111  1
  S  S11  1  0.666646  0.333290  0.131801  1
