# generated using pymatgen
data_KTiP2O7
_symmetry_space_group_name_H-M   'P 1'
_cell_length_a   7.52028902
_cell_length_b   8.29585100
_cell_length_c   10.44252813
_cell_angle_alpha   90.00000000
_cell_angle_beta   90.00000000
_cell_angle_gamma   106.60063910
_symmetry_Int_Tables_number   1
_chemical_formula_structural   KTiP2O7
_chemical_formula_sum   'K4 Ti4 P8 O28'
_cell_volume   624.32597367
_cell_formula_units_Z   4
loop_
 _symmetry_equiv_pos_site_id
 _symmetry_equiv_pos_as_xyz
  1  'x, y, z'
loop_
 _atom_site_type_symbol
 _atom_site_label
 _atom_site_symmetry_multiplicity
 _atom_site_fract_x
 _atom_site_fract_y
 _atom_site_fract_z
 _atom_site_occupancy
  O  O0  1  0.150258  0.513548  0.408537  1
  O  O1  1  0.849742  0.986452  0.908537  1
  O  O2  1  0.849742  0.486452  0.591463  1
  O  O3  1  0.150258  0.013548  0.091463  1
  O  O4  1  0.078247  0.253864  0.267956  1
  O  O5  1  0.921753  0.246136  0.767956  1
  O  O6  1  0.921753  0.746136  0.732044  1
  O  O7  1  0.078247  0.753864  0.232044  1
  O  O8  1  0.995746  0.275886  0.004410  1
  O  O9  1  0.004254  0.224114  0.504410  1
  O  O10  1  0.004254  0.724114  0.995590  1
  O  O11  1  0.995746  0.775886  0.495590  1
  O  O12  1  0.338623  0.309842  0.435842  1
  O  O13  1  0.661377  0.190158  0.935842  1
  O  O14  1  0.661377  0.690158  0.564158  1
  O  O15  1  0.338623  0.809842  0.064158  1
  O  O16  1  0.455722  0.738051  0.280873  1
  O  O17  1  0.544278  0.761949  0.780873  1
  O  O18  1  0.544278  0.261948  0.719127  1
  O  O19  1  0.455722  0.238051  0.219127  1
  O  O20  1  0.363391  0.771264  0.579748  1
  O  O21  1  0.636609  0.728736  0.079748  1
  O  O22  1  0.636609  0.228736  0.420252  1
  O  O23  1  0.363391  0.271264  0.920252  1
  O  O24  1  0.323624  0.009498  0.388411  1
  O  O25  1  0.676376  0.490502  0.888411  1
  O  O26  1  0.676376  0.990502  0.611589  1
  O  O27  1  0.323624  0.509498  0.111589  1
  P  P28  1  0.133357  0.326450  0.402220  1
  P  P29  1  0.866643  0.173550  0.902220  1
  P  P30  1  0.866643  0.673550  0.597780  1
  P  P31  1  0.133357  0.826450  0.097780  1
  P  P32  1  0.443726  0.189856  0.361240  1
  P  P33  1  0.556274  0.310144  0.861240  1
  P  P34  1  0.556274  0.810144  0.638760  1
  P  P35  1  0.443726  0.689856  0.138760  1
  K  K36  1  0.819365  0.440853  0.175565  1
  K  K37  1  0.180635  0.059147  0.675565  1
  K  K38  1  0.180635  0.559147  0.824435  1
  K  K39  1  0.819365  0.940853  0.324435  1
  Ti  Ti40  1  0.235918  0.259561  0.101629  1
  Ti  Ti41  1  0.764082  0.240439  0.601629  1
  Ti  Ti42  1  0.764082  0.740439  0.898371  1
  Ti  Ti43  1  0.235918  0.759561  0.398371  1
