# generated using pymatgen
data_Na5SnP3
_symmetry_space_group_name_H-M   'P 1'
_cell_length_a   7.49300049
_cell_length_b   8.35073636
_cell_length_c   13.39949445
_cell_angle_alpha   90.36275149
_cell_angle_beta   90.00000000
_cell_angle_gamma   90.00000000
_symmetry_Int_Tables_number   1
_chemical_formula_structural   Na5SnP3
_chemical_formula_sum   'Na20 Sn4 P12'
_cell_volume   838.41732312
_cell_formula_units_Z   4
loop_
 _symmetry_equiv_pos_site_id
 _symmetry_equiv_pos_as_xyz
  1  'x, y, z'
loop_
 _atom_site_type_symbol
 _atom_site_label
 _atom_site_symmetry_multiplicity
 _atom_site_fract_x
 _atom_site_fract_y
 _atom_site_fract_z
 _atom_site_occupancy
  Na  Na0  1  0.503748  0.667121  0.759955  1
  Na  Na1  1  0.003748  0.832879  0.740045  1
  Na  Na2  1  0.496252  0.332879  0.240045  1
  Na  Na3  1  0.996252  0.167121  0.259955  1
  Na  Na4  1  0.959917  0.177198  0.588928  1
  Na  Na5  1  0.459917  0.322802  0.911072  1
  Na  Na6  1  0.040083  0.822802  0.411072  1
  Na  Na7  1  0.540083  0.677198  0.088928  1
  Na  Na8  1  0.478030  0.335413  0.587977  1
  Na  Na9  1  0.978030  0.164587  0.912023  1
  Na  Na10  1  0.521970  0.664587  0.412023  1
  Na  Na11  1  0.021970  0.835413  0.087977  1
  Na  Na12  1  0.339543  0.922512  0.917846  1
  Na  Na13  1  0.839543  0.577488  0.582154  1
  Na  Na14  1  0.660457  0.077488  0.082154  1
  Na  Na15  1  0.160457  0.422512  0.417846  1
  Na  Na16  1  0.142271  0.427325  0.742415  1
  Na  Na17  1  0.642271  0.072675  0.757585  1
  Na  Na18  1  0.857729  0.572675  0.257585  1
  Na  Na19  1  0.357729  0.927325  0.242415  1
  P  P20  1  0.298025  0.094262  0.428949  1
  P  P21  1  0.798025  0.405738  0.071051  1
  P  P22  1  0.701975  0.905738  0.571051  1
  P  P23  1  0.201975  0.594262  0.928949  1
  P  P24  1  0.232484  0.643852  0.582160  1
  P  P25  1  0.732484  0.856148  0.917840  1
  P  P26  1  0.767516  0.356148  0.417840  1
  P  P27  1  0.267516  0.143852  0.082160  1
  P  P28  1  0.254842  0.097664  0.736274  1
  P  P29  1  0.754842  0.402336  0.763726  1
  P  P30  1  0.745158  0.902336  0.263726  1
  P  P31  1  0.245158  0.597664  0.236274  1
  Sn  Sn32  1  0.352836  0.927866  0.589048  1
  Sn  Sn33  1  0.852836  0.572134  0.910952  1
  Sn  Sn34  1  0.647164  0.072134  0.410952  1
  Sn  Sn35  1  0.147164  0.427866  0.089048  1
