# generated using pymatgen
data_Sc(GaFe)6
_symmetry_space_group_name_H-M   'P 1'
_cell_length_a   4.99335499
_cell_length_b   6.51835935
_cell_length_c   6.51835936
_cell_angle_alpha   80.59562994
_cell_angle_beta   67.47897816
_cell_angle_gamma   67.47897820
_symmetry_Int_Tables_number   1
_chemical_formula_structural   Sc(GaFe)6
_chemical_formula_sum   'Sc1 Ga6 Fe6'
_cell_volume   181.00247751
_cell_formula_units_Z   1
loop_
 _symmetry_equiv_pos_site_id
 _symmetry_equiv_pos_as_xyz
  1  'x, y, z'
loop_
 _atom_site_type_symbol
 _atom_site_label
 _atom_site_symmetry_multiplicity
 _atom_site_fract_x
 _atom_site_fract_y
 _atom_site_fract_z
 _atom_site_occupancy
  Sc  Sc0  1  0.000000  0.000000  0.000000  1
  Fe  Fe1  1  0.500000  0.756276  0.243724  1
  Fe  Fe2  1  0.500000  0.000000  0.500000  1
  Fe  Fe3  1  0.000000  0.000000  0.500000  1
  Fe  Fe4  1  0.500000  0.500000  0.000000  1
  Fe  Fe5  1  0.000000  0.500000  0.000000  1
  Fe  Fe6  1  0.500000  0.243724  0.756276  1
  Ga  Ga7  1  0.000000  0.326554  0.673446  1
  Ga  Ga8  1  0.659390  0.340610  0.340610  1
  Ga  Ga9  1  0.340610  0.659390  0.659390  1
  Ga  Ga10  1  0.676638  0.823362  0.823362  1
  Ga  Ga11  1  0.323362  0.176638  0.176638  1
  Ga  Ga12  1  0.000000  0.673446  0.326554  1
