# generated using pymatgen
data_Te4MoW3(SeS)2
_symmetry_space_group_name_H-M   'P 1'
_cell_length_a   3.40119435
_cell_length_b   3.40118139
_cell_length_c   38.74681208
_cell_angle_alpha   89.99997293
_cell_angle_beta   90.00000000
_cell_angle_gamma   120.00012594
_symmetry_Int_Tables_number   1
_chemical_formula_structural   Te4MoW3(SeS)2
_chemical_formula_sum   'Te4 Mo1 W3 Se2 S2'
_cell_volume   388.17476636
_cell_formula_units_Z   1
loop_
 _symmetry_equiv_pos_site_id
 _symmetry_equiv_pos_as_xyz
  1  'x, y, z'
loop_
 _atom_site_type_symbol
 _atom_site_label
 _atom_site_symmetry_multiplicity
 _atom_site_fract_x
 _atom_site_fract_y
 _atom_site_fract_z
 _atom_site_occupancy
  Te  Te0  1  0.333354  0.666710  0.706110  1
  Te  Te1  1  0.666644  0.333288  0.045325  1
  Te  Te2  1  0.666647  0.333293  0.142538  1
  Te  Te3  1  0.333355  0.666710  0.608981  1
  Mo  Mo4  1  0.666691  0.333382  0.281795  1
  W  W5  1  0.333310  0.666621  0.093905  1
  W  W6  1  0.333311  0.666623  0.469649  1
  W  W7  1  0.666689  0.333378  0.657565  1
  Se  Se8  1  0.666651  0.333302  0.426966  1
  Se  Se9  1  0.666634  0.333268  0.512325  1
  S  S10  1  0.333356  0.666714  0.320543  1
  S  S11  1  0.333355  0.666712  0.243047  1
