# generated using pymatgen
data_Ho2Ge2Rh
_symmetry_space_group_name_H-M   'P 1'
_cell_length_a   4.29309062
_cell_length_b   5.67161135
_cell_length_c   9.40905512
_cell_angle_alpha   81.75644294
_cell_angle_beta   76.81263797
_cell_angle_gamma   67.76094166
_symmetry_Int_Tables_number   1
_chemical_formula_structural   Ho2Ge2Rh
_chemical_formula_sum   'Ho4 Ge4 Rh2'
_cell_volume   206.05060981
_cell_formula_units_Z   2
loop_
 _symmetry_equiv_pos_site_id
 _symmetry_equiv_pos_as_xyz
  1  'x, y, z'
loop_
 _atom_site_type_symbol
 _atom_site_label
 _atom_site_symmetry_multiplicity
 _atom_site_fract_x
 _atom_site_fract_y
 _atom_site_fract_z
 _atom_site_occupancy
  Ge  Ge0  1  0.478109  0.160008  0.883775  1
  Ge  Ge1  1  0.521891  0.839992  0.116225  1
  Ge  Ge2  1  0.356641  0.728708  0.558009  1
  Ge  Ge3  1  0.643359  0.271292  0.441991  1
  Rh  Rh4  1  0.726460  0.889863  0.657218  1
  Rh  Rh5  1  0.273540  0.110137  0.342782  1
  Ho  Ho6  1  0.187474  0.740978  0.884074  1
  Ho  Ho7  1  0.812526  0.259022  0.115926  1
  Ho  Ho8  1  0.007580  0.314986  0.669855  1
  Ho  Ho9  1  0.992420  0.685014  0.330145  1
