# generated using pymatgen
data_Rb3AlO3
_symmetry_space_group_name_H-M   'P 1'
_cell_length_a   6.88580247
_cell_length_b   6.88580247
_cell_length_c   6.89648634
_cell_angle_alpha   97.54332105
_cell_angle_beta   97.54332106
_cell_angle_gamma   115.61289578
_symmetry_Int_Tables_number   1
_chemical_formula_structural   Rb3AlO3
_chemical_formula_sum   'Rb6 Al2 O6'
_cell_volume   285.76927149
_cell_formula_units_Z   2
loop_
 _symmetry_equiv_pos_site_id
 _symmetry_equiv_pos_as_xyz
  1  'x, y, z'
loop_
 _atom_site_type_symbol
 _atom_site_label
 _atom_site_symmetry_multiplicity
 _atom_site_fract_x
 _atom_site_fract_y
 _atom_site_fract_z
 _atom_site_occupancy
  O  O0  1  0.853130  0.601897  0.738315  1
  O  O1  1  0.398103  0.146870  0.261685  1
  O  O2  1  0.146870  0.398103  0.261685  1
  O  O3  1  0.601897  0.853130  0.738315  1
  O  O4  1  0.899908  0.899908  0.131002  1
  O  O5  1  0.100092  0.100092  0.868998  1
  Al  Al6  1  0.844431  0.844431  0.853503  1
  Al  Al7  1  0.155569  0.155569  0.146497  1
  Rb  Rb8  1  0.370616  0.370616  0.654088  1
  Rb  Rb9  1  0.629384  0.629384  0.345912  1
  Rb  Rb10  1  0.200276  0.799724  0.500000  1
  Rb  Rb11  1  0.799724  0.200276  0.500000  1
  Rb  Rb12  1  0.265208  0.734792  0.000000  1
  Rb  Rb13  1  0.734792  0.265208  0.000000  1
