# generated using pymatgen
data_Na5B(SO4)4
_symmetry_space_group_name_H-M   'P 1'
_cell_length_a   8.71275220
_cell_length_b   9.41709849
_cell_length_c   16.91315165
_cell_angle_alpha   90.00000000
_cell_angle_beta   90.00000000
_cell_angle_gamma   90.00000000
_symmetry_Int_Tables_number   1
_chemical_formula_structural   Na5B(SO4)4
_chemical_formula_sum   'Na20 B4 S16 O64'
_cell_volume   1387.70456811
_cell_formula_units_Z   4
loop_
 _symmetry_equiv_pos_site_id
 _symmetry_equiv_pos_as_xyz
  1  'x, y, z'
loop_
 _atom_site_type_symbol
 _atom_site_label
 _atom_site_symmetry_multiplicity
 _atom_site_fract_x
 _atom_site_fract_y
 _atom_site_fract_z
 _atom_site_occupancy
  Na  Na0  1  0.777115  0.663011  0.208542  1
  Na  Na1  1  0.722885  0.336989  0.708542  1
  Na  Na2  1  0.277115  0.836989  0.791458  1
  Na  Na3  1  0.222885  0.163011  0.291458  1
  Na  Na4  1  0.330214  0.454928  0.424512  1
  Na  Na5  1  0.169786  0.545072  0.924512  1
  Na  Na6  1  0.830214  0.045072  0.575488  1
  Na  Na7  1  0.669786  0.954928  0.075488  1
  Na  Na8  1  0.972767  0.507457  0.561579  1
  Na  Na9  1  0.527233  0.492543  0.061579  1
  Na  Na10  1  0.472767  0.992543  0.438421  1
  Na  Na11  1  0.027233  0.007457  0.938421  1
  Na  Na12  1  0.153060  0.783312  0.343796  1
  Na  Na13  1  0.346940  0.216688  0.843796  1
  Na  Na14  1  0.653060  0.716688  0.656204  1
  Na  Na15  1  0.846940  0.283312  0.156204  1
  Na  Na16  1  0.828124  0.109574  0.367496  1
  Na  Na17  1  0.671876  0.890426  0.867496  1
  Na  Na18  1  0.328124  0.390426  0.632504  1
  Na  Na19  1  0.171876  0.609574  0.132504  1
  B  B20  1  0.719376  0.515086  0.382694  1
  B  B21  1  0.780624  0.484914  0.882694  1
  B  B22  1  0.219376  0.984914  0.617306  1
  B  B23  1  0.280624  0.015086  0.117306  1
  S  S24  1  -0.000186  0.453131  0.300717  1
  S  S25  1  0.500186  0.546869  0.800717  1
  S  S26  1  0.499814  0.046869  0.699283  1
  S  S27  1  0.000186  0.953131  0.199283  1
  S  S28  1  0.793783  0.757752  0.459898  1
  S  S29  1  0.706217  0.242248  0.959898  1
  S  S30  1  0.293783  0.742248  0.540102  1
  S  S31  1  0.206217  0.257752  0.040102  1
  S  S32  1  0.558898  0.370465  0.266670  1
  S  S33  1  0.941102  0.629535  0.766670  1
  S  S34  1  0.058898  0.129535  0.733330  1
  S  S35  1  0.441102  0.870465  0.233330  1
  S  S36  1  0.671484  0.328302  0.505051  1
  S  S37  1  0.828516  0.671698  0.005051  1
  S  S38  1  0.171484  0.171698  0.494949  1
  S  S39  1  0.328516  0.828302  0.994949  1
  O  O40  1  0.120456  0.526542  0.344812  1
  O  O41  1  0.379544  0.473458  0.844812  1
  O  O42  1  0.620456  0.973458  0.655188  1
  O  O43  1  0.879544  0.026542  0.155188  1
  O  O44  1  0.007071  0.479118  0.214796  1
  O  O45  1  0.492929  0.520882  0.714796  1
  O  O46  1  0.507071  0.020882  0.785204  1
  O  O47  1  0.992929  0.979118  0.285204  1
  O  O48  1  0.991674  0.301159  0.318743  1
  O  O49  1  0.508326  0.698841  0.818743  1
  O  O50  1  0.491674  0.198841  0.681257  1
  O  O51  1  0.008326  0.801159  0.181257  1
  O  O52  1  0.721840  0.899385  0.455974  1
  O  O53  1  0.778160  0.100615  0.955974  1
  O  O54  1  0.221840  0.600615  0.544026  1
  O  O55  1  0.278160  0.399385  0.044026  1
  O  O56  1  0.799846  0.704059  0.541760  1
  O  O57  1  0.700154  0.295941  0.041760  1
  O  O58  1  0.299846  0.795941  0.458240  1
  O  O59  1  0.200154  0.204059  0.958240  1
  O  O60  1  0.942530  0.751809  0.421565  1
  O  O61  1  0.557470  0.248191  0.921565  1
  O  O62  1  0.442530  0.748191  0.578435  1
  O  O63  1  0.057470  0.251809  0.078435  1
  O  O64  1  0.659535  0.246577  0.274862  1
  O  O65  1  0.840465  0.753423  0.774862  1
  O  O66  1  0.159535  0.253423  0.725138  1
  O  O67  1  0.340465  0.746577  0.225138  1
  O  O68  1  0.395197  0.339526  0.265949  1
  O  O69  1  0.104803  0.660474  0.765949  1
  O  O70  1  0.895197  0.160474  0.734051  1
  O  O71  1  0.604803  0.839526  0.234051  1
  O  O72  1  0.607864  0.460472  0.199740  1
  O  O73  1  0.892136  0.539528  0.699740  1
  O  O74  1  0.107864  0.039528  0.800260  1
  O  O75  1  0.392136  0.960472  0.300260  1
  O  O76  1  0.770932  0.316438  0.575188  1
  O  O77  1  0.729068  0.683562  0.075188  1
  O  O78  1  0.270932  0.183562  0.424812  1
  O  O79  1  0.229068  0.816438  0.924812  1
  O  O80  1  0.527631  0.403555  0.519955  1
  O  O81  1  0.972369  0.596445  0.019955  1
  O  O82  1  0.027631  0.096445  0.480045  1
  O  O83  1  0.472369  0.903555  0.980045  1
  O  O84  1  0.650647  0.189330  0.466955  1
  O  O85  1  0.849353  0.810670  0.966955  1
  O  O86  1  0.150647  0.310670  0.533045  1
  O  O87  1  0.349353  0.689330  0.033045  1
  O  O88  1  0.841865  0.526558  0.321878  1
  O  O89  1  0.658135  0.473442  0.821878  1
  O  O90  1  0.341865  0.973442  0.678122  1
  O  O91  1  0.158135  0.026558  0.178122  1
  O  O92  1  0.679537  0.658364  0.411743  1
  O  O93  1  0.820463  0.341636  0.911743  1
  O  O94  1  0.179537  0.841636  0.588257  1
  O  O95  1  0.320463  0.158364  0.088257  1
  O  O96  1  0.574660  0.464233  0.345965  1
  O  O97  1  0.925340  0.535767  0.845965  1
  O  O98  1  0.074660  0.035767  0.654035  1
  O  O99  1  0.425340  0.964233  0.154035  1
  O  O100  1  0.774834  0.420213  0.446870  1
  O  O101  1  0.725166  0.579787  0.946870  1
  O  O102  1  0.274834  0.079787  0.553130  1
  O  O103  1  0.225166  0.920213  0.053130  1
