# generated using pymatgen
data_HfCuSn
_symmetry_space_group_name_H-M   'P 1'
_cell_length_a   4.49168810
_cell_length_b   4.49253490
_cell_length_c   6.40090711
_cell_angle_alpha   90.00000000
_cell_angle_beta   90.00000000
_cell_angle_gamma   119.99376498
_symmetry_Int_Tables_number   1
_chemical_formula_structural   HfCuSn
_chemical_formula_sum   'Hf2 Cu2 Sn2'
_cell_volume   111.86661324
_cell_formula_units_Z   2
loop_
 _symmetry_equiv_pos_site_id
 _symmetry_equiv_pos_as_xyz
  1  'x, y, z'
loop_
 _atom_site_type_symbol
 _atom_site_label
 _atom_site_symmetry_multiplicity
 _atom_site_fract_x
 _atom_site_fract_y
 _atom_site_fract_z
 _atom_site_occupancy
  Hf  Hf0  1  0.999972  0.999945  0.499189  1
  Hf  Hf1  1  0.000028  0.000055  0.999189  1
  Cu  Cu2  1  0.666650  0.333300  0.196948  1
  Cu  Cu3  1  0.333350  0.666700  0.696948  1
  Sn  Sn4  1  0.666638  0.333277  0.755664  1
  Sn  Sn5  1  0.333362  0.666723  0.255664  1
