# generated using pymatgen
data_V(CrTe2)2
_symmetry_space_group_name_H-M   'P 1'
_cell_length_a   4.00590518
_cell_length_b   6.99062536
_cell_length_c   7.27234173
_cell_angle_alpha   117.49557240
_cell_angle_beta   105.98707965
_cell_angle_gamma   90.00000000
_symmetry_Int_Tables_number   1
_chemical_formula_structural   V(CrTe2)2
_chemical_formula_sum   'V1 Cr2 Te4'
_cell_volume   171.72133290
_cell_formula_units_Z   1
loop_
 _symmetry_equiv_pos_site_id
 _symmetry_equiv_pos_as_xyz
  1  'x, y, z'
loop_
 _atom_site_type_symbol
 _atom_site_label
 _atom_site_symmetry_multiplicity
 _atom_site_fract_x
 _atom_site_fract_y
 _atom_site_fract_z
 _atom_site_occupancy
  V  V0  1  0.000000  0.000000  -0.000000  1
  Cr  Cr1  1  0.259562  0.276922  0.519124  1
  Cr  Cr2  1  0.740438  0.723078  0.480876  1
  Te  Te3  1  0.120370  0.451301  0.240739  1
  Te  Te4  1  0.879630  0.548699  0.759261  1
  Te  Te5  1  0.368685  0.029431  0.737370  1
  Te  Te6  1  0.631315  0.970569  0.262630  1
