# generated using pymatgen
data_Na3Cr2(AsO4)3
_symmetry_space_group_name_H-M   'P 1'
_cell_length_a   10.72659559
_cell_length_b   10.72659558
_cell_length_c   10.72659559
_cell_angle_alpha   109.47122063
_cell_angle_beta   109.47122061
_cell_angle_gamma   109.47122064
_symmetry_Int_Tables_number   1
_chemical_formula_structural   Na3Cr2(AsO4)3
_chemical_formula_sum   'Na12 Cr8 As12 O48'
_cell_volume   950.08799630
_cell_formula_units_Z   4
loop_
 _symmetry_equiv_pos_site_id
 _symmetry_equiv_pos_as_xyz
  1  'x, y, z'
loop_
 _atom_site_type_symbol
 _atom_site_label
 _atom_site_symmetry_multiplicity
 _atom_site_fract_x
 _atom_site_fract_y
 _atom_site_fract_z
 _atom_site_occupancy
  O  O0  1  0.799999  0.885351  0.989718  1
  O  O1  1  0.614648  0.414647  0.104367  1
  O  O2  1  0.510282  0.395634  0.810281  1
  O  O3  1  0.700001  0.689719  0.085353  1
  O  O4  1  0.700001  0.510282  0.614649  1
  O  O5  1  0.689719  0.085352  0.700001  1
  O  O6  1  0.395633  0.085352  0.885351  1
  O  O7  1  0.085353  0.700001  0.689719  1
  O  O8  1  0.104366  0.989717  0.689718  1
  O  O9  1  0.414647  0.810281  0.799999  1
  O  O10  1  0.810281  0.799999  0.414647  1
  O  O11  1  0.614648  0.700001  0.510282  1
  O  O12  1  0.085352  0.885351  0.395634  1
  O  O13  1  0.689719  0.104366  0.989717  1
  O  O14  1  0.510282  0.614648  0.700001  1
  O  O15  1  0.885351  0.395634  0.085352  1
  O  O16  1  0.989717  0.689719  0.104366  1
  O  O17  1  0.104366  0.614648  0.414647  1
  O  O18  1  0.395633  0.810281  0.510282  1
  O  O19  1  0.895633  0.010282  0.310281  1
  O  O20  1  0.885351  0.989717  0.799999  1
  O  O21  1  0.989718  0.799999  0.885352  1
  O  O22  1  0.414647  0.104366  0.614649  1
  O  O23  1  0.799999  0.414647  0.810281  1
  O  O24  1  0.200002  0.114649  0.010283  1
  O  O25  1  0.385352  0.585353  0.895634  1
  O  O26  1  0.489718  0.604367  0.189719  1
  O  O27  1  0.299999  0.310281  0.914648  1
  O  O28  1  0.299999  0.489718  0.385351  1
  O  O29  1  0.310281  0.914648  0.299999  1
  O  O30  1  0.604367  0.914648  0.114649  1
  O  O31  1  0.914648  0.299999  0.310282  1
  O  O32  1  0.200001  0.585353  0.189719  1
  O  O33  1  0.585353  0.895634  0.385352  1
  O  O34  1  0.010282  0.200001  0.114649  1
  O  O35  1  0.114648  0.010282  0.200000  1
  O  O36  1  0.189719  0.489718  0.604366  1
  O  O37  1  0.604367  0.189719  0.489718  1
  O  O38  1  0.895633  0.385352  0.585352  1
  O  O39  1  0.010283  0.310281  0.895634  1
  O  O40  1  0.114648  0.604367  0.914647  1
  O  O41  1  0.489718  0.385352  0.299999  1
  O  O42  1  0.310281  0.895634  0.010282  1
  O  O43  1  0.914648  0.114649  0.604367  1
  O  O44  1  0.385352  0.299999  0.489718  1
  O  O45  1  0.189719  0.200001  0.585352  1
  O  O46  1  0.585353  0.189719  0.200002  1
  O  O47  1  0.810281  0.510282  0.395633  1
  Na  Na48  1  0.250000  0.875000  0.625000  1
  Na  Na49  1  0.875000  0.625000  0.250000  1
  Na  Na50  1  0.625000  0.875000  0.750000  1
  Na  Na51  1  0.875000  0.750000  0.625000  1
  Na  Na52  1  0.625000  0.250000  0.874999  1
  Na  Na53  1  0.750000  0.625000  0.875000  1
  Na  Na54  1  0.750000  0.125000  0.375000  1
  Na  Na55  1  0.125000  0.375000  0.749999  1
  Na  Na56  1  0.375000  0.125000  0.250000  1
  Na  Na57  1  0.125000  0.250000  0.375000  1
  Na  Na58  1  0.375000  0.750000  0.125000  1
  Na  Na59  1  0.250000  0.375000  0.125000  1
  Cr  Cr60  1  0.000000  0.000000  0.000000  1
  Cr  Cr61  1  1.000000  0.499999  0.999999  1
  Cr  Cr62  1  0.500000  0.000000  1.000000  1
  Cr  Cr63  1  0.000000  0.000000  0.500000  1
  Cr  Cr64  1  0.500000  0.000000  0.500000  1
  Cr  Cr65  1  1.000000  0.499999  0.499999  1
  Cr  Cr66  1  0.500000  0.499999  0.000000  1
  Cr  Cr67  1  0.500000  0.499999  0.500000  1
  As  As68  1  0.250000  0.125000  0.875000  1
  As  As69  1  0.750000  0.875000  0.125000  1
  As  As70  1  0.375000  0.250000  0.625000  1
  As  As71  1  0.625000  0.375000  0.250000  1
  As  As72  1  0.125000  0.750000  0.875000  1
  As  As73  1  0.875000  0.125000  0.750000  1
  As  As74  1  0.750000  0.375000  0.625000  1
  As  As75  1  0.375000  0.625000  0.750000  1
  As  As76  1  0.125000  0.875000  0.250000  1
  As  As77  1  0.875000  0.250000  0.125000  1
  As  As78  1  0.625000  0.750000  0.375001  1
  As  As79  1  0.250000  0.625000  0.375000  1
