# generated using pymatgen
data_Ba2SrTeO6
_symmetry_space_group_name_H-M   'P 1'
_cell_length_a   6.14691025
_cell_length_b   6.14691025
_cell_length_c   6.14691002
_cell_angle_alpha   60.22628199
_cell_angle_beta   60.22628193
_cell_angle_gamma   60.22628552
_symmetry_Int_Tables_number   1
_chemical_formula_structural   Ba2SrTeO6
_chemical_formula_sum   'Ba2 Sr1 Te1 O6'
_cell_volume   165.07253813
_cell_formula_units_Z   1
loop_
 _symmetry_equiv_pos_site_id
 _symmetry_equiv_pos_as_xyz
  1  'x, y, z'
loop_
 _atom_site_type_symbol
 _atom_site_label
 _atom_site_symmetry_multiplicity
 _atom_site_fract_x
 _atom_site_fract_y
 _atom_site_fract_z
 _atom_site_occupancy
  Ba  Ba0  1  0.749888  0.749888  0.749888  1
  Ba  Ba1  1  0.250112  0.250112  0.250112  1
  Sr  Sr2  1  0.000000  0.000000  0.000000  1
  Te  Te3  1  0.500000  0.500000  0.500000  1
  O  O4  1  0.721565  0.237310  0.315544  1
  O  O5  1  0.237310  0.315544  0.721565  1
  O  O6  1  0.762690  0.684456  0.278435  1
  O  O7  1  0.684456  0.278435  0.762690  1
  O  O8  1  0.315544  0.721565  0.237310  1
  O  O9  1  0.278435  0.762690  0.684456  1
