# generated using pymatgen
data_NaMn(SiO3)2
_symmetry_space_group_name_H-M   'P 1'
_cell_length_a   5.43564561
_cell_length_b   6.52022876
_cell_length_c   6.52022877
_cell_angle_alpha   84.36168340
_cell_angle_beta   78.68694933
_cell_angle_gamma   78.68694937
_symmetry_Int_Tables_number   1
_chemical_formula_structural   NaMn(SiO3)2
_chemical_formula_sum   'Na2 Mn2 Si4 O12'
_cell_volume   221.76520620
_cell_formula_units_Z   2
loop_
 _symmetry_equiv_pos_site_id
 _symmetry_equiv_pos_as_xyz
  1  'x, y, z'
loop_
 _atom_site_type_symbol
 _atom_site_label
 _atom_site_symmetry_multiplicity
 _atom_site_fract_x
 _atom_site_fract_y
 _atom_site_fract_z
 _atom_site_occupancy
  O  O0  1  0.479474  0.348702  0.362084  1
  O  O1  1  0.020526  0.637916  0.651298  1
  O  O2  1  0.520526  0.651298  0.637916  1
  O  O3  1  0.979474  0.362084  0.348702  1
  O  O4  1  0.196454  0.103155  0.618286  1
  O  O5  1  0.303546  0.381714  0.896845  1
  O  O6  1  0.803546  0.896845  0.381714  1
  O  O7  1  0.696454  0.618286  0.103155  1
  O  O8  1  0.838651  0.194045  0.041933  1
  O  O9  1  0.661349  0.958067  0.805955  1
  O  O10  1  0.161349  0.805955  0.958067  1
  O  O11  1  0.338651  0.041933  0.194045  1
  Na  Na12  1  0.250000  0.703549  0.296451  1
  Na  Na13  1  0.750000  0.296451  0.703549  1
  Si  Si14  1  0.253479  0.206142  0.381426  1
  Si  Si15  1  0.753479  0.381426  0.206142  1
  Si  Si16  1  0.246521  0.618574  0.793858  1
  Si  Si17  1  0.746521  0.793858  0.618574  1
  Mn  Mn18  1  0.250000  0.095549  0.904451  1
  Mn  Mn19  1  0.750000  0.904451  0.095549  1
