# generated using pymatgen
data_TeW2Se2S
_symmetry_space_group_name_H-M   'P 1'
_cell_length_a   3.34194561
_cell_length_b   3.34192229
_cell_length_c   38.14508666
_cell_angle_alpha   90.00060919
_cell_angle_beta   90.00000000
_cell_angle_gamma   120.00023089
_symmetry_Int_Tables_number   1
_chemical_formula_structural   TeW2Se2S
_chemical_formula_sum   'Te2 W4 Se4 S2'
_cell_volume   368.94697343
_cell_formula_units_Z   2
loop_
 _symmetry_equiv_pos_site_id
 _symmetry_equiv_pos_as_xyz
  1  'x, y, z'
loop_
 _atom_site_type_symbol
 _atom_site_label
 _atom_site_symmetry_multiplicity
 _atom_site_fract_x
 _atom_site_fract_y
 _atom_site_fract_z
 _atom_site_occupancy
  Te  Te0  1  0.333362  0.666725  0.331773  1
  Te  Te1  1  0.333352  0.666706  0.231767  1
  W  W2  1  0.333313  0.666625  0.093910  1
  W  W3  1  0.333314  0.666628  0.469697  1
  W  W4  1  0.666692  0.333384  0.281769  1
  W  W5  1  0.666691  0.333382  0.657534  1
  Se  Se6  1  0.333353  0.666707  0.701426  1
  Se  Se7  1  0.666650  0.333300  0.425807  1
  Se  Se8  1  0.666629  0.333257  0.513585  1
  Se  Se9  1  0.333352  0.666706  0.613649  1
  S  S10  1  0.666647  0.333294  0.053987  1
  S  S11  1  0.666644  0.333287  0.133845  1
