# generated using pymatgen
data_Ba6Nd2Ti4O17
_symmetry_space_group_name_H-M   'P 1'
_cell_length_a   6.06662650
_cell_length_b   6.06662650
_cell_length_c   30.48331728
_cell_angle_alpha   90.00000000
_cell_angle_beta   90.00000000
_cell_angle_gamma   120.00000002
_symmetry_Int_Tables_number   1
_chemical_formula_structural   Ba6Nd2Ti4O17
_chemical_formula_sum   'Ba12 Nd4 Ti8 O34'
_cell_volume   971.59970308
_cell_formula_units_Z   2
loop_
 _symmetry_equiv_pos_site_id
 _symmetry_equiv_pos_as_xyz
  1  'x, y, z'
loop_
 _atom_site_type_symbol
 _atom_site_label
 _atom_site_symmetry_multiplicity
 _atom_site_fract_x
 _atom_site_fract_y
 _atom_site_fract_z
 _atom_site_occupancy
  O  O0  1  0.481484  0.962968  0.750000  1
  O  O1  1  0.518516  0.481484  0.250000  1
  O  O2  1  0.962968  0.481484  0.250000  1
  O  O3  1  0.037032  0.518516  0.750000  1
  O  O4  1  0.481484  0.518516  0.750000  1
  O  O5  1  0.518516  0.037032  0.250000  1
  O  O6  1  0.356428  0.178214  0.329042  1
  O  O7  1  0.821786  0.178214  0.329042  1
  O  O8  1  0.821786  0.643572  0.329042  1
  O  O9  1  0.178214  0.356428  0.829042  1
  O  O10  1  0.643572  0.821786  0.670958  1
  O  O11  1  0.643572  0.821786  0.829042  1
  O  O12  1  0.178214  0.821786  0.829042  1
  O  O13  1  0.821786  0.643572  0.170958  1
  O  O14  1  0.821786  0.178214  0.170958  1
  O  O15  1  0.178214  0.821786  0.670958  1
  O  O16  1  0.178214  0.356428  0.670958  1
  O  O17  1  0.356428  0.178214  0.170958  1
  O  O18  1  0.660183  0.830091  0.425111  1
  O  O19  1  0.169909  0.830091  0.425111  1
  O  O20  1  0.169909  0.339817  0.425111  1
  O  O21  1  0.830091  0.660183  0.925111  1
  O  O22  1  0.339817  0.169909  0.574889  1
  O  O23  1  0.339817  0.169909  0.925111  1
  O  O24  1  0.333333  0.666667  0.994232  1
  O  O25  1  0.666667  0.333333  0.494232  1
  O  O26  1  0.666667  0.333333  0.005768  1
  O  O27  1  0.333333  0.666667  0.505768  1
  O  O28  1  0.660183  0.830091  0.074889  1
  O  O29  1  0.830091  0.660183  0.574889  1
  O  O30  1  0.830091  0.169909  0.574889  1
  O  O31  1  0.169909  0.830091  0.074889  1
  O  O32  1  0.169909  0.339817  0.074889  1
  O  O33  1  0.830091  0.169909  0.925111  1
  Ti  Ti34  1  0.666667  0.333333  0.295758  1
  Ti  Ti35  1  0.333333  0.666667  0.795758  1
  Ti  Ti36  1  0.333333  0.666667  0.704242  1
  Ti  Ti37  1  0.666667  0.333333  0.204242  1
  Ti  Ti38  1  0.333333  0.666667  0.447409  1
  Ti  Ti39  1  0.666667  0.333333  0.947409  1
  Ti  Ti40  1  0.666667  0.333333  0.552591  1
  Ti  Ti41  1  0.333333  0.666667  0.052591  1
  Ba  Ba42  1  0.000000  0.000000  0.750000  1
  Ba  Ba43  1  0.000000  0.000000  0.250000  1
  Ba  Ba44  1  0.333333  0.666667  0.313215  1
  Ba  Ba45  1  0.666667  0.333333  0.813215  1
  Ba  Ba46  1  0.666667  0.333333  0.686785  1
  Ba  Ba47  1  0.333333  0.666667  0.186785  1
  Ba  Ba48  1  0.666667  0.333333  0.411238  1
  Ba  Ba49  1  0.333333  0.666667  0.911238  1
  Ba  Ba50  1  0.333333  0.666667  0.588762  1
  Ba  Ba51  1  0.666667  0.333333  0.088762  1
  Ba  Ba52  1  0.000000  0.000000  0.500000  1
  Ba  Ba53  1  0.000000  0.000000  0.000000  1
  Nd  Nd54  1  0.000000  0.000000  0.373574  1
  Nd  Nd55  1  0.000000  0.000000  0.873574  1
  Nd  Nd56  1  0.000000  0.000000  0.626426  1
  Nd  Nd57  1  0.000000  0.000000  0.126426  1
