# generated using pymatgen
data_HoCd2
_symmetry_space_group_name_H-M   'P 1'
_cell_length_a   3.21051757
_cell_length_b   5.48579544
_cell_length_c   5.48424065
_cell_angle_alpha   119.99062561
_cell_angle_beta   89.99999995
_cell_angle_gamma   89.11972486
_symmetry_Int_Tables_number   1
_chemical_formula_structural   HoCd2
_chemical_formula_sum   'Ho1 Cd2'
_cell_volume   83.64393913
_cell_formula_units_Z   1
loop_
 _symmetry_equiv_pos_site_id
 _symmetry_equiv_pos_as_xyz
  1  'x, y, z'
loop_
 _atom_site_type_symbol
 _atom_site_label
 _atom_site_symmetry_multiplicity
 _atom_site_fract_x
 _atom_site_fract_y
 _atom_site_fract_z
 _atom_site_occupancy
  Ho  Ho0  1  -0.000000  0.000000  0.000000  1
  Cd  Cd1  1  0.044931  0.333235  0.666617  1
  Cd  Cd2  1  0.955069  0.666765  0.333383  1
