# generated using pymatgen
data_CoHgC4(SeN)4
_symmetry_space_group_name_H-M   'P 1'
_cell_length_a   5.26030821
_cell_length_b   8.46436626
_cell_length_c   8.46436625
_cell_angle_alpha   84.45919003
_cell_angle_beta   71.89661721
_cell_angle_gamma   71.89661712
_symmetry_Int_Tables_number   1
_chemical_formula_structural   CoHgC4(SeN)4
_chemical_formula_sum   'Co1 Hg1 C4 Se4 N4'
_cell_volume   340.48810127
_cell_formula_units_Z   1
loop_
 _symmetry_equiv_pos_site_id
 _symmetry_equiv_pos_as_xyz
  1  'x, y, z'
loop_
 _atom_site_type_symbol
 _atom_site_label
 _atom_site_symmetry_multiplicity
 _atom_site_fract_x
 _atom_site_fract_y
 _atom_site_fract_z
 _atom_site_occupancy
  C  C0  1  0.967113  0.227153  0.651277  1
  C  C1  1  0.381610  0.651277  0.772847  1
  C  C2  1  0.805734  0.348723  0.227153  1
  C  C3  1  0.845543  0.772847  0.348723  1
  N  N4  1  0.074429  0.331474  0.594773  1
  N  N5  1  0.330798  0.594773  0.668526  1
  N  N6  1  1.000676  0.668526  0.405227  1
  N  N7  1  0.594097  0.405227  0.331474  1
  Co  Co8  1  0.250000  0.500000  0.500000  1
  Se  Se9  1  0.801926  0.066136  0.730442  1
  Se  Se10  1  0.467632  0.730442  0.933864  1
  Se  Se11  1  0.131938  0.269558  0.066136  1
  Se  Se12  1  0.598504  0.933864  0.269558  1
  Hg  Hg13  1  0.000000  0.000000  0.000000  1
