# generated using pymatgen
data_Mo8O23
_symmetry_space_group_name_H-M   'P 1'
_cell_length_a   4.07751251
_cell_length_b   13.69757993
_cell_length_c   17.35280749
_cell_angle_alpha   106.45373138
_cell_angle_beta   90.00000000
_cell_angle_gamma   90.00000000
_symmetry_Int_Tables_number   1
_chemical_formula_structural   Mo8O23
_chemical_formula_sum   'Mo16 O46'
_cell_volume   929.50041868
_cell_formula_units_Z   2
loop_
 _symmetry_equiv_pos_site_id
 _symmetry_equiv_pos_as_xyz
  1  'x, y, z'
loop_
 _atom_site_type_symbol
 _atom_site_label
 _atom_site_symmetry_multiplicity
 _atom_site_fract_x
 _atom_site_fract_y
 _atom_site_fract_z
 _atom_site_occupancy
  O  O0  1  0.514146  0.738391  0.336577  1
  O  O1  1  0.514146  0.261609  0.163423  1
  O  O2  1  0.485856  0.261608  0.663423  1
  O  O3  1  0.485856  0.738392  0.836577  1
  O  O4  1  0.496306  0.800030  0.004327  1
  O  O5  1  0.496306  0.199970  0.495673  1
  O  O6  1  0.503693  0.199970  0.995673  1
  O  O7  1  0.503693  0.800030  0.504327  1
  O  O8  1  0.495026  0.869994  0.169826  1
  O  O9  1  0.495026  0.130006  0.330173  1
  O  O10  1  0.504973  0.130006  0.830173  1
  O  O11  1  0.504973  0.869994  0.669826  1
  O  O12  1  0.495218  0.934310  0.334694  1
  O  O13  1  0.495218  0.065689  0.165306  1
  O  O14  1  0.504782  0.065689  0.665306  1
  O  O15  1  1.001964  0.934028  0.084574  1
  O  O16  1  0.500001  0.000000  0.000000  1
  O  O17  1  0.500001  0.000000  0.500000  1
  O  O18  1  0.509139  0.673453  0.672749  1
  O  O19  1  0.509139  0.326548  0.827251  1
  O  O20  1  0.490861  0.326548  0.327252  1
  O  O21  1  0.490861  0.673452  0.172749  1
  O  O22  1  0.498412  0.588845  0.995534  1
  O  O23  1  0.498412  0.411155  0.504466  1
  O  O24  1  0.501588  0.411156  0.004466  1
  O  O25  1  0.501588  0.588845  0.495534  1
  O  O26  1  0.510101  0.543203  0.848037  1
  O  O27  1  0.510101  0.456797  0.651963  1
  O  O28  1  0.489899  0.456797  0.151963  1
  O  O29  1  0.489899  0.543203  0.348037  1
  O  O30  1  0.001077  0.806956  0.754043  1
  O  O31  1  0.001077  0.193044  0.745957  1
  O  O32  1  0.998923  0.193043  0.245957  1
  O  O33  1  0.998923  0.806956  0.254043  1
  O  O34  1  0.992085  0.680054  0.923029  1
  O  O35  1  0.992085  0.319947  0.576971  1
  O  O36  1  0.007915  0.319946  0.076971  1
  O  O37  1  0.007915  0.680054  0.423028  1
  O  O38  1  0.012335  0.553029  0.592974  1
  O  O39  1  0.012335  0.446971  0.907026  1
  O  O40  1  0.987664  0.446971  0.407026  1
  O  O41  1  0.987664  0.553029  0.092974  1
  O  O42  1  -0.001964  0.934029  0.584573  1
  O  O43  1  -0.001964  0.065971  0.915427  1
  O  O44  1  1.001964  0.065972  0.415426  1
  O  O45  1  0.504782  0.934310  0.834694  1
  Mo  Mo46  1  0.415421  0.553770  0.096988  1
  Mo  Mo47  1  0.415421  0.446229  0.403011  1
  Mo  Mo48  1  0.584579  0.446230  0.903011  1
  Mo  Mo49  1  0.584579  0.553770  0.596989  1
  Mo  Mo50  1  0.580333  0.685010  0.420416  1
  Mo  Mo51  1  0.580333  0.314989  0.079584  1
  Mo  Mo52  1  0.419667  0.314990  0.579584  1
  Mo  Mo53  1  0.419667  0.685010  0.920416  1
  Mo  Mo54  1  0.426663  0.814667  0.253614  1
  Mo  Mo55  1  0.426663  0.185333  0.246386  1
  Mo  Mo56  1  0.573336  0.185333  0.746386  1
  Mo  Mo57  1  0.573336  0.814667  0.753614  1
  Mo  Mo58  1  0.574644  0.935910  0.083117  1
  Mo  Mo59  1  0.574644  0.064090  0.416883  1
  Mo  Mo60  1  0.425355  0.064090  0.916882  1
  Mo  Mo61  1  0.425355  0.935910  0.583118  1
