# generated using pymatgen
data_W3(Se2S)2
_symmetry_space_group_name_H-M   'P 1'
_cell_length_a   3.27496857
_cell_length_b   3.27494753
_cell_length_c   30.25477668
_cell_angle_alpha   90.00000000
_cell_angle_beta   90.00000000
_cell_angle_gamma   120.00021263
_symmetry_Int_Tables_number   1
_chemical_formula_structural   W3(Se2S)2
_chemical_formula_sum   'W3 Se4 S2'
_cell_volume   281.01864503
_cell_formula_units_Z   1
loop_
 _symmetry_equiv_pos_site_id
 _symmetry_equiv_pos_as_xyz
  1  'x, y, z'
loop_
 _atom_site_type_symbol
 _atom_site_label
 _atom_site_symmetry_multiplicity
 _atom_site_fract_x
 _atom_site_fract_y
 _atom_site_fract_z
 _atom_site_occupancy
  W  W0  1  0.333310  0.666620  0.115645  1
  W  W1  1  0.333310  0.666620  0.578320  1
  W  W2  1  0.666689  0.333377  0.346982  1
  Se  Se3  1  0.666646  0.333292  0.059441  1
  Se  Se4  1  0.666647  0.333292  0.522118  1
  Se  Se5  1  0.666647  0.333292  0.171847  1
  Se  Se6  1  0.666646  0.333292  0.634523  1
  S  S7  1  0.333353  0.666707  0.398009  1
  S  S8  1  0.333353  0.666707  0.295956  1
