# generated using pymatgen
data_KNaLaNbO5
_symmetry_space_group_name_H-M   'P 1'
_cell_length_a   5.85735539
_cell_length_b   5.85735539
_cell_length_c   8.42336348
_cell_angle_alpha   90.00000000
_cell_angle_beta   90.00000000
_cell_angle_gamma   90.00000000
_symmetry_Int_Tables_number   1
_chemical_formula_structural   KNaLaNbO5
_chemical_formula_sum   'K2 Na2 La2 Nb2 O10'
_cell_volume   288.99391076
_cell_formula_units_Z   2
loop_
 _symmetry_equiv_pos_site_id
 _symmetry_equiv_pos_as_xyz
  1  'x, y, z'
loop_
 _atom_site_type_symbol
 _atom_site_label
 _atom_site_symmetry_multiplicity
 _atom_site_fract_x
 _atom_site_fract_y
 _atom_site_fract_z
 _atom_site_occupancy
  O  O0  1  0.750000  0.750000  0.967333  1
  O  O1  1  0.249999  0.249999  0.032667  1
  O  O2  1  0.520181  0.979818  0.672746  1
  O  O3  1  0.979818  0.520181  0.672746  1
  O  O4  1  0.479818  0.020182  0.327254  1
  O  O5  1  0.979818  0.979818  0.672746  1
  O  O6  1  0.520181  0.520181  0.672746  1
  O  O7  1  0.479818  0.479818  0.327254  1
  O  O8  1  0.020182  0.479818  0.327254  1
  O  O9  1  0.020182  0.020182  0.327254  1
  Na  Na10  1  0.750000  0.750000  0.241533  1
  Na  Na11  1  0.249999  0.249999  0.758467  1
  K  K12  1  0.750000  0.249999  0.000000  1
  K  K13  1  0.249999  0.750000  0.000000  1
  Nb  Nb14  1  0.249999  0.249999  0.255632  1
  Nb  Nb15  1  0.750000  0.750000  0.744368  1
  La  La16  1  0.750000  0.249999  0.500000  1
  La  La17  1  0.249999  0.750000  0.500000  1
