# generated using pymatgen
data_La2Ni2O5
_symmetry_space_group_name_H-M   'P 1'
_cell_length_a   7.54592559
_cell_length_b   7.92853323
_cell_length_c   7.89377779
_cell_angle_alpha   90.00000000
_cell_angle_beta   95.47879122
_cell_angle_gamma   90.00000000
_symmetry_Int_Tables_number   1
_chemical_formula_structural   La2Ni2O5
_chemical_formula_sum   'La8 Ni8 O20'
_cell_volume   470.11238513
_cell_formula_units_Z   4
loop_
 _symmetry_equiv_pos_site_id
 _symmetry_equiv_pos_as_xyz
  1  'x, y, z'
loop_
 _atom_site_type_symbol
 _atom_site_label
 _atom_site_symmetry_multiplicity
 _atom_site_fract_x
 _atom_site_fract_y
 _atom_site_fract_z
 _atom_site_occupancy
  La  La0  1  0.747098  0.734569  0.746377  1
  La  La1  1  0.249871  0.267917  0.748150  1
  La  La2  1  0.250129  0.767917  0.751850  1
  La  La3  1  0.252902  0.265431  0.253623  1
  La  La4  1  0.750129  0.732083  0.251850  1
  La  La5  1  0.749871  0.232083  0.248150  1
  La  La6  1  0.752902  0.234569  0.753623  1
  La  La7  1  0.247098  0.765431  0.246377  1
  Ni  Ni8  1  0.000000  0.000000  0.000000  1
  Ni  Ni9  1  0.500000  0.500000  0.500000  1
  Ni  Ni10  1  0.000000  0.500000  0.500000  1
  Ni  Ni11  1  0.500000  0.500000  0.000000  1
  Ni  Ni12  1  0.000000  0.000000  0.500000  1
  Ni  Ni13  1  0.000000  0.500000  0.000000  1
  Ni  Ni14  1  0.500000  0.000000  0.000000  1
  Ni  Ni15  1  0.500000  0.000000  0.500000  1
  O  O16  1  0.453856  0.268011  0.534925  1
  O  O17  1  0.953230  0.732070  0.535525  1
  O  O18  1  0.250597  0.437106  0.003694  1
  O  O19  1  0.046770  0.267930  0.464475  1
  O  O20  1  0.036597  0.041586  0.770377  1
  O  O21  1  0.750597  0.062894  0.503694  1
  O  O22  1  0.546144  0.731989  0.465075  1
  O  O23  1  0.536597  0.458414  0.270377  1
  O  O24  1  0.953856  0.231989  0.034925  1
  O  O25  1  0.969789  0.458285  0.730751  1
  O  O26  1  0.030211  0.541715  0.269249  1
  O  O27  1  0.546770  0.232070  0.964475  1
  O  O28  1  0.749403  0.562894  0.996306  1
  O  O29  1  0.530211  0.958285  0.769249  1
  O  O30  1  0.046144  0.768011  0.965075  1
  O  O31  1  0.453230  0.767930  0.035525  1
  O  O32  1  0.249403  0.937106  0.496306  1
  O  O33  1  0.469789  0.041715  0.230751  1
  O  O34  1  0.463403  0.541586  0.729623  1
  O  O35  1  0.963403  0.958414  0.229623  1
