# generated using pymatgen
data_K2Mg(PSe3)2
_symmetry_space_group_name_H-M   'P 1'
_cell_length_a   6.58098968
_cell_length_b   7.93630437
_cell_length_c   13.04108696
_cell_angle_alpha   90.00000000
_cell_angle_beta   90.00000000
_cell_angle_gamma   103.09025232
_symmetry_Int_Tables_number   1
_chemical_formula_structural   K2Mg(PSe3)2
_chemical_formula_sum   'K4 Mg2 P4 Se12'
_cell_volume   663.42028085
_cell_formula_units_Z   2
loop_
 _symmetry_equiv_pos_site_id
 _symmetry_equiv_pos_as_xyz
  1  'x, y, z'
loop_
 _atom_site_type_symbol
 _atom_site_label
 _atom_site_symmetry_multiplicity
 _atom_site_fract_x
 _atom_site_fract_y
 _atom_site_fract_z
 _atom_site_occupancy
  Mg  Mg0  1  0.500000  0.500000  0.000000  1
  Mg  Mg1  1  0.000000  0.000000  0.500000  1
  P  P2  1  0.511427  0.864405  0.524373  1
  P  P3  1  0.488573  0.135595  0.475627  1
  P  P4  1  0.011427  0.364405  0.975627  1
  P  P5  1  0.988573  0.635595  0.024373  1
  K  K6  1  0.291383  0.946294  0.803600  1
  K  K7  1  0.208617  0.553706  0.303600  1
  K  K8  1  0.708617  0.053706  0.196400  1
  K  K9  1  0.791383  0.446294  0.696400  1
  Se  Se10  1  0.816968  0.270417  0.453374  1
  Se  Se11  1  0.683032  0.229583  0.953374  1
  Se  Se12  1  0.183032  0.729583  0.546626  1
  Se  Se13  1  0.316968  0.770417  0.046626  1
  Se  Se14  1  0.679318  0.766841  0.399090  1
  Se  Se15  1  0.820682  0.733159  0.899090  1
  Se  Se16  1  0.320682  0.233159  0.600910  1
  Se  Se17  1  0.179318  0.266841  0.100910  1
  Se  Se18  1  0.713395  0.899858  0.661634  1
  Se  Se19  1  0.786605  0.600142  0.161634  1
  Se  Se20  1  0.286605  0.100142  0.338366  1
  Se  Se21  1  0.213395  0.399858  0.838366  1
