# generated using pymatgen
data_RbEr2Cu3Se5
_symmetry_space_group_name_H-M   'P 1'
_cell_length_a   4.10842806
_cell_length_b   7.55391085
_cell_length_c   17.05048086
_cell_angle_alpha   90.00000000
_cell_angle_beta   90.00000000
_cell_angle_gamma   105.77976852
_symmetry_Int_Tables_number   1
_chemical_formula_structural   RbEr2Cu3Se5
_chemical_formula_sum   'Rb2 Er4 Cu6 Se10'
_cell_volume   509.21479371
_cell_formula_units_Z   2
loop_
 _symmetry_equiv_pos_site_id
 _symmetry_equiv_pos_as_xyz
  1  'x, y, z'
loop_
 _atom_site_type_symbol
 _atom_site_label
 _atom_site_symmetry_multiplicity
 _atom_site_fract_x
 _atom_site_fract_y
 _atom_site_fract_z
 _atom_site_occupancy
  Cu  Cu0  1  0.084379  0.168759  0.029848  1
  Cu  Cu1  1  0.915621  0.831241  0.970152  1
  Cu  Cu2  1  0.915621  0.831241  0.529848  1
  Cu  Cu3  1  0.084379  0.168759  0.470152  1
  Cu  Cu4  1  0.841480  0.682960  0.250000  1
  Cu  Cu5  1  0.158520  0.317040  0.750000  1
  Se  Se6  1  0.060460  0.120920  0.883786  1
  Se  Se7  1  0.939540  0.879080  0.116214  1
  Se  Se8  1  0.939540  0.879080  0.383786  1
  Se  Se9  1  0.060460  0.120920  0.616214  1
  Se  Se10  1  0.745106  0.490212  0.750000  1
  Se  Se11  1  0.254894  0.509788  0.250000  1
  Se  Se12  1  0.332864  0.665727  0.928571  1
  Se  Se13  1  0.667136  0.334273  0.071429  1
  Se  Se14  1  0.667136  0.334273  0.428571  1
  Se  Se15  1  0.332864  0.665727  0.571429  1
  Rb  Rb16  1  0.560907  0.121814  0.250000  1
  Rb  Rb17  1  0.439093  0.878186  0.750000  1
  Er  Er18  1  0.307990  0.615981  0.092207  1
  Er  Er19  1  0.692010  0.384019  0.907793  1
  Er  Er20  1  0.692010  0.384019  0.592207  1
  Er  Er21  1  0.307990  0.615981  0.407793  1
