# generated using pymatgen
data_Te4Rh3
_symmetry_space_group_name_H-M   'P 1'
_cell_length_a   4.03494927
_cell_length_b   6.77628402
_cell_length_c   6.95000246
_cell_angle_alpha   118.11649412
_cell_angle_beta   90.00000000
_cell_angle_gamma   107.32106092
_symmetry_Int_Tables_number   1
_chemical_formula_structural   Te4Rh3
_chemical_formula_sum   'Te4 Rh3'
_cell_volume   157.76427266
_cell_formula_units_Z   1
loop_
 _symmetry_equiv_pos_site_id
 _symmetry_equiv_pos_as_xyz
  1  'x, y, z'
loop_
 _atom_site_type_symbol
 _atom_site_label
 _atom_site_symmetry_multiplicity
 _atom_site_fract_x
 _atom_site_fract_y
 _atom_site_fract_z
 _atom_site_occupancy
  Te  Te0  1  0.879013  0.758027  0.545737  1
  Te  Te1  1  0.120987  0.241973  0.454263  1
  Te  Te2  1  0.635155  0.270311  0.981186  1
  Te  Te3  1  0.364845  0.729689  0.018814  1
  Rh  Rh4  1  0.735511  0.471023  0.718766  1
  Rh  Rh5  1  0.264489  0.528977  0.281234  1
  Rh  Rh6  1  -0.000000  -0.000000  -0.000000  1
