# generated using pymatgen
data_Cs2Se
_symmetry_space_group_name_H-M   'P 1'
_cell_length_a   6.24966513
_cell_length_b   9.45719098
_cell_length_c   9.90890768
_cell_angle_alpha   90.00000000
_cell_angle_beta   90.00000000
_cell_angle_gamma   90.00000000
_symmetry_Int_Tables_number   1
_chemical_formula_structural   Cs2Se
_chemical_formula_sum   'Cs8 Se4'
_cell_volume   585.65882127
_cell_formula_units_Z   4
loop_
 _symmetry_equiv_pos_site_id
 _symmetry_equiv_pos_as_xyz
  1  'x, y, z'
loop_
 _atom_site_type_symbol
 _atom_site_label
 _atom_site_symmetry_multiplicity
 _atom_site_fract_x
 _atom_site_fract_y
 _atom_site_fract_z
 _atom_site_occupancy
  Cs  Cs0  1  0.499588  0.897655  0.243194  1
  Cs  Cs1  1  0.500412  0.897655  0.756806  1
  Cs  Cs2  1  0.999588  0.102345  0.756806  1
  Cs  Cs3  1  0.000412  0.102345  0.243194  1
  Cs  Cs4  1  0.500000  0.580221  0.000000  1
  Cs  Cs5  1  0.000000  0.419779  0.000000  1
  Cs  Cs6  1  0.500000  0.587484  0.500000  1
  Cs  Cs7  1  0.000000  0.412516  0.500000  1
  Se  Se8  1  0.998591  0.717948  0.248632  1
  Se  Se9  1  0.001409  0.717948  0.751368  1
  Se  Se10  1  0.498591  0.282052  0.751368  1
  Se  Se11  1  0.501409  0.282052  0.248632  1
