# generated using pymatgen
data_IrI3
_symmetry_space_group_name_H-M   'P 1'
_cell_length_a   6.95615347
_cell_length_b   6.95261229
_cell_length_c   7.47261520
_cell_angle_alpha   81.77887312
_cell_angle_beta   73.39079389
_cell_angle_gamma   59.98315649
_symmetry_Int_Tables_number   1
_chemical_formula_structural   IrI3
_chemical_formula_sum   'Ir2 I6'
_cell_volume   299.87315647
_cell_formula_units_Z   2
loop_
 _symmetry_equiv_pos_site_id
 _symmetry_equiv_pos_as_xyz
  1  'x, y, z'
loop_
 _atom_site_type_symbol
 _atom_site_label
 _atom_site_symmetry_multiplicity
 _atom_site_fract_x
 _atom_site_fract_y
 _atom_site_fract_z
 _atom_site_occupancy
  Ir  Ir0  1  0.166684  0.666632  0.000000  1
  Ir  Ir1  1  0.833316  0.333368  1.000000  1
  I  I2  1  0.563719  0.356648  0.792029  1
  I  I3  1  0.436281  0.643352  0.207971  1
  I  I4  1  0.079633  0.356648  0.207971  1
  I  I5  1  0.920367  0.643352  0.792029  1
  I  I6  1  0.207721  1.000000  0.792017  1
  I  I7  1  0.792279  0.000000  0.207983  1
