# generated using pymatgen
data_Tm2Mo2C3
_symmetry_space_group_name_H-M   'P 1'
_cell_length_a   3.30944171
_cell_length_b   5.66222447
_cell_length_c   6.02282410
_cell_angle_alpha   110.60213462
_cell_angle_beta   105.94662104
_cell_angle_gamma   90.00000000
_symmetry_Int_Tables_number   1
_chemical_formula_structural   Tm2Mo2C3
_chemical_formula_sum   'Tm2 Mo2 C3'
_cell_volume   100.98965537
_cell_formula_units_Z   1
loop_
 _symmetry_equiv_pos_site_id
 _symmetry_equiv_pos_as_xyz
  1  'x, y, z'
loop_
 _atom_site_type_symbol
 _atom_site_label
 _atom_site_symmetry_multiplicity
 _atom_site_fract_x
 _atom_site_fract_y
 _atom_site_fract_z
 _atom_site_occupancy
  Tm  Tm0  1  0.388955  0.171979  0.777910  1
  Tm  Tm1  1  0.611045  0.828021  0.222090  1
  Mo  Mo2  1  0.155777  0.327611  0.311554  1
  Mo  Mo3  1  0.844223  0.672389  0.688446  1
  C  C4  1  0.247304  0.736716  0.494607  1
  C  C5  1  0.752696  0.263284  0.505393  1
  C  C6  1  0.000000  0.000000  0.000000  1
