# generated using pymatgen
data_Te2Mo2W(SeS)2
_symmetry_space_group_name_H-M   'P 1'
_cell_length_a   3.34961916
_cell_length_b   3.34971502
_cell_length_c   31.03796090
_cell_angle_alpha   89.99983426
_cell_angle_beta   90.00000000
_cell_angle_gamma   119.99905339
_symmetry_Int_Tables_number   1
_chemical_formula_structural   Te2Mo2W(SeS)2
_chemical_formula_sum   'Te2 Mo2 W1 Se2 S2'
_cell_volume   301.59993811
_cell_formula_units_Z   1
loop_
 _symmetry_equiv_pos_site_id
 _symmetry_equiv_pos_as_xyz
  1  'x, y, z'
loop_
 _atom_site_type_symbol
 _atom_site_label
 _atom_site_symmetry_multiplicity
 _atom_site_fract_x
 _atom_site_fract_y
 _atom_site_fract_z
 _atom_site_occupancy
  Te  Te0  1  0.666648  0.333294  0.517295  1
  Te  Te1  1  0.666643  0.333284  0.639466  1
  Mo  Mo2  1  0.333301  0.666602  0.115651  1
  Mo  Mo3  1  0.333317  0.666633  0.578401  1
  W  W4  1  0.666682  0.333364  0.346902  1
  Se  Se5  1  0.333350  0.666701  0.400831  1
  Se  Se6  1  0.333350  0.666702  0.292990  1
  S  S7  1  0.666655  0.333309  0.066839  1
  S  S8  1  0.666655  0.333310  0.164466  1
