# generated using pymatgen
data_CrN2
_symmetry_space_group_name_H-M   'P 1'
_cell_length_a   5.59410798
_cell_length_b   7.66705935
_cell_length_c   7.66705924
_cell_angle_alpha   73.51844002
_cell_angle_beta   68.60383598
_cell_angle_gamma   68.60383633
_symmetry_Int_Tables_number   1
_chemical_formula_structural   CrN2
_chemical_formula_sum   'Cr4 N8'
_cell_volume   280.74175846
_cell_formula_units_Z   4
loop_
 _symmetry_equiv_pos_site_id
 _symmetry_equiv_pos_as_xyz
  1  'x, y, z'
loop_
 _atom_site_type_symbol
 _atom_site_label
 _atom_site_symmetry_multiplicity
 _atom_site_fract_x
 _atom_site_fract_y
 _atom_site_fract_z
 _atom_site_occupancy
  Cr  Cr0  1  0.900271  0.953360  0.244467  1
  Cr  Cr1  1  0.098098  0.046640  0.755533  1
  Cr  Cr2  1  0.598098  0.255533  0.546640  1
  Cr  Cr3  1  0.400271  0.744467  0.453360  1
  N  N4  1  0.691814  0.808832  0.340659  1
  N  N5  1  0.841305  0.191168  0.659341  1
  N  N6  1  0.341305  0.159341  0.691168  1
  N  N7  1  0.191814  0.840659  0.308832  1
  N  N8  1  0.738676  0.158848  0.341152  1
  N  N9  1  0.238676  0.841152  0.658848  1
  N  N10  1  0.974416  -0.000000  0.000000  1
  N  N11  1  0.474416  0.500000  0.500000  1
