# generated using pymatgen
data_K2TiO3
_symmetry_space_group_name_H-M   'P 1'
_cell_length_a   5.51337378
_cell_length_b   6.19328177
_cell_length_c   6.19328177
_cell_angle_alpha   110.77079559
_cell_angle_beta   90.00000000
_cell_angle_gamma   90.00000000
_symmetry_Int_Tables_number   1
_chemical_formula_structural   K2TiO3
_chemical_formula_sum   'K4 Ti2 O6'
_cell_volume   197.73054871
_cell_formula_units_Z   2
loop_
 _symmetry_equiv_pos_site_id
 _symmetry_equiv_pos_as_xyz
  1  'x, y, z'
loop_
 _atom_site_type_symbol
 _atom_site_label
 _atom_site_symmetry_multiplicity
 _atom_site_fract_x
 _atom_site_fract_y
 _atom_site_fract_z
 _atom_site_occupancy
  O  O0  1  0.750000  0.662938  0.662938  1
  O  O1  1  0.250000  0.337062  0.337062  1
  O  O2  1  0.500000  0.125511  0.874489  1
  O  O3  1  0.000000  0.874489  0.125511  1
  O  O4  1  0.000000  0.125511  0.874489  1
  O  O5  1  0.500000  0.874489  0.125511  1
  K  K6  1  0.250000  0.485049  0.811248  1
  K  K7  1  0.250000  0.811248  0.485049  1
  K  K8  1  0.750000  0.514951  0.188752  1
  K  K9  1  0.750000  0.188752  0.514951  1
  Ti  Ti10  1  0.750000  0.915211  0.915211  1
  Ti  Ti11  1  0.250000  0.084789  0.084789  1
