# generated using pymatgen
data_Na3Ni2(GeO4)3
_symmetry_space_group_name_H-M   'P 1'
_cell_length_a   10.50403908
_cell_length_b   10.50403877
_cell_length_c   10.50403938
_cell_angle_alpha   109.47122008
_cell_angle_beta   109.47121948
_cell_angle_gamma   109.47121989
_symmetry_Int_Tables_number   1
_chemical_formula_structural   Na3Ni2(GeO4)3
_chemical_formula_sum   'Na12 Ni8 Ge12 O48'
_cell_volume   892.16895875
_cell_formula_units_Z   4
loop_
 _symmetry_equiv_pos_site_id
 _symmetry_equiv_pos_as_xyz
  1  'x, y, z'
loop_
 _atom_site_type_symbol
 _atom_site_label
 _atom_site_symmetry_multiplicity
 _atom_site_fract_x
 _atom_site_fract_y
 _atom_site_fract_z
 _atom_site_occupancy
  Na  Na0  1  0.625000  0.250000  0.875000  1
  Na  Na1  1  0.875000  0.750000  0.625000  1
  Na  Na2  1  0.750000  0.625000  0.875000  1
  Na  Na3  1  0.250000  0.875000  0.625000  1
  Na  Na4  1  0.875000  0.625000  0.250000  1
  Na  Na5  1  0.625000  0.875000  0.750000  1
  Na  Na6  1  0.375000  0.750000  0.125000  1
  Na  Na7  1  0.125000  0.250000  0.375000  1
  Na  Na8  1  0.250000  0.375000  0.125000  1
  Na  Na9  1  0.750000  0.125000  0.375000  1
  Na  Na10  1  0.125000  0.375000  0.750000  1
  Na  Na11  1  0.375000  0.125000  0.250000  1
  Ni  Ni12  1  0.500000  0.500000  0.500000  1
  Ni  Ni13  1  0.500000  0.500000  0.000000  1
  Ni  Ni14  1  0.500000  0.000000  0.500000  1
  Ni  Ni15  1  0.000000  0.500000  0.500000  1
  Ni  Ni16  1  0.500000  0.000000  0.000000  1
  Ni  Ni17  1  0.000000  0.000000  0.500000  1
  Ni  Ni18  1  0.000000  0.500000  0.000000  1
  Ni  Ni19  1  0.000000  0.000000  0.000000  1
  Ge  Ge20  1  0.875000  0.125000  0.750000  1
  Ge  Ge21  1  0.125000  0.875000  0.250000  1
  Ge  Ge22  1  0.250000  0.625000  0.375000  1
  Ge  Ge23  1  0.125000  0.750000  0.875000  1
  Ge  Ge24  1  0.750000  0.875000  0.125000  1
  Ge  Ge25  1  0.375000  0.250000  0.625000  1
  Ge  Ge26  1  0.625000  0.750000  0.375000  1
  Ge  Ge27  1  0.875000  0.250000  0.125000  1
  Ge  Ge28  1  0.250000  0.125000  0.875000  1
  Ge  Ge29  1  0.750000  0.375000  0.625000  1
  Ge  Ge30  1  0.375000  0.625000  0.750000  1
  Ge  Ge31  1  0.625000  0.375000  0.250000  1
  O  O32  1  0.806927  0.419255  0.821708  1
  O  O33  1  0.080745  0.887672  0.402453  1
  O  O34  1  0.678292  0.097547  0.985218  1
  O  O35  1  0.693073  0.514782  0.612328  1
  O  O36  1  0.693073  0.678292  0.080745  1
  O  O37  1  0.514782  0.612328  0.693073  1
  O  O38  1  0.097547  0.612328  0.419255  1
  O  O39  1  0.612328  0.693073  0.514782  1
  O  O40  1  0.402453  0.821708  0.514782  1
  O  O41  1  0.887672  0.985218  0.806927  1
  O  O42  1  0.985218  0.806927  0.887672  1
  O  O43  1  0.080745  0.693073  0.678292  1
  O  O44  1  0.612328  0.419255  0.097547  1
  O  O45  1  0.514782  0.402453  0.821708  1
  O  O46  1  0.678292  0.080745  0.693073  1
  O  O47  1  0.419255  0.097547  0.612328  1
  O  O48  1  0.821708  0.514782  0.402453  1
  O  O49  1  0.402453  0.080745  0.887672  1
  O  O50  1  0.097547  0.985218  0.678292  1
  O  O51  1  0.597547  0.178292  0.485218  1
  O  O52  1  0.985218  0.678292  0.097547  1
  O  O53  1  0.821708  0.806927  0.419255  1
  O  O54  1  0.887672  0.402453  0.080745  1
  O  O55  1  0.806927  0.887672  0.985218  1
  O  O56  1  0.193073  0.580745  0.178292  1
  O  O57  1  0.919255  0.112328  0.597547  1
  O  O58  1  0.321708  0.902453  0.014782  1
  O  O59  1  0.306927  0.485218  0.387672  1
  O  O60  1  0.306927  0.321708  0.919255  1
  O  O61  1  0.485218  0.387672  0.306927  1
  O  O62  1  0.902453  0.387672  0.580745  1
  O  O63  1  0.387672  0.306927  0.485218  1
  O  O64  1  0.193073  0.112328  0.014782  1
  O  O65  1  0.112328  0.597547  0.919255  1
  O  O66  1  0.178292  0.193073  0.580745  1
  O  O67  1  0.580745  0.178292  0.193073  1
  O  O68  1  0.014782  0.321708  0.902453  1
  O  O69  1  0.902453  0.014782  0.321708  1
  O  O70  1  0.597547  0.919255  0.112328  1
  O  O71  1  0.178292  0.485218  0.597547  1
  O  O72  1  0.580745  0.902453  0.387672  1
  O  O73  1  0.321708  0.919255  0.306927  1
  O  O74  1  0.485218  0.597547  0.178292  1
  O  O75  1  0.387672  0.580745  0.902453  1
  O  O76  1  0.919255  0.306927  0.321708  1
  O  O77  1  0.014782  0.193073  0.112328  1
  O  O78  1  0.112328  0.014782  0.193073  1
  O  O79  1  0.419255  0.821708  0.806927  1
