# generated using pymatgen
data_BeAgPO4
_symmetry_space_group_name_H-M   'P 1'
_cell_length_a   7.99686473
_cell_length_b   8.32969936
_cell_length_c   14.61886807
_cell_angle_alpha   90.19726930
_cell_angle_beta   90.00000000
_cell_angle_gamma   90.00000000
_symmetry_Int_Tables_number   1
_chemical_formula_structural   BeAgPO4
_chemical_formula_sum   'Be12 Ag12 P12 O48'
_cell_volume   973.77865231
_cell_formula_units_Z   12
loop_
 _symmetry_equiv_pos_site_id
 _symmetry_equiv_pos_as_xyz
  1  'x, y, z'
loop_
 _atom_site_type_symbol
 _atom_site_label
 _atom_site_symmetry_multiplicity
 _atom_site_fract_x
 _atom_site_fract_y
 _atom_site_fract_z
 _atom_site_occupancy
  Be  Be0  1  0.326946  0.903700  0.918601  1
  Be  Be1  1  0.670904  0.066387  0.408849  1
  Be  Be2  1  0.170904  0.433613  0.091151  1
  Be  Be3  1  0.329096  0.933613  0.591151  1
  Be  Be4  1  0.829096  0.566387  0.908849  1
  Be  Be5  1  0.673054  0.096300  0.081399  1
  Be  Be6  1  0.173054  0.403700  0.418601  1
  Be  Be7  1  0.826946  0.596300  0.581399  1
  Be  Be8  1  0.674263  0.578381  0.258034  1
  Be  Be9  1  0.174263  0.921619  0.241966  1
  Be  Be10  1  0.325737  0.421619  0.741966  1
  Be  Be11  1  0.825737  0.078381  0.758034  1
  O  O12  1  0.975795  0.488504  0.106413  1
  O  O13  1  0.175095  0.966248  0.350786  1
  O  O14  1  0.324905  0.466248  0.850786  1
  O  O15  1  0.824905  0.033752  0.649214  1
  O  O16  1  0.678472  0.254187  0.442812  1
  O  O17  1  0.178472  0.245813  0.057188  1
  O  O18  1  0.321528  0.745813  0.557188  1
  O  O19  1  0.821528  0.754187  0.942812  1
  O  O20  1  0.754107  0.948810  0.487121  1
  O  O21  1  0.178403  0.551368  0.345893  1
  O  O22  1  0.321597  0.051368  0.845893  1
  O  O23  1  0.821597  0.448632  0.654107  1
  O  O24  1  0.522119  0.425708  0.705428  1
  O  O25  1  0.022119  0.074292  0.794572  1
  O  O26  1  0.477881  0.574292  0.294572  1
  O  O27  1  0.977881  0.925708  0.205428  1
  O  O28  1  0.520377  0.841074  0.933195  1
  O  O29  1  0.675095  0.533752  0.149214  1
  O  O30  1  0.020377  0.658926  0.566805  1
  O  O31  1  0.479623  0.158926  0.066805  1
  O  O32  1  0.979623  0.341074  0.433195  1
  O  O33  1  0.524205  0.988504  0.606413  1
  O  O34  1  0.024205  0.511496  0.893587  1
  O  O35  1  0.475795  0.011496  0.393587  1
  O  O36  1  0.731988  0.551722  0.811249  1
  O  O37  1  0.231988  0.948278  0.688751  1
  O  O38  1  0.268012  0.448278  0.188751  1
  O  O39  1  0.768012  0.051722  0.311249  1
  O  O40  1  0.726638  0.939314  0.815596  1
  O  O41  1  0.226638  0.560686  0.684404  1
  O  O42  1  0.273362  0.060686  0.184404  1
  O  O43  1  0.773362  0.439314  0.315596  1
  O  O44  1  0.719357  0.750877  0.617870  1
  O  O45  1  0.219357  0.749123  0.882130  1
  O  O46  1  0.280643  0.249123  0.382130  1
  O  O47  1  0.780643  0.250877  0.117870  1
  O  O48  1  0.745369  0.252968  0.781004  1
  O  O49  1  0.245369  0.247032  0.718996  1
  O  O50  1  0.254631  0.747032  0.218996  1
  O  O51  1  0.754631  0.752968  0.281004  1
  O  O52  1  0.746385  0.041497  0.979928  1
  O  O53  1  0.246385  0.458503  0.520072  1
  O  O54  1  0.253615  0.958503  0.020072  1
  O  O55  1  0.753615  0.541497  0.479928  1
  O  O56  1  0.745893  0.448810  0.987121  1
  O  O57  1  0.245893  0.051190  0.512879  1
  O  O58  1  0.254107  0.551190  0.012879  1
  O  O59  1  0.678403  0.948632  0.154107  1
  P  P60  1  0.794646  0.430076  0.089538  1
  P  P61  1  0.294646  0.069924  0.410462  1
  P  P62  1  0.205354  0.569924  0.910462  1
  P  P63  1  0.705354  0.930076  0.589538  1
  P  P64  1  0.796451  0.395493  0.417645  1
  P  P65  1  0.296451  0.104507  0.082355  1
  P  P66  1  0.203549  0.604507  0.582355  1
  P  P67  1  0.703549  0.895493  0.917645  1
  P  P68  1  0.792205  0.917841  0.238058  1
  P  P69  1  0.292205  0.582159  0.261942  1
  P  P70  1  0.207795  0.082159  0.761942  1
  P  P71  1  0.707795  0.417841  0.738058  1
  Ag  Ag72  1  0.514289  0.712720  0.435454  1
  Ag  Ag73  1  0.014289  0.787280  0.064546  1
  Ag  Ag74  1  0.485711  0.287280  0.564546  1
  Ag  Ag75  1  0.985711  0.212720  0.935454  1
  Ag  Ag76  1  0.980451  0.778692  0.414367  1
  Ag  Ag77  1  0.480451  0.721308  0.085633  1
  Ag  Ag78  1  0.019549  0.221308  0.585633  1
  Ag  Ag79  1  0.519549  0.278692  0.914367  1
  Ag  Ag80  1  0.506862  0.250277  0.252124  1
  Ag  Ag81  1  0.006862  0.249723  0.247876  1
  Ag  Ag82  1  0.493138  0.749723  0.747876  1
  Ag  Ag83  1  0.993138  0.750277  0.752124  1
