# generated using pymatgen
data_Te4Mo3W(SeS)2
_symmetry_space_group_name_H-M   'P 1'
_cell_length_a   3.39605688
_cell_length_b   3.39606028
_cell_length_c   38.74392624
_cell_angle_alpha   90.00018236
_cell_angle_beta   90.00000503
_cell_angle_gamma   119.99997045
_symmetry_Int_Tables_number   1
_chemical_formula_structural   Te4Mo3W(SeS)2
_chemical_formula_sum   'Te4 Mo3 W1 Se2 S2'
_cell_volume   386.97662869
_cell_formula_units_Z   1
loop_
 _symmetry_equiv_pos_site_id
 _symmetry_equiv_pos_as_xyz
  1  'x, y, z'
loop_
 _atom_site_type_symbol
 _atom_site_label
 _atom_site_symmetry_multiplicity
 _atom_site_fract_x
 _atom_site_fract_y
 _atom_site_fract_z
 _atom_site_occupancy
  Te  Te0  1  0.333351  0.666703  0.330225  1
  Te  Te1  1  0.666647  0.333293  0.045480  1
  Te  Te2  1  0.666644  0.333287  0.142209  1
  Te  Te3  1  0.333349  0.666699  0.233507  1
  Mo  Mo4  1  0.333312  0.666622  0.093802  1
  Mo  Mo5  1  0.333315  0.666629  0.469671  1
  Mo  Mo6  1  0.666685  0.333372  0.281886  1
  W  W7  1  0.666691  0.333383  0.657532  1
  Se  Se8  1  0.666642  0.333283  0.427086  1
  Se  Se9  1  0.666651  0.333301  0.512283  1
  S  S10  1  0.333360  0.666721  0.696436  1
  S  S11  1  0.333354  0.666708  0.618631  1
