# generated using pymatgen
data_SmPPd
_symmetry_space_group_name_H-M   'P 1'
_cell_length_a   4.22009398
_cell_length_b   4.22009399
_cell_length_c   7.72994730
_cell_angle_alpha   90.00000000
_cell_angle_beta   90.00000000
_cell_angle_gamma   119.99999995
_symmetry_Int_Tables_number   1
_chemical_formula_structural   SmPPd
_chemical_formula_sum   'Sm2 P2 Pd2'
_cell_volume   119.22062957
_cell_formula_units_Z   2
loop_
 _symmetry_equiv_pos_site_id
 _symmetry_equiv_pos_as_xyz
  1  'x, y, z'
loop_
 _atom_site_type_symbol
 _atom_site_label
 _atom_site_symmetry_multiplicity
 _atom_site_fract_x
 _atom_site_fract_y
 _atom_site_fract_z
 _atom_site_occupancy
  P  P0  1  0.666667  0.333333  0.250000  1
  P  P1  1  0.333333  0.666667  0.750000  1
  Pd  Pd2  1  0.333333  0.666667  0.250000  1
  Pd  Pd3  1  0.666667  0.333333  0.750000  1
  Sm  Sm4  1  0.000000  0.000000  0.500000  1
  Sm  Sm5  1  0.000000  0.000000  0.000000  1
