# generated using pymatgen
data_CsAg3Se2
_symmetry_space_group_name_H-M   'P 1'
_cell_length_a   4.49215927
_cell_length_b   8.75468474
_cell_length_c   9.36033757
_cell_angle_alpha   111.82579397
_cell_angle_beta   90.00000000
_cell_angle_gamma   104.86589124
_symmetry_Int_Tables_number   1
_chemical_formula_structural   CsAg3Se2
_chemical_formula_sum   'Cs2 Ag6 Se4'
_cell_volume   328.42109439
_cell_formula_units_Z   2
loop_
 _symmetry_equiv_pos_site_id
 _symmetry_equiv_pos_as_xyz
  1  'x, y, z'
loop_
 _atom_site_type_symbol
 _atom_site_label
 _atom_site_symmetry_multiplicity
 _atom_site_fract_x
 _atom_site_fract_y
 _atom_site_fract_z
 _atom_site_occupancy
  Se  Se0  1  0.478409  0.956818  0.770533  1
  Se  Se1  1  0.521591  0.043182  0.229467  1
  Se  Se2  1  0.806067  0.612133  0.315707  1
  Se  Se3  1  0.193933  0.387867  0.684293  1
  Ag  Ag4  1  0.311602  0.623203  0.563015  1
  Ag  Ag5  1  0.942154  0.884308  0.596541  1
  Ag  Ag6  1  0.589852  0.179704  0.636315  1
  Ag  Ag7  1  0.410148  0.820296  0.363685  1
  Ag  Ag8  1  0.057846  0.115692  0.403459  1
  Ag  Ag9  1  0.688398  0.376797  0.436985  1
  Cs  Cs10  1  0.863080  0.726161  0.952019  1
  Cs  Cs11  1  0.136920  0.273839  0.047981  1
