# generated using pymatgen
data_Ti(MnP6)2
_symmetry_space_group_name_H-M   'P 1'
_cell_length_a   5.80046054
_cell_length_b   8.53309280
_cell_length_c   10.65148872
_cell_angle_alpha   113.60494229
_cell_angle_beta   90.00000000
_cell_angle_gamma   109.86958238
_symmetry_Int_Tables_number   1
_chemical_formula_structural   Ti(MnP6)2
_chemical_formula_sum   'Ti2 Mn4 P24'
_cell_volume   448.63189374
_cell_formula_units_Z   2
loop_
 _symmetry_equiv_pos_site_id
 _symmetry_equiv_pos_as_xyz
  1  'x, y, z'
loop_
 _atom_site_type_symbol
 _atom_site_label
 _atom_site_symmetry_multiplicity
 _atom_site_fract_x
 _atom_site_fract_y
 _atom_site_fract_z
 _atom_site_occupancy
  P  P0  1  0.595351  0.547828  0.925269  1
  P  P1  1  0.047523  0.452172  0.574731  1
  P  P2  1  0.404649  0.452172  0.074731  1
  P  P3  1  0.952477  0.547828  0.425269  1
  P  P4  1  0.585012  0.876143  0.833325  1
  P  P5  1  0.708869  0.123857  0.666675  1
  P  P6  1  0.979768  0.312039  0.242850  1
  P  P7  1  0.667729  0.687961  0.257150  1
  P  P8  1  0.020232  0.687961  0.757150  1
  P  P9  1  0.332271  0.312039  0.742850  1
  P  P10  1  0.016100  0.933958  0.072268  1
  P  P11  1  0.082143  0.066042  0.427732  1
  P  P12  1  0.983900  0.066042  0.927732  1
  P  P13  1  0.917857  0.933958  0.572268  1
  P  P14  1  0.333720  0.766023  0.493933  1
  P  P15  1  0.567697  0.233977  0.006067  1
  P  P16  1  0.666280  0.233977  0.506067  1
  P  P17  1  0.432303  0.766023  0.993933  1
  P  P18  1  0.994668  0.644031  0.164626  1
  P  P19  1  0.350636  0.355969  0.335374  1
  P  P20  1  0.005332  0.355969  0.835374  1
  P  P21  1  0.649364  0.644031  0.664626  1
  P  P22  1  0.291131  0.876143  0.333325  1
  P  P23  1  0.414988  0.123857  0.166675  1
  Ti  Ti24  1  0.696425  0.000000  0.250000  1
  Ti  Ti25  1  0.303575  0.000000  0.750000  1
  Mn  Mn26  1  0.627669  0.634886  0.453745  1
  Mn  Mn27  1  0.992783  0.365114  0.046255  1
  Mn  Mn28  1  0.007217  0.634886  0.953745  1
  Mn  Mn29  1  0.372331  0.365114  0.546255  1
