# generated using pymatgen
data_Gd(BO2)3
_symmetry_space_group_name_H-M   'P 1'
_cell_length_a   6.31488538
_cell_length_b   6.38318047
_cell_length_c   6.38318047
_cell_angle_alpha   79.33557565
_cell_angle_beta   62.52406632
_cell_angle_gamma   62.52406634
_symmetry_Int_Tables_number   1
_chemical_formula_structural   Gd(BO2)3
_chemical_formula_sum   'Gd2 B6 O12'
_cell_volume   202.40262432
_cell_formula_units_Z   2
loop_
 _symmetry_equiv_pos_site_id
 _symmetry_equiv_pos_as_xyz
  1  'x, y, z'
loop_
 _atom_site_type_symbol
 _atom_site_label
 _atom_site_symmetry_multiplicity
 _atom_site_fract_x
 _atom_site_fract_y
 _atom_site_fract_z
 _atom_site_occupancy
  B  B0  1  0.909135  0.663342  0.293570  1
  B  B1  1  0.590865  0.206430  0.836658  1
  B  B2  1  0.750000  0.775915  0.724085  1
  B  B3  1  0.250000  0.224085  0.275915  1
  B  B4  1  0.090865  0.336658  0.706430  1
  B  B5  1  0.409135  0.793570  0.163342  1
  O  O6  1  0.706329  0.781011  0.512427  1
  O  O7  1  0.995427  0.581412  0.716931  1
  O  O8  1  0.504573  0.783069  0.918588  1
  O  O9  1  0.004573  0.418588  0.283069  1
  O  O10  1  0.488946  0.615155  0.297619  1
  O  O11  1  0.011054  0.202381  0.884845  1
  O  O12  1  0.511054  0.384845  0.702381  1
  O  O13  1  0.988946  0.797619  0.115155  1
  O  O14  1  0.293671  0.218989  0.487573  1
  O  O15  1  0.206329  0.012427  0.281011  1
  O  O16  1  0.495427  0.216931  0.081412  1
  O  O17  1  0.793671  0.987573  0.718989  1
  Gd  Gd18  1  0.750000  0.208744  0.291256  1
  Gd  Gd19  1  0.250000  0.791256  0.708744  1
