# generated using pymatgen
data_Te2Mo3W(SeS2)2
_symmetry_space_group_name_H-M   'P 1'
_cell_length_a   3.30723194
_cell_length_b   3.30722247
_cell_length_c   37.57466296
_cell_angle_alpha   90.00024217
_cell_angle_beta   90.00000000
_cell_angle_gamma   120.00009473
_symmetry_Int_Tables_number   1
_chemical_formula_structural   Te2Mo3W(SeS2)2
_chemical_formula_sum   'Te2 Mo3 W1 Se2 S4'
_cell_volume   355.92080437
_cell_formula_units_Z   1
loop_
 _symmetry_equiv_pos_site_id
 _symmetry_equiv_pos_as_xyz
  1  'x, y, z'
loop_
 _atom_site_type_symbol
 _atom_site_label
 _atom_site_symmetry_multiplicity
 _atom_site_fract_x
 _atom_site_fract_y
 _atom_site_fract_z
 _atom_site_occupancy
  Te  Te0  1  0.333351  0.666704  0.708383  1
  Te  Te1  1  0.333351  0.666704  0.606696  1
  Mo  Mo2  1  0.333310  0.666619  0.093905  1
  Mo  Mo3  1  0.333315  0.666630  0.469667  1
  Mo  Mo4  1  0.666690  0.333379  0.657558  1
  W  W5  1  0.666692  0.333384  0.281803  1
  Se  Se6  1  0.666647  0.333292  0.049263  1
  Se  Se7  1  0.666647  0.333294  0.138579  1
  S  S8  1  0.333352  0.666705  0.322618  1
  S  S9  1  0.666643  0.333286  0.428949  1
  S  S10  1  0.666646  0.333291  0.510353  1
  S  S11  1  0.333356  0.666712  0.240974  1
