# generated using pymatgen
data_NaLa2OsO6
_symmetry_space_group_name_H-M   'P 1'
_cell_length_a   5.65498105
_cell_length_b   6.02678578
_cell_length_c   8.12922057
_cell_angle_alpha   90.00000000
_cell_angle_beta   90.69331786
_cell_angle_gamma   90.00000000
_symmetry_Int_Tables_number   1
_chemical_formula_structural   NaLa2OsO6
_chemical_formula_sum   'Na2 La4 Os2 O12'
_cell_volume   277.03460359
_cell_formula_units_Z   2
loop_
 _symmetry_equiv_pos_site_id
 _symmetry_equiv_pos_as_xyz
  1  'x, y, z'
loop_
 _atom_site_type_symbol
 _atom_site_label
 _atom_site_symmetry_multiplicity
 _atom_site_fract_x
 _atom_site_fract_y
 _atom_site_fract_z
 _atom_site_occupancy
  O  O0  1  0.834441  0.721716  0.568039  1
  O  O1  1  0.665559  0.221716  0.931961  1
  O  O2  1  0.165559  0.278284  0.431961  1
  O  O3  1  0.334441  0.778284  0.068039  1
  O  O4  1  0.116003  0.049755  0.729423  1
  O  O5  1  0.383997  0.549755  0.770577  1
  O  O6  1  0.883997  0.950245  0.270577  1
  O  O7  1  0.616003  0.450245  0.229423  1
  O  O8  1  0.210733  0.326155  0.050967  1
  O  O9  1  0.289267  0.826155  0.449033  1
  O  O10  1  0.789267  0.673845  0.949033  1
  O  O11  1  0.710733  0.173845  0.550967  1
  Na  Na12  1  0.500000  0.500000  0.500000  1
  Na  Na13  1  0.000000  0.000000  0.000000  1
  La  La14  1  0.481439  0.066519  0.253392  1
  La  La15  1  0.018561  0.566519  0.246608  1
  La  La16  1  0.981439  0.433481  0.753392  1
  La  La17  1  0.518561  0.933481  0.746608  1
  Os  Os18  1  0.500000  0.500000  0.000000  1
  Os  Os19  1  0.000000  0.000000  0.500000  1
