# generated using pymatgen
data_Te2Mo(WSe2)3
_symmetry_space_group_name_H-M   'P 1'
_cell_length_a   3.38152998
_cell_length_b   3.38149972
_cell_length_c   38.52435286
_cell_angle_alpha   89.99989924
_cell_angle_beta   89.99999318
_cell_angle_gamma   120.00027564
_symmetry_Int_Tables_number   1
_chemical_formula_structural   Te2Mo(WSe2)3
_chemical_formula_sum   'Te2 Mo1 W3 Se6'
_cell_volume   381.49370490
_cell_formula_units_Z   1
loop_
 _symmetry_equiv_pos_site_id
 _symmetry_equiv_pos_as_xyz
  1  'x, y, z'
loop_
 _atom_site_type_symbol
 _atom_site_label
 _atom_site_symmetry_multiplicity
 _atom_site_fract_x
 _atom_site_fract_y
 _atom_site_fract_z
 _atom_site_occupancy
  Te  Te0  1  0.666647  0.333293  0.420589  1
  Te  Te1  1  0.666646  0.333291  0.518702  1
  Mo  Mo2  1  0.666690  0.333380  0.281805  1
  W  W3  1  0.333309  0.666617  0.093928  1
  W  W4  1  0.333309  0.666618  0.469674  1
  W  W5  1  0.666689  0.333379  0.657557  1
  Se  Se6  1  0.333352  0.666705  0.324767  1
  Se  Se7  1  0.333359  0.666719  0.700651  1
  Se  Se8  1  0.666645  0.333289  0.050808  1
  Se  Se9  1  0.666646  0.333291  0.137045  1
  Se  Se10  1  0.333356  0.666713  0.238805  1
  Se  Se11  1  0.333352  0.666705  0.614418  1
