# generated using pymatgen
data_DyNiO3
_symmetry_space_group_name_H-M   'P 1'
_cell_length_a   5.21642652
_cell_length_b   5.62117051
_cell_length_c   7.45932614
_cell_angle_alpha   90.00000000
_cell_angle_beta   90.00000000
_cell_angle_gamma   90.00000000
_symmetry_Int_Tables_number   1
_chemical_formula_structural   DyNiO3
_chemical_formula_sum   'Dy4 Ni4 O12'
_cell_volume   218.72551579
_cell_formula_units_Z   4
loop_
 _symmetry_equiv_pos_site_id
 _symmetry_equiv_pos_as_xyz
  1  'x, y, z'
loop_
 _atom_site_type_symbol
 _atom_site_label
 _atom_site_symmetry_multiplicity
 _atom_site_fract_x
 _atom_site_fract_y
 _atom_site_fract_z
 _atom_site_occupancy
  O  O0  1  0.697154  0.307545  0.447871  1
  O  O1  1  0.197155  0.192455  0.552129  1
  O  O2  1  0.802845  0.807545  0.052129  1
  O  O3  1  0.302846  0.692455  0.947872  1
  O  O4  1  0.302846  0.692455  0.552129  1
  O  O5  1  0.802845  0.807545  0.447871  1
  O  O6  1  0.197155  0.192455  0.947872  1
  O  O7  1  0.697154  0.307545  0.052129  1
  O  O8  1  0.104774  0.469099  0.250000  1
  O  O9  1  0.604773  0.030901  0.750000  1
  O  O10  1  0.895226  0.530901  0.750000  1
  O  O11  1  0.395227  0.969099  0.250000  1
  Ni  Ni12  1  0.499999  0.000000  0.500001  1
  Ni  Ni13  1  0.000000  0.500000  0.500001  1
  Ni  Ni14  1  0.000000  0.500000  0.000000  1
  Ni  Ni15  1  0.499999  0.000000  0.000000  1
  Dy  Dy16  1  0.021177  0.922548  0.750000  1
  Dy  Dy17  1  0.521178  0.577454  0.250000  1
  Dy  Dy18  1  0.478822  0.422548  0.750000  1
  Dy  Dy19  1  0.978823  0.077452  0.250000  1
