# generated using pymatgen
data_MoWSe3S
_symmetry_space_group_name_H-M   'P 1'
_cell_length_a   3.29132741
_cell_length_b   3.29119274
_cell_length_c   36.94162740
_cell_angle_alpha   89.98985033
_cell_angle_beta   90.00000000
_cell_angle_gamma   120.00135350
_symmetry_Int_Tables_number   1
_chemical_formula_structural   MoWSe3S
_chemical_formula_sum   'Mo2 W2 Se6 S2'
_cell_volume   346.54937944
_cell_formula_units_Z   2
loop_
 _symmetry_equiv_pos_site_id
 _symmetry_equiv_pos_as_xyz
  1  'x, y, z'
loop_
 _atom_site_type_symbol
 _atom_site_label
 _atom_site_symmetry_multiplicity
 _atom_site_fract_x
 _atom_site_fract_y
 _atom_site_fract_z
 _atom_site_occupancy
  Mo  Mo0  1  0.333075  0.666149  0.093416  1
  Mo  Mo1  1  0.332702  0.665404  0.470928  1
  W  W2  1  0.667691  0.335382  0.281418  1
  W  W3  1  0.666446  0.332891  0.657156  1
  Se  Se4  1  0.334478  0.668958  0.327295  1
  Se  Se5  1  0.333074  0.666149  0.703024  1
  Se  Se6  1  0.666453  0.332906  0.047764  1
  Se  Se7  1  0.666337  0.332674  0.139063  1
  Se  Se8  1  0.334501  0.669003  0.235542  1
  Se  Se9  1  0.333180  0.666360  0.611283  1
  S  S10  1  0.666111  0.332220  0.429410  1
  S  S11  1  0.665952  0.331903  0.512449  1
