# generated using pymatgen
data_KBe2B3O7
_symmetry_space_group_name_H-M   'P 1'
_cell_length_a   7.56676555
_cell_length_b   13.40516345
_cell_length_c   9.42890524
_cell_angle_alpha   90.00000000
_cell_angle_beta   111.38030738
_cell_angle_gamma   90.00000000
_symmetry_Int_Tables_number   1
_chemical_formula_structural   KBe2B3O7
_chemical_formula_sum   'K6 Be12 B18 O42'
_cell_volume   890.59006865
_cell_formula_units_Z   6
loop_
 _symmetry_equiv_pos_site_id
 _symmetry_equiv_pos_as_xyz
  1  'x, y, z'
loop_
 _atom_site_type_symbol
 _atom_site_label
 _atom_site_symmetry_multiplicity
 _atom_site_fract_x
 _atom_site_fract_y
 _atom_site_fract_z
 _atom_site_occupancy
  K  K0  1  0.629853  0.058302  0.232761  1
  K  K1  1  0.370147  0.558302  0.767239  1
  K  K2  1  0.620757  0.411191  0.233390  1
  K  K3  1  0.379244  0.911191  0.766610  1
  K  K4  1  0.998206  0.982958  0.994622  1
  K  K5  1  0.001794  0.482958  0.005378  1
  Be  Be6  1  0.024740  0.896168  0.413640  1
  Be  Be7  1  0.975260  0.396168  0.586360  1
  Be  Be8  1  0.970345  0.062646  0.576520  1
  Be  Be9  1  0.029655  0.562646  0.423480  1
  Be  Be10  1  0.604051  0.063545  0.584247  1
  Be  Be11  1  0.395949  0.563545  0.415753  1
  Be  Be12  1  0.401190  0.895790  0.423336  1
  Be  Be13  1  0.598810  0.395790  0.576664  1
  Be  Be14  1  0.600563  0.728137  0.590454  1
  Be  Be15  1  0.399437  0.228137  0.409546  1
  Be  Be16  1  0.973413  0.730564  0.589821  1
  Be  Be17  1  0.026587  0.230564  0.410179  1
  B  B18  1  0.764438  0.895617  0.535864  1
  B  B19  1  0.235562  0.395617  0.464136  1
  B  B20  1  0.764378  0.228722  0.526334  1
  B  B21  1  0.235622  0.728722  0.473666  1
  B  B22  1  0.232628  0.064558  0.460134  1
  B  B23  1  0.767372  0.564558  0.539866  1
  B  B24  1  0.653551  0.144175  0.848234  1
  B  B25  1  0.346449  0.644175  0.151766  1
  B  B26  1  0.808629  0.237730  0.087100  1
  B  B27  1  0.191371  0.737730  0.912900  1
  B  B28  1  0.642768  0.323466  0.842737  1
  B  B29  1  0.357232  0.823466  0.157263  1
  B  B30  1  0.689081  0.728758  0.912628  1
  B  B31  1  0.310919  0.228758  0.087372  1
  B  B32  1  0.845076  0.823060  0.149296  1
  B  B33  1  0.154924  0.323060  0.850704  1
  B  B34  1  0.844107  0.641396  0.156959  1
  B  B35  1  0.155893  0.141396  0.843041  1
  O  O36  1  0.080987  0.012349  0.473267  1
  O  O37  1  0.919013  0.512349  0.526733  1
  O  O38  1  0.913290  0.845064  0.517920  1
  O  O39  1  0.086710  0.345064  0.482080  1
  O  O40  1  0.778632  0.665397  0.569111  1
  O  O41  1  0.221368  0.165397  0.430889  1
  O  O42  1  0.604868  0.846081  0.537099  1
  O  O43  1  0.395132  0.346081  0.462901  1
  O  O44  1  0.398710  0.012177  0.483430  1
  O  O45  1  0.601290  0.512177  0.516570  1
  O  O46  1  0.771518  0.998984  0.547903  1
  O  O47  1  0.228482  0.498984  0.452097  1
  O  O48  1  0.602539  0.177318  0.517602  1
  O  O49  1  0.397461  0.677318  0.482398  1
  O  O50  1  0.907359  0.175471  0.502576  1
  O  O51  1  0.092641  0.675471  0.497424  1
  O  O52  1  0.773133  0.331697  0.547175  1
  O  O53  1  0.226867  0.831697  0.452825  1
  O  O54  1  0.888521  0.241111  0.236503  1
  O  O55  1  0.111479  0.741111  0.763497  1
  O  O56  1  0.767140  0.146287  0.005846  1
  O  O57  1  0.232860  0.646287  0.994154  1
  O  O58  1  0.754853  0.326749  0.000311  1
  O  O59  1  0.245147  0.826749  0.999689  1
  O  O60  1  0.643445  0.061505  0.765894  1
  O  O61  1  0.356555  0.561505  0.234106  1
  O  O62  1  0.560330  0.232130  0.785417  1
  O  O63  1  0.439670  0.732130  0.214583  1
  O  O64  1  0.623797  0.403976  0.754579  1
  O  O65  1  0.376203  0.903976  0.245421  1
  O  O66  1  0.601785  0.725577  0.762752  1
  O  O67  1  0.398215  0.225577  0.237248  1
  O  O68  1  0.728932  0.639400  0.000227  1
  O  O69  1  0.271068  0.139400  -0.000227  1
  O  O70  1  0.733227  0.821207  0.992006  1
  O  O71  1  0.266773  0.321207  0.007994  1
  O  O72  1  0.891433  0.559131  0.243164  1
  O  O73  1  0.108567  0.059131  0.756836  1
  O  O74  1  0.917694  0.733072  0.215996  1
  O  O75  1  0.082306  0.233072  0.784004  1
  O  O76  1  0.891401  0.906954  0.231689  1
  O  O77  1  0.108599  0.406954  0.768311  1
