# generated using pymatgen
data_Ta3Ge
_symmetry_space_group_name_H-M   'P 1'
_cell_length_a   5.19770902
_cell_length_b   7.80412902
_cell_length_c   7.80412902
_cell_angle_alpha   83.63304359
_cell_angle_beta   70.54841588
_cell_angle_gamma   70.54841584
_symmetry_Int_Tables_number   1
_chemical_formula_structural   Ta3Ge
_chemical_formula_sum   'Ta12 Ge4'
_cell_volume   281.45794478
_cell_formula_units_Z   4
loop_
 _symmetry_equiv_pos_site_id
 _symmetry_equiv_pos_as_xyz
  1  'x, y, z'
loop_
 _atom_site_type_symbol
 _atom_site_label
 _atom_site_symmetry_multiplicity
 _atom_site_fract_x
 _atom_site_fract_y
 _atom_site_fract_z
 _atom_site_occupancy
  Ge  Ge0  1  0.192291  0.265181  0.316502  1
  Ge  Ge1  1  0.491207  0.316502  0.734819  1
  Ge  Ge2  1  0.542528  0.683498  0.265181  1
  Ge  Ge3  1  0.773974  0.734819  0.683498  1
  Ta  Ta4  1  0.339706  0.658705  0.632333  1
  Ta  Ta5  1  0.027961  0.632333  0.341295  1
  Ta  Ta6  1  0.001589  0.367667  0.658705  1
  Ta  Ta7  1  0.630743  0.341295  0.367667  1
  Ta  Ta8  1  0.951492  0.023593  0.594959  1
  Ta  Ta9  1  0.453549  0.594959  0.976407  1
  Ta  Ta10  1  0.024915  0.405041  0.023593  1
  Ta  Ta11  1  0.570044  0.976407  0.405041  1
  Ta  Ta12  1  0.144272  0.984509  0.182424  1
  Ta  Ta13  1  0.673303  0.182424  0.015491  1
  Ta  Ta14  1  0.871219  0.817576  0.984509  1
  Ta  Ta15  1  0.311206  0.015491  0.817576  1
