# generated using pymatgen
data_Li3Fe2(PO4)3
_symmetry_space_group_name_H-M   'P 1'
_cell_length_a   9.01465254
_cell_length_b   9.01465254
_cell_length_c   9.01465254
_cell_angle_alpha   55.80376464
_cell_angle_beta   55.80376473
_cell_angle_gamma   55.80376464
_symmetry_Int_Tables_number   1
_chemical_formula_structural   Li3Fe2(PO4)3
_chemical_formula_sum   'Li6 Fe4 P6 O24'
_cell_volume   467.60106417
_cell_formula_units_Z   2
loop_
 _symmetry_equiv_pos_site_id
 _symmetry_equiv_pos_as_xyz
  1  'x, y, z'
loop_
 _atom_site_type_symbol
 _atom_site_label
 _atom_site_symmetry_multiplicity
 _atom_site_fract_x
 _atom_site_fract_y
 _atom_site_fract_z
 _atom_site_occupancy
  Li  Li0  1  0.264684  0.922651  0.667082  1
  Li  Li1  1  0.735316  0.077349  0.332918  1
  Li  Li2  1  0.667082  0.264684  0.922651  1
  Li  Li3  1  0.922651  0.667082  0.264684  1
  Li  Li4  1  0.077349  0.332918  0.735316  1
  Li  Li5  1  0.332918  0.735316  0.077349  1
  O  O6  1  0.154889  0.210256  0.539775  1
  O  O7  1  0.875925  0.253577  0.136730  1
  O  O8  1  0.863270  0.124075  0.746423  1
  O  O9  1  0.995626  0.198036  0.387191  1
  O  O10  1  0.004374  0.801964  0.612809  1
  O  O11  1  0.136730  0.875925  0.253577  1
  O  O12  1  0.124075  0.746423  0.863270  1
  O  O13  1  0.387191  0.995626  0.198036  1
  O  O14  1  0.460225  0.845111  0.789744  1
  O  O15  1  0.167349  0.533526  0.491809  1
  O  O16  1  0.210256  0.539775  0.154889  1
  O  O17  1  0.539775  0.154889  0.210256  1
  O  O18  1  0.198036  0.387191  0.995626  1
  O  O19  1  0.746423  0.863270  0.124075  1
  O  O20  1  0.508191  0.832651  0.466474  1
  O  O21  1  0.466474  0.508191  0.832651  1
  O  O22  1  0.533526  0.491809  0.167349  1
  O  O23  1  0.845111  0.789744  0.460225  1
  O  O24  1  0.253577  0.136730  0.875925  1
  O  O25  1  0.801964  0.612809  0.004374  1
  O  O26  1  0.491809  0.167349  0.533526  1
  O  O27  1  0.789744  0.460225  0.845111  1
  O  O28  1  0.832651  0.466474  0.508191  1
  O  O29  1  0.612809  0.004374  0.801964  1
  P  P30  1  0.541117  0.958562  0.250275  1
  P  P31  1  0.250275  0.541117  0.958562  1
  P  P32  1  0.749725  0.458883  0.041438  1
  P  P33  1  0.458883  0.041438  0.749725  1
  P  P34  1  0.041438  0.749725  0.458883  1
  P  P35  1  0.958562  0.250275  0.541117  1
  Fe  Fe36  1  0.651216  0.651216  0.651216  1
  Fe  Fe37  1  0.853264  0.853264  0.853264  1
  Fe  Fe38  1  0.348784  0.348784  0.348784  1
  Fe  Fe39  1  0.146736  0.146736  0.146736  1
