# generated using pymatgen
data_Rb2Ti(Si2O5)3
_symmetry_space_group_name_H-M   'P 1'
_cell_length_a   7.49267030
_cell_length_b   7.47886816
_cell_length_c   15.37896457
_cell_angle_alpha   103.19407885
_cell_angle_beta   90.00000000
_cell_angle_gamma   120.06106695
_symmetry_Int_Tables_number   1
_chemical_formula_structural   Rb2Ti(Si2O5)3
_chemical_formula_sum   'Rb4 Ti2 Si12 O30'
_cell_volume   719.46422247
_cell_formula_units_Z   2
loop_
 _symmetry_equiv_pos_site_id
 _symmetry_equiv_pos_as_xyz
  1  'x, y, z'
loop_
 _atom_site_type_symbol
 _atom_site_label
 _atom_site_symmetry_multiplicity
 _atom_site_fract_x
 _atom_site_fract_y
 _atom_site_fract_z
 _atom_site_occupancy
  O  O0  1  0.956862  0.390759  0.975711  1
  O  O1  1  0.433897  0.390759  0.475711  1
  O  O2  1  0.703810  0.191674  0.814526  1
  O  O3  1  0.487865  0.191674  0.314526  1
  O  O4  1  0.030686  0.120440  0.843594  1
  O  O5  1  0.089754  0.120440  0.343594  1
  O  O6  1  0.543821  0.055552  0.962849  1
  O  O7  1  0.511732  0.055552  0.462849  1
  O  O8  1  0.765466  0.962249  0.533845  1
  O  O9  1  0.196783  0.962249  0.033845  1
  O  O10  1  0.616356  0.789976  0.828969  1
  O  O11  1  0.173620  0.789976  0.328969  1
  O  O12  1  0.886775  0.732067  0.727116  1
  O  O13  1  0.845292  0.732067  0.227116  1
  O  O14  1  0.360382  0.712453  0.529268  1
  O  O15  1  0.352071  0.712453  0.029268  1
  O  O16  1  0.506732  0.603667  0.651947  1
  O  O17  1  0.096934  0.603667  0.151947  1
  O  O18  1  0.865815  0.989674  0.997987  1
  O  O19  1  0.123859  0.989674  0.497987  1
  O  O20  1  0.709191  0.998566  0.260121  1
  O  O21  1  0.289375  0.998566  0.760121  1
  O  O22  1  0.545830  0.109460  0.141227  1
  O  O23  1  0.563630  0.109460  0.641227  1
  O  O24  1  0.034930  0.091532  0.169735  1
  O  O25  1  0.056602  0.091532  0.669735  1
  O  O26  1  0.115705  0.350746  0.569359  1
  O  O27  1  0.235041  0.350746  0.069359  1
  O  O28  1  0.856825  0.405261  0.266815  1
  O  O29  1  0.548436  0.405261  0.766815  1
  Si  Si30  1  0.547515  0.964190  0.541632  1
  Si  Si31  1  0.416675  0.964190  0.041632  1
  Si  Si32  1  0.640201  0.636033  0.743840  1
  Si  Si33  1  0.995831  0.636033  0.243840  1
  Si  Si34  1  0.360190  0.509924  0.554998  1
  Si  Si35  1  0.149734  0.509924  0.054998  1
  Si  Si36  1  0.528669  0.169572  0.745868  1
  Si  Si37  1  0.640903  0.169572  0.245868  1
  Si  Si38  1  0.077040  0.093543  0.065428  1
  Si  Si39  1  0.016504  0.093543  0.565428  1
  Si  Si40  1  0.066417  0.992510  0.752872  1
  Si  Si41  1  0.926092  0.992510  0.252872  1
  Ti  Ti42  1  0.781960  0.084330  0.903549  1
  Ti  Ti43  1  0.302370  0.084330  0.403549  1
  Rb  Rb44  1  0.413541  0.555522  0.310887  1
  Rb  Rb45  1  0.141981  0.555522  0.810887  1
  Rb  Rb46  1  0.634434  0.516300  0.978955  1
  Rb  Rb47  1  0.881866  0.516300  0.478955  1
