# generated using pymatgen
data_NpCuSe2
_symmetry_space_group_name_H-M   'P 1'
_cell_length_a   6.60133522
_cell_length_b   7.09411902
_cell_length_c   7.35572918
_cell_angle_alpha   90.00000000
_cell_angle_beta   90.00000000
_cell_angle_gamma   97.17491266
_symmetry_Int_Tables_number   1
_chemical_formula_structural   NpCuSe2
_chemical_formula_sum   'Np4 Cu4 Se8'
_cell_volume   341.77622945
_cell_formula_units_Z   4
loop_
 _symmetry_equiv_pos_site_id
 _symmetry_equiv_pos_as_xyz
  1  'x, y, z'
loop_
 _atom_site_type_symbol
 _atom_site_label
 _atom_site_symmetry_multiplicity
 _atom_site_fract_x
 _atom_site_fract_y
 _atom_site_fract_z
 _atom_site_occupancy
  Cu  Cu0  1  0.935955  0.961570  0.337505  1
  Cu  Cu1  1  0.064045  0.538430  0.837505  1
  Cu  Cu2  1  0.064045  0.038430  0.662495  1
  Cu  Cu3  1  0.935955  0.461570  0.162495  1
  Se  Se4  1  0.416727  0.498211  0.770667  1
  Se  Se5  1  0.897974  0.711884  0.609471  1
  Se  Se6  1  0.583273  0.001789  0.270667  1
  Se  Se7  1  0.583273  0.501789  0.229333  1
  Se  Se8  1  0.102026  0.288116  0.390529  1
  Se  Se9  1  0.102026  0.788116  0.109471  1
  Se  Se10  1  0.897974  0.211884  0.890529  1
  Se  Se11  1  0.416727  0.998211  0.729333  1
  Np  Np12  1  0.692625  0.796399  0.951106  1
  Np  Np13  1  0.692625  0.296399  0.548894  1
  Np  Np14  1  0.307375  0.203601  0.048894  1
  Np  Np15  1  0.307375  0.703601  0.451106  1
