# generated using pymatgen
data_NaZnPO4
_symmetry_space_group_name_H-M   'P 1'
_cell_length_a   8.26870593
_cell_length_b   8.80176474
_cell_length_c   15.50092077
_cell_angle_alpha   90.25692861
_cell_angle_beta   90.00000000
_cell_angle_gamma   90.00000000
_symmetry_Int_Tables_number   1
_chemical_formula_structural   NaZnPO4
_chemical_formula_sum   'Na12 Zn12 P12 O48'
_cell_volume   1128.13333631
_cell_formula_units_Z   12
loop_
 _symmetry_equiv_pos_site_id
 _symmetry_equiv_pos_as_xyz
  1  'x, y, z'
loop_
 _atom_site_type_symbol
 _atom_site_label
 _atom_site_symmetry_multiplicity
 _atom_site_fract_x
 _atom_site_fract_y
 _atom_site_fract_z
 _atom_site_occupancy
  O  O0  1  0.152557  0.925883  0.833177  1
  O  O1  1  0.652557  0.574117  0.666823  1
  O  O2  1  0.847443  0.074117  0.166823  1
  O  O3  1  0.347443  0.425883  0.333177  1
  O  O4  1  0.262136  0.777191  0.702615  1
  O  O5  1  0.762136  0.722809  0.797385  1
  O  O6  1  0.737864  0.222809  0.297385  1
  O  O7  1  0.237864  0.277191  0.202615  1
  O  O8  1  0.270356  0.065879  0.703866  1
  O  O9  1  0.770356  0.434121  0.796134  1
  O  O10  1  0.729644  0.934121  0.296134  1
  O  O11  1  0.229644  0.565879  0.203866  1
  O  O12  1  0.004579  0.929241  0.689082  1
  O  O13  1  0.504579  0.570759  0.810918  1
  O  O14  1  0.995421  0.070759  0.310918  1
  O  O15  1  0.495421  0.429241  0.189082  1
  O  O16  1  0.268578  0.276221  0.867758  1
  O  O17  1  0.768578  0.223779  0.632242  1
  O  O18  1  0.731422  0.723779  0.132242  1
  O  O19  1  0.231422  0.776221  0.367758  1
  O  O20  1  0.269015  0.420513  0.677231  1
  O  O21  1  0.273279  0.434733  0.004958  1
  O  O22  1  0.726721  0.565267  0.995042  1
  O  O23  1  0.226721  0.934733  0.504958  1
  O  O24  1  0.148041  0.543407  0.866880  1
  O  O25  1  0.648041  0.956593  0.633120  1
  O  O26  1  0.851959  0.456593  0.133120  1
  O  O27  1  0.351959  0.043407  0.366880  1
  O  O28  1  0.009331  0.328999  0.948306  1
  O  O29  1  0.509331  0.171001  0.551694  1
  O  O30  1  0.990669  0.671001  0.051694  1
  O  O31  1  0.490669  0.828999  0.448306  1
  O  O32  1  0.152143  0.284554  0.546620  1
  O  O33  1  0.652143  0.215446  0.953380  1
  O  O34  1  0.847857  0.715446  0.453380  1
  O  O35  1  0.347857  0.784554  0.046620  1
  O  O36  1  0.505296  0.988389  0.887770  1
  O  O37  1  0.005296  0.511611  0.612230  1
  O  O38  1  0.494704  0.011611  0.112230  1
  O  O39  1  0.994704  0.488389  0.387770  1
  O  O40  1  0.232881  0.054265  0.031911  1
  O  O41  1  0.732881  0.445735  0.468089  1
  O  O42  1  0.767119  0.945735  0.968089  1
  O  O43  1  0.267119  0.554265  0.531911  1
  O  O44  1  0.230985  0.920513  0.177231  1
  O  O45  1  0.730985  0.579487  0.322769  1
  O  O46  1  0.769015  0.079487  0.822769  1
  O  O47  1  0.773279  0.065267  0.495042  1
  Na  Na48  1  0.031090  0.771999  0.565112  1
  Na  Na49  1  0.531090  0.728001  0.934888  1
  Na  Na50  1  0.968910  0.228001  0.434888  1
  Na  Na51  1  0.468910  0.271999  0.065112  1
  Na  Na52  1  0.968395  0.763670  0.908062  1
  Na  Na53  1  0.468395  0.736330  0.591938  1
  Na  Na54  1  0.031605  0.236330  0.091938  1
  Na  Na55  1  0.531605  0.263670  0.408062  1
  Na  Na56  1  0.957285  0.241380  0.747525  1
  Na  Na57  1  0.457285  0.258620  0.752475  1
  Na  Na58  1  0.042715  0.758620  0.252475  1
  Na  Na59  1  0.542715  0.741380  0.247525  1
  P  P60  1  0.673284  0.576319  0.766569  1
  P  P61  1  0.173284  0.923681  0.733431  1
  P  P62  1  0.326716  0.423681  0.233431  1
  P  P63  1  0.826716  0.076319  0.266569  1
  P  P64  1  0.174897  0.397528  0.921467  1
  P  P65  1  0.674897  0.102472  0.578533  1
  P  P66  1  0.825103  0.602472  0.078533  1
  P  P67  1  0.325103  0.897528  0.421467  1
  P  P68  1  0.673588  0.058341  0.908326  1
  P  P69  1  0.173588  0.441659  0.591674  1
  P  P70  1  0.326412  0.941659  0.091674  1
  P  P71  1  0.826412  0.558341  0.408326  1
  Zn  Zn72  1  0.280699  0.585315  0.765056  1
  Zn  Zn73  1  0.780699  0.914685  0.734944  1
  Zn  Zn74  1  0.719301  0.414685  0.234944  1
  Zn  Zn75  1  0.219301  0.085315  0.265056  1
  Zn  Zn76  1  0.786574  0.390950  0.921211  1
  Zn  Zn77  1  0.286574  0.109050  0.578789  1
  Zn  Zn78  1  0.213426  0.609050  0.078789  1
  Zn  Zn79  1  0.713426  0.890950  0.421211  1
  Zn  Zn80  1  0.281955  0.061905  0.907391  1
  Zn  Zn81  1  0.781955  0.438095  0.592609  1
  Zn  Zn82  1  0.718045  0.938095  0.092609  1
  Zn  Zn83  1  0.218045  0.561905  0.407391  1
