# generated using pymatgen
data_TbGe2
_symmetry_space_group_name_H-M   'P 1'
_cell_length_a   3.99648651
_cell_length_b   4.14300335
_cell_length_c   15.85489710
_cell_angle_alpha   97.50737135
_cell_angle_beta   90.00000000
_cell_angle_gamma   90.00000000
_symmetry_Int_Tables_number   1
_chemical_formula_structural   TbGe2
_chemical_formula_sum   'Tb4 Ge8'
_cell_volume   260.26649895
_cell_formula_units_Z   4
loop_
 _symmetry_equiv_pos_site_id
 _symmetry_equiv_pos_as_xyz
  1  'x, y, z'
loop_
 _atom_site_type_symbol
 _atom_site_label
 _atom_site_symmetry_multiplicity
 _atom_site_fract_x
 _atom_site_fract_y
 _atom_site_fract_z
 _atom_site_occupancy
  Ge  Ge0  1  0.500000  0.904800  0.809600  1
  Ge  Ge1  1  0.500000  0.095200  0.190400  1
  Ge  Ge2  1  0.000000  0.772482  0.544964  1
  Ge  Ge3  1  0.000000  0.227518  0.455036  1
  Ge  Ge4  1  0.000000  0.000000  0.000000  1
  Ge  Ge5  1  0.500000  0.500000  0.000000  1
  Ge  Ge6  1  0.000000  0.147127  0.294254  1
  Ge  Ge7  1  0.000000  0.852873  0.705746  1
  Tb  Tb8  1  0.500000  0.687170  0.374340  1
  Tb  Tb9  1  0.500000  0.312830  0.625660  1
  Tb  Tb10  1  0.000000  0.570695  0.141390  1
  Tb  Tb11  1  0.000000  0.429305  0.858610  1
