# generated using pymatgen
data_TaTl3Se4
_symmetry_space_group_name_H-M   'P 1'
_cell_length_a   6.98847856
_cell_length_b   6.98847856
_cell_length_c   6.98847856
_cell_angle_alpha   109.47122062
_cell_angle_beta   109.47122062
_cell_angle_gamma   109.47122061
_symmetry_Int_Tables_number   1
_chemical_formula_structural   TaTl3Se4
_chemical_formula_sum   'Ta1 Tl3 Se4'
_cell_volume   262.73989403
_cell_formula_units_Z   1
loop_
 _symmetry_equiv_pos_site_id
 _symmetry_equiv_pos_as_xyz
  1  'x, y, z'
loop_
 _atom_site_type_symbol
 _atom_site_label
 _atom_site_symmetry_multiplicity
 _atom_site_fract_x
 _atom_site_fract_y
 _atom_site_fract_z
 _atom_site_occupancy
  Se  Se0  1  0.000000  0.000000  0.653730  1
  Se  Se1  1  0.000000  0.653730  0.000000  1
  Se  Se2  1  0.653730  0.000000  0.000000  1
  Se  Se3  1  0.346270  0.346270  0.346270  1
  Ta  Ta4  1  0.000000  0.000000  0.000000  1
  Tl  Tl5  1  0.000000  0.500000  0.500000  1
  Tl  Tl6  1  0.500000  0.000000  0.500000  1
  Tl  Tl7  1  0.500000  0.500000  0.000000  1
