# generated using pymatgen
data_K2CrO4
_symmetry_space_group_name_H-M   'P 1'
_cell_length_a   6.03603526
_cell_length_b   7.76159470
_cell_length_c   10.57952981
_cell_angle_alpha   90.00000000
_cell_angle_beta   90.00000000
_cell_angle_gamma   90.00000000
_symmetry_Int_Tables_number   1
_chemical_formula_structural   K2CrO4
_chemical_formula_sum   'K8 Cr4 O16'
_cell_volume   495.64313516
_cell_formula_units_Z   4
loop_
 _symmetry_equiv_pos_site_id
 _symmetry_equiv_pos_as_xyz
  1  'x, y, z'
loop_
 _atom_site_type_symbol
 _atom_site_label
 _atom_site_symmetry_multiplicity
 _atom_site_fract_x
 _atom_site_fract_y
 _atom_site_fract_z
 _atom_site_occupancy
  O  O0  1  0.975817  0.795164  0.655918  1
  O  O1  1  0.475817  0.204836  0.344081  1
  O  O2  1  0.524183  0.295164  0.844081  1
  O  O3  1  0.024183  0.704836  0.155919  1
  O  O4  1  0.024183  0.204836  0.344081  1
  O  O5  1  0.524183  0.795164  0.655918  1
  O  O6  1  0.475817  0.704836  0.155919  1
  O  O7  1  0.975817  0.295164  0.844081  1
  O  O8  1  0.250001  0.191955  0.565985  1
  O  O9  1  0.750001  0.808045  0.434016  1
  O  O10  1  0.250001  0.691955  0.934016  1
  O  O11  1  0.750001  0.308045  0.065984  1
  O  O12  1  0.750001  0.012473  0.925627  1
  O  O13  1  0.250001  0.987527  0.074374  1
  O  O14  1  0.250001  0.487527  0.425626  1
  O  O15  1  0.750001  0.512472  0.574374  1
  K  K16  1  0.750001  0.666165  0.921445  1
  K  K17  1  0.250001  0.333834  0.078554  1
  K  K18  1  0.750001  0.166166  0.578554  1
  K  K19  1  0.250001  0.833835  0.421445  1
  K  K20  1  0.250001  0.005194  0.800153  1
  K  K21  1  0.750001  0.994807  0.199847  1
  K  K22  1  0.750001  0.494806  0.300153  1
  K  K23  1  0.250001  0.505194  0.699847  1
  Cr  Cr24  1  0.750001  0.226080  0.919591  1
  Cr  Cr25  1  0.250001  0.773921  0.080409  1
  Cr  Cr26  1  0.750001  0.726080  0.580408  1
  Cr  Cr27  1  0.250001  0.273920  0.419591  1
