# generated using pymatgen
data_H6PbCNCl3
_symmetry_space_group_name_H-M   'P 1'
_cell_length_a   5.75283242
_cell_length_b   5.76467148
_cell_length_c   5.85520179
_cell_angle_alpha   90.00037617
_cell_angle_beta   90.02547727
_cell_angle_gamma   90.00058886
_symmetry_Int_Tables_number   1
_chemical_formula_structural   H6PbCNCl3
_chemical_formula_sum   'H6 Pb1 C1 N1 Cl3'
_cell_volume   194.17714420
_cell_formula_units_Z   1
loop_
 _symmetry_equiv_pos_site_id
 _symmetry_equiv_pos_as_xyz
  1  'x, y, z'
loop_
 _atom_site_type_symbol
 _atom_site_label
 _atom_site_symmetry_multiplicity
 _atom_site_fract_x
 _atom_site_fract_y
 _atom_site_fract_z
 _atom_site_occupancy
  H  H0  1  0.879476  0.999834  0.790423  1
  H  H1  1  0.813252  0.155908  0.047387  1
  H  H2  1  0.813038  0.844274  0.047634  1
  H  H3  1  0.229661  0.145664  0.978538  1
  H  H4  1  0.229499  0.853883  0.978690  1
  H  H5  1  0.170957  0.999935  0.216412  1
  Pb  Pb6  1  0.473988  0.499980  0.483874  1
  C  C7  1  0.894268  0.999979  0.976848  1
  N  N8  1  0.144932  0.999857  0.040731  1
  Cl  Cl9  1  0.427891  0.499899  0.975558  1
  Cl  Cl10  1  0.429192  0.999989  0.520036  1
  Cl  Cl11  1  0.971826  0.500099  0.439660  1
