# generated using pymatgen
data_Te4Mo3W(SeS)2
_symmetry_space_group_name_H-M   'P 1'
_cell_length_a   3.40019144
_cell_length_b   3.40020873
_cell_length_c   38.76650791
_cell_angle_alpha   90.00085828
_cell_angle_beta   90.00000000
_cell_angle_gamma   119.99983179
_symmetry_Int_Tables_number   1
_chemical_formula_structural   Te4Mo3W(SeS)2
_chemical_formula_sum   'Te4 Mo3 W1 Se2 S2'
_cell_volume   388.14768217
_cell_formula_units_Z   1
loop_
 _symmetry_equiv_pos_site_id
 _symmetry_equiv_pos_as_xyz
  1  'x, y, z'
loop_
 _atom_site_type_symbol
 _atom_site_label
 _atom_site_symmetry_multiplicity
 _atom_site_fract_x
 _atom_site_fract_y
 _atom_site_fract_z
 _atom_site_occupancy
  Te  Te0  1  0.333352  0.666705  0.705853  1
  Te  Te1  1  0.666647  0.333294  0.421009  1
  Te  Te2  1  0.666649  0.333297  0.518172  1
  Te  Te3  1  0.333354  0.666709  0.609309  1
  Mo  Mo4  1  0.333309  0.666618  0.093954  1
  Mo  Mo5  1  0.666685  0.333370  0.281801  1
  Mo  Mo6  1  0.666687  0.333373  0.657615  1
  W  W7  1  0.333312  0.666624  0.469607  1
  Se  Se8  1  0.333357  0.666716  0.324310  1
  Se  Se9  1  0.333356  0.666712  0.239243  1
  S  S10  1  0.666645  0.333290  0.055136  1
  S  S11  1  0.666647  0.333292  0.132740  1
