# generated using pymatgen
data_Sr2NiOsO6
_symmetry_space_group_name_H-M   'P 1'
_cell_length_a   5.31316804
_cell_length_b   5.31316805
_cell_length_c   5.84973240
_cell_angle_alpha   117.00946604
_cell_angle_beta   117.00946604
_cell_angle_gamma   90.00000008
_symmetry_Int_Tables_number   1
_chemical_formula_structural   Sr2NiOsO6
_chemical_formula_sum   'Sr2 Ni1 Os1 O6'
_cell_volume   126.57666646
_cell_formula_units_Z   1
loop_
 _symmetry_equiv_pos_site_id
 _symmetry_equiv_pos_as_xyz
  1  'x, y, z'
loop_
 _atom_site_type_symbol
 _atom_site_label
 _atom_site_symmetry_multiplicity
 _atom_site_fract_x
 _atom_site_fract_y
 _atom_site_fract_z
 _atom_site_occupancy
  O  O0  1  0.807677  0.693446  0.000000  1
  O  O1  1  0.306554  0.807677  0.000000  1
  O  O2  1  0.693446  0.192323  1.000000  1
  O  O3  1  0.192323  0.306554  1.000000  1
  O  O4  1  0.280783  0.280783  0.561565  1
  O  O5  1  0.719217  0.719217  0.438435  1
  Ni  Ni6  1  0.000000  0.000000  0.000000  1
  Sr  Sr7  1  0.250000  0.750000  0.500000  1
  Sr  Sr8  1  0.750000  0.250000  0.500000  1
  Os  Os9  1  0.500000  0.500000  0.000000  1
