# generated using pymatgen
data_Na2BeB2O5
_symmetry_space_group_name_H-M   'P 1'
_cell_length_a   5.04032059
_cell_length_b   5.04032058
_cell_length_c   9.12378249
_cell_angle_alpha   94.76656051
_cell_angle_beta   94.76656049
_cell_angle_gamma   108.21509685
_symmetry_Int_Tables_number   1
_chemical_formula_structural   Na2BeB2O5
_chemical_formula_sum   'Na4 Be2 B4 O10'
_cell_volume   217.95035881
_cell_formula_units_Z   2
loop_
 _symmetry_equiv_pos_site_id
 _symmetry_equiv_pos_as_xyz
  1  'x, y, z'
loop_
 _atom_site_type_symbol
 _atom_site_label
 _atom_site_symmetry_multiplicity
 _atom_site_fract_x
 _atom_site_fract_y
 _atom_site_fract_z
 _atom_site_occupancy
  Be  Be0  1  0.710742  0.289258  0.250000  1
  Be  Be1  1  0.289258  0.710742  0.750000  1
  B  B2  1  0.160397  0.172155  0.178262  1
  B  B3  1  0.827845  0.839603  0.321738  1
  B  B4  1  0.172155  0.160397  0.678262  1
  B  B5  1  0.839603  0.827845  0.821738  1
  O  O6  1  0.323070  0.981363  0.656173  1
  O  O7  1  0.981363  0.323070  0.156173  1
  O  O8  1  0.245041  0.424391  0.633018  1
  O  O9  1  0.575609  0.754959  0.866982  1
  O  O10  1  0.754959  0.575609  0.366982  1
  O  O11  1  0.424391  0.245041  0.133018  1
  O  O12  1  0.924338  0.075662  0.750000  1
  O  O13  1  0.075662  0.924338  0.250000  1
  O  O14  1  0.676930  0.018637  0.343827  1
  O  O15  1  0.018637  0.676930  0.843827  1
  Na  Na16  1  0.315515  0.705423  0.071543  1
  Na  Na17  1  0.294577  0.684485  0.428457  1
  Na  Na18  1  0.684485  0.294577  0.928457  1
  Na  Na19  1  0.705423  0.315515  0.571543  1
