# generated using pymatgen
data_K2Pd(CN)4
_symmetry_space_group_name_H-M   'P 1'
_cell_length_a   4.44266038
_cell_length_b   7.85192522
_cell_length_c   13.74154388
_cell_angle_alpha   90.00000000
_cell_angle_beta   91.07888746
_cell_angle_gamma   90.00000000
_symmetry_Int_Tables_number   1
_chemical_formula_structural   K2Pd(CN)4
_chemical_formula_sum   'K4 Pd2 C8 N8'
_cell_volume   479.26730031
_cell_formula_units_Z   2
loop_
 _symmetry_equiv_pos_site_id
 _symmetry_equiv_pos_as_xyz
  1  'x, y, z'
loop_
 _atom_site_type_symbol
 _atom_site_label
 _atom_site_symmetry_multiplicity
 _atom_site_fract_x
 _atom_site_fract_y
 _atom_site_fract_z
 _atom_site_occupancy
  C  C0  1  0.841951  0.877118  0.115294  1
  C  C1  1  0.158049  0.377118  0.384705  1
  C  C2  1  0.149512  0.721476  0.448570  1
  C  C3  1  0.850488  0.221476  0.051430  1
  C  C4  1  0.841951  0.622882  0.615294  1
  C  C5  1  0.158049  0.122882  0.884706  1
  C  C6  1  0.149512  0.778524  0.948570  1
  C  C7  1  0.850488  0.278524  0.551430  1
  N  N8  1  0.753643  0.800533  0.182546  1
  N  N9  1  0.246357  0.300533  0.317454  1
  N  N10  1  0.234767  0.645911  0.920696  1
  N  N11  1  0.765233  0.145911  0.579304  1
  N  N12  1  0.765233  0.354089  0.079304  1
  N  N13  1  0.234767  0.854089  0.420696  1
  N  N14  1  0.753643  0.699467  0.682546  1
  N  N15  1  0.246357  0.199467  0.817454  1
  K  K16  1  0.715455  0.044223  0.343829  1
  K  K17  1  0.284545  0.544223  0.156171  1
  K  K18  1  0.715455  0.455777  0.843829  1
  K  K19  1  0.284545  0.955777  0.656171  1
  Pd  Pd20  1  0.000000  0.000000  0.000000  1
  Pd  Pd21  1  0.000000  0.500000  0.500000  1
