# generated using pymatgen
data_CsYbP2O7
_symmetry_space_group_name_H-M   'P 1'
_cell_length_a   7.97043087
_cell_length_b   9.05657362
_cell_length_c   11.15399125
_cell_angle_alpha   90.00000000
_cell_angle_beta   90.00000000
_cell_angle_gamma   104.22428010
_symmetry_Int_Tables_number   1
_chemical_formula_structural   CsYbP2O7
_chemical_formula_sum   'Cs4 Yb4 P8 O28'
_cell_volume   780.46376006
_cell_formula_units_Z   4
loop_
 _symmetry_equiv_pos_site_id
 _symmetry_equiv_pos_as_xyz
  1  'x, y, z'
loop_
 _atom_site_type_symbol
 _atom_site_label
 _atom_site_symmetry_multiplicity
 _atom_site_fract_x
 _atom_site_fract_y
 _atom_site_fract_z
 _atom_site_occupancy
  O  O0  1  0.330178  0.290498  0.071919  1
  O  O1  1  0.669822  0.209502  0.571919  1
  O  O2  1  0.669822  0.709502  0.928081  1
  O  O3  1  0.330178  0.790498  0.428081  1
  O  O4  1  0.983662  0.769936  0.993227  1
  O  O5  1  0.016338  0.730064  0.493227  1
  O  O6  1  0.016338  0.230064  0.006773  1
  O  O7  1  0.983662  0.269936  0.506773  1
  O  O8  1  0.434675  0.705068  0.228245  1
  O  O9  1  0.565325  0.794932  0.728245  1
  O  O10  1  0.565325  0.294932  0.771755  1
  O  O11  1  0.434675  0.205068  0.271755  1
  O  O12  1  0.162477  0.492475  0.081918  1
  O  O13  1  0.837523  0.007525  0.581918  1
  O  O14  1  0.837523  0.507525  0.918082  1
  O  O15  1  0.162477  0.992475  0.418082  1
  O  O16  1  0.088611  0.270597  0.227904  1
  O  O17  1  0.911389  0.229403  0.727904  1
  O  O18  1  0.911389  0.729403  0.772096  1
  O  O19  1  0.088611  0.770597  0.272096  1
  O  O20  1  0.324456  0.511503  0.393063  1
  O  O21  1  0.675544  0.988497  0.893063  1
  O  O22  1  0.675544  0.488497  0.606937  1
  O  O23  1  0.324456  0.011503  0.106937  1
  O  O24  1  0.391525  0.289358  0.582062  1
  O  O25  1  0.608475  0.210642  0.082062  1
  O  O26  1  0.608475  0.710642  0.417938  1
  O  O27  1  0.391525  0.789358  0.917938  1
  P  P28  1  0.427672  0.172855  0.136994  1
  P  P29  1  0.572328  0.327145  0.636994  1
  P  P30  1  0.572328  0.827145  0.863006  1
  P  P31  1  0.427672  0.672855  0.363006  1
  P  P32  1  0.140906  0.822154  0.400574  1
  P  P33  1  0.859094  0.677846  0.900574  1
  P  P34  1  0.859094  0.177846  0.599426  1
  P  P35  1  0.140906  0.322154  0.099426  1
  Cs  Cs36  1  0.196172  0.553835  0.684503  1
  Cs  Cs37  1  0.803828  0.946165  0.184503  1
  Cs  Cs38  1  0.803828  0.446165  0.315497  1
  Cs  Cs39  1  0.196172  0.053835  0.815497  1
  Yb  Yb40  1  0.233310  0.750938  0.093133  1
  Yb  Yb41  1  0.766690  0.749062  0.593133  1
  Yb  Yb42  1  0.766690  0.249062  0.906867  1
  Yb  Yb43  1  0.233310  0.250938  0.406867  1
