# generated using pymatgen
data_Te3MoWS
_symmetry_space_group_name_H-M   'P 1'
_cell_length_a   3.44871694
_cell_length_b   3.44874624
_cell_length_c   39.35916431
_cell_angle_alpha   89.99944811
_cell_angle_beta   90.00000000
_cell_angle_gamma   119.99971899
_symmetry_Int_Tables_number   1
_chemical_formula_structural   Te3MoWS
_chemical_formula_sum   'Te6 Mo2 W2 S2'
_cell_volume   405.41192595
_cell_formula_units_Z   2
loop_
 _symmetry_equiv_pos_site_id
 _symmetry_equiv_pos_as_xyz
  1  'x, y, z'
loop_
 _atom_site_type_symbol
 _atom_site_label
 _atom_site_symmetry_multiplicity
 _atom_site_fract_x
 _atom_site_fract_y
 _atom_site_fract_z
 _atom_site_occupancy
  Te  Te0  1  0.333361  0.666723  0.704856  1
  Te  Te1  1  0.666639  0.333278  0.046876  1
  Te  Te2  1  0.666650  0.333299  0.422567  1
  Te  Te3  1  0.666642  0.333282  0.140996  1
  Te  Te4  1  0.666651  0.333301  0.516667  1
  Te  Te5  1  0.333351  0.666704  0.610263  1
  Mo  Mo6  1  0.333310  0.666619  0.093912  1
  Mo  Mo7  1  0.333309  0.666618  0.469618  1
  W  W8  1  0.666691  0.333383  0.281789  1
  W  W9  1  0.666689  0.333378  0.657603  1
  S  S10  1  0.333354  0.666710  0.319730  1
  S  S11  1  0.333352  0.666705  0.243870  1
