# generated using pymatgen
data_TeMoWSe3
_symmetry_space_group_name_H-M   'P 1'
_cell_length_a   3.37910678
_cell_length_b   3.37911564
_cell_length_c   38.46450188
_cell_angle_alpha   90.00057404
_cell_angle_beta   90.00000889
_cell_angle_gamma   119.99989143
_symmetry_Int_Tables_number   1
_chemical_formula_structural   TeMoWSe3
_chemical_formula_sum   'Te2 Mo2 W2 Se6'
_cell_volume   380.36118338
_cell_formula_units_Z   2
loop_
 _symmetry_equiv_pos_site_id
 _symmetry_equiv_pos_as_xyz
  1  'x, y, z'
loop_
 _atom_site_type_symbol
 _atom_site_label
 _atom_site_symmetry_multiplicity
 _atom_site_fract_x
 _atom_site_fract_y
 _atom_site_fract_z
 _atom_site_occupancy
  Te  Te0  1  0.666645  0.333290  0.420814  1
  Te  Te1  1  0.666650  0.333299  0.518498  1
  Mo  Mo2  1  0.333309  0.666618  0.469650  1
  Mo  Mo3  1  0.666687  0.333374  0.281790  1
  W  W4  1  0.333309  0.666616  0.093927  1
  W  W5  1  0.666698  0.333396  0.657560  1
  Se  Se6  1  0.333352  0.666704  0.324784  1
  Se  Se7  1  0.333369  0.666738  0.700719  1
  Se  Se8  1  0.666644  0.333288  0.050753  1
  Se  Se9  1  0.666640  0.333279  0.137102  1
  Se  Se10  1  0.333348  0.666697  0.238778  1
  Se  Se11  1  0.333350  0.666701  0.614374  1
