# generated using pymatgen
data_CaAl2SiO6
_symmetry_space_group_name_H-M   'P 1'
_cell_length_a   9.78556876
_cell_length_b   8.75944640
_cell_length_c   5.32981406
_cell_angle_alpha   90.00000000
_cell_angle_beta   106.61889421
_cell_angle_gamma   90.00000000
_symmetry_Int_Tables_number   1
_chemical_formula_structural   CaAl2SiO6
_chemical_formula_sum   'Ca4 Al8 Si4 O24'
_cell_volume   437.76777531
_cell_formula_units_Z   4
loop_
 _symmetry_equiv_pos_site_id
 _symmetry_equiv_pos_as_xyz
  1  'x, y, z'
loop_
 _atom_site_type_symbol
 _atom_site_label
 _atom_site_symmetry_multiplicity
 _atom_site_fract_x
 _atom_site_fract_y
 _atom_site_fract_z
 _atom_site_occupancy
  Ca  Ca0  1  0.017733  0.312193  0.252246  1
  Ca  Ca1  1  0.482267  0.812193  0.247754  1
  Ca  Ca2  1  0.017733  0.687807  0.752246  1
  Ca  Ca3  1  0.482267  0.187807  0.747754  1
  Al  Al4  1  0.287798  0.097153  0.205567  1
  Al  Al5  1  0.212202  0.597153  0.294433  1
  Al  Al6  1  0.212202  0.402847  0.794433  1
  Al  Al7  1  0.287798  0.902847  0.705567  1
  Al  Al8  1  0.006581  0.908749  0.239908  1
  Al  Al9  1  0.493419  0.408749  0.260092  1
  Al  Al10  1  0.006581  0.091251  0.739908  1
  Al  Al11  1  0.493419  0.591251  0.760092  1
  Si  Si12  1  0.786357  0.596280  0.220944  1
  Si  Si13  1  0.713643  0.096280  0.279056  1
  Si  Si14  1  0.713643  0.903720  0.779056  1
  Si  Si15  1  0.786357  0.403720  0.720944  1
  O  O16  1  0.096335  0.080164  0.108150  1
  O  O17  1  0.367376  0.272324  0.323456  1
  O  O18  1  0.364047  0.023742  0.973453  1
  O  O19  1  0.611582  0.584425  0.133222  1
  O  O20  1  0.864707  0.759215  0.295168  1
  O  O21  1  0.845557  0.508473  0.995091  1
  O  O22  1  0.888418  0.084425  0.366778  1
  O  O23  1  0.635293  0.259215  0.204832  1
  O  O24  1  0.654443  0.008473  0.504909  1
  O  O25  1  0.403665  0.580164  0.391850  1
  O  O26  1  0.132624  0.772324  0.176544  1
  O  O27  1  0.135953  0.523742  0.526547  1
  O  O28  1  0.888418  0.915575  0.866778  1
  O  O29  1  0.635293  0.740785  0.704832  1
  O  O30  1  0.654443  0.991527  0.004909  1
  O  O31  1  0.403665  0.419836  0.891850  1
  O  O32  1  0.132624  0.227676  0.676544  1
  O  O33  1  0.135953  0.476258  0.026547  1
  O  O34  1  0.096335  0.919836  0.608150  1
  O  O35  1  0.367376  0.727676  0.823456  1
  O  O36  1  0.364047  0.976258  0.473453  1
  O  O37  1  0.611582  0.415575  0.633222  1
  O  O38  1  0.864707  0.240785  0.795168  1
  O  O39  1  0.845557  0.491527  0.495091  1
