# generated using pymatgen
data_SrNb6O16
_symmetry_space_group_name_H-M   'P 1'
_cell_length_a   3.93729763
_cell_length_b   9.21137301
_cell_length_c   9.21137301
_cell_angle_alpha   110.14385910
_cell_angle_beta   90.00000000
_cell_angle_gamma   90.00000000
_symmetry_Int_Tables_number   1
_chemical_formula_structural   SrNb6O16
_chemical_formula_sum   'Sr1 Nb6 O16'
_cell_volume   313.64210773
_cell_formula_units_Z   1
loop_
 _symmetry_equiv_pos_site_id
 _symmetry_equiv_pos_as_xyz
  1  'x, y, z'
loop_
 _atom_site_type_symbol
 _atom_site_label
 _atom_site_symmetry_multiplicity
 _atom_site_fract_x
 _atom_site_fract_y
 _atom_site_fract_z
 _atom_site_occupancy
  O  O0  1  0.000000  0.510906  0.489095  1
  O  O1  1  0.000000  0.856508  0.143492  1
  O  O2  1  0.000000  0.535802  0.167554  1
  O  O3  1  0.000000  0.832446  0.464197  1
  O  O4  1  0.000000  0.760349  0.854156  1
  O  O5  1  0.000000  0.145844  0.239651  1
  O  O6  1  0.000000  0.441016  0.812959  1
  O  O7  1  0.500000  0.001001  0.998998  1
  O  O8  1  0.500000  0.223627  0.776373  1
  O  O9  1  0.500000  0.709397  0.632246  1
  O  O10  1  0.500000  0.367753  0.290603  1
  O  O11  1  0.000000  0.187042  0.558984  1
  O  O12  1  0.500000  0.625657  0.000896  1
  O  O13  1  0.000000  0.985750  0.765669  1
  O  O14  1  0.000000  0.234332  0.014250  1
  O  O15  1  0.500000  0.999103  0.374342  1
  Sr  Sr16  1  0.500000  0.399294  0.600706  1
  Nb  Nb17  1  0.000000  0.743438  0.621335  1
  Nb  Nb18  1  0.000000  0.378665  0.256561  1
  Nb  Nb19  1  0.000000  1.000273  0.371352  1
  Nb  Nb20  1  0.000000  0.208741  0.791259  1
  Nb  Nb21  1  0.000000  0.994406  0.005593  1
  Nb  Nb22  1  0.000000  0.628649  -0.000273  1
