# generated using pymatgen
data_NaFeP2O7
_symmetry_space_group_name_H-M   'P 1'
_cell_length_a   7.42586273
_cell_length_b   8.01492375
_cell_length_c   9.70442984
_cell_angle_alpha   90.00000000
_cell_angle_beta   111.80568674
_cell_angle_gamma   90.00000000
_symmetry_Int_Tables_number   1
_chemical_formula_structural   NaFeP2O7
_chemical_formula_sum   'Na4 Fe4 P8 O28'
_cell_volume   536.25872586
_cell_formula_units_Z   4
loop_
 _symmetry_equiv_pos_site_id
 _symmetry_equiv_pos_as_xyz
  1  'x, y, z'
loop_
 _atom_site_type_symbol
 _atom_site_label
 _atom_site_symmetry_multiplicity
 _atom_site_fract_x
 _atom_site_fract_y
 _atom_site_fract_z
 _atom_site_occupancy
  O  O0  1  0.634514  0.106529  0.896572  1
  O  O1  1  0.365486  0.606529  0.603428  1
  O  O2  1  0.365487  0.893471  0.103429  1
  O  O3  1  0.634513  0.393471  0.396572  1
  O  O4  1  0.692776  0.297563  0.115998  1
  O  O5  1  0.307224  0.797563  0.384002  1
  O  O6  1  0.307223  0.702437  0.884002  1
  O  O7  1  0.692777  0.202437  0.615998  1
  O  O8  1  0.532518  0.413168  0.850002  1
  O  O9  1  0.467482  0.913168  0.649998  1
  O  O10  1  0.467482  0.586832  0.149998  1
  O  O11  1  0.532519  0.086832  0.350002  1
  O  O12  1  0.179804  0.364642  0.891690  1
  O  O13  1  0.820196  0.864642  0.608311  1
  O  O14  1  0.820195  0.635358  0.108310  1
  O  O15  1  0.179803  0.135358  0.391690  1
  O  O16  1  0.875426  0.154683  0.439018  1
  O  O17  1  0.124574  0.654683  0.060982  1
  O  O18  1  0.124575  0.845317  0.560982  1
  O  O19  1  0.875425  0.345317  0.939018  1
  O  O20  1  0.186973  0.284547  0.620076  1
  O  O21  1  0.813026  0.784547  0.879924  1
  O  O22  1  0.011674  0.084281  0.862874  1
  O  O23  1  0.186974  0.215453  0.120076  1
  O  O24  1  0.011673  0.415719  0.362874  1
  O  O25  1  0.988327  0.915719  0.137126  1
  O  O26  1  0.988327  0.584281  0.637126  1
  O  O27  1  0.813027  0.715453  0.379924  1
  Na  Na28  1  0.287522  0.477585  0.291147  1
  Na  Na29  1  0.712477  0.977584  0.208853  1
  Na  Na30  1  0.287522  0.022415  0.791147  1
  Na  Na31  1  0.712478  0.522415  0.708853  1
  P  P32  1  0.072410  0.245073  0.954953  1
  P  P33  1  0.672176  0.212438  0.453600  1
  P  P34  1  0.927590  0.754927  0.045047  1
  P  P35  1  0.072410  0.254927  0.454954  1
  P  P36  1  0.327825  0.712438  0.046400  1
  P  P37  1  0.327824  0.787562  0.546401  1
  P  P38  1  0.927591  0.745073  0.545047  1
  P  P39  1  0.672175  0.287562  0.953599  1
  Fe  Fe40  1  0.258835  0.008735  0.249872  1
  Fe  Fe41  1  0.741165  0.508735  0.250128  1
  Fe  Fe42  1  0.741164  0.991265  0.750128  1
  Fe  Fe43  1  0.258835  0.491265  0.749872  1
