# generated using pymatgen
data_ScTl(MoO4)2
_symmetry_space_group_name_H-M   'P 1'
_cell_length_a   5.90188281
_cell_length_b   5.90188280
_cell_length_c   7.65194414
_cell_angle_alpha   90.00000000
_cell_angle_beta   90.00000000
_cell_angle_gamma   119.99999998
_symmetry_Int_Tables_number   1
_chemical_formula_structural   ScTl(MoO4)2
_chemical_formula_sum   'Sc1 Tl1 Mo2 O8'
_cell_volume   230.82539416
_cell_formula_units_Z   1
loop_
 _symmetry_equiv_pos_site_id
 _symmetry_equiv_pos_as_xyz
  1  'x, y, z'
loop_
 _atom_site_type_symbol
 _atom_site_label
 _atom_site_symmetry_multiplicity
 _atom_site_fract_x
 _atom_site_fract_y
 _atom_site_fract_z
 _atom_site_occupancy
  O  O0  1  0.834908  0.165092  0.164619  1
  O  O1  1  0.834908  0.669816  0.164619  1
  O  O2  1  0.330184  0.165092  0.164619  1
  O  O3  1  0.669816  0.834908  0.835381  1
  O  O4  1  0.333333  0.666667  0.532378  1
  O  O5  1  0.666667  0.333333  0.467622  1
  O  O6  1  0.165092  0.834908  0.835381  1
  O  O7  1  0.165092  0.330184  0.835381  1
  Sc  Sc8  1  0.000000  0.000000  0.000000  1
  Mo  Mo9  1  0.666667  0.333333  0.238844  1
  Mo  Mo10  1  0.333333  0.666667  0.761156  1
  Tl  Tl11  1  0.000000  0.000000  0.500000  1
