# generated using pymatgen
data_ThGe2
_symmetry_space_group_name_H-M   'P 1'
_cell_length_a   4.03193916
_cell_length_b   4.17545186
_cell_length_c   8.70929264
_cell_angle_alpha   103.86956994
_cell_angle_beta   90.00000000
_cell_angle_gamma   90.00000000
_symmetry_Int_Tables_number   1
_chemical_formula_structural   ThGe2
_chemical_formula_sum   'Th2 Ge4'
_cell_volume   142.34747067
_cell_formula_units_Z   2
loop_
 _symmetry_equiv_pos_site_id
 _symmetry_equiv_pos_as_xyz
  1  'x, y, z'
loop_
 _atom_site_type_symbol
 _atom_site_label
 _atom_site_symmetry_multiplicity
 _atom_site_fract_x
 _atom_site_fract_y
 _atom_site_fract_z
 _atom_site_occupancy
  Ge  Ge0  1  0.250000  0.548912  0.097825  1
  Ge  Ge1  1  0.750000  0.451088  0.902175  1
  Ge  Ge2  1  0.750000  0.748777  0.497554  1
  Ge  Ge3  1  0.250000  0.251223  0.502446  1
  Th  Th4  1  0.250000  0.892538  0.785076  1
  Th  Th5  1  0.750000  0.107462  0.214924  1
