# generated using pymatgen
data_SrNi5P3
_symmetry_space_group_name_H-M   'P 1'
_cell_length_a   3.60852652
_cell_length_b   6.14518791
_cell_length_c   11.61235089
_cell_angle_alpha   90.00000000
_cell_angle_beta   90.00000000
_cell_angle_gamma   107.07395822
_symmetry_Int_Tables_number   1
_chemical_formula_structural   SrNi5P3
_chemical_formula_sum   'Sr2 Ni10 P6'
_cell_volume   246.15561596
_cell_formula_units_Z   2
loop_
 _symmetry_equiv_pos_site_id
 _symmetry_equiv_pos_as_xyz
  1  'x, y, z'
loop_
 _atom_site_type_symbol
 _atom_site_label
 _atom_site_symmetry_multiplicity
 _atom_site_fract_x
 _atom_site_fract_y
 _atom_site_fract_z
 _atom_site_occupancy
  P  P0  1  0.115426  0.230852  0.250000  1
  P  P1  1  0.884574  0.769148  0.750000  1
  P  P2  1  0.618564  0.237129  0.962855  1
  P  P3  1  0.381436  0.762871  0.037145  1
  P  P4  1  0.381436  0.762871  0.462855  1
  P  P5  1  0.618564  0.237129  0.537145  1
  Ni  Ni6  1  0.550279  0.100557  0.354930  1
  Ni  Ni7  1  0.550279  0.100557  0.145070  1
  Ni  Ni8  1  0.197923  0.395845  0.068110  1
  Ni  Ni9  1  0.802077  0.604155  0.931890  1
  Ni  Ni10  1  0.802077  0.604155  0.568110  1
  Ni  Ni11  1  0.197923  0.395845  0.431890  1
  Ni  Ni12  1  0.000000  0.000000  0.500000  1
  Ni  Ni13  1  0.000000  0.000000  0.000000  1
  Ni  Ni14  1  0.449721  0.899443  0.854930  1
  Ni  Ni15  1  0.449721  0.899443  0.645070  1
  Sr  Sr16  1  0.838248  0.676495  0.250000  1
  Sr  Sr17  1  0.161752  0.323505  0.750000  1
