# generated using pymatgen
data_CrAgTe2
_symmetry_space_group_name_H-M   'P 1'
_cell_length_a   4.10900713
_cell_length_b   4.10900722
_cell_length_c   7.64711859
_cell_angle_alpha   74.41523194
_cell_angle_beta   74.41523204
_cell_angle_gamma   59.99999926
_symmetry_Int_Tables_number   1
_chemical_formula_structural   CrAgTe2
_chemical_formula_sum   'Cr1 Ag1 Te2'
_cell_volume   106.29889316
_cell_formula_units_Z   1
loop_
 _symmetry_equiv_pos_site_id
 _symmetry_equiv_pos_as_xyz
  1  'x, y, z'
loop_
 _atom_site_type_symbol
 _atom_site_label
 _atom_site_symmetry_multiplicity
 _atom_site_fract_x
 _atom_site_fract_y
 _atom_site_fract_z
 _atom_site_occupancy
  Cr  Cr0  1  0.998752  0.998752  0.003745  1
  Ag  Ag1  1  0.143675  0.143675  0.568975  1
  Te  Te2  1  0.268329  0.268329  0.195014  1
  Te  Te3  1  0.733245  0.733245  0.800265  1
