# generated using pymatgen
data_LiVAsO5
_symmetry_space_group_name_H-M   'P 1'
_cell_length_a   6.58791948
_cell_length_b   7.63337043
_cell_length_c   7.58674137
_cell_angle_alpha   90.00000000
_cell_angle_beta   90.00000000
_cell_angle_gamma   90.00000000
_symmetry_Int_Tables_number   1
_chemical_formula_structural   LiVAsO5
_chemical_formula_sum   'Li4 V4 As4 O20'
_cell_volume   381.52227575
_cell_formula_units_Z   4
loop_
 _symmetry_equiv_pos_site_id
 _symmetry_equiv_pos_as_xyz
  1  'x, y, z'
loop_
 _atom_site_type_symbol
 _atom_site_label
 _atom_site_symmetry_multiplicity
 _atom_site_fract_x
 _atom_site_fract_y
 _atom_site_fract_z
 _atom_site_occupancy
  Li  Li0  1  0.000000  0.000000  0.000000  1
  Li  Li1  1  0.500000  0.000000  0.000000  1
  Li  Li2  1  0.000000  0.500000  0.500000  1
  Li  Li3  1  0.500000  0.500000  0.500000  1
  O  O4  1  0.750000  0.002725  0.813967  1
  O  O5  1  0.954370  0.735750  0.627962  1
  O  O6  1  0.454370  0.264250  0.372039  1
  O  O7  1  0.045630  0.235750  0.872039  1
  O  O8  1  0.545630  0.764250  0.127962  1
  O  O9  1  0.045630  0.264250  0.372039  1
  O  O10  1  0.545630  0.735750  0.627962  1
  O  O11  1  0.954370  0.764250  0.127962  1
  O  O12  1  0.750000  0.172027  0.114175  1
  O  O13  1  0.250000  0.827974  0.885825  1
  O  O14  1  0.250000  0.672026  0.385825  1
  O  O15  1  0.750000  0.327973  0.614175  1
  O  O16  1  0.454370  0.235750  0.872039  1
  O  O17  1  0.250000  0.997276  0.186033  1
  O  O18  1  0.250000  0.006097  0.564790  1
  O  O19  1  0.750000  0.497276  0.313967  1
  O  O20  1  0.250000  0.493902  0.064790  1
  O  O21  1  0.750000  0.506097  0.935209  1
  O  O22  1  0.750000  0.993902  0.435209  1
  O  O23  1  0.250000  0.502725  0.686034  1
  V  V24  1  0.750000  0.226212  0.331370  1
  V  V25  1  0.250000  0.726211  0.168629  1
  V  V26  1  0.750000  0.273788  0.831370  1
  V  V27  1  0.250000  0.773788  0.668629  1
  As  As28  1  0.750000  0.875490  0.625009  1
  As  As29  1  0.750000  0.624509  0.125009  1
  As  As30  1  0.250000  0.375490  0.874992  1
  As  As31  1  0.250000  0.124510  0.374992  1
