# generated using pymatgen
data_Te2MoWSe2
_symmetry_space_group_name_H-M   'P 1'
_cell_length_a   3.43780430
_cell_length_b   3.43778304
_cell_length_c   39.08963764
_cell_angle_alpha   89.99973793
_cell_angle_beta   89.99996233
_cell_angle_gamma   120.00029190
_symmetry_Int_Tables_number   1
_chemical_formula_structural   Te2MoWSe2
_chemical_formula_sum   'Te4 Mo2 W2 Se4'
_cell_volume   400.08347549
_cell_formula_units_Z   2
loop_
 _symmetry_equiv_pos_site_id
 _symmetry_equiv_pos_as_xyz
  1  'x, y, z'
loop_
 _atom_site_type_symbol
 _atom_site_label
 _atom_site_symmetry_multiplicity
 _atom_site_fract_x
 _atom_site_fract_y
 _atom_site_fract_z
 _atom_site_occupancy
  Te  Te0  1  0.333357  0.666715  0.705241  1
  Te  Te1  1  0.666634  0.333269  0.046503  1
  Te  Te2  1  0.666636  0.333273  0.141342  1
  Te  Te3  1  0.333357  0.666716  0.609817  1
  Mo  Mo4  1  0.333312  0.666624  0.093911  1
  Mo  Mo5  1  0.333317  0.666635  0.469643  1
  W  W6  1  0.666690  0.333383  0.281797  1
  W  W7  1  0.666694  0.333390  0.657554  1
  Se  Se8  1  0.333356  0.666714  0.323782  1
  Se  Se9  1  0.666643  0.333270  0.427803  1
  Se  Se10  1  0.666651  0.333304  0.511495  1
  Se  Se11  1  0.333353  0.666707  0.239861  1
