# generated using pymatgen
data_Y3Ge4
_symmetry_space_group_name_H-M   'P 1'
_cell_length_a   4.08308933
_cell_length_b   5.73906802
_cell_length_c   14.34506422
_cell_angle_alpha   90.00000000
_cell_angle_beta   90.00000000
_cell_angle_gamma   110.83804139
_symmetry_Int_Tables_number   1
_chemical_formula_structural   Y3Ge4
_chemical_formula_sum   'Y6 Ge8'
_cell_volume   314.16206299
_cell_formula_units_Z   2
loop_
 _symmetry_equiv_pos_site_id
 _symmetry_equiv_pos_as_xyz
  1  'x, y, z'
loop_
 _atom_site_type_symbol
 _atom_site_label
 _atom_site_symmetry_multiplicity
 _atom_site_fract_x
 _atom_site_fract_y
 _atom_site_fract_z
 _atom_site_occupancy
  Ge  Ge0  1  0.226951  0.453902  0.250000  1
  Ge  Ge1  1  0.773049  0.546098  0.750000  1
  Ge  Ge2  1  0.000000  0.000000  0.500000  1
  Ge  Ge3  1  0.000000  0.000000  0.000000  1
  Ge  Ge4  1  0.381018  0.762036  0.391478  1
  Ge  Ge5  1  0.618982  0.237964  0.608522  1
  Ge  Ge6  1  0.381018  0.762036  0.108522  1
  Ge  Ge7  1  0.618982  0.237964  0.891478  1
  Y  Y8  1  0.954934  0.909868  0.250000  1
  Y  Y9  1  0.045066  0.090132  0.750000  1
  Y  Y10  1  0.329518  0.659035  0.596798  1
  Y  Y11  1  0.670482  0.340965  0.403202  1
  Y  Y12  1  0.670482  0.340965  0.096798  1
  Y  Y13  1  0.329518  0.659035  0.903202  1
