# generated using pymatgen
data_IrN2
_symmetry_space_group_name_H-M   'P 1'
_cell_length_a   3.09438232
_cell_length_b   3.09541671
_cell_length_c   7.49554022
_cell_angle_alpha   90.00000000
_cell_angle_beta   90.00000000
_cell_angle_gamma   119.98894644
_symmetry_Int_Tables_number   1
_chemical_formula_structural   IrN2
_chemical_formula_sum   'Ir2 N4'
_cell_volume   62.18348047
_cell_formula_units_Z   2
loop_
 _symmetry_equiv_pos_site_id
 _symmetry_equiv_pos_as_xyz
  1  'x, y, z'
loop_
 _atom_site_type_symbol
 _atom_site_label
 _atom_site_symmetry_multiplicity
 _atom_site_fract_x
 _atom_site_fract_y
 _atom_site_fract_z
 _atom_site_occupancy
  Ir  Ir0  1  0.666722  0.333443  0.250000  1
  Ir  Ir1  1  0.333278  0.666557  0.750000  1
  N  N2  1  0.999991  0.999983  0.416391  1
  N  N3  1  0.000009  0.000017  0.583609  1
  N  N4  1  0.000009  0.000017  0.916391  1
  N  N5  1  0.999991  0.999983  0.083609  1
