# generated using pymatgen
data_Ca3Ga2(SiO4)3
_symmetry_space_group_name_H-M   'P 1'
_cell_length_a   10.50072969
_cell_length_b   10.50072969
_cell_length_c   10.50072969
_cell_angle_alpha   109.47122063
_cell_angle_beta   109.47122064
_cell_angle_gamma   109.47122064
_symmetry_Int_Tables_number   1
_chemical_formula_structural   Ca3Ga2(SiO4)3
_chemical_formula_sum   'Ca12 Ga8 Si12 O48'
_cell_volume   891.32594049
_cell_formula_units_Z   4
loop_
 _symmetry_equiv_pos_site_id
 _symmetry_equiv_pos_as_xyz
  1  'x, y, z'
loop_
 _atom_site_type_symbol
 _atom_site_label
 _atom_site_symmetry_multiplicity
 _atom_site_fract_x
 _atom_site_fract_y
 _atom_site_fract_z
 _atom_site_occupancy
  O  O0  1  0.702294  0.693181  0.086213  1
  O  O1  1  0.693181  0.106968  0.990887  1
  O  O2  1  0.616081  0.702294  0.509113  1
  O  O3  1  0.509113  0.616081  0.702294  1
  O  O4  1  0.086213  0.883919  0.393032  1
  O  O5  1  0.393032  0.086213  0.883919  1
  O  O6  1  0.106968  0.990887  0.693181  1
  O  O7  1  0.616081  0.413787  0.106968  1
  O  O8  1  0.509113  0.393032  0.806819  1
  O  O9  1  0.883919  0.990887  0.797706  1
  O  O10  1  0.413787  0.106968  0.616081  1
  O  O11  1  0.806819  0.509113  0.393032  1
  O  O12  1  0.990887  0.797706  0.883919  1
  O  O13  1  0.086213  0.702294  0.693181  1
  O  O14  1  0.693181  0.086213  0.702294  1
  O  O15  1  0.106968  0.616081  0.413787  1
  O  O16  1  0.806819  0.797706  0.413787  1
  O  O17  1  0.393032  0.806819  0.509113  1
  O  O18  1  0.413787  0.806819  0.797706  1
  O  O19  1  0.797706  0.883919  0.990887  1
  O  O20  1  0.797706  0.413787  0.806819  1
  O  O21  1  0.883919  0.393032  0.086213  1
  O  O22  1  0.990887  0.693181  0.106968  1
  O  O23  1  0.702294  0.509113  0.616081  1
  O  O24  1  0.297706  0.306819  0.913787  1
  O  O25  1  0.306819  0.893032  0.009113  1
  O  O26  1  0.383919  0.297706  0.490887  1
  O  O27  1  0.490887  0.383919  0.297706  1
  O  O28  1  0.913787  0.116081  0.606968  1
  O  O29  1  0.606968  0.913787  0.116081  1
  O  O30  1  0.893032  0.009113  0.306819  1
  O  O31  1  0.383919  0.586213  0.893032  1
  O  O32  1  0.490887  0.606968  0.193181  1
  O  O33  1  0.116081  0.009113  0.202294  1
  O  O34  1  0.586213  0.893032  0.383919  1
  O  O35  1  0.193181  0.490887  0.606968  1
  O  O36  1  0.009113  0.202294  0.116081  1
  O  O37  1  0.913787  0.297706  0.306819  1
  O  O38  1  0.306819  0.913787  0.297706  1
  O  O39  1  0.893032  0.383919  0.586213  1
  O  O40  1  0.193181  0.202294  0.586213  1
  O  O41  1  0.606968  0.193181  0.490887  1
  O  O42  1  0.586213  0.193181  0.202294  1
  O  O43  1  0.202294  0.116081  0.009113  1
  O  O44  1  0.202294  0.586213  0.193181  1
  O  O45  1  0.116081  0.606968  0.913787  1
  O  O46  1  0.009113  0.306819  0.893032  1
  O  O47  1  0.297706  0.490887  0.383919  1
  Si  Si48  1  0.250000  0.125000  0.875000  1
  Si  Si49  1  0.625000  0.750000  0.375000  1
  Si  Si50  1  0.250000  0.625000  0.375000  1
  Si  Si51  1  0.375000  0.625000  0.750000  1
  Si  Si52  1  0.750000  0.375000  0.625000  1
  Si  Si53  1  0.875000  0.125000  0.750000  1
  Si  Si54  1  0.125000  0.875000  0.250000  1
  Si  Si55  1  0.125000  0.750000  0.875000  1
  Si  Si56  1  0.625000  0.375000  0.250000  1
  Si  Si57  1  0.375000  0.250000  0.625000  1
  Si  Si58  1  0.750000  0.875000  0.125000  1
  Si  Si59  1  0.875000  0.250000  0.125000  1
  Ca  Ca60  1  0.875000  0.625000  0.250000  1
  Ca  Ca61  1  0.625000  0.875000  0.750000  1
  Ca  Ca62  1  0.875000  0.750000  0.625000  1
  Ca  Ca63  1  0.625000  0.250000  0.875000  1
  Ca  Ca64  1  0.750000  0.625000  0.875000  1
  Ca  Ca65  1  0.750000  0.125000  0.375000  1
  Ca  Ca66  1  0.125000  0.375000  0.750000  1
  Ca  Ca67  1  0.375000  0.125000  0.250000  1
  Ca  Ca68  1  0.125000  0.250000  0.375000  1
  Ca  Ca69  1  0.375000  0.750000  0.125000  1
  Ca  Ca70  1  0.250000  0.875000  0.625000  1
  Ca  Ca71  1  0.250000  0.375000  0.125000  1
  Ga  Ga72  1  0.500000  0.500000  0.500000  1
  Ga  Ga73  1  0.500000  0.500000  0.000000  1
  Ga  Ga74  1  0.500000  0.000000  0.500000  1
  Ga  Ga75  1  0.500000  0.000000  0.000000  1
  Ga  Ga76  1  0.000000  0.000000  0.500000  1
  Ga  Ga77  1  0.000000  0.500000  0.000000  1
  Ga  Ga78  1  0.000000  0.000000  0.000000  1
  Ga  Ga79  1  0.000000  0.500000  0.500000  1
