# generated using pymatgen
data_CaGe2
_symmetry_space_group_name_H-M   'P 1'
_cell_length_a   10.38097863
_cell_length_b   10.38097863
_cell_length_c   10.38097862
_cell_angle_alpha   22.56563307
_cell_angle_beta   22.56563309
_cell_angle_gamma   22.56563309
_symmetry_Int_Tables_number   1
_chemical_formula_structural   CaGe2
_chemical_formula_sum   'Ca2 Ge4'
_cell_volume   144.51013897
_cell_formula_units_Z   2
loop_
 _symmetry_equiv_pos_site_id
 _symmetry_equiv_pos_as_xyz
  1  'x, y, z'
loop_
 _atom_site_type_symbol
 _atom_site_label
 _atom_site_symmetry_multiplicity
 _atom_site_fract_x
 _atom_site_fract_y
 _atom_site_fract_z
 _atom_site_occupancy
  Ca  Ca0  1  0.080380  0.080380  0.080380  1
  Ca  Ca1  1  0.919620  0.919620  0.919620  1
  Ge  Ge2  1  0.185186  0.185186  0.185186  1
  Ge  Ge3  1  0.814814  0.814814  0.814814  1
  Ge  Ge4  1  0.350399  0.350399  0.350399  1
  Ge  Ge5  1  0.649601  0.649601  0.649601  1
