# generated using pymatgen
data_Te4Mo3WS4
_symmetry_space_group_name_H-M   'P 1'
_cell_length_a   3.36363252
_cell_length_b   3.36341035
_cell_length_c   39.33253995
_cell_angle_alpha   90.00103054
_cell_angle_beta   90.00060272
_cell_angle_gamma   119.99843844
_symmetry_Int_Tables_number   1
_chemical_formula_structural   Te4Mo3WS4
_chemical_formula_sum   'Te4 Mo3 W1 S4'
_cell_volume   385.36995911
_cell_formula_units_Z   1
loop_
 _symmetry_equiv_pos_site_id
 _symmetry_equiv_pos_as_xyz
  1  'x, y, z'
loop_
 _atom_site_type_symbol
 _atom_site_label
 _atom_site_symmetry_multiplicity
 _atom_site_fract_x
 _atom_site_fract_y
 _atom_site_fract_z
 _atom_site_occupancy
  Te  Te0  1  0.333367  0.666713  0.706892  1
  Te  Te1  1  0.666617  0.333282  0.420585  1
  Te  Te2  1  0.666667  0.333347  0.516616  1
  Te  Te3  1  0.333348  0.666689  0.610418  1
  Mo  Mo4  1  0.333343  0.666647  0.093941  1
  Mo  Mo5  1  0.333316  0.666618  0.468623  1
  Mo  Mo6  1  0.666646  0.333369  0.281721  1
  W  W7  1  0.666693  0.333397  0.658714  1
  S  S8  1  0.333358  0.666705  0.320120  1
  S  S9  1  0.666642  0.333259  0.055526  1
  S  S10  1  0.666680  0.333321  0.132332  1
  S  S11  1  0.333323  0.666653  0.243260  1
