# generated using pymatgen
data_SmC10
_symmetry_space_group_name_H-M   'P 1'
_cell_length_a   9.37735761
_cell_length_b   9.37735761
_cell_length_c   9.37735761
_cell_angle_alpha   109.47122063
_cell_angle_beta   109.47122064
_cell_angle_gamma   109.47122063
_symmetry_Int_Tables_number   1
_chemical_formula_structural   SmC10
_chemical_formula_sum   'Sm6 C60'
_cell_volume   634.77460579
_cell_formula_units_Z   6
loop_
 _symmetry_equiv_pos_site_id
 _symmetry_equiv_pos_as_xyz
  1  'x, y, z'
loop_
 _atom_site_type_symbol
 _atom_site_label
 _atom_site_symmetry_multiplicity
 _atom_site_fract_x
 _atom_site_fract_y
 _atom_site_fract_z
 _atom_site_occupancy
  C  C0  1  0.329568  0.397089  0.067521  1
  C  C1  1  0.262047  0.932479  0.329568  1
  C  C2  1  0.932479  0.670432  0.602911  1
  C  C3  1  0.737953  0.067521  0.670432  1
  C  C4  1  0.932479  0.329568  0.262047  1
  C  C5  1  0.602911  0.932479  0.670432  1
  C  C6  1  0.067521  0.670432  0.737953  1
  C  C7  1  0.067521  0.329568  0.397089  1
  C  C8  1  0.397089  0.067521  0.329568  1
  C  C9  1  0.329568  0.262047  0.932479  1
  C  C10  1  0.670432  0.602911  0.932479  1
  C  C11  1  0.670432  0.737953  0.067521  1
  C  C12  1  0.391366  0.415885  0.240989  1
  C  C13  1  0.150376  0.759011  0.174896  1
  C  C14  1  0.975481  0.825104  0.584115  1
  C  C15  1  0.849624  0.024519  0.608634  1
  C  C16  1  0.759011  0.174896  0.150376  1
  C  C17  1  0.584115  0.975481  0.825104  1
  C  C18  1  0.024519  0.608634  0.849624  1
  C  C19  1  0.240989  0.391366  0.415885  1
  C  C20  1  0.415885  0.240989  0.391366  1
  C  C21  1  0.174896  0.150376  0.759011  1
  C  C22  1  0.825104  0.584115  0.975481  1
  C  C23  1  0.608634  0.849624  0.024519  1
  C  C24  1  0.608634  0.584115  0.759011  1
  C  C25  1  0.849624  0.240989  0.825104  1
  C  C26  1  0.024519  0.174896  0.415885  1
  C  C27  1  0.150376  0.975481  0.391366  1
  C  C28  1  0.240989  0.825104  0.849624  1
  C  C29  1  0.415885  0.024519  0.174896  1
  C  C30  1  0.975481  0.391366  0.150376  1
  C  C31  1  0.759011  0.608634  0.584115  1
  C  C32  1  0.584115  0.759011  0.608634  1
  C  C33  1  0.825104  0.849624  0.240989  1
  C  C34  1  0.174896  0.415885  0.024519  1
  C  C35  1  0.391366  0.150376  0.975481  1
  C  C36  1  0.454913  0.306926  0.281395  1
  C  C37  1  0.173518  0.718605  0.025532  1
  C  C38  1  0.147986  0.974468  0.693074  1
  C  C39  1  0.826482  0.852014  0.545087  1
  C  C40  1  0.718605  0.025532  0.173518  1
  C  C41  1  0.693074  0.147986  0.974468  1
  C  C42  1  0.852014  0.545087  0.826482  1
  C  C43  1  0.281395  0.454913  0.306926  1
  C  C44  1  0.306926  0.281395  0.454913  1
  C  C45  1  0.025532  0.173518  0.718605  1
  C  C46  1  0.974468  0.693074  0.147986  1
  C  C47  1  0.545087  0.826482  0.852014  1
  C  C48  1  0.545087  0.693074  0.718605  1
  C  C49  1  0.826482  0.281395  0.974468  1
  C  C50  1  0.852014  0.025532  0.306926  1
  C  C51  1  0.173518  0.147986  0.454913  1
  C  C52  1  0.281395  0.974468  0.826482  1
  C  C53  1  0.306926  0.852014  0.025532  1
  C  C54  1  0.147986  0.454913  0.173518  1
  C  C55  1  0.718605  0.545087  0.693074  1
  C  C56  1  0.693074  0.718605  0.545087  1
  C  C57  1  0.974468  0.826482  0.281395  1
  C  C58  1  0.025532  0.306926  0.852014  1
  C  C59  1  0.454913  0.173518  0.147986  1
  Sm  Sm60  1  0.753022  0.253022  0.500000  1
  Sm  Sm61  1  0.253022  0.500000  0.753022  1
  Sm  Sm62  1  0.500000  0.246978  0.746978  1
  Sm  Sm63  1  0.746978  0.500000  0.246978  1
  Sm  Sm64  1  0.500000  0.753022  0.253022  1
  Sm  Sm65  1  0.246978  0.746978  0.500000  1
