# generated using pymatgen
data_LaTe3
_symmetry_space_group_name_H-M   'P 1'
_cell_length_a   4.30505172
_cell_length_b   4.32354381
_cell_length_c   17.44637363
_cell_angle_alpha   90.00000000
_cell_angle_beta   97.08718689
_cell_angle_gamma   90.00000000
_symmetry_Int_Tables_number   1
_chemical_formula_structural   LaTe3
_chemical_formula_sum   'La2 Te6'
_cell_volume   322.24965552
_cell_formula_units_Z   2
loop_
 _symmetry_equiv_pos_site_id
 _symmetry_equiv_pos_as_xyz
  1  'x, y, z'
loop_
 _atom_site_type_symbol
 _atom_site_label
 _atom_site_symmetry_multiplicity
 _atom_site_fract_x
 _atom_site_fract_y
 _atom_site_fract_z
 _atom_site_occupancy
  La  La0  1  0.910550  0.250000  0.821100  1
  La  La1  1  0.089450  0.750000  0.178900  1
  Te  Te2  1  0.819375  0.250000  0.638749  1
  Te  Te3  1  0.180625  0.750000  0.361251  1
  Te  Te4  1  0.667905  0.250000  0.335809  1
  Te  Te5  1  0.332095  0.750000  0.664191  1
  Te  Te6  1  0.552170  0.250000  0.104340  1
  Te  Te7  1  0.447830  0.750000  0.895660  1
