# generated using pymatgen
data_Sr2CrO4
_symmetry_space_group_name_H-M   'P 1'
_cell_length_a   5.91662732
_cell_length_b   10.11538237
_cell_length_c   14.40777826
_cell_angle_alpha   90.00000000
_cell_angle_beta   90.00000000
_cell_angle_gamma   90.00000000
_symmetry_Int_Tables_number   1
_chemical_formula_structural   Sr2CrO4
_chemical_formula_sum   'Sr16 Cr8 O32'
_cell_volume   862.29036731
_cell_formula_units_Z   8
loop_
 _symmetry_equiv_pos_site_id
 _symmetry_equiv_pos_as_xyz
  1  'x, y, z'
loop_
 _atom_site_type_symbol
 _atom_site_label
 _atom_site_symmetry_multiplicity
 _atom_site_fract_x
 _atom_site_fract_y
 _atom_site_fract_z
 _atom_site_occupancy
  O  O0  1  0.050304  0.509161  0.488304  1
  O  O1  1  0.949695  0.009161  0.511696  1
  O  O2  1  0.449695  0.509161  0.988304  1
  O  O3  1  0.550305  0.009161  0.011696  1
  O  O4  1  0.527670  0.557837  0.529023  1
  O  O5  1  0.472331  0.057837  0.470977  1
  O  O6  1  0.972330  0.557837  0.029023  1
  O  O7  1  0.027670  0.057837  0.970977  1
  O  O8  1  0.949095  0.846302  0.202461  1
  O  O9  1  0.050905  0.346302  0.797539  1
  O  O10  1  0.550904  0.846302  0.702461  1
  O  O11  1  0.449094  0.346302  0.297539  1
  O  O12  1  0.284009  0.771911  0.044810  1
  O  O13  1  0.715989  0.271911  0.955190  1
  O  O14  1  0.215990  0.771911  0.544810  1
  O  O15  1  0.784010  0.271911  0.455190  1
  O  O16  1  0.635211  0.643249  0.198719  1
  O  O17  1  0.364790  0.143249  0.801281  1
  O  O18  1  0.864789  0.643249  0.698719  1
  O  O19  1  0.135211  0.143249  0.301281  1
  O  O20  1  0.352777  0.675942  0.360961  1
  O  O21  1  0.647224  0.175942  0.639039  1
  O  O22  1  0.147223  0.675942  0.860961  1
  O  O23  1  0.852778  0.175942  0.139039  1
  O  O24  1  0.336717  0.255130  0.123388  1
  O  O25  1  0.663284  0.755129  0.876612  1
  O  O26  1  0.163284  0.255130  0.623388  1
  O  O27  1  0.836716  0.755129  0.376612  1
  O  O28  1  0.500193  0.923077  0.255511  1
  O  O29  1  0.999807  0.923077  0.755511  1
  O  O30  1  0.499807  0.423077  0.744489  1
  O  O31  1  0.000194  0.423077  0.244489  1
  Cr  Cr32  1  0.199502  0.289205  0.231417  1
  Cr  Cr33  1  0.800498  0.789206  0.768583  1
  Cr  Cr34  1  0.300497  0.289205  0.731417  1
  Cr  Cr35  1  0.699501  0.789206  0.268583  1
  Cr  Cr36  1  0.274273  0.625749  0.475831  1
  Cr  Cr37  1  0.725727  0.125749  0.524169  1
  Cr  Cr38  1  0.225726  0.625749  0.975831  1
  Cr  Cr39  1  0.774273  0.125749  0.024169  1
  Sr  Sr40  1  0.695441  0.413293  0.119200  1
  Sr  Sr41  1  0.276524  0.275894  0.953828  1
  Sr  Sr42  1  0.776524  0.775894  0.546172  1
  Sr  Sr43  1  0.223475  0.275894  0.453828  1
  Sr  Sr44  1  0.723476  0.775894  0.046172  1
  Sr  Sr45  1  0.304558  0.913293  0.880800  1
  Sr  Sr46  1  0.804559  0.413293  0.619200  1
  Sr  Sr47  1  0.195441  0.913293  0.380800  1
  Sr  Sr48  1  0.694790  0.139822  0.296176  1
  Sr  Sr49  1  0.305210  0.639822  0.703824  1
  Sr  Sr50  1  0.805210  0.139822  0.796176  1
  Sr  Sr51  1  0.194791  0.639822  0.203824  1
  Sr  Sr52  1  0.722528  0.503729  0.369909  1
  Sr  Sr53  1  0.277473  0.003729  0.630091  1
  Sr  Sr54  1  0.777472  0.503729  0.869909  1
  Sr  Sr55  1  0.222527  0.003729  0.130091  1
