# generated using pymatgen
data_Te4Mo3W(SeS)2
_symmetry_space_group_name_H-M   'P 1'
_cell_length_a   3.40094163
_cell_length_b   3.40102015
_cell_length_c   38.65235837
_cell_angle_alpha   90.00090182
_cell_angle_beta   90.00003671
_cell_angle_gamma   120.00005199
_symmetry_Int_Tables_number   1
_chemical_formula_structural   Te4Mo3W(SeS)2
_chemical_formula_sum   'Te4 Mo3 W1 Se2 S2'
_cell_volume   387.18166649
_cell_formula_units_Z   1
loop_
 _symmetry_equiv_pos_site_id
 _symmetry_equiv_pos_as_xyz
  1  'x, y, z'
loop_
 _atom_site_type_symbol
 _atom_site_label
 _atom_site_symmetry_multiplicity
 _atom_site_fract_x
 _atom_site_fract_y
 _atom_site_fract_z
 _atom_site_occupancy
  Te  Te0  1  0.333362  0.666725  0.706225  1
  Te  Te1  1  0.666645  0.333289  0.045546  1
  Te  Te2  1  0.666648  0.333295  0.142274  1
  Te  Te3  1  0.333362  0.666725  0.608810  1
  Mo  Mo4  1  0.333309  0.666619  0.093905  1
  Mo  Mo5  1  0.333297  0.666607  0.469679  1
  Mo  Mo6  1  0.666689  0.333379  0.281814  1
  W  W7  1  0.666690  0.333382  0.657557  1
  Se  Se8  1  0.333355  0.666711  0.324377  1
  Se  Se9  1  0.333349  0.666698  0.239233  1
  S  S10  1  0.666652  0.333295  0.430773  1
  S  S11  1  0.666642  0.333275  0.508556  1
