# generated using pymatgen
data_Te2MoW3(SeS2)2
_symmetry_space_group_name_H-M   'P 1'
_cell_length_a   3.30741246
_cell_length_b   3.30738902
_cell_length_c   39.27690299
_cell_angle_alpha   89.99907554
_cell_angle_beta   90.00000000
_cell_angle_gamma   120.00023448
_symmetry_Int_Tables_number   1
_chemical_formula_structural   Te2MoW3(SeS2)2
_chemical_formula_sum   'Te2 Mo1 W3 Se2 S4'
_cell_volume   372.08355804
_cell_formula_units_Z   1
loop_
 _symmetry_equiv_pos_site_id
 _symmetry_equiv_pos_as_xyz
  1  'x, y, z'
loop_
 _atom_site_type_symbol
 _atom_site_label
 _atom_site_symmetry_multiplicity
 _atom_site_fract_x
 _atom_site_fract_y
 _atom_site_fract_z
 _atom_site_occupancy
  Te  Te0  1  0.666668  0.333335  0.419564  1
  Te  Te1  1  0.666675  0.333349  0.517524  1
  Mo  Mo2  1  0.666722  0.333444  0.281353  1
  W  W3  1  0.333309  0.666619  0.093918  1
  W  W4  1  0.333339  0.666678  0.468546  1
  W  W5  1  0.666652  0.333305  0.659118  1
  Se  Se6  1  0.333303  0.666606  0.702172  1
  Se  Se7  1  0.333326  0.666652  0.616073  1
  S  S8  1  0.333345  0.666690  0.320183  1
  S  S9  1  0.666651  0.333302  0.054894  1
  S  S10  1  0.666638  0.333274  0.132937  1
  S  S11  1  0.333372  0.666745  0.242466  1
