# generated using pymatgen
data_Te4MoW3(SeS)2
_symmetry_space_group_name_H-M   'P 1'
_cell_length_a   3.39519084
_cell_length_b   3.39521836
_cell_length_c   38.81539400
_cell_angle_alpha   90.00109248
_cell_angle_beta   89.99999902
_cell_angle_gamma   119.99969483
_symmetry_Int_Tables_number   1
_chemical_formula_structural   Te4MoW3(SeS)2
_chemical_formula_sum   'Te4 Mo1 W3 Se2 S2'
_cell_volume   387.49657375
_cell_formula_units_Z   1
loop_
 _symmetry_equiv_pos_site_id
 _symmetry_equiv_pos_as_xyz
  1  'x, y, z'
loop_
 _atom_site_type_symbol
 _atom_site_label
 _atom_site_symmetry_multiplicity
 _atom_site_fract_x
 _atom_site_fract_y
 _atom_site_fract_z
 _atom_site_occupancy
  Te  Te0  1  0.333368  0.666736  0.706206  1
  Te  Te1  1  0.666640  0.333280  0.421292  1
  Te  Te2  1  0.666646  0.333292  0.517761  1
  Te  Te3  1  0.333346  0.666692  0.609151  1
  Mo  Mo4  1  0.333309  0.666618  0.469513  1
  W  W5  1  0.333315  0.666630  0.093936  1
  W  W6  1  0.666688  0.333376  0.281752  1
  W  W7  1  0.666686  0.333372  0.657713  1
  Se  Se8  1  0.333361  0.666723  0.324439  1
  Se  Se9  1  0.333347  0.666694  0.239088  1
  S  S10  1  0.666645  0.333290  0.055103  1
  S  S11  1  0.666648  0.333297  0.132795  1
