# generated using pymatgen
data_Na3MnPCO7
_symmetry_space_group_name_H-M   'P 1'
_cell_length_a   5.23853956
_cell_length_b   6.84016486
_cell_length_c   9.05767174
_cell_angle_alpha   90.00000000
_cell_angle_beta   89.81133518
_cell_angle_gamma   90.00000000
_symmetry_Int_Tables_number   1
_chemical_formula_structural   Na3MnPCO7
_chemical_formula_sum   'Na6 Mn2 P2 C2 O14'
_cell_volume   324.55702979
_cell_formula_units_Z   2
loop_
 _symmetry_equiv_pos_site_id
 _symmetry_equiv_pos_as_xyz
  1  'x, y, z'
loop_
 _atom_site_type_symbol
 _atom_site_label
 _atom_site_symmetry_multiplicity
 _atom_site_fract_x
 _atom_site_fract_y
 _atom_site_fract_z
 _atom_site_occupancy
  C  C0  1  0.264600  0.250000  0.938873  1
  C  C1  1  0.735400  0.750000  0.061127  1
  O  O2  1  0.828101  0.250000  0.567831  1
  O  O3  1  0.171899  0.750000  0.432169  1
  O  O4  1  0.213732  0.932548  0.679962  1
  O  O5  1  0.786268  0.432548  0.320038  1
  O  O6  1  0.786268  0.067452  0.320038  1
  O  O7  1  0.213732  0.567452  0.679962  1
  O  O8  1  0.710851  0.750000  0.918760  1
  O  O9  1  0.289149  0.250000  0.081240  1
  O  O10  1  0.591449  0.750000  0.569195  1
  O  O11  1  0.408551  0.250000  0.430805  1
  O  O12  1  0.039026  0.250000  0.878628  1
  O  O13  1  0.960974  0.750000  0.121372  1
  O  O14  1  0.466226  0.250000  0.853582  1
  O  O15  1  0.533774  0.750000  0.146418  1
  Na  Na16  1  0.758502  0.250000  0.083114  1
  Na  Na17  1  0.241498  0.750000  0.916886  1
  Na  Na18  1  0.247776  0.496665  0.260784  1
  Na  Na19  1  0.752224  0.996665  0.739216  1
  Na  Na20  1  0.752224  0.503335  0.739216  1
  Na  Na21  1  0.247776  0.003335  0.260784  1
  P  P22  1  0.705683  0.250000  0.411871  1
  P  P23  1  0.294317  0.750000  0.588129  1
  Mn  Mn24  1  0.778121  0.750000  0.360996  1
  Mn  Mn25  1  0.221879  0.250000  0.639004  1
