# generated using pymatgen
data_Na3MoNO3
_symmetry_space_group_name_H-M   'P 1'
_cell_length_a   5.70763581
_cell_length_b   6.29386040
_cell_length_c   7.35565022
_cell_angle_alpha   90.00000000
_cell_angle_beta   90.00000000
_cell_angle_gamma   90.00000000
_symmetry_Int_Tables_number   1
_chemical_formula_structural   Na3MoNO3
_chemical_formula_sum   'Na6 Mo2 N2 O6'
_cell_volume   264.23748628
_cell_formula_units_Z   2
loop_
 _symmetry_equiv_pos_site_id
 _symmetry_equiv_pos_as_xyz
  1  'x, y, z'
loop_
 _atom_site_type_symbol
 _atom_site_label
 _atom_site_symmetry_multiplicity
 _atom_site_fract_x
 _atom_site_fract_y
 _atom_site_fract_z
 _atom_site_occupancy
  N  N0  1  0.695705  0.176275  0.000000  1
  N  N1  1  0.195705  0.823725  0.500000  1
  O  O2  1  0.603480  0.686464  0.709245  1
  O  O3  1  0.103480  0.313536  0.790755  1
  O  O4  1  0.103480  0.313536  0.209245  1
  O  O5  1  0.603480  0.686464  0.290755  1
  O  O6  1  0.101285  0.890466  0.000000  1
  O  O7  1  0.601285  0.109534  0.500000  1
  Na  Na8  1  0.512213  0.835335  0.000000  1
  Na  Na9  1  0.510169  0.328317  0.255422  1
  Na  Na10  1  0.510169  0.328317  0.744578  1
  Na  Na11  1  0.010169  0.671683  0.755422  1
  Na  Na12  1  0.012213  0.164665  0.500000  1
  Na  Na13  1  0.010169  0.671683  0.244578  1
  Mo  Mo14  1  0.502599  0.827145  0.500000  1
  Mo  Mo15  1  0.002599  0.172855  0.000000  1
