# generated using pymatgen
data_Nd3SiAgSe7
_symmetry_space_group_name_H-M   'P 1'
_cell_length_a   10.76643329
_cell_length_b   10.76643329
_cell_length_c   6.07552843
_cell_angle_alpha   90.00000000
_cell_angle_beta   90.00000000
_cell_angle_gamma   120.00000003
_symmetry_Int_Tables_number   1
_chemical_formula_structural   Nd3SiAgSe7
_chemical_formula_sum   'Nd6 Si2 Ag2 Se14'
_cell_volume   609.89966759
_cell_formula_units_Z   2
loop_
 _symmetry_equiv_pos_site_id
 _symmetry_equiv_pos_as_xyz
  1  'x, y, z'
loop_
 _atom_site_type_symbol
 _atom_site_label
 _atom_site_symmetry_multiplicity
 _atom_site_fract_x
 _atom_site_fract_y
 _atom_site_fract_z
 _atom_site_occupancy
  Si  Si0  1  0.333333  0.666667  0.376510  1
  Si  Si1  1  0.666667  0.333333  0.876510  1
  Se  Se2  1  0.891285  0.477959  0.725152  1
  Se  Se3  1  0.108715  0.522041  0.225152  1
  Se  Se4  1  0.477959  0.586674  0.225152  1
  Se  Se5  1  0.586674  0.108715  0.725152  1
  Se  Se6  1  0.095813  0.824725  0.483503  1
  Se  Se7  1  0.271088  0.095813  0.983503  1
  Se  Se8  1  0.413326  0.891285  0.225152  1
  Se  Se9  1  0.522041  0.413326  0.725152  1
  Se  Se10  1  0.333333  0.666667  0.750709  1
  Se  Se11  1  0.666667  0.333333  0.250709  1
  Se  Se12  1  0.904187  0.175275  0.983503  1
  Se  Se13  1  0.728912  0.904187  0.483503  1
  Se  Se14  1  0.175275  0.271088  0.483503  1
  Se  Se15  1  0.824725  0.728912  0.983503  1
  Ag  Ag16  1  0.000000  0.000000  0.516671  1
  Ag  Ag17  1  0.000000  0.000000  0.016671  1
  Nd  Nd18  1  0.357365  0.126404  0.466501  1
  Nd  Nd19  1  0.230961  0.357365  0.966501  1
  Nd  Nd20  1  0.126404  0.769039  0.966501  1
  Nd  Nd21  1  0.873596  0.230961  0.466501  1
  Nd  Nd22  1  0.769039  0.642635  0.466501  1
  Nd  Nd23  1  0.642635  0.873596  0.966501  1
