# generated using pymatgen
data_CsGe
_symmetry_space_group_name_H-M   'P 1'
_cell_length_a   13.93575639
_cell_length_b   13.93575639
_cell_length_c   13.93575639
_cell_angle_alpha   90.00000000
_cell_angle_beta   90.00000000
_cell_angle_gamma   90.00000000
_symmetry_Int_Tables_number   1
_chemical_formula_structural   CsGe
_chemical_formula_sum   'Cs32 Ge32'
_cell_volume   2706.39783631
_cell_formula_units_Z   32
loop_
 _symmetry_equiv_pos_site_id
 _symmetry_equiv_pos_as_xyz
  1  'x, y, z'
loop_
 _atom_site_type_symbol
 _atom_site_label
 _atom_site_symmetry_multiplicity
 _atom_site_fract_x
 _atom_site_fract_y
 _atom_site_fract_z
 _atom_site_occupancy
  Ge  Ge0  1  0.066155  0.066155  0.066155  1
  Ge  Ge1  1  0.433845  0.566155  0.433845  1
  Ge  Ge2  1  0.433845  0.433845  0.566155  1
  Ge  Ge3  1  0.566155  0.433845  0.433845  1
  Ge  Ge4  1  0.933845  0.933845  0.066155  1
  Ge  Ge5  1  0.066155  0.933845  0.933845  1
  Ge  Ge6  1  0.933845  0.066155  0.933845  1
  Ge  Ge7  1  0.566155  0.566155  0.566155  1
  Ge  Ge8  1  0.061289  0.314970  0.428178  1
  Ge  Ge9  1  0.438711  0.928178  0.185030  1
  Ge  Ge10  1  0.438711  0.071822  0.814970  1
  Ge  Ge11  1  0.071822  0.185030  0.561289  1
  Ge  Ge12  1  0.928178  0.185030  0.438711  1
  Ge  Ge13  1  0.814970  0.438711  0.071822  1
  Ge  Ge14  1  0.185030  0.561289  0.071822  1
  Ge  Ge15  1  0.428178  0.061289  0.314970  1
  Ge  Ge16  1  0.314970  0.428178  0.061289  1
  Ge  Ge17  1  0.685030  0.571822  0.061289  1
  Ge  Ge18  1  0.428178  0.938711  0.685030  1
  Ge  Ge19  1  0.685030  0.428178  0.938711  1
  Ge  Ge20  1  0.571822  0.938711  0.314970  1
  Ge  Ge21  1  0.571822  0.061289  0.685030  1
  Ge  Ge22  1  0.314970  0.571822  0.938711  1
  Ge  Ge23  1  0.061289  0.685030  0.571822  1
  Ge  Ge24  1  0.938711  0.314970  0.571822  1
  Ge  Ge25  1  0.938711  0.685030  0.428178  1
  Ge  Ge26  1  0.185030  0.438711  0.928178  1
  Ge  Ge27  1  0.814970  0.561289  0.928178  1
  Ge  Ge28  1  0.071822  0.814970  0.438711  1
  Ge  Ge29  1  0.928178  0.814970  0.561289  1
  Ge  Ge30  1  0.561289  0.071822  0.185030  1
  Ge  Ge31  1  0.561289  0.928178  0.814970  1
  Cs  Cs32  1  0.334584  0.334584  0.334584  1
  Cs  Cs33  1  0.165416  0.834584  0.165416  1
  Cs  Cs34  1  0.165416  0.165416  0.834584  1
  Cs  Cs35  1  0.834584  0.165416  0.165416  1
  Cs  Cs36  1  0.665416  0.665416  0.334584  1
  Cs  Cs37  1  0.334584  0.665416  0.665416  1
  Cs  Cs38  1  0.665416  0.334584  0.665416  1
  Cs  Cs39  1  0.834584  0.834584  0.834584  1
  Cs  Cs40  1  0.338329  0.139033  0.067063  1
  Cs  Cs41  1  0.161671  0.567063  0.360967  1
  Cs  Cs42  1  0.161671  0.432937  0.639033  1
  Cs  Cs43  1  0.432937  0.360967  0.838329  1
  Cs  Cs44  1  0.567063  0.360967  0.161671  1
  Cs  Cs45  1  0.639033  0.161671  0.432937  1
  Cs  Cs46  1  0.360967  0.838329  0.432937  1
  Cs  Cs47  1  0.067063  0.338329  0.139033  1
  Cs  Cs48  1  0.139033  0.067063  0.338329  1
  Cs  Cs49  1  0.860967  0.932937  0.338329  1
  Cs  Cs50  1  0.067063  0.661671  0.860967  1
  Cs  Cs51  1  0.860967  0.067063  0.661671  1
  Cs  Cs52  1  0.932937  0.661671  0.139033  1
  Cs  Cs53  1  0.932937  0.338329  0.860967  1
  Cs  Cs54  1  0.139033  0.932937  0.661671  1
  Cs  Cs55  1  0.338329  0.860967  0.932937  1
  Cs  Cs56  1  0.661671  0.139033  0.932937  1
  Cs  Cs57  1  0.661671  0.860967  0.067063  1
  Cs  Cs58  1  0.360967  0.161671  0.567063  1
  Cs  Cs59  1  0.639033  0.838329  0.567063  1
  Cs  Cs60  1  0.432937  0.639033  0.161671  1
  Cs  Cs61  1  0.567063  0.639033  0.838329  1
  Cs  Cs62  1  0.838329  0.432937  0.360967  1
  Cs  Cs63  1  0.838329  0.567063  0.639033  1
