# generated using pymatgen
data_Ti2Ni(PO5)2
_symmetry_space_group_name_H-M   'P 1'
_cell_length_a   7.43080834
_cell_length_b   7.41858271
_cell_length_c   7.41798933
_cell_angle_alpha   119.44940913
_cell_angle_beta   90.00000000
_cell_angle_gamma   90.00000000
_symmetry_Int_Tables_number   1
_chemical_formula_structural   Ti2Ni(PO5)2
_chemical_formula_sum   'Ti4 Ni2 P4 O20'
_cell_volume   356.08749079
_cell_formula_units_Z   2
loop_
 _symmetry_equiv_pos_site_id
 _symmetry_equiv_pos_as_xyz
  1  'x, y, z'
loop_
 _atom_site_type_symbol
 _atom_site_label
 _atom_site_symmetry_multiplicity
 _atom_site_fract_x
 _atom_site_fract_y
 _atom_site_fract_z
 _atom_site_occupancy
  O  O0  1  0.252736  0.939853  0.588827  1
  O  O1  1  0.752736  0.060146  0.911173  1
  O  O2  1  0.747265  0.060147  0.411172  1
  O  O3  1  0.247265  0.939854  0.088828  1
  O  O4  1  0.492391  0.740458  0.826365  1
  O  O5  1  0.992392  0.259543  0.673635  1
  O  O6  1  0.507609  0.259544  0.173636  1
  O  O7  1  0.007609  0.740457  0.326365  1
  O  O8  1  0.265462  0.555238  0.927675  1
  O  O9  1  0.765462  0.444762  0.572324  1
  O  O10  1  0.158276  0.227687  0.998317  1
  O  O11  1  0.658276  0.772313  0.501684  1
  O  O12  1  0.841725  0.772312  0.001682  1
  O  O13  1  0.341724  0.227687  0.498317  1
  O  O14  1  0.002886  0.216396  0.313392  1
  O  O15  1  0.734537  0.444761  0.072325  1
  O  O16  1  0.997113  0.783603  0.686607  1
  O  O17  1  0.497114  0.216397  0.813392  1
  O  O18  1  0.234538  0.555238  0.427675  1
  O  O19  1  0.502886  0.783603  0.186607  1
  P  P20  1  0.377576  0.753945  0.006109  1
  P  P21  1  0.877576  0.246054  0.493891  1
  P  P22  1  0.622425  0.246055  0.993891  1
  P  P23  1  0.122425  0.753945  0.506108  1
  Ti  Ti24  1  0.722395  0.736148  0.708801  1
  Ti  Ti25  1  0.777606  0.736148  0.208801  1
  Ti  Ti26  1  0.277606  0.263853  0.291199  1
  Ti  Ti27  1  0.222394  0.263852  0.791198  1
  Ni  Ni28  1  0.500000  0.000000  0.500000  1
  Ni  Ni29  1  0.000000  0.000000  0.000000  1
