# generated using pymatgen
data_TiFeO3
_symmetry_space_group_name_H-M   'P 1'
_cell_length_a   5.52768570
_cell_length_b   5.52768569
_cell_length_c   5.52768569
_cell_angle_alpha   56.15253671
_cell_angle_beta   56.15253675
_cell_angle_gamma   56.15253677
_symmetry_Int_Tables_number   1
_chemical_formula_structural   TiFeO3
_chemical_formula_sum   'Ti2 Fe2 O6'
_cell_volume   108.79245838
_cell_formula_units_Z   2
loop_
 _symmetry_equiv_pos_site_id
 _symmetry_equiv_pos_as_xyz
  1  'x, y, z'
loop_
 _atom_site_type_symbol
 _atom_site_label
 _atom_site_symmetry_multiplicity
 _atom_site_fract_x
 _atom_site_fract_y
 _atom_site_fract_z
 _atom_site_occupancy
  O  O0  1  0.568133  0.183182  0.933876  1
  O  O1  1  0.183182  0.933876  0.568133  1
  O  O2  1  0.933876  0.568133  0.183182  1
  O  O3  1  0.433876  0.683182  0.068133  1
  O  O4  1  0.068133  0.433876  0.683182  1
  O  O5  1  0.683182  0.068133  0.433876  1
  Ti  Ti6  1  0.289087  0.289087  0.289087  1
  Ti  Ti7  1  0.789087  0.789087  0.789087  1
  Fe  Fe8  1  0.002722  0.002722  0.002722  1
  Fe  Fe9  1  0.502722  0.502722  0.502722  1
