# generated using pymatgen
data_KCrPO4F
_symmetry_space_group_name_H-M   'P 1'
_cell_length_a   6.43128324
_cell_length_b   10.71823098
_cell_length_c   12.95030382
_cell_angle_alpha   90.00000000
_cell_angle_beta   90.00000000
_cell_angle_gamma   90.00000000
_symmetry_Int_Tables_number   1
_chemical_formula_structural   KCrPO4F
_chemical_formula_sum   'K8 Cr8 P8 O32 F8'
_cell_volume   892.69007438
_cell_formula_units_Z   8
loop_
 _symmetry_equiv_pos_site_id
 _symmetry_equiv_pos_as_xyz
  1  'x, y, z'
loop_
 _atom_site_type_symbol
 _atom_site_label
 _atom_site_symmetry_multiplicity
 _atom_site_fract_x
 _atom_site_fract_y
 _atom_site_fract_z
 _atom_site_occupancy
  O  O0  1  0.032601  0.878627  0.010243  1
  O  O1  1  0.308344  0.274454  0.888488  1
  O  O2  1  0.808344  0.774454  0.611512  1
  O  O3  1  0.191656  0.274454  0.388488  1
  O  O4  1  0.310878  0.718990  0.112222  1
  O  O5  1  0.689122  0.218990  0.887778  1
  O  O6  1  0.189122  0.718990  0.612222  1
  O  O7  1  0.810878  0.218990  0.387778  1
  O  O8  1  0.515003  0.607794  0.515723  1
  O  O9  1  0.484997  0.107794  0.484277  1
  O  O10  1  0.984997  0.607794  0.015723  1
  O  O11  1  0.015003  0.107794  0.984277  1
  O  O12  1  0.532601  0.378627  0.489757  1
  O  O13  1  0.467399  0.878627  0.510243  1
  O  O14  1  0.967399  0.378627  0.989757  1
  O  O15  1  0.691656  0.774454  0.111512  1
  O  O16  1  0.810733  0.519033  0.405731  1
  O  O17  1  0.189267  0.019033  0.594269  1
  O  O18  1  0.689267  0.519033  0.905731  1
  O  O19  1  0.456454  0.860591  0.254410  1
  O  O20  1  0.807663  0.480424  0.598644  1
  O  O21  1  0.192337  0.980424  0.401356  1
  O  O22  1  0.692337  0.480424  0.098644  1
  O  O23  1  0.307663  0.980424  0.901356  1
  O  O24  1  0.040139  0.134986  0.244803  1
  O  O25  1  0.959861  0.634986  0.755197  1
  O  O26  1  0.459861  0.134986  0.744803  1
  O  O27  1  0.540139  0.634986  0.255197  1
  O  O28  1  0.956454  0.360591  0.245590  1
  O  O29  1  0.043546  0.860591  0.754410  1
  O  O30  1  0.543546  0.360591  0.745590  1
  O  O31  1  0.310733  0.019033  0.094269  1
  F  F32  1  0.027798  0.874485  0.227741  1
  F  F33  1  0.972202  0.374485  0.772259  1
  F  F34  1  0.472202  0.874485  0.727741  1
  F  F35  1  0.527798  0.374485  0.272259  1
  F  F36  1  0.479449  0.121163  0.271134  1
  F  F37  1  0.520551  0.621163  0.728866  1
  F  F38  1  0.020551  0.121163  0.771134  1
  F  F39  1  0.979449  0.621163  0.228866  1
  P  P40  1  0.670360  0.497627  0.500900  1
  P  P41  1  0.329640  0.997627  0.499100  1
  P  P42  1  0.829640  0.497627  0.000900  1
  P  P43  1  0.170360  0.997627  0.999100  1
  P  P44  1  0.502483  0.748104  0.181650  1
  P  P45  1  0.497517  0.248104  0.818350  1
  P  P46  1  0.997517  0.748104  0.681650  1
  P  P47  1  0.002483  0.248104  0.318350  1
  K  K48  1  0.202402  0.691723  0.395841  1
  K  K49  1  0.797598  0.191723  0.604159  1
  K  K50  1  0.297598  0.691723  0.895841  1
  K  K51  1  0.702402  0.191723  0.104159  1
  K  K52  1  0.776283  0.947223  0.380822  1
  K  K53  1  0.223717  0.447223  0.619178  1
  K  K54  1  0.723717  0.947223  0.880822  1
  K  K55  1  0.276283  0.447223  0.119178  1
  Cr  Cr56  1  0.998985  0.748180  0.115128  1
  Cr  Cr57  1  0.001015  0.248180  0.884872  1
  Cr  Cr58  1  0.501015  0.748180  0.615128  1
  Cr  Cr59  1  0.498985  0.248180  0.384872  1
  Cr  Cr60  1  0.752147  0.500096  0.253198  1
  Cr  Cr61  1  0.247853  0.000096  0.746802  1
  Cr  Cr62  1  0.747853  0.500096  0.753198  1
  Cr  Cr63  1  0.252147  0.000096  0.246802  1
