# generated using pymatgen
data_MnSi2O5
_symmetry_space_group_name_H-M   'P 1'
_cell_length_a   5.23912089
_cell_length_b   5.23912089
_cell_length_c   6.67769621
_cell_angle_alpha   105.21538227
_cell_angle_beta   105.21538228
_cell_angle_gamma   103.45545916
_symmetry_Int_Tables_number   1
_chemical_formula_structural   MnSi2O5
_chemical_formula_sum   'Mn2 Si4 O10'
_cell_volume   161.46793190
_cell_formula_units_Z   2
loop_
 _symmetry_equiv_pos_site_id
 _symmetry_equiv_pos_as_xyz
  1  'x, y, z'
loop_
 _atom_site_type_symbol
 _atom_site_label
 _atom_site_symmetry_multiplicity
 _atom_site_fract_x
 _atom_site_fract_y
 _atom_site_fract_z
 _atom_site_occupancy
  O  O0  1  0.128107  0.707117  0.903723  1
  O  O1  1  0.292883  0.871893  0.596277  1
  O  O2  1  0.871893  0.292883  0.096277  1
  O  O3  1  0.707117  0.128107  0.403723  1
  O  O4  1  0.745644  0.652442  0.400638  1
  O  O5  1  0.347558  0.254356  0.099362  1
  O  O6  1  0.936765  0.063235  0.750000  1
  O  O7  1  0.063235  0.936765  0.250000  1
  O  O8  1  0.652442  0.745644  0.900638  1
  O  O9  1  0.254356  0.347558  0.599362  1
  Si  Si10  1  0.326317  0.673683  0.750000  1
  Si  Si11  1  0.673683  0.326317  0.250000  1
  Si  Si12  1  0.000000  0.000000  0.500000  1
  Si  Si13  1  0.000000  0.000000  0.000000  1
  Mn  Mn14  1  0.318603  0.681397  0.250000  1
  Mn  Mn15  1  0.681397  0.318603  0.750000  1
