# generated using pymatgen
data_RbSi
_symmetry_space_group_name_H-M   'P 1'
_cell_length_a   13.18716013
_cell_length_b   13.18716013
_cell_length_c   13.18716013
_cell_angle_alpha   90.00000000
_cell_angle_beta   90.00000000
_cell_angle_gamma   90.00000000
_symmetry_Int_Tables_number   1
_chemical_formula_structural   RbSi
_chemical_formula_sum   'Rb32 Si32'
_cell_volume   2293.26286958
_cell_formula_units_Z   32
loop_
 _symmetry_equiv_pos_site_id
 _symmetry_equiv_pos_as_xyz
  1  'x, y, z'
loop_
 _atom_site_type_symbol
 _atom_site_label
 _atom_site_symmetry_multiplicity
 _atom_site_fract_x
 _atom_site_fract_y
 _atom_site_fract_z
 _atom_site_occupancy
  Si  Si0  1  0.560200  0.929202  0.814541  1
  Si  Si1  1  0.560200  0.070798  0.185459  1
  Si  Si2  1  0.929202  0.814541  0.560200  1
  Si  Si3  1  0.070798  0.814541  0.439800  1
  Si  Si4  1  0.814541  0.560200  0.929202  1
  Si  Si5  1  0.185459  0.439800  0.929202  1
  Si  Si6  1  0.939800  0.685459  0.429202  1
  Si  Si7  1  0.939800  0.314541  0.570798  1
  Si  Si8  1  0.060200  0.685459  0.570798  1
  Si  Si9  1  0.314541  0.570798  0.939800  1
  Si  Si10  1  0.570798  0.060200  0.685459  1
  Si  Si11  1  0.570798  0.939800  0.314541  1
  Si  Si12  1  0.685459  0.429202  0.939800  1
  Si  Si13  1  0.429202  0.939800  0.685459  1
  Si  Si14  1  0.685459  0.570798  0.060200  1
  Si  Si15  1  0.065325  0.065325  0.065325  1
  Si  Si16  1  0.429202  0.060200  0.314541  1
  Si  Si17  1  0.185459  0.560200  0.070798  1
  Si  Si18  1  0.814541  0.439800  0.070798  1
  Si  Si19  1  0.929202  0.185459  0.439800  1
  Si  Si20  1  0.070798  0.185459  0.560200  1
  Si  Si21  1  0.439800  0.070798  0.814541  1
  Si  Si22  1  0.439800  0.929202  0.185459  1
  Si  Si23  1  0.060200  0.314541  0.429202  1
  Si  Si24  1  0.565325  0.565325  0.565325  1
  Si  Si25  1  0.934675  0.065325  0.934675  1
  Si  Si26  1  0.065325  0.934675  0.934675  1
  Si  Si27  1  0.934675  0.934675  0.065325  1
  Si  Si28  1  0.565325  0.434675  0.434675  1
  Si  Si29  1  0.434675  0.434675  0.565325  1
  Si  Si30  1  0.434675  0.565325  0.434675  1
  Si  Si31  1  0.314541  0.429202  0.060200  1
  Rb  Rb32  1  0.066078  0.337306  0.139843  1
  Rb  Rb33  1  0.837306  0.433922  0.360157  1
  Rb  Rb34  1  0.566078  0.639843  0.837306  1
  Rb  Rb35  1  0.433922  0.639843  0.162694  1
  Rb  Rb36  1  0.639843  0.837306  0.566078  1
  Rb  Rb37  1  0.360157  0.162694  0.566078  1
  Rb  Rb38  1  0.662694  0.860157  0.066078  1
  Rb  Rb39  1  0.662694  0.139843  0.933922  1
  Rb  Rb40  1  0.337306  0.860157  0.933922  1
  Rb  Rb41  1  0.139843  0.933922  0.662694  1
  Rb  Rb42  1  0.933922  0.337306  0.860157  1
  Rb  Rb43  1  0.933922  0.662694  0.139843  1
  Rb  Rb44  1  0.860157  0.066078  0.662694  1
  Rb  Rb45  1  0.066078  0.662694  0.860157  1
  Rb  Rb46  1  0.860157  0.933922  0.337306  1
  Rb  Rb47  1  0.139843  0.066078  0.337306  1
  Rb  Rb48  1  0.837306  0.566078  0.639843  1
  Rb  Rb49  1  0.360157  0.837306  0.433922  1
  Rb  Rb50  1  0.639843  0.162694  0.433922  1
  Rb  Rb51  1  0.566078  0.360157  0.162694  1
  Rb  Rb52  1  0.433922  0.360157  0.837306  1
  Rb  Rb53  1  0.162694  0.433922  0.639843  1
  Rb  Rb54  1  0.162694  0.566078  0.360157  1
  Rb  Rb55  1  0.337306  0.139843  0.066078  1
  Rb  Rb56  1  0.833877  0.833877  0.833877  1
  Rb  Rb57  1  0.666123  0.333877  0.666123  1
  Rb  Rb58  1  0.333877  0.666123  0.666123  1
  Rb  Rb59  1  0.666123  0.666123  0.333877  1
  Rb  Rb60  1  0.833877  0.166123  0.166123  1
  Rb  Rb61  1  0.166123  0.166123  0.833877  1
  Rb  Rb62  1  0.166123  0.833877  0.166123  1
  Rb  Rb63  1  0.333877  0.333877  0.333877  1
