# generated using pymatgen
data_Na2SiF6
_symmetry_space_group_name_H-M   'P 1'
_cell_length_a   9.34512902
_cell_length_b   9.34512902
_cell_length_c   4.58200842
_cell_angle_alpha   90.00000000
_cell_angle_beta   90.00000000
_cell_angle_gamma   120.00000001
_symmetry_Int_Tables_number   1
_chemical_formula_structural   Na2SiF6
_chemical_formula_sum   'Na6 Si3 F18'
_cell_volume   346.54298969
_cell_formula_units_Z   3
loop_
 _symmetry_equiv_pos_site_id
 _symmetry_equiv_pos_as_xyz
  1  'x, y, z'
loop_
 _atom_site_type_symbol
 _atom_site_label
 _atom_site_symmetry_multiplicity
 _atom_site_fract_x
 _atom_site_fract_y
 _atom_site_fract_z
 _atom_site_occupancy
  F  F0  1  0.579182  0.420818  0.716114  1
  F  F1  1  0.579182  0.158363  0.716114  1
  F  F2  1  0.841637  0.420818  0.716114  1
  F  F3  1  0.158363  0.579182  0.283886  1
  F  F4  1  0.420818  0.841637  0.283886  1
  F  F5  1  0.420818  0.579182  0.283886  1
  F  F6  1  0.754133  0.245867  0.285668  1
  F  F7  1  0.754133  0.508266  0.285668  1
  F  F8  1  0.491734  0.245867  0.285668  1
  F  F9  1  0.088262  0.911738  0.209353  1
  F  F10  1  0.088262  0.176523  0.209353  1
  F  F11  1  0.823477  0.911738  0.209353  1
  F  F12  1  0.176523  0.088262  0.790647  1
  F  F13  1  0.911738  0.823477  0.790647  1
  F  F14  1  0.911738  0.088262  0.790647  1
  F  F15  1  0.245867  0.754133  0.714332  1
  F  F16  1  0.245867  0.491734  0.714332  1
  F  F17  1  0.508266  0.754133  0.714332  1
  Na  Na18  1  0.343179  0.343179  0.000000  1
  Na  Na19  1  0.000000  0.656821  0.000000  1
  Na  Na20  1  0.656821  0.000000  0.000000  1
  Na  Na21  1  0.656821  0.656821  0.000000  1
  Na  Na22  1  0.000000  0.343179  0.000000  1
  Na  Na23  1  0.343179  0.000000  0.000000  1
  Si  Si24  1  0.666667  0.333333  0.499941  1
  Si  Si25  1  0.333333  0.666667  0.500059  1
  Si  Si26  1  0.000000  0.000000  0.000000  1
