# generated using pymatgen
data_Te2MoWSeS
_symmetry_space_group_name_H-M   'P 1'
_cell_length_a   3.40415444
_cell_length_b   3.40414835
_cell_length_c   37.68940671
_cell_angle_alpha   89.99968618
_cell_angle_beta   90.00000000
_cell_angle_gamma   120.00005919
_symmetry_Int_Tables_number   1
_chemical_formula_structural   Te2MoWSeS
_chemical_formula_sum   'Te4 Mo2 W2 Se2 S2'
_cell_volume   378.23995791
_cell_formula_units_Z   2
loop_
 _symmetry_equiv_pos_site_id
 _symmetry_equiv_pos_as_xyz
  1  'x, y, z'
loop_
 _atom_site_type_symbol
 _atom_site_label
 _atom_site_symmetry_multiplicity
 _atom_site_fract_x
 _atom_site_fract_y
 _atom_site_fract_z
 _atom_site_occupancy
  Te  Te0  1  0.333335  0.666671  0.331786  1
  Te  Te1  1  0.333335  0.666671  0.707517  1
  Te  Te2  1  0.333336  0.666674  0.231877  1
  Te  Te3  1  0.333339  0.666678  0.607549  1
  Mo  Mo4  1  0.333364  0.666729  0.093867  1
  Mo  Mo5  1  0.333304  0.666608  0.469666  1
  W  W6  1  0.666669  0.333338  0.281828  1
  W  W7  1  0.666671  0.333341  0.657553  1
  Se  Se8  1  0.666698  0.333396  0.050238  1
  Se  Se9  1  0.666695  0.333390  0.137538  1
  S  S10  1  0.666629  0.333256  0.429786  1
  S  S11  1  0.666625  0.333249  0.509543  1
