# generated using pymatgen
data_UF5
_symmetry_space_group_name_H-M   'P 1'
_cell_length_a   6.00607635
_cell_length_b   8.79197607
_cell_length_c   8.79197606
_cell_angle_alpha   83.30020501
_cell_angle_beta   70.02770133
_cell_angle_gamma   70.02770134
_symmetry_Int_Tables_number   1
_chemical_formula_structural   UF5
_chemical_formula_sum   'U4 F20'
_cell_volume   410.09852610
_cell_formula_units_Z   4
loop_
 _symmetry_equiv_pos_site_id
 _symmetry_equiv_pos_as_xyz
  1  'x, y, z'
loop_
 _atom_site_type_symbol
 _atom_site_label
 _atom_site_symmetry_multiplicity
 _atom_site_fract_x
 _atom_site_fract_y
 _atom_site_fract_z
 _atom_site_occupancy
  F  F0  1  0.499838  0.612303  0.731560  1
  F  F1  1  0.843702  0.387697  0.268440  1
  F  F2  1  0.887859  0.268440  0.612303  1
  F  F3  1  0.768601  0.731560  0.387697  1
  F  F4  1  0.368736  0.006264  0.506264  1
  F  F5  1  0.125000  0.506264  0.993736  1
  F  F6  1  0.625000  0.493736  0.006264  1
  F  F7  1  0.881264  0.993736  0.493736  1
  F  F8  1  0.100242  0.944287  0.782990  1
  F  F9  1  0.116768  0.782990  0.055713  1
  F  F10  1  0.955471  0.217010  0.944287  1
  F  F11  1  0.827519  0.055713  0.217010  1
  F  F12  1  0.149758  0.717010  0.555713  1
  F  F13  1  0.422481  0.282990  0.444287  1
  F  F14  1  0.294529  0.555713  0.282990  1
  F  F15  1  0.133232  0.444287  0.717010  1
  F  F16  1  0.481399  0.112303  0.768440  1
  F  F17  1  0.750162  0.768440  0.887697  1
  F  F18  1  0.406298  0.231560  0.112303  1
  F  F19  1  0.362141  0.887697  0.231560  1
  U  U20  1  0.055582  0.819418  0.319418  1
  U  U21  1  0.625000  0.319418  0.180582  1
  U  U22  1  0.125000  0.680582  0.819418  1
  U  U23  1  0.194418  0.180582  0.680582  1
