# generated using pymatgen
data_Na2Eu2Ti3O10
_symmetry_space_group_name_H-M   'P 1'
_cell_length_a   3.86187966
_cell_length_b   3.86187966
_cell_length_c   14.56303739
_cell_angle_alpha   97.61939021
_cell_angle_beta   97.61939017
_cell_angle_gamma   90.00000002
_symmetry_Int_Tables_number   1
_chemical_formula_structural   Na2Eu2Ti3O10
_chemical_formula_sum   'Na2 Eu2 Ti3 O10'
_cell_volume   213.34222485
_cell_formula_units_Z   1
loop_
 _symmetry_equiv_pos_site_id
 _symmetry_equiv_pos_as_xyz
  1  'x, y, z'
loop_
 _atom_site_type_symbol
 _atom_site_label
 _atom_site_symmetry_multiplicity
 _atom_site_fract_x
 _atom_site_fract_y
 _atom_site_fract_z
 _atom_site_occupancy
  O  O0  1  0.867437  0.367437  0.734874  1
  O  O1  1  0.367437  0.867437  0.734874  1
  O  O2  1  0.132563  0.632563  0.265126  1
  O  O3  1  0.632563  0.132563  0.265126  1
  O  O4  1  0.791768  0.791768  0.583536  1
  O  O5  1  0.208232  0.208232  0.416464  1
  O  O6  1  0.932406  0.932406  0.864811  1
  O  O7  1  0.500000  0.000000  0.000000  1
  O  O8  1  0.000000  0.500000  0.000000  1
  O  O9  1  0.067594  0.067594  0.135189  1
  Na  Na10  1  0.288655  0.288655  0.577309  1
  Na  Na11  1  0.711345  0.711345  0.422691  1
  Ti  Ti12  1  0.146614  0.146614  0.293229  1
  Ti  Ti13  1  0.853386  0.853386  0.706771  1
  Ti  Ti14  1  0.000000  0.000000  0.000000  1
  Eu  Eu15  1  0.424463  0.424463  0.848925  1
  Eu  Eu16  1  0.575538  0.575538  0.151075  1
