# generated using pymatgen
data_MnCu2SiTe4
_symmetry_space_group_name_H-M   'P 1'
_cell_length_a   6.07841352
_cell_length_b   6.07841352
_cell_length_c   7.35219224
_cell_angle_alpha   114.41697527
_cell_angle_beta   114.41697527
_cell_angle_gamma   90.00000000
_symmetry_Int_Tables_number   1
_chemical_formula_structural   MnCu2SiTe4
_chemical_formula_sum   'Mn1 Cu2 Si1 Te4'
_cell_volume   220.38936257
_cell_formula_units_Z   1
loop_
 _symmetry_equiv_pos_site_id
 _symmetry_equiv_pos_as_xyz
  1  'x, y, z'
loop_
 _atom_site_type_symbol
 _atom_site_label
 _atom_site_symmetry_multiplicity
 _atom_site_fract_x
 _atom_site_fract_y
 _atom_site_fract_z
 _atom_site_occupancy
  Mn  Mn0  1  0.000000  -0.000000  0.000000  1
  Cu  Cu1  1  0.250000  0.750000  0.500000  1
  Cu  Cu2  1  0.750000  0.250000  0.500000  1
  Si  Si3  1  0.500000  0.500000  0.000000  1
  Te  Te4  1  0.391335  0.391335  0.260327  1
  Te  Te5  1  0.868992  0.868992  0.260327  1
  Te  Te6  1  0.131008  0.608665  0.739673  1
  Te  Te7  1  0.608665  0.131008  0.739673  1
