# generated using pymatgen
data_KTbGeS4
_symmetry_space_group_name_H-M   'P 1'
_cell_length_a   6.55904241
_cell_length_b   6.73267766
_cell_length_c   8.78293302
_cell_angle_alpha   90.00000000
_cell_angle_beta   107.29027802
_cell_angle_gamma   90.00000000
_symmetry_Int_Tables_number   1
_chemical_formula_structural   KTbGeS4
_chemical_formula_sum   'K2 Tb2 Ge2 S8'
_cell_volume   370.32698306
_cell_formula_units_Z   2
loop_
 _symmetry_equiv_pos_site_id
 _symmetry_equiv_pos_as_xyz
  1  'x, y, z'
loop_
 _atom_site_type_symbol
 _atom_site_label
 _atom_site_symmetry_multiplicity
 _atom_site_fract_x
 _atom_site_fract_y
 _atom_site_fract_z
 _atom_site_occupancy
  S  S0  1  0.974890  0.366894  0.282106  1
  S  S1  1  0.569908  0.101132  0.830832  1
  S  S2  1  0.434638  0.531037  0.572033  1
  S  S3  1  0.565362  0.031037  0.427967  1
  S  S4  1  0.430092  0.601132  0.169168  1
  S  S5  1  0.979810  0.373741  0.698353  1
  S  S6  1  0.025110  0.866894  0.717894  1
  S  S7  1  0.020190  0.873741  0.301647  1
  K  K8  1  0.269398  0.120134  0.065993  1
  K  K9  1  0.730602  0.620134  0.934006  1
  Ge  Ge10  1  0.774364  0.103048  0.672367  1
  Ge  Ge11  1  0.225636  0.603048  0.327633  1
  Tb  Tb12  1  0.772095  0.638284  0.449690  1
  Tb  Tb13  1  0.227905  0.138284  0.550310  1
