# generated using pymatgen
data_BaLaAlO4
_symmetry_space_group_name_H-M   'P 1'
_cell_length_a   5.88119585
_cell_length_b   7.34188167
_cell_length_c   9.92757971
_cell_angle_alpha   90.00000000
_cell_angle_beta   90.00000000
_cell_angle_gamma   90.00000000
_symmetry_Int_Tables_number   1
_chemical_formula_structural   BaLaAlO4
_chemical_formula_sum   'Ba4 La4 Al4 O16'
_cell_volume   428.66340120
_cell_formula_units_Z   4
loop_
 _symmetry_equiv_pos_site_id
 _symmetry_equiv_pos_as_xyz
  1  'x, y, z'
loop_
 _atom_site_type_symbol
 _atom_site_label
 _atom_site_symmetry_multiplicity
 _atom_site_fract_x
 _atom_site_fract_y
 _atom_site_fract_z
 _atom_site_occupancy
  O  O0  1  0.009091  0.740647  0.076790  1
  O  O1  1  0.509091  0.259353  0.423210  1
  O  O2  1  0.490909  0.240647  0.923210  1
  O  O3  1  0.990909  0.759353  0.576790  1
  O  O4  1  0.378421  0.995803  0.201996  1
  O  O5  1  0.878421  0.004197  0.298004  1
  O  O6  1  0.121579  0.495803  0.798004  1
  O  O7  1  0.621579  0.504197  0.701996  1
  O  O8  1  0.489986  0.683997  0.063426  1
  O  O9  1  0.989986  0.316003  0.436574  1
  O  O10  1  0.010014  0.183997  0.936574  1
  O  O11  1  0.510014  0.816003  0.563426  1
  O  O12  1  0.744094  0.837319  0.825303  1
  O  O13  1  0.244094  0.162681  0.674697  1
  O  O14  1  0.755906  0.337319  0.174697  1
  O  O15  1  0.255906  0.662681  0.325303  1
  Al  Al16  1  0.268849  0.776456  0.166250  1
  Al  Al17  1  0.768849  0.223544  0.333750  1
  Al  Al18  1  0.231151  0.276456  0.833750  1
  Al  Al19  1  0.731151  0.723544  0.666250  1
  Ba  Ba20  1  0.263451  0.332668  0.169475  1
  Ba  Ba21  1  0.736549  0.167332  0.669475  1
  Ba  Ba22  1  0.763451  0.667332  0.330525  1
  Ba  Ba23  1  0.236549  0.832668  0.830525  1
  La  La24  1  0.762886  0.503680  0.948117  1
  La  La25  1  0.737114  0.003680  0.051883  1
  La  La26  1  0.237114  0.996320  0.448117  1
  La  La27  1  0.262886  0.496320  0.551883  1
