# generated using pymatgen
data_Nd2Te5
_symmetry_space_group_name_H-M   'P 1'
_cell_length_a   4.43655263
_cell_length_b   4.44038791
_cell_length_c   23.04172168
_cell_angle_alpha   90.00000000
_cell_angle_beta   95.52454480
_cell_angle_gamma   90.00000000
_symmetry_Int_Tables_number   1
_chemical_formula_structural   Nd2Te5
_chemical_formula_sum   'Nd4 Te10'
_cell_volume   451.81380743
_cell_formula_units_Z   2
loop_
 _symmetry_equiv_pos_site_id
 _symmetry_equiv_pos_as_xyz
  1  'x, y, z'
loop_
 _atom_site_type_symbol
 _atom_site_label
 _atom_site_symmetry_multiplicity
 _atom_site_fract_x
 _atom_site_fract_y
 _atom_site_fract_z
 _atom_site_occupancy
  Te  Te0  1  0.377129  0.750000  0.754257  1
  Te  Te1  1  0.622871  0.250000  0.245743  1
  Te  Te2  1  0.174516  0.750000  0.349033  1
  Te  Te3  1  0.825484  0.250000  0.650967  1
  Te  Te4  1  0.046373  0.250000  0.092747  1
  Te  Te5  1  0.953627  0.750000  0.907253  1
  Te  Te6  1  0.453618  0.250000  0.907235  1
  Te  Te7  1  0.546382  0.750000  0.092765  1
  Te  Te8  1  0.250017  0.250000  0.500035  1
  Te  Te9  1  0.749983  0.750000  0.499965  1
  Nd  Nd10  1  0.305962  0.750000  0.611924  1
  Nd  Nd11  1  0.694038  0.250000  0.388076  1
  Nd  Nd12  1  0.101530  0.750000  0.203059  1
  Nd  Nd13  1  0.898470  0.250000  0.796941  1
