# generated using pymatgen
data_Li48P16S61
_symmetry_space_group_name_H-M   'P 1'
_cell_length_a   13.08833849
_cell_length_b   16.23034599
_cell_length_c   12.48874190
_cell_angle_alpha   90.00000000
_cell_angle_beta   90.15640850
_cell_angle_gamma   90.00000000
_symmetry_Int_Tables_number   1
_chemical_formula_structural   Li48P16S61
_chemical_formula_sum   'Li48 P16 S61'
_cell_volume   2652.95185208
_cell_formula_units_Z   1
loop_
 _symmetry_equiv_pos_site_id
 _symmetry_equiv_pos_as_xyz
  1  'x, y, z'
loop_
 _atom_site_type_symbol
 _atom_site_label
 _atom_site_symmetry_multiplicity
 _atom_site_fract_x
 _atom_site_fract_y
 _atom_site_fract_z
 _atom_site_occupancy
  Li  Li0  1  0.332415  0.017703  0.194508  1
  Li  Li1  1  0.331672  0.019565  0.692632  1
  Li  Li2  1  0.331838  0.517771  0.195289  1
  Li  Li3  1  0.334558  0.519002  0.692959  1
  Li  Li4  1  0.667201  0.483638  0.305500  1
  Li  Li5  1  0.670098  0.472755  0.792551  1
  Li  Li6  1  0.668346  0.984575  0.306197  1
  Li  Li7  1  0.670053  0.973380  0.792450  1
  Li  Li8  1  0.166894  0.484148  0.444545  1
  Li  Li9  1  0.168240  0.483791  0.943217  1
  Li  Li10  1  0.171643  0.972157  0.458789  1
  Li  Li11  1  0.168205  0.984550  0.943459  1
  Li  Li12  1  0.832503  0.017253  0.054627  1
  Li  Li13  1  0.831290  0.019546  0.557581  1
  Li  Li14  1  0.833450  0.516220  0.056745  1
  Li  Li15  1  0.830488  0.516042  0.554314  1
  Li  Li16  1  0.668346  0.265425  0.306197  1
  Li  Li17  1  0.670053  0.276620  0.792450  1
  Li  Li18  1  0.667201  0.766362  0.305500  1
  Li  Li19  1  0.670098  0.777245  0.792551  1
  Li  Li20  1  0.332415  0.232297  0.194508  1
  Li  Li21  1  0.331672  0.230435  0.692632  1
  Li  Li22  1  0.331838  0.732229  0.195289  1
  Li  Li23  1  0.334558  0.730998  0.692959  1
  Li  Li24  1  0.832503  0.232747  0.054627  1
  Li  Li25  1  0.831290  0.230454  0.557581  1
  Li  Li26  1  0.833450  0.733780  0.056745  1
  Li  Li27  1  0.830488  0.733958  0.554314  1
  Li  Li28  1  0.171643  0.277843  0.458789  1
  Li  Li29  1  0.168205  0.265450  0.943459  1
  Li  Li30  1  0.166894  0.765852  0.444545  1
  Li  Li31  1  0.168240  0.766209  0.943217  1
  Li  Li32  1  0.992943  0.986958  0.232763  1
  Li  Li33  1  -0.000124  0.001886  0.743611  1
  Li  Li34  1  0.001290  0.500453  0.251633  1
  Li  Li35  1  0.998625  0.499141  0.747874  1
  Li  Li36  1  0.492594  0.986440  0.018284  1
  Li  Li37  1  0.500316  0.002236  0.505423  1
  Li  Li38  1  0.492319  0.486559  0.018480  1
  Li  Li39  1  0.500760  0.501434  0.504503  1
  Li  Li40  1  0.992943  0.263042  0.232763  1
  Li  Li41  1  -0.000124  0.248114  0.743611  1
  Li  Li42  1  0.001290  0.749547  0.251633  1
  Li  Li43  1  0.998625  0.750859  0.747874  1
  Li  Li44  1  0.492594  0.263560  0.018284  1
  Li  Li45  1  0.500316  0.247764  0.505423  1
  Li  Li46  1  0.492319  0.763441  0.018480  1
  Li  Li47  1  0.500760  0.748566  0.504503  1
  P  P48  1  0.089510  0.125000  0.078200  1
  P  P49  1  0.088954  0.125000  0.562845  1
  P  P50  1  0.089633  0.625000  0.076034  1
  P  P51  1  0.089515  0.625000  0.576874  1
  P  P52  1  0.911151  0.373456  0.424157  1
  P  P53  1  0.909669  0.374263  0.923488  1
  P  P54  1  0.911151  0.876544  0.424157  1
  P  P55  1  0.909669  0.875737  0.923488  1
  P  P56  1  0.411235  0.374458  0.326535  1
  P  P57  1  0.410736  0.374991  0.824728  1
  P  P58  1  0.411235  0.875542  0.326535  1
  P  P59  1  0.410736  0.875009  0.824728  1
  P  P60  1  0.589665  0.125000  0.171269  1
  P  P61  1  0.589195  0.125000  0.687510  1
  P  P62  1  0.589643  0.625000  0.171343  1
  P  P63  1  0.589161  0.625000  0.687390  1
  S  S64  1  0.100203  0.125000  0.915448  1
  S  S65  1  0.100574  0.625000  0.413426  1
  S  S66  1  0.100106  0.625000  0.913261  1
  S  S67  1  0.898327  0.374393  0.087263  1
  S  S68  1  0.900436  0.374482  0.586590  1
  S  S69  1  0.898327  0.875607  0.087263  1
  S  S70  1  0.900436  0.875518  0.586590  1
  S  S71  1  0.398370  0.374717  0.161610  1
  S  S72  1  0.398849  0.375264  0.662626  1
  S  S73  1  0.398370  0.875283  0.161610  1
  S  S74  1  0.398849  0.874736  0.662626  1
  S  S75  1  0.600729  0.125000  0.333975  1
  S  S76  1  0.601262  0.625000  0.334122  1
  S  S77  1  0.940500  0.125000  0.138954  1
  S  S78  1  0.940510  0.125000  0.636967  1
  S  S79  1  0.940608  0.625000  0.136970  1
  S  S80  1  0.940087  0.625000  0.635856  1
  S  S81  1  0.060914  0.373731  0.363287  1
  S  S82  1  0.058178  0.374823  0.863649  1
  S  S83  1  0.060914  0.876269  0.363287  1
  S  S84  1  0.058178  0.875177  0.863649  1
  S  S85  1  0.559676  0.374295  0.386208  1
  S  S86  1  0.560822  0.375107  0.886515  1
  S  S87  1  0.559676  0.875705  0.386208  1
  S  S88  1  0.560822  0.874893  0.886515  1
  S  S89  1  0.440428  0.125000  0.110161  1
  S  S90  1  0.440563  0.125000  0.613124  1
  S  S91  1  0.440251  0.625000  0.110694  1
  S  S92  1  0.440730  0.625000  0.612029  1
  S  S93  1  0.153808  0.018353  0.137068  1
  S  S94  1  0.154818  0.019571  0.636130  1
  S  S95  1  0.153696  0.518184  0.134568  1
  S  S96  1  0.153749  0.518207  0.635165  1
  S  S97  1  0.847292  0.479718  0.363497  1
  S  S98  1  0.844584  0.481237  0.865688  1
  S  S99  1  0.849346  0.983741  0.364761  1
  S  S100  1  0.845214  0.982009  0.864089  1
  S  S101  1  0.346565  0.480916  0.383934  1
  S  S102  1  0.349126  0.482118  0.885116  1
  S  S103  1  0.346097  0.982151  0.383931  1
  S  S104  1  0.349354  0.981805  0.885522  1
  S  S105  1  0.653925  0.018404  0.112441  1
  S  S106  1  0.654652  0.019454  0.614634  1
  S  S107  1  0.653767  0.518452  0.112280  1
  S  S108  1  0.655064  0.519545  0.614819  1
  S  S109  1  0.849346  0.266259  0.364761  1
  S  S110  1  0.845214  0.267991  0.864089  1
  S  S111  1  0.847292  0.770282  0.363497  1
  S  S112  1  0.844584  0.768763  0.865688  1
  S  S113  1  0.153808  0.231647  0.137068  1
  S  S114  1  0.154818  0.230429  0.636130  1
  S  S115  1  0.153696  0.731816  0.134568  1
  S  S116  1  0.153749  0.731793  0.635165  1
  S  S117  1  0.653925  0.231596  0.112441  1
  S  S118  1  0.654652  0.230546  0.614634  1
  S  S119  1  0.653767  0.731548  0.112280  1
  S  S120  1  0.655064  0.730455  0.614819  1
  S  S121  1  0.346097  0.267849  0.383931  1
  S  S122  1  0.349354  0.268195  0.885522  1
  S  S123  1  0.346565  0.769084  0.383934  1
  S  S124  1  0.349126  0.767882  0.885116  1
