# generated using pymatgen
data_Mo3W(SeS3)2
_symmetry_space_group_name_H-M   'P 1'
_cell_length_a   3.22059355
_cell_length_b   3.22055771
_cell_length_c   36.36268400
_cell_angle_alpha   90.00005848
_cell_angle_beta   90.00000000
_cell_angle_gamma   120.00036825
_symmetry_Int_Tables_number   1
_chemical_formula_structural   Mo3W(SeS3)2
_chemical_formula_sum   'Mo3 W1 Se2 S6'
_cell_volume   326.62690549
_cell_formula_units_Z   1
loop_
 _symmetry_equiv_pos_site_id
 _symmetry_equiv_pos_as_xyz
  1  'x, y, z'
loop_
 _atom_site_type_symbol
 _atom_site_label
 _atom_site_symmetry_multiplicity
 _atom_site_fract_x
 _atom_site_fract_y
 _atom_site_fract_z
 _atom_site_occupancy
  Mo  Mo0  1  0.333310  0.666620  0.093915  1
  Mo  Mo1  1  0.666688  0.333376  0.281804  1
  Mo  Mo2  1  0.666690  0.333381  0.657537  1
  W  W3  1  0.333309  0.666617  0.469668  1
  Se  Se4  1  0.333352  0.666705  0.328826  1
  Se  Se5  1  0.333353  0.666706  0.234739  1
  S  S6  1  0.333356  0.666713  0.700343  1
  S  S7  1  0.666648  0.333294  0.051115  1
  S  S8  1  0.666646  0.333291  0.426737  1
  S  S9  1  0.666648  0.333295  0.136709  1
  S  S10  1  0.666646  0.333290  0.512612  1
  S  S11  1  0.333355  0.666712  0.614742  1
