# generated using pymatgen
data_Ba5Gd8Mn4O21
_symmetry_space_group_name_H-M   'P 1'
_cell_length_a   5.85037573
_cell_length_b   10.43108527
_cell_length_c   10.43108527
_cell_angle_alpha   85.48955046
_cell_angle_beta   73.71413776
_cell_angle_gamma   73.71413774
_symmetry_Int_Tables_number   1
_chemical_formula_structural   Ba5Gd8Mn4O21
_chemical_formula_sum   'Ba5 Gd8 Mn4 O21'
_cell_volume   586.50494004
_cell_formula_units_Z   1
loop_
 _symmetry_equiv_pos_site_id
 _symmetry_equiv_pos_as_xyz
  1  'x, y, z'
loop_
 _atom_site_type_symbol
 _atom_site_label
 _atom_site_symmetry_multiplicity
 _atom_site_fract_x
 _atom_site_fract_y
 _atom_site_fract_z
 _atom_site_occupancy
  O  O0  1  0.100473  0.891119  0.406413  1
  O  O1  1  0.506885  0.593587  0.891119  1
  O  O2  1  0.991592  0.406413  0.108881  1
  O  O3  1  0.398004  0.108881  0.593587  1
  O  O4  1  0.899527  0.108881  0.593587  1
  O  O5  1  0.493115  0.406413  0.108881  1
  O  O6  1  0.008408  0.593587  0.891119  1
  O  O7  1  0.601996  0.891119  0.406413  1
  O  O8  1  0.928225  0.869700  0.774239  1
  O  O9  1  0.702464  0.225761  0.869700  1
  O  O10  1  0.797925  0.774239  0.130300  1
  O  O11  1  0.572163  0.130300  0.225761  1
  O  O12  1  0.071775  0.130300  0.225761  1
  O  O13  1  0.297536  0.774239  0.130300  1
  O  O14  1  0.202075  0.225761  0.869700  1
  O  O15  1  0.427837  0.869700  0.774239  1
  O  O16  1  0.374709  0.660628  0.589953  1
  O  O17  1  0.500000  0.000000  0.000000  1
  O  O18  1  0.625291  0.339372  0.410047  1
  O  O19  1  0.035337  0.589953  0.339372  1
  O  O20  1  0.964663  0.410047  0.660628  1
  Mn  Mn21  1  0.959773  0.790709  0.289745  1
  Mn  Mn22  1  0.750482  0.289745  0.209291  1
  Mn  Mn23  1  0.040227  0.209291  0.710255  1
  Mn  Mn24  1  0.249518  0.710255  0.790709  1
  Ba  Ba25  1  0.137962  0.329287  0.394789  1
  Ba  Ba26  1  0.862038  0.670713  0.605211  1
  Ba  Ba27  1  0.532751  0.605211  0.329287  1
  Ba  Ba28  1  0.467249  0.394789  0.670713  1
  Ba  Ba29  1  0.000000  0.000000  0.000000  1
  Gd  Gd30  1  0.248055  0.921348  0.582542  1
  Gd  Gd31  1  0.830597  0.417458  0.921348  1
  Gd  Gd32  1  0.169403  0.582542  0.078652  1
  Gd  Gd33  1  0.751945  0.078652  0.417458  1
  Gd  Gd34  1  0.410445  0.947908  0.231202  1
  Gd  Gd35  1  0.641647  0.768798  0.947908  1
  Gd  Gd36  1  0.358353  0.231202  0.052092  1
  Gd  Gd37  1  0.589555  0.052092  0.768798  1
