# generated using pymatgen
data_Lu5(Co2Si7)2
_symmetry_space_group_name_H-M   'P 1'
_cell_length_a   7.68398835
_cell_length_b   7.75548459
_cell_length_c   12.23803954
_cell_angle_alpha   90.00000000
_cell_angle_beta   98.86842046
_cell_angle_gamma   90.00000000
_symmetry_Int_Tables_number   1
_chemical_formula_structural   Lu5(Co2Si7)2
_chemical_formula_sum   'Lu10 Co8 Si28'
_cell_volume   720.58332528
_cell_formula_units_Z   2
loop_
 _symmetry_equiv_pos_site_id
 _symmetry_equiv_pos_as_xyz
  1  'x, y, z'
loop_
 _atom_site_type_symbol
 _atom_site_label
 _atom_site_symmetry_multiplicity
 _atom_site_fract_x
 _atom_site_fract_y
 _atom_site_fract_z
 _atom_site_occupancy
  Si  Si0  1  0.181475  0.005936  0.820915  1
  Si  Si1  1  0.390147  0.999422  0.559661  1
  Si  Si2  1  0.109853  0.499422  0.440339  1
  Si  Si3  1  0.609853  0.000578  0.440339  1
  Si  Si4  1  0.666018  0.666523  0.999806  1
  Si  Si5  1  0.833982  0.166523  0.000194  1
  Si  Si6  1  0.333982  0.333477  0.000194  1
  Si  Si7  1  0.166018  0.833477  0.999806  1
  Si  Si8  1  0.949743  0.773418  0.821793  1
  Si  Si9  1  0.550257  0.273418  0.178207  1
  Si  Si10  1  0.050257  0.226582  0.178207  1
  Si  Si11  1  0.449743  0.726582  0.821793  1
  Si  Si12  1  0.961810  0.226501  0.821883  1
  Si  Si13  1  0.538190  0.726501  0.178117  1
  Si  Si14  1  0.038190  0.773499  0.178117  1
  Si  Si15  1  0.461810  0.273499  0.821883  1
  Si  Si16  1  0.730953  0.994264  0.821237  1
  Si  Si17  1  0.769047  0.494264  0.178763  1
  Si  Si18  1  0.269047  0.005736  0.178763  1
  Si  Si19  1  0.230953  0.505736  0.821237  1
  Si  Si20  1  0.681475  0.494064  0.820915  1
  Si  Si21  1  0.818525  0.994064  0.179085  1
  Si  Si22  1  0.318525  0.505936  0.179085  1
  Si  Si23  1  0.888923  0.999731  0.560739  1
  Si  Si24  1  0.388923  0.500269  0.560739  1
  Si  Si25  1  0.111077  0.000269  0.439261  1
  Si  Si26  1  0.611077  0.499731  0.439261  1
  Si  Si27  1  0.890147  0.500578  0.559661  1
  Co  Co28  1  0.872019  0.873487  0.000204  1
  Co  Co29  1  0.372019  0.626513  0.000204  1
  Co  Co30  1  0.627981  0.373487  0.999796  1
  Co  Co31  1  0.127981  0.126513  0.999796  1
  Co  Co32  1  0.438965  0.000280  0.750120  1
  Co  Co33  1  0.061035  0.500280  0.249880  1
  Co  Co34  1  0.561035  0.999720  0.249880  1
  Co  Co35  1  0.938965  0.499720  0.750120  1
  Lu  Lu36  1  0.657725  0.748346  0.634533  1
  Lu  Lu37  1  0.842275  0.248346  0.365467  1
  Lu  Lu38  1  0.157725  0.751654  0.634533  1
  Lu  Lu39  1  0.342275  0.251654  0.365467  1
  Lu  Lu40  1  0.840291  0.749159  0.365753  1
  Lu  Lu41  1  0.659709  0.249159  0.634247  1
  Lu  Lu42  1  0.159709  0.250841  0.634247  1
  Lu  Lu43  1  0.340291  0.750841  0.365753  1
  Lu  Lu44  1  0.500000  0.000000  0.000000  1
  Lu  Lu45  1  0.000000  0.500000  0.000000  1
