# generated using pymatgen
data_K3(FeO2)2
_symmetry_space_group_name_H-M   'P 1'
_cell_length_a   6.07585094
_cell_length_b   6.53552726
_cell_length_c   9.10392272
_cell_angle_alpha   81.07671553
_cell_angle_beta   70.50685247
_cell_angle_gamma   62.30061773
_symmetry_Int_Tables_number   1
_chemical_formula_structural   K3(FeO2)2
_chemical_formula_sum   'K6 Fe4 O8'
_cell_volume   301.73111249
_cell_formula_units_Z   2
loop_
 _symmetry_equiv_pos_site_id
 _symmetry_equiv_pos_as_xyz
  1  'x, y, z'
loop_
 _atom_site_type_symbol
 _atom_site_label
 _atom_site_symmetry_multiplicity
 _atom_site_fract_x
 _atom_site_fract_y
 _atom_site_fract_z
 _atom_site_occupancy
  O  O0  1  0.500000  0.000000  0.500000  1
  O  O1  1  0.943030  0.113941  0.750000  1
  O  O2  1  0.693030  0.613941  0.250000  1
  O  O3  1  0.056970  0.886059  0.250000  1
  O  O4  1  0.306970  0.386059  0.750000  1
  O  O5  1  0.000000  0.500000  0.500000  1
  O  O6  1  0.500000  0.500000  0.000000  1
  O  O7  1  0.500000  0.000000  0.000000  1
  K  K8  1  0.016178  0.750000  0.967644  1
  K  K9  1  0.375000  0.250000  0.250000  1
  K  K10  1  0.983822  0.250000  0.032356  1
  K  K11  1  0.766178  0.250000  0.467644  1
  K  K12  1  0.625000  0.750000  0.750000  1
  K  K13  1  0.233822  0.750000  0.532356  1
  Fe  Fe14  1  0.566924  0.250000  0.866153  1
  Fe  Fe15  1  0.816924  0.750000  0.366153  1
  Fe  Fe16  1  0.433076  0.750000  0.133847  1
  Fe  Fe17  1  0.183076  0.250000  0.633847  1
