# generated using pymatgen
data_Ca4PdO6
_symmetry_space_group_name_H-M   'P 1'
_cell_length_a   6.60583780
_cell_length_b   6.60583781
_cell_length_c   6.60583781
_cell_angle_alpha   90.72020324
_cell_angle_beta   90.72020323
_cell_angle_gamma   90.72020322
_symmetry_Int_Tables_number   1
_chemical_formula_structural   Ca4PdO6
_chemical_formula_sum   'Ca8 Pd2 O12'
_cell_volume   288.19066341
_cell_formula_units_Z   2
loop_
 _symmetry_equiv_pos_site_id
 _symmetry_equiv_pos_as_xyz
  1  'x, y, z'
loop_
 _atom_site_type_symbol
 _atom_site_label
 _atom_site_symmetry_multiplicity
 _atom_site_fract_x
 _atom_site_fract_y
 _atom_site_fract_z
 _atom_site_occupancy
  O  O0  1  0.797842  0.569567  0.446811  1
  O  O1  1  0.569567  0.446811  0.797842  1
  O  O2  1  0.446811  0.797842  0.569567  1
  O  O3  1  0.053189  0.930433  0.702158  1
  O  O4  1  0.930433  0.702158  0.053189  1
  O  O5  1  0.702158  0.053189  0.930433  1
  O  O6  1  0.202158  0.430433  0.553189  1
  O  O7  1  0.430433  0.553189  0.202158  1
  O  O8  1  0.553189  0.202158  0.430433  1
  O  O9  1  0.946811  0.069567  0.297842  1
  O  O10  1  0.297842  0.946811  0.069567  1
  O  O11  1  0.069567  0.297842  0.946811  1
  Ca  Ca12  1  0.250000  0.250000  0.250000  1
  Ca  Ca13  1  0.750000  0.750000  0.750000  1
  Ca  Ca14  1  0.115423  0.750000  0.384577  1
  Ca  Ca15  1  0.750000  0.384577  0.115423  1
  Ca  Ca16  1  0.384577  0.115423  0.750000  1
  Ca  Ca17  1  0.884577  0.250000  0.615423  1
  Ca  Ca18  1  0.250000  0.615423  0.884577  1
  Ca  Ca19  1  0.615423  0.884577  0.250000  1
  Pd  Pd20  1  0.000000  0.000000  0.000000  1
  Pd  Pd21  1  0.500000  0.500000  0.500000  1
