# generated using pymatgen
data_K2VCuS4
_symmetry_space_group_name_H-M   'P 1'
_cell_length_a   5.42875424
_cell_length_b   7.09938182
_cell_length_c   11.81425607
_cell_angle_alpha   84.96039815
_cell_angle_beta   76.71738823
_cell_angle_gamma   67.52130137
_symmetry_Int_Tables_number   1
_chemical_formula_structural   K2VCuS4
_chemical_formula_sum   'K4 V2 Cu2 S8'
_cell_volume   409.48037608
_cell_formula_units_Z   2
loop_
 _symmetry_equiv_pos_site_id
 _symmetry_equiv_pos_as_xyz
  1  'x, y, z'
loop_
 _atom_site_type_symbol
 _atom_site_label
 _atom_site_symmetry_multiplicity
 _atom_site_fract_x
 _atom_site_fract_y
 _atom_site_fract_z
 _atom_site_occupancy
  S  S0  1  0.101764  0.443769  0.141149  1
  S  S1  1  0.898236  0.556231  0.858851  1
  S  S2  1  0.242912  0.943769  0.858851  1
  S  S3  1  0.545532  0.556231  0.641149  1
  S  S4  1  0.186681  0.056231  0.358851  1
  S  S5  1  0.454468  0.443769  0.358851  1
  S  S6  1  0.757088  0.056231  0.141149  1
  S  S7  1  0.813319  0.943769  0.641149  1
  K  K8  1  0.446192  0.750000  0.107617  1
  K  K9  1  0.196192  0.250000  0.607617  1
  K  K10  1  0.803808  0.750000  0.392383  1
  K  K11  1  0.553808  0.250000  0.892383  1
  V  V12  1  0.375000  0.250000  0.250000  1
  V  V13  1  0.625000  0.750000  0.750000  1
  Cu  Cu14  1  0.125000  0.750000  0.750000  1
  Cu  Cu15  1  0.875000  0.250000  0.250000  1
