# generated using pymatgen
data_Li2Ca2Ta3O10
_symmetry_space_group_name_H-M   'P 1'
_cell_length_a   3.98722241
_cell_length_b   3.98722241
_cell_length_c   13.56230424
_cell_angle_alpha   98.45290897
_cell_angle_beta   98.45290897
_cell_angle_gamma   90.00000008
_symmetry_Int_Tables_number   1
_chemical_formula_structural   Li2Ca2Ta3O10
_chemical_formula_sum   'Li2 Ca2 Ta3 O10'
_cell_volume   210.90232680
_cell_formula_units_Z   1
loop_
 _symmetry_equiv_pos_site_id
 _symmetry_equiv_pos_as_xyz
  1  'x, y, z'
loop_
 _atom_site_type_symbol
 _atom_site_label
 _atom_site_symmetry_multiplicity
 _atom_site_fract_x
 _atom_site_fract_y
 _atom_site_fract_z
 _atom_site_occupancy
  Li  Li0  1  0.750000  0.250000  0.500000  1
  Li  Li1  1  0.250000  0.750000  0.500000  1
  O  O2  1  0.855523  0.355523  0.711046  1
  O  O3  1  0.773945  0.773945  0.547891  1
  O  O4  1  0.226055  0.226055  0.452109  1
  O  O5  1  0.000000  0.500000  0.000000  1
  O  O6  1  0.355523  0.855523  0.711046  1
  O  O7  1  0.500000  0.000000  0.000000  1
  O  O8  1  0.925175  0.925175  0.850349  1
  O  O9  1  0.074825  0.074825  0.149651  1
  O  O10  1  0.644477  0.144477  0.288954  1
  O  O11  1  0.144477  0.644477  0.288954  1
  Ca  Ca12  1  0.415070  0.415070  0.830140  1
  Ca  Ca13  1  0.584930  0.584930  0.169860  1
  Ta  Ta14  1  0.845500  0.845500  0.691000  1
  Ta  Ta15  1  0.000000  0.000000  0.000000  1
  Ta  Ta16  1  0.154500  0.154500  0.309000  1
