# generated using pymatgen
data_Na4FeO3
_symmetry_space_group_name_H-M   'P 1'
_cell_length_a   5.87528908
_cell_length_b   6.28547912
_cell_length_c   8.24494791
_cell_angle_alpha   110.48174906
_cell_angle_beta   90.00000000
_cell_angle_gamma   117.86371420
_symmetry_Int_Tables_number   1
_chemical_formula_structural   Na4FeO3
_chemical_formula_sum   'Na8 Fe2 O6'
_cell_volume   247.19560136
_cell_formula_units_Z   2
loop_
 _symmetry_equiv_pos_site_id
 _symmetry_equiv_pos_as_xyz
  1  'x, y, z'
loop_
 _atom_site_type_symbol
 _atom_site_label
 _atom_site_symmetry_multiplicity
 _atom_site_fract_x
 _atom_site_fract_y
 _atom_site_fract_z
 _atom_site_occupancy
  O  O0  1  0.887969  0.875501  0.795951  1
  O  O1  1  0.312788  0.629928  0.606873  1
  O  O2  1  0.317140  0.629929  0.106874  1
  O  O3  1  0.987532  0.875501  0.295950  1
  O  O4  1  0.637625  0.296603  0.342106  1
  O  O5  1  0.658977  0.296602  0.842107  1
  Na  Na6  1  0.276545  0.225787  0.946366  1
  Na  Na7  1  0.727702  0.769913  0.033623  1
  Na  Na8  1  0.949242  0.225786  0.446366  1
  Na  Na9  1  0.095329  0.610037  0.847472  1
  Na  Na10  1  0.514708  0.610037  0.347472  1
  Na  Na11  1  0.868881  0.419058  0.131808  1
  Na  Na12  1  0.042210  0.769912  0.533623  1
  Na  Na13  1  0.550178  0.419059  0.631808  1
  Fe  Fe14  1  0.625343  0.956772  0.746899  1
  Fe  Fe15  1  0.331429  0.956772  0.246901  1
