# generated using pymatgen
data_YbTlS2
_symmetry_space_group_name_H-M   'P 1'
_cell_length_a   7.16972852
_cell_length_b   7.16972853
_cell_length_c   7.16972852
_cell_angle_alpha   33.18334117
_cell_angle_beta   33.18334115
_cell_angle_gamma   33.18334118
_symmetry_Int_Tables_number   1
_chemical_formula_structural   YbTlS2
_chemical_formula_sum   'Yb1 Tl1 S2'
_cell_volume   98.28060839
_cell_formula_units_Z   1
loop_
 _symmetry_equiv_pos_site_id
 _symmetry_equiv_pos_as_xyz
  1  'x, y, z'
loop_
 _atom_site_type_symbol
 _atom_site_label
 _atom_site_symmetry_multiplicity
 _atom_site_fract_x
 _atom_site_fract_y
 _atom_site_fract_z
 _atom_site_occupancy
  S  S0  1  0.742516  0.742516  0.742516  1
  S  S1  1  0.257484  0.257484  0.257484  1
  Yb  Yb2  1  0.000000  0.000000  0.000000  1
  Tl  Tl3  1  0.500000  0.500000  0.500000  1
