# generated using pymatgen
data_SrTi4(PO4)6
_symmetry_space_group_name_H-M   'P 1'
_cell_length_a   9.03371400
_cell_length_b   9.03371400
_cell_length_c   9.03371401
_cell_angle_alpha   55.98420779
_cell_angle_beta   55.98420781
_cell_angle_gamma   55.98420783
_symmetry_Int_Tables_number   1
_chemical_formula_structural   SrTi4(PO4)6
_chemical_formula_sum   'Sr1 Ti4 P6 O24'
_cell_volume   472.79381812
_cell_formula_units_Z   1
loop_
 _symmetry_equiv_pos_site_id
 _symmetry_equiv_pos_as_xyz
  1  'x, y, z'
loop_
 _atom_site_type_symbol
 _atom_site_label
 _atom_site_symmetry_multiplicity
 _atom_site_fract_x
 _atom_site_fract_y
 _atom_site_fract_z
 _atom_site_occupancy
  O  O0  1  0.553831  0.463425  0.188935  1
  O  O1  1  0.463425  0.188935  0.553831  1
  O  O2  1  0.188935  0.553831  0.463425  1
  O  O3  1  0.446169  0.536575  0.811065  1
  O  O4  1  0.536575  0.811065  0.446169  1
  O  O5  1  0.811065  0.446169  0.536575  1
  O  O6  1  0.906080  0.091708  0.729989  1
  O  O7  1  0.091708  0.729989  0.906080  1
  O  O8  1  0.729989  0.906080  0.091708  1
  O  O9  1  0.093920  0.908292  0.270011  1
  O  O10  1  0.908292  0.270011  0.093920  1
  O  O11  1  0.373209  0.999628  0.210832  1
  O  O12  1  0.210832  0.373209  0.999628  1
  O  O13  1  0.999628  0.210832  0.373209  1
  O  O14  1  0.626791  0.000372  0.789168  1
  O  O15  1  0.789168  0.626791  0.000372  1
  O  O16  1  0.000372  0.789168  0.626791  1
  O  O17  1  0.763393  0.481704  0.844086  1
  O  O18  1  0.844086  0.763393  0.481704  1
  O  O19  1  0.481704  0.844086  0.763393  1
  O  O20  1  0.236607  0.518296  0.155914  1
  O  O21  1  0.155914  0.236607  0.518296  1
  O  O22  1  0.518296  0.155914  0.236607  1
  O  O23  1  0.270011  0.093920  0.908292  1
  P  P24  1  0.030531  0.751446  0.462712  1
  P  P25  1  0.751446  0.462712  0.030531  1
  P  P26  1  0.462712  0.030531  0.751446  1
  P  P27  1  0.969469  0.248554  0.537288  1
  P  P28  1  0.248554  0.537288  0.969469  1
  P  P29  1  0.537288  0.969469  0.248554  1
  Ti  Ti30  1  0.356079  0.356079  0.356079  1
  Ti  Ti31  1  0.643921  0.643921  0.643921  1
  Ti  Ti32  1  0.850278  0.850278  0.850278  1
  Ti  Ti33  1  0.149722  0.149722  0.149722  1
  Sr  Sr34  1  0.000000  0.000000  0.000000  1
