# generated using pymatgen
data_AlCo2Si
_symmetry_space_group_name_H-M   'P 1'
_cell_length_a   9.59463471
_cell_length_b   5.42108989
_cell_length_c   5.42108974
_cell_angle_alpha   27.48652944
_cell_angle_beta   27.75635928
_cell_angle_gamma   27.75636330
_symmetry_Int_Tables_number   1
_chemical_formula_structural   AlCo2Si
_chemical_formula_sum   'Al1 Co2 Si1'
_cell_volume   53.66530649
_cell_formula_units_Z   1
loop_
 _symmetry_equiv_pos_site_id
 _symmetry_equiv_pos_as_xyz
  1  'x, y, z'
loop_
 _atom_site_type_symbol
 _atom_site_label
 _atom_site_symmetry_multiplicity
 _atom_site_fract_x
 _atom_site_fract_y
 _atom_site_fract_z
 _atom_site_occupancy
  Al  Al0  1  -0.000000  -0.000000  0.000000  1
  Co  Co1  1  0.270715  0.000000  0.000000  1
  Co  Co2  1  0.729285  1.000000  1.000000  1
  Si  Si3  1  0.500000  -0.000000  0.000000  1
