# generated using pymatgen
data_TlGaSe2
_symmetry_space_group_name_H-M   'P 1'
_cell_length_a   7.79138476
_cell_length_b   7.79138476
_cell_length_c   16.05960237
_cell_angle_alpha   83.28614058
_cell_angle_beta   83.28614058
_cell_angle_gamma   89.80881999
_symmetry_Int_Tables_number   1
_chemical_formula_structural   TlGaSe2
_chemical_formula_sum   'Tl8 Ga8 Se16'
_cell_volume   961.53104468
_cell_formula_units_Z   8
loop_
 _symmetry_equiv_pos_site_id
 _symmetry_equiv_pos_as_xyz
  1  'x, y, z'
loop_
 _atom_site_type_symbol
 _atom_site_label
 _atom_site_symmetry_multiplicity
 _atom_site_fract_x
 _atom_site_fract_y
 _atom_site_fract_z
 _atom_site_occupancy
  Ga  Ga0  1  0.913429  0.288369  0.335097  1
  Ga  Ga1  1  0.708749  0.580750  0.163972  1
  Ga  Ga2  1  0.419250  0.291251  0.336028  1
  Ga  Ga3  1  0.291251  0.419250  0.836028  1
  Ga  Ga4  1  0.580750  0.708749  0.663972  1
  Ga  Ga5  1  0.711631  0.086571  0.164903  1
  Ga  Ga6  1  0.086571  0.711631  0.664903  1
  Ga  Ga7  1  0.288369  0.913429  0.835097  1
  Se  Se8  1  0.570395  0.947554  0.749749  1
  Se  Se9  1  0.052446  0.429605  0.750251  1
  Se  Se10  1  0.429605  0.052446  0.250251  1
  Se  Se11  1  0.750567  0.355672  0.069361  1
  Se  Se12  1  0.947554  0.570395  0.249749  1
  Se  Se13  1  0.355672  0.750567  0.569361  1
  Se  Se14  1  0.249433  0.644328  0.930639  1
  Se  Se15  1  0.644328  0.249433  0.430639  1
  Se  Se16  1  0.046640  0.953360  0.750000  1
  Se  Se17  1  0.953360  0.046640  0.250000  1
  Se  Se18  1  0.570240  0.429760  0.750000  1
  Se  Se19  1  0.429760  0.570240  0.250000  1
  Se  Se20  1  0.285220  0.143401  0.928277  1
  Se  Se21  1  0.856599  0.714780  0.571723  1
  Se  Se22  1  0.714780  0.856599  0.071723  1
  Se  Se23  1  0.143401  0.285220  0.428277  1
  Tl  Tl24  1  0.172855  0.342670  0.116871  1
  Tl  Tl25  1  0.657330  0.827145  0.383129  1
  Tl  Tl26  1  0.827145  0.657330  0.883129  1
  Tl  Tl27  1  0.342670  0.172855  0.616871  1
  Tl  Tl28  1  0.155150  0.716937  0.396700  1
  Tl  Tl29  1  0.283063  0.844850  0.103300  1
  Tl  Tl30  1  0.844850  0.283063  0.603300  1
  Tl  Tl31  1  0.716937  0.155150  0.896700  1
