# generated using pymatgen
data_KEu(PO3)4
_symmetry_space_group_name_H-M   'P 1'
_cell_length_a   10.66606629
_cell_length_b   9.17223203
_cell_length_c   11.02345348
_cell_angle_alpha   90.00000000
_cell_angle_beta   106.43581857
_cell_angle_gamma   90.00000000
_symmetry_Int_Tables_number   1
_chemical_formula_structural   KEu(PO3)4
_chemical_formula_sum   'K4 Eu4 P16 O48'
_cell_volume   1034.37438360
_cell_formula_units_Z   4
loop_
 _symmetry_equiv_pos_site_id
 _symmetry_equiv_pos_as_xyz
  1  'x, y, z'
loop_
 _atom_site_type_symbol
 _atom_site_label
 _atom_site_symmetry_multiplicity
 _atom_site_fract_x
 _atom_site_fract_y
 _atom_site_fract_z
 _atom_site_occupancy
  Eu  Eu0  1  0.998961  0.273559  0.313732  1
  Eu  Eu1  1  0.498961  0.226441  0.813732  1
  Eu  Eu2  1  0.001039  0.726441  0.686268  1
  Eu  Eu3  1  0.501039  0.773559  0.186268  1
  K  K4  1  0.714852  0.069308  0.458451  1
  K  K5  1  0.214852  0.430692  0.958451  1
  K  K6  1  0.285148  0.930692  0.541549  1
  K  K7  1  0.785148  0.569308  0.041549  1
  P  P8  1  0.644689  0.404777  0.259990  1
  P  P9  1  0.144689  0.095223  0.759990  1
  P  P10  1  0.355311  0.595223  0.740010  1
  P  P11  1  0.855311  0.904777  0.240010  1
  P  P12  1  0.960482  0.328877  0.643627  1
  P  P13  1  0.460482  0.171123  0.143627  1
  P  P14  1  0.039518  0.671123  0.356373  1
  P  P15  1  0.539518  0.828877  0.856373  1
  P  P16  1  0.247170  0.526120  0.268929  1
  P  P17  1  0.747170  0.973880  0.768929  1
  P  P18  1  0.752830  0.473880  0.731071  1
  P  P19  1  0.252830  0.026120  0.231071  1
  P  P20  1  0.320731  0.398255  0.518903  1
  P  P21  1  0.820731  0.101745  0.018903  1
  P  P22  1  0.679269  0.601745  0.481097  1
  P  P23  1  0.179269  0.898255  0.981097  1
  O  O24  1  0.352801  0.458412  0.393189  1
  O  O25  1  0.852801  0.041588  0.893189  1
  O  O26  1  0.647199  0.541588  0.606811  1
  O  O27  1  0.147199  0.958412  0.106811  1
  O  O28  1  0.145363  0.414882  0.207147  1
  O  O29  1  0.645363  0.085118  0.707147  1
  O  O30  1  0.854637  0.585118  0.792853  1
  O  O31  1  0.354637  0.914882  0.292853  1
  O  O32  1  0.525259  0.291963  0.251187  1
  O  O33  1  0.025259  0.208037  0.751187  1
  O  O34  1  0.474741  0.708037  0.748813  1
  O  O35  1  0.974741  0.791963  0.248813  1
  O  O36  1  0.901016  0.034255  0.324535  1
  O  O37  1  0.401016  0.465745  0.824535  1
  O  O38  1  0.098984  0.965745  0.675465  1
  O  O39  1  0.598984  0.534255  0.175465  1
  O  O40  1  0.935338  0.262757  0.514770  1
  O  O41  1  0.435338  0.237243  0.014770  1
  O  O42  1  0.064662  0.737243  0.485230  1
  O  O43  1  0.564662  0.762757  0.985230  1
  O  O44  1  0.324660  0.592232  0.188584  1
  O  O45  1  0.824660  0.907768  0.688584  1
  O  O46  1  0.675340  0.407768  0.811416  1
  O  O47  1  0.175340  0.092232  0.311416  1
  O  O48  1  0.760431  0.321692  0.245432  1
  O  O49  1  0.260431  0.178308  0.745432  1
  O  O50  1  0.239569  0.678308  0.754568  1
  O  O51  1  0.739569  0.821692  0.254568  1
  O  O52  1  0.926088  0.204546  0.089045  1
  O  O53  1  0.426088  0.295454  0.589045  1
  O  O54  1  0.073912  0.795454  0.910955  1
  O  O55  1  0.573912  0.704546  0.410955  1
  O  O56  1  0.182162  0.344366  0.483494  1
  O  O57  1  0.682162  0.155634  0.983494  1
  O  O58  1  0.817838  0.655634  0.516506  1
  O  O59  1  0.317838  0.844366  0.016506  1
  O  O60  1  0.961931  0.533229  0.320041  1
  O  O61  1  0.461931  0.966771  0.820041  1
  O  O62  1  0.038069  0.466771  0.679959  1
  O  O63  1  0.538069  0.033229  0.179959  1
  O  O64  1  0.180951  0.656558  0.329400  1
  O  O65  1  0.680951  0.843442  0.829400  1
  O  O66  1  0.819049  0.343442  0.670600  1
  O  O67  1  0.319049  0.156558  0.170600  1
  O  O68  1  0.669073  0.448275  0.406313  1
  O  O69  1  0.169073  0.051725  0.906313  1
  O  O70  1  0.330927  0.551725  0.593687  1
  O  O71  1  0.830927  0.948275  0.093687  1
