# generated using pymatgen
data_Te2MoWSe2
_symmetry_space_group_name_H-M   'P 1'
_cell_length_a   3.44303895
_cell_length_b   3.44303062
_cell_length_c   39.11541779
_cell_angle_alpha   90.00006990
_cell_angle_beta   90.00000000
_cell_angle_gamma   120.00007995
_symmetry_Int_Tables_number   1
_chemical_formula_structural   Te2MoWSe2
_chemical_formula_sum   'Te4 Mo2 W2 Se4'
_cell_volume   401.56982912
_cell_formula_units_Z   2
loop_
 _symmetry_equiv_pos_site_id
 _symmetry_equiv_pos_as_xyz
  1  'x, y, z'
loop_
 _atom_site_type_symbol
 _atom_site_label
 _atom_site_symmetry_multiplicity
 _atom_site_fract_x
 _atom_site_fract_y
 _atom_site_fract_z
 _atom_site_occupancy
  Te  Te0  1  0.333358  0.666718  0.329441  1
  Te  Te1  1  0.333357  0.666714  0.705170  1
  Te  Te2  1  0.333356  0.666714  0.234142  1
  Te  Te3  1  0.333353  0.666706  0.609880  1
  Mo  Mo4  1  0.333310  0.666619  0.093913  1
  Mo  Mo5  1  0.333312  0.666624  0.469679  1
  W  W6  1  0.666690  0.333381  0.281807  1
  W  W7  1  0.666689  0.333379  0.657539  1
  Se  Se8  1  0.666644  0.333287  0.052143  1
  Se  Se9  1  0.666642  0.333282  0.427858  1
  Se  Se10  1  0.666641  0.333281  0.135710  1
  Se  Se11  1  0.666647  0.333294  0.511465  1
