# generated using pymatgen
data_ThRu
_symmetry_space_group_name_H-M   'P 1'
_cell_length_a   3.88832795
_cell_length_b   4.00964466
_cell_length_c   6.11766344
_cell_angle_alpha   90.00000000
_cell_angle_beta   108.52963920
_cell_angle_gamma   90.00000000
_symmetry_Int_Tables_number   1
_chemical_formula_structural   ThRu
_chemical_formula_sum   'Th2 Ru2'
_cell_volume   90.43482494
_cell_formula_units_Z   2
loop_
 _symmetry_equiv_pos_site_id
 _symmetry_equiv_pos_as_xyz
  1  'x, y, z'
loop_
 _atom_site_type_symbol
 _atom_site_label
 _atom_site_symmetry_multiplicity
 _atom_site_fract_x
 _atom_site_fract_y
 _atom_site_fract_z
 _atom_site_occupancy
  Ru  Ru0  1  0.406613  0.750000  0.813226  1
  Ru  Ru1  1  0.593387  0.250000  0.186774  1
  Th  Th2  1  0.137291  0.750000  0.274582  1
  Th  Th3  1  0.862709  0.250000  0.725418  1
