# generated using pymatgen
data_Co3O4
_symmetry_space_group_name_H-M   'P 1'
_cell_length_a   5.75448237
_cell_length_b   5.75448238
_cell_length_c   5.75491078
_cell_angle_alpha   89.99999996
_cell_angle_beta   60.00246394
_cell_angle_gamma   119.99999702
_symmetry_Int_Tables_number   1
_chemical_formula_structural   Co3O4
_chemical_formula_sum   'Co6 O8'
_cell_volume   134.75730533
_cell_formula_units_Z   2
loop_
 _symmetry_equiv_pos_site_id
 _symmetry_equiv_pos_as_xyz
  1  'x, y, z'
loop_
 _atom_site_type_symbol
 _atom_site_label
 _atom_site_symmetry_multiplicity
 _atom_site_fract_x
 _atom_site_fract_y
 _atom_site_fract_z
 _atom_site_occupancy
  Co  Co0  1  0.500000  0.500000  0.000000  1
  Co  Co1  1  0.500000  0.000000  0.000000  1
  Co  Co2  1  0.000000  0.000000  0.000000  1
  Co  Co3  1  0.000000  0.000000  0.500000  1
  Co  Co4  1  0.749906  0.374953  0.375142  1
  Co  Co5  1  0.250094  0.625047  0.624858  1
  O  O6  1  0.972843  0.763588  0.763569  1
  O  O7  1  0.027157  0.790745  0.236431  1
  O  O8  1  0.527177  0.763588  0.763569  1
  O  O9  1  0.472823  0.236412  0.236431  1
  O  O10  1  0.527234  0.763617  0.209149  1
  O  O11  1  0.027157  0.236412  0.236431  1
  O  O12  1  0.472766  0.236383  0.790851  1
  O  O13  1  0.972843  0.209255  0.763569  1
