# generated using pymatgen
data_La2Ge5Rh3
_symmetry_space_group_name_H-M   'P 1'
_cell_length_a   6.11115670
_cell_length_b   8.56296892
_cell_length_c   8.56296893
_cell_angle_alpha   73.66133490
_cell_angle_beta   69.09396950
_cell_angle_gamma   69.09396953
_symmetry_Int_Tables_number   1
_chemical_formula_structural   La2Ge5Rh3
_chemical_formula_sum   'La4 Ge10 Rh6'
_cell_volume   384.90438023
_cell_formula_units_Z   2
loop_
 _symmetry_equiv_pos_site_id
 _symmetry_equiv_pos_as_xyz
  1  'x, y, z'
loop_
 _atom_site_type_symbol
 _atom_site_label
 _atom_site_symmetry_multiplicity
 _atom_site_fract_x
 _atom_site_fract_y
 _atom_site_fract_z
 _atom_site_occupancy
  Ge  Ge0  1  0.250000  0.000000  0.000000  1
  Ge  Ge1  1  0.750000  0.000000  0.000000  1
  Ge  Ge2  1  0.974911  0.275089  0.275089  1
  Ge  Ge3  1  0.525089  0.724911  0.724911  1
  Ge  Ge4  1  0.025089  0.724911  0.724911  1
  Ge  Ge5  1  0.474911  0.275089  0.275089  1
  Ge  Ge6  1  0.399600  0.443120  0.757680  1
  Ge  Ge7  1  0.899600  0.757680  0.443120  1
  Ge  Ge8  1  0.100400  0.242320  0.556880  1
  Ge  Ge9  1  0.600400  0.556880  0.242320  1
  Rh  Rh10  1  0.860127  0.031668  0.248079  1
  Rh  Rh11  1  0.750000  0.500000  0.500000  1
  Rh  Rh12  1  0.360127  0.248079  0.031668  1
  Rh  Rh13  1  0.639873  0.751921  0.968332  1
  Rh  Rh14  1  0.139873  0.968332  0.751921  1
  Rh  Rh15  1  0.250000  0.500000  0.500000  1
  La  La16  1  0.132614  0.635369  0.099403  1
  La  La17  1  0.867386  0.364631  0.900597  1
  La  La18  1  0.367386  0.900597  0.364631  1
  La  La19  1  0.632614  0.099403  0.635369  1
