# generated using pymatgen
data_Te2Mo3W(Se2S)2
_symmetry_space_group_name_H-M   'P 1'
_cell_length_a   3.34407563
_cell_length_b   3.34411152
_cell_length_c   38.08102325
_cell_angle_alpha   90.00051127
_cell_angle_beta   90.00000000
_cell_angle_gamma   119.99964490
_symmetry_Int_Tables_number   1
_chemical_formula_structural   Te2Mo3W(Se2S)2
_chemical_formula_sum   'Te2 Mo3 W1 Se4 S2'
_cell_volume   368.80571116
_cell_formula_units_Z   1
loop_
 _symmetry_equiv_pos_site_id
 _symmetry_equiv_pos_as_xyz
  1  'x, y, z'
loop_
 _atom_site_type_symbol
 _atom_site_label
 _atom_site_symmetry_multiplicity
 _atom_site_fract_x
 _atom_site_fract_y
 _atom_site_fract_z
 _atom_site_occupancy
  Te  Te0  1  0.333384  0.666769  0.707372  1
  Te  Te1  1  0.333352  0.666705  0.607775  1
  Mo  Mo2  1  0.333289  0.666577  0.093919  1
  Mo  Mo3  1  0.666685  0.333370  0.281790  1
  Mo  Mo4  1  0.666689  0.333378  0.657594  1
  W  W5  1  0.333311  0.666622  0.469635  1
  Se  Se6  1  0.333354  0.666709  0.325588  1
  Se  Se7  1  0.666646  0.333291  0.425608  1
  Se  Se8  1  0.666651  0.333302  0.513668  1
  Se  Se9  1  0.333345  0.666691  0.237963  1
  S  S10  1  0.666640  0.333278  0.054090  1
  S  S11  1  0.666655  0.333308  0.133746  1
