# generated using pymatgen
data_Te4MoW3(SeS)2
_symmetry_space_group_name_H-M   'P 1'
_cell_length_a   3.39799316
_cell_length_b   3.39798508
_cell_length_c   38.74466811
_cell_angle_alpha   90.00009580
_cell_angle_beta   90.00000000
_cell_angle_gamma   120.00007865
_symmetry_Int_Tables_number   1
_chemical_formula_structural   Te4MoW3(SeS)2
_chemical_formula_sum   'Te4 Mo1 W3 Se2 S2'
_cell_volume   387.42371448
_cell_formula_units_Z   1
loop_
 _symmetry_equiv_pos_site_id
 _symmetry_equiv_pos_as_xyz
  1  'x, y, z'
loop_
 _atom_site_type_symbol
 _atom_site_label
 _atom_site_symmetry_multiplicity
 _atom_site_fract_x
 _atom_site_fract_y
 _atom_site_fract_z
 _atom_site_occupancy
  Te  Te0  1  0.333354  0.666709  0.706120  1
  Te  Te1  1  0.666647  0.333294  0.045324  1
  Te  Te2  1  0.666649  0.333297  0.142509  1
  Te  Te3  1  0.333352  0.666706  0.608947  1
  Mo  Mo4  1  0.666689  0.333377  0.281807  1
  W  W5  1  0.333313  0.666625  0.093906  1
  W  W6  1  0.333312  0.666624  0.469653  1
  W  W7  1  0.666689  0.333378  0.657543  1
  Se  Se8  1  0.333354  0.666709  0.324327  1
  Se  Se9  1  0.333352  0.666706  0.239298  1
  S  S10  1  0.666643  0.333285  0.430776  1
  S  S11  1  0.666646  0.333290  0.508539  1
