# generated using pymatgen
data_Sm(ErSe2)3
_symmetry_space_group_name_H-M   'P 1'
_cell_length_a   4.10051188
_cell_length_b   11.54202986
_cell_length_c   11.82455872
_cell_angle_alpha   109.16687832
_cell_angle_beta   90.00000000
_cell_angle_gamma   90.00000000
_symmetry_Int_Tables_number   1
_chemical_formula_structural   Sm(ErSe2)3
_chemical_formula_sum   'Sm2 Er6 Se12'
_cell_volume   528.61279161
_cell_formula_units_Z   2
loop_
 _symmetry_equiv_pos_site_id
 _symmetry_equiv_pos_as_xyz
  1  'x, y, z'
loop_
 _atom_site_type_symbol
 _atom_site_label
 _atom_site_symmetry_multiplicity
 _atom_site_fract_x
 _atom_site_fract_y
 _atom_site_fract_z
 _atom_site_occupancy
  Se  Se0  1  0.250000  0.304547  0.249838  1
  Se  Se1  1  0.750000  0.695453  0.750162  1
  Se  Se2  1  0.250000  0.416875  0.595767  1
  Se  Se3  1  0.750000  0.583125  0.404233  1
  Se  Se4  1  0.250000  0.615287  0.965576  1
  Se  Se5  1  0.750000  0.384713  0.034424  1
  Se  Se6  1  0.250000  0.979851  0.114340  1
  Se  Se7  1  0.750000  0.020149  0.885660  1
  Se  Se8  1  0.750000  0.105845  0.439742  1
  Se  Se9  1  0.250000  0.894155  0.560258  1
  Se  Se10  1  0.750000  0.759000  0.225321  1
  Se  Se11  1  0.250000  0.241000  0.774679  1
  Sm  Sm12  1  0.250000  0.546178  0.194739  1
  Sm  Sm13  1  0.750000  0.453822  0.805261  1
  Er  Er14  1  0.250000  0.659054  0.584824  1
  Er  Er15  1  0.750000  0.340946  0.415176  1
  Er  Er16  1  0.250000  0.181784  0.000740  1
  Er  Er17  1  0.750000  0.818216  0.999260  1
  Er  Er18  1  0.250000  0.936513  0.333159  1
  Er  Er19  1  0.750000  0.063487  0.666841  1
