# generated using pymatgen
data_Ba2Yb(CuO2)4
_symmetry_space_group_name_H-M   'P 1'
_cell_length_a   3.86422677
_cell_length_b   3.83237024
_cell_length_c   14.07800758
_cell_angle_alpha   97.82292362
_cell_angle_beta   90.00000000
_cell_angle_gamma   90.00000000
_symmetry_Int_Tables_number   1
_chemical_formula_structural   Ba2Yb(CuO2)4
_chemical_formula_sum   'Ba2 Yb1 Cu4 O8'
_cell_volume   206.54303550
_cell_formula_units_Z   1
loop_
 _symmetry_equiv_pos_site_id
 _symmetry_equiv_pos_as_xyz
  1  'x, y, z'
loop_
 _atom_site_type_symbol
 _atom_site_label
 _atom_site_symmetry_multiplicity
 _atom_site_fract_x
 _atom_site_fract_y
 _atom_site_fract_z
 _atom_site_occupancy
  O  O0  1  0.000000  0.279947  0.559893  1
  O  O1  1  0.000000  0.720053  0.440107  1
  O  O2  1  0.000000  0.447053  0.894105  1
  O  O3  1  0.000000  0.552947  0.105895  1
  O  O4  1  0.500000  0.946453  0.892905  1
  O  O5  1  0.500000  0.053547  0.107095  1
  O  O6  1  0.000000  0.853265  0.706530  1
  O  O7  1  0.000000  0.146735  0.293470  1
  Cu  Cu8  1  0.000000  0.942778  0.885557  1
  Cu  Cu9  1  0.000000  0.057222  0.114443  1
  Cu  Cu10  1  0.000000  0.787805  0.575610  1
  Cu  Cu11  1  0.000000  0.212195  0.424390  1
  Ba  Ba12  1  0.500000  0.369583  0.739165  1
  Ba  Ba13  1  0.500000  0.630417  0.260835  1
  Yb  Yb14  1  0.500000  0.500000  0.000000  1
