# generated using pymatgen
data_Mo3W(SeS3)2
_symmetry_space_group_name_H-M   'P 1'
_cell_length_a   3.22166206
_cell_length_b   3.22167266
_cell_length_c   37.12696866
_cell_angle_alpha   89.99945528
_cell_angle_beta   90.00000000
_cell_angle_gamma   119.99989113
_symmetry_Int_Tables_number   1
_chemical_formula_structural   Mo3W(SeS3)2
_chemical_formula_sum   'Mo3 W1 Se2 S6'
_cell_volume   333.71981506
_cell_formula_units_Z   1
loop_
 _symmetry_equiv_pos_site_id
 _symmetry_equiv_pos_as_xyz
  1  'x, y, z'
loop_
 _atom_site_type_symbol
 _atom_site_label
 _atom_site_symmetry_multiplicity
 _atom_site_fract_x
 _atom_site_fract_y
 _atom_site_fract_z
 _atom_site_occupancy
  Mo  Mo0  1  0.333382  0.666763  0.093379  1
  Mo  Mo1  1  0.666640  0.333281  0.281752  1
  Mo  Mo2  1  0.666600  0.333200  0.658636  1
  W  W3  1  0.333371  0.666741  0.469151  1
  Se  Se4  1  0.333225  0.666451  0.704728  1
  Se  Se5  1  0.333289  0.666578  0.612532  1
  S  S6  1  0.333283  0.666568  0.323615  1
  S  S7  1  0.666724  0.333446  0.051510  1
  S  S8  1  0.666721  0.333441  0.427100  1
  S  S9  1  0.666740  0.333479  0.135260  1
  S  S10  1  0.666745  0.333488  0.511204  1
  S  S11  1  0.333281  0.666562  0.239880  1
