# generated using pymatgen
data_K2HfF6
_symmetry_space_group_name_H-M   'P 1'
_cell_length_a   6.64694130
_cell_length_b   6.71594562
_cell_length_c   6.96574206
_cell_angle_alpha   89.94474414
_cell_angle_beta   89.88834097
_cell_angle_gamma   60.33930626
_symmetry_Int_Tables_number   1
_chemical_formula_structural   K2HfF6
_chemical_formula_sum   'K4 Hf2 F12'
_cell_volume   270.20971824
_cell_formula_units_Z   2
loop_
 _symmetry_equiv_pos_site_id
 _symmetry_equiv_pos_as_xyz
  1  'x, y, z'
loop_
 _atom_site_type_symbol
 _atom_site_label
 _atom_site_symmetry_multiplicity
 _atom_site_fract_x
 _atom_site_fract_y
 _atom_site_fract_z
 _atom_site_occupancy
  F  F0  1  0.931758  0.194455  0.044398  1
  F  F1  1  0.873787  0.194455  0.455602  1
  F  F2  1  0.068242  0.805545  0.955602  1
  F  F3  1  0.126213  0.805545  0.544398  1
  F  F4  1  0.620174  0.382515  0.771815  1
  F  F5  1  0.997311  0.382515  0.728185  1
  F  F6  1  0.699770  0.025871  0.221728  1
  F  F7  1  0.274358  0.025871  0.278272  1
  F  F8  1  0.300230  0.974129  0.778272  1
  F  F9  1  0.725642  0.974129  0.721728  1
  F  F10  1  0.002689  0.617485  0.271815  1
  F  F11  1  0.379826  0.617485  0.228185  1
  K  K12  1  0.326272  0.314969  0.002546  1
  K  K13  1  0.358759  0.314969  0.497454  1
  K  K14  1  0.641241  0.685031  0.502546  1
  K  K15  1  0.673728  0.685031  0.997454  1
  Hf  Hf16  1  0.048003  0.903995  0.250000  1
  Hf  Hf17  1  0.951997  0.096005  0.750000  1
