# generated using pymatgen
data_K(MoO3)3
_symmetry_space_group_name_H-M   'P 1'
_cell_length_a   6.53356238
_cell_length_b   7.83254632
_cell_length_c   8.51969531
_cell_angle_alpha   117.36600317
_cell_angle_beta   92.00459289
_cell_angle_gamma   90.00000001
_symmetry_Int_Tables_number   1
_chemical_formula_structural   K(MoO3)3
_chemical_formula_sum   'K2 Mo6 O18'
_cell_volume   386.89764207
_cell_formula_units_Z   2
loop_
 _symmetry_equiv_pos_site_id
 _symmetry_equiv_pos_as_xyz
  1  'x, y, z'
loop_
 _atom_site_type_symbol
 _atom_site_label
 _atom_site_symmetry_multiplicity
 _atom_site_fract_x
 _atom_site_fract_y
 _atom_site_fract_z
 _atom_site_occupancy
  O  O0  1  0.585817  0.317940  0.162219  1
  O  O1  1  0.414184  0.155722  0.837782  1
  O  O2  1  0.414183  0.682060  0.837782  1
  O  O3  1  0.585817  0.844278  0.162219  1
  O  O4  1  0.201859  0.431922  0.333400  1
  O  O5  1  0.798141  0.098521  0.666599  1
  O  O6  1  0.798142  0.568078  0.666600  1
  O  O7  1  0.201858  0.901479  0.333401  1
  O  O8  1  0.999999  0.746620  1.000000  1
  O  O9  1  1.000000  0.253380  0.999999  1
  O  O10  1  0.511829  0.219259  0.438517  1
  O  O11  1  0.488171  0.780742  0.561483  1
  O  O12  1  0.893455  0.150376  0.300752  1
  O  O13  1  0.693052  0.961854  0.923707  1
  O  O14  1  0.297997  0.536456  0.072913  1
  O  O15  1  0.702003  0.463544  0.927087  1
  O  O16  1  0.306947  0.038146  0.076293  1
  O  O17  1  0.106544  0.849624  0.699248  1
  K  K18  1  0.161099  0.303063  0.606126  1
  K  K19  1  0.838900  0.696937  0.393874  1
  Mo  Mo20  1  0.364671  0.879860  0.759720  1
  Mo  Mo21  1  0.267648  0.798011  0.115709  1
  Mo  Mo22  1  0.732351  0.682303  0.884291  1
  Mo  Mo23  1  0.635329  0.120140  0.240281  1
  Mo  Mo24  1  0.732351  0.201989  0.884292  1
  Mo  Mo25  1  0.267649  0.317697  0.115709  1
