# generated using pymatgen
data_Te2Mo2SeS
_symmetry_space_group_name_H-M   'P 1'
_cell_length_a   3.39918853
_cell_length_b   3.39905995
_cell_length_c   40.00886246
_cell_angle_alpha   90.00542120
_cell_angle_beta   90.00000000
_cell_angle_gamma   120.00125121
_symmetry_Int_Tables_number   1
_chemical_formula_structural   Te2Mo2SeS
_chemical_formula_sum   'Te4 Mo4 Se2 S2'
_cell_volume   400.32750926
_cell_formula_units_Z   2
loop_
 _symmetry_equiv_pos_site_id
 _symmetry_equiv_pos_as_xyz
  1  'x, y, z'
loop_
 _atom_site_type_symbol
 _atom_site_label
 _atom_site_symmetry_multiplicity
 _atom_site_fract_x
 _atom_site_fract_y
 _atom_site_fract_z
 _atom_site_occupancy
  Te  Te0  1  0.333369  0.666739  0.327487  1
  Te  Te1  1  0.666536  0.333072  0.423687  1
  Te  Te2  1  0.666702  0.333403  0.517344  1
  Te  Te3  1  0.333320  0.666642  0.233688  1
  Mo  Mo4  1  0.333382  0.666763  0.093880  1
  Mo  Mo5  1  0.333264  0.666528  0.470512  1
  Mo  Mo6  1  0.666696  0.333393  0.280603  1
  Mo  Mo7  1  0.666664  0.333328  0.657943  1
  Se  Se8  1  0.333320  0.666642  0.699136  1
  Se  Se9  1  0.333301  0.666604  0.616745  1
  S  S10  1  0.666712  0.333424  0.056300  1
  S  S11  1  0.666732  0.333463  0.131422  1
