# generated using pymatgen
data_MoAs2
_symmetry_space_group_name_H-M   'P 1'
_cell_length_a   3.33115059
_cell_length_b   4.87215281
_cell_length_c   7.03901565
_cell_angle_alpha   79.30067130
_cell_angle_beta   76.31283591
_cell_angle_gamma   70.01000018
_symmetry_Int_Tables_number   1
_chemical_formula_structural   MoAs2
_chemical_formula_sum   'Mo2 As4'
_cell_volume   103.62181348
_cell_formula_units_Z   2
loop_
 _symmetry_equiv_pos_site_id
 _symmetry_equiv_pos_as_xyz
  1  'x, y, z'
loop_
 _atom_site_type_symbol
 _atom_site_label
 _atom_site_symmetry_multiplicity
 _atom_site_fract_x
 _atom_site_fract_y
 _atom_site_fract_z
 _atom_site_occupancy
  As  As0  1  0.126305  0.739833  0.967541  1
  As  As1  1  0.833678  0.260167  0.032459  1
  As  As2  1  0.382493  0.801360  0.393708  1
  As  As3  1  0.577561  0.198640  0.606292  1
  Mo  Mo4  1  0.826629  0.605232  0.701473  1
  Mo  Mo5  1  0.133334  0.394768  0.298527  1
