# generated using pymatgen
data_K2MnSO4F3
_symmetry_space_group_name_H-M   'P 1'
_cell_length_a   7.40239533
_cell_length_b   8.61656514
_cell_length_c   11.02287493
_cell_angle_alpha   90.00000000
_cell_angle_beta   90.00000000
_cell_angle_gamma   92.41797086
_symmetry_Int_Tables_number   1
_chemical_formula_structural   K2MnSO4F3
_chemical_formula_sum   'K8 Mn4 S4 O16 F12'
_cell_volume   702.44848894
_cell_formula_units_Z   4
loop_
 _symmetry_equiv_pos_site_id
 _symmetry_equiv_pos_as_xyz
  1  'x, y, z'
loop_
 _atom_site_type_symbol
 _atom_site_label
 _atom_site_symmetry_multiplicity
 _atom_site_fract_x
 _atom_site_fract_y
 _atom_site_fract_z
 _atom_site_occupancy
  O  O0  1  0.171459  0.096906  0.599567  1
  O  O1  1  0.828541  0.403094  0.099567  1
  O  O2  1  0.828541  0.903094  0.400433  1
  O  O3  1  0.171459  0.596906  0.900433  1
  O  O4  1  0.341176  0.094523  0.408027  1
  O  O5  1  0.658824  0.405477  0.908027  1
  O  O6  1  0.658824  0.905477  0.591973  1
  O  O7  1  0.341176  0.594523  0.091973  1
  O  O8  1  0.393955  0.300401  0.559877  1
  O  O9  1  0.606045  0.199599  0.059877  1
  O  O10  1  0.606045  0.699599  0.440123  1
  O  O11  1  0.393955  0.800401  0.940123  1
  O  O12  1  0.885893  0.215164  0.938833  1
  O  O13  1  0.885893  0.715164  0.561167  1
  O  O14  1  0.114107  0.284836  0.438833  1
  O  O15  1  0.114107  0.784836  0.061167  1
  F  F16  1  0.023065  0.946297  0.836998  1
  F  F17  1  0.976935  0.553703  0.336998  1
  F  F18  1  0.976935  0.053703  0.163002  1
  F  F19  1  0.023065  0.446297  0.663002  1
  F  F20  1  0.762827  0.889720  0.000478  1
  F  F21  1  0.237173  0.610280  0.500478  1
  F  F22  1  0.237173  0.110280  0.999522  1
  F  F23  1  0.762827  0.389720  0.499522  1
  F  F24  1  0.477188  0.938754  0.163064  1
  F  F25  1  0.522812  0.061246  0.836936  1
  F  F26  1  0.477188  0.438754  0.336936  1
  F  F27  1  0.522812  0.561246  0.663064  1
  S  S28  1  0.252313  0.188717  0.499552  1
  S  S29  1  0.747687  0.311283  0.999552  1
  S  S30  1  0.747687  0.811283  0.500448  1
  S  S31  1  0.252313  0.688717  0.000448  1
  K  K32  1  0.816314  0.664915  0.807003  1
  K  K33  1  0.312289  0.332730  0.807371  1
  K  K34  1  0.183686  0.835085  0.307003  1
  K  K35  1  0.183686  0.335085  0.192997  1
  K  K36  1  0.687711  0.667270  0.192629  1
  K  K37  1  0.687711  0.167270  0.307371  1
  K  K38  1  0.312289  0.832730  0.692629  1
  K  K39  1  0.816314  0.164915  0.692997  1
  Mn  Mn40  1  0.000000  0.500000  0.500000  1
  Mn  Mn41  1  0.500000  0.000000  0.000000  1
  Mn  Mn42  1  0.500000  0.500000  0.500000  1
  Mn  Mn43  1  0.000000  0.000000  0.000000  1
