# generated using pymatgen
data_Yb3Cu6Sn5
_symmetry_space_group_name_H-M   'P 1'
_cell_length_a   4.38937419
_cell_length_b   8.36354986
_cell_length_c   8.36354986
_cell_angle_alpha   72.53539632
_cell_angle_beta   74.78683209
_cell_angle_gamma   74.78683215
_symmetry_Int_Tables_number   1
_chemical_formula_structural   Yb3Cu6Sn5
_chemical_formula_sum   'Yb3 Cu6 Sn5'
_cell_volume   276.93261527
_cell_formula_units_Z   1
loop_
 _symmetry_equiv_pos_site_id
 _symmetry_equiv_pos_as_xyz
  1  'x, y, z'
loop_
 _atom_site_type_symbol
 _atom_site_label
 _atom_site_symmetry_multiplicity
 _atom_site_fract_x
 _atom_site_fract_y
 _atom_site_fract_z
 _atom_site_occupancy
  Cu  Cu0  1  0.500000  0.305758  0.694242  1
  Cu  Cu1  1  0.500000  0.694242  0.305758  1
  Cu  Cu2  1  0.883183  0.397047  0.836588  1
  Cu  Cu3  1  0.883183  0.836588  0.397047  1
  Cu  Cu4  1  0.116817  0.163412  0.602953  1
  Cu  Cu5  1  0.116817  0.602953  0.163412  1
  Sn  Sn6  1  0.326834  0.326566  0.019766  1
  Sn  Sn7  1  0.000000  0.500000  0.500000  1
  Sn  Sn8  1  0.673166  0.673434  0.980234  1
  Sn  Sn9  1  0.673166  0.980234  0.673434  1
  Sn  Sn10  1  0.326834  0.019766  0.326566  1
  Yb  Yb11  1  0.000000  0.000000  0.000000  1
  Yb  Yb12  1  0.312930  0.687070  0.687070  1
  Yb  Yb13  1  0.687070  0.312930  0.312930  1
