# generated using pymatgen
data_SbS2NF6
_symmetry_space_group_name_H-M   'P 1'
_cell_length_a   5.51234519
_cell_length_b   6.00662545
_cell_length_c   6.00662545
_cell_angle_alpha   70.50110479
_cell_angle_beta   88.63127811
_cell_angle_gamma   88.63127811
_symmetry_Int_Tables_number   1
_chemical_formula_structural   SbS2NF6
_chemical_formula_sum   'Sb1 S2 N1 F6'
_cell_volume   187.39636662
_cell_formula_units_Z   1
loop_
 _symmetry_equiv_pos_site_id
 _symmetry_equiv_pos_as_xyz
  1  'x, y, z'
loop_
 _atom_site_type_symbol
 _atom_site_label
 _atom_site_symmetry_multiplicity
 _atom_site_fract_x
 _atom_site_fract_y
 _atom_site_fract_z
 _atom_site_occupancy
  N  N0  1  0.500000  0.500000  0.500000  1
  F  F1  1  0.278077  0.113248  0.113248  1
  F  F2  1  0.721923  0.886752  0.886752  1
  F  F3  1  0.851099  0.309434  0.918040  1
  F  F4  1  0.148901  0.081960  0.690566  1
  F  F5  1  0.148901  0.690566  0.081960  1
  F  F6  1  0.851099  0.918040  0.309434  1
  S  S7  1  0.386593  0.640172  0.640172  1
  S  S8  1  0.613407  0.359828  0.359828  1
  Sb  Sb9  1  0.000000  0.000000  0.000000  1
