# generated using pymatgen
data_Sr10P6SO24
_symmetry_space_group_name_H-M   'P 1'
_cell_length_a   9.93135799
_cell_length_b   9.93135799
_cell_length_c   7.28635200
_cell_angle_alpha   90.00000000
_cell_angle_beta   90.00000000
_cell_angle_gamma   120.00000002
_symmetry_Int_Tables_number   1
_chemical_formula_structural   Sr10P6SO24
_chemical_formula_sum   'Sr10 P6 S1 O24'
_cell_volume   622.38347535
_cell_formula_units_Z   1
loop_
 _symmetry_equiv_pos_site_id
 _symmetry_equiv_pos_as_xyz
  1  'x, y, z'
loop_
 _atom_site_type_symbol
 _atom_site_label
 _atom_site_symmetry_multiplicity
 _atom_site_fract_x
 _atom_site_fract_y
 _atom_site_fract_z
 _atom_site_occupancy
  O  O0  1  0.479212  0.150279  0.739182  1
  O  O1  1  0.099194  0.381102  0.569468  1
  O  O2  1  0.281909  0.900806  0.569468  1
  O  O3  1  0.618898  0.718091  0.569468  1
  O  O4  1  0.900806  0.618898  0.430532  1
  O  O5  1  0.718091  0.099194  0.430532  1
  O  O6  1  0.381102  0.281909  0.430532  1
  O  O7  1  0.064880  0.309876  0.904690  1
  O  O8  1  0.244996  0.935120  0.904690  1
  O  O9  1  0.690124  0.755004  0.904690  1
  O  O10  1  0.309876  0.244996  0.095310  1
  O  O11  1  0.112448  0.576135  0.794919  1
  O  O12  1  0.463687  0.887552  0.794919  1
  O  O13  1  0.423865  0.536313  0.794919  1
  O  O14  1  0.887552  0.423865  0.205081  1
  O  O15  1  0.536313  0.112448  0.205081  1
  O  O16  1  0.328933  0.479212  0.260818  1
  O  O17  1  0.520788  0.849721  0.260818  1
  O  O18  1  0.150279  0.671067  0.260818  1
  O  O19  1  0.671067  0.520788  0.739182  1
  O  O20  1  0.755004  0.064880  0.095310  1
  O  O21  1  0.849721  0.328933  0.739182  1
  O  O22  1  0.576135  0.463687  0.205081  1
  O  O23  1  0.935120  0.690124  0.095310  1
  P  P24  1  0.369038  0.971083  0.753016  1
  P  P25  1  0.602045  0.630962  0.753016  1
  P  P26  1  0.971083  0.602045  0.246984  1
  P  P27  1  0.028917  0.397955  0.753016  1
  P  P28  1  0.397955  0.369038  0.246984  1
  P  P29  1  0.630962  0.028917  0.246984  1
  S  S30  1  0.000000  0.000000  0.500000  1
  Sr  Sr31  1  0.988616  0.742780  0.740764  1
  Sr  Sr32  1  0.257220  0.245835  0.740764  1
  Sr  Sr33  1  0.754165  0.011384  0.740764  1
  Sr  Sr34  1  0.742780  0.754165  0.259236  1
  Sr  Sr35  1  0.011384  0.257220  0.259236  1
  Sr  Sr36  1  0.245835  0.988616  0.259236  1
  Sr  Sr37  1  0.666667  0.333333  0.481177  1
  Sr  Sr38  1  0.333333  0.666667  0.518823  1
  Sr  Sr39  1  0.666667  0.333333  0.979063  1
  Sr  Sr40  1  0.333333  0.666667  0.020937  1
