# generated using pymatgen
data_Sr4In2N
_symmetry_space_group_name_H-M   'P 1'
_cell_length_a   5.27806141
_cell_length_b   5.27806141
_cell_length_c   15.87712353
_cell_angle_alpha   99.56787702
_cell_angle_beta   99.56787701
_cell_angle_gamma   89.99999996
_symmetry_Int_Tables_number   1
_chemical_formula_structural   Sr4In2N
_chemical_formula_sum   'Sr8 In4 N2'
_cell_volume   429.91034556
_cell_formula_units_Z   2
loop_
 _symmetry_equiv_pos_site_id
 _symmetry_equiv_pos_as_xyz
  1  'x, y, z'
loop_
 _atom_site_type_symbol
 _atom_site_label
 _atom_site_symmetry_multiplicity
 _atom_site_fract_x
 _atom_site_fract_y
 _atom_site_fract_z
 _atom_site_occupancy
  N  N0  1  0.625000  0.875000  0.750000  1
  N  N1  1  0.375000  0.125000  0.250000  1
  Sr  Sr2  1  0.542973  0.792973  0.585946  1
  Sr  Sr3  1  0.374971  0.624971  0.249942  1
  Sr  Sr4  1  0.707027  0.957027  0.914054  1
  Sr  Sr5  1  0.292973  0.042973  0.085946  1
  Sr  Sr6  1  0.457027  0.207027  0.414054  1
  Sr  Sr7  1  0.875029  0.125029  0.250058  1
  Sr  Sr8  1  0.625029  0.375029  0.750058  1
  Sr  Sr9  1  0.124971  0.874971  0.749942  1
  In  In10  1  0.783566  0.533566  0.067132  1
  In  In11  1  0.033566  0.283566  0.567132  1
  In  In12  1  0.966434  0.716434  0.432868  1
  In  In13  1  0.216434  0.466434  0.932868  1
