# generated using pymatgen
data_Te4MoW3S4
_symmetry_space_group_name_H-M   'P 1'
_cell_length_a   3.35642461
_cell_length_b   3.35641289
_cell_length_c   41.28314283
_cell_angle_alpha   90.00356714
_cell_angle_beta   90.00000000
_cell_angle_gamma   120.00011561
_symmetry_Int_Tables_number   1
_chemical_formula_structural   Te4MoW3S4
_chemical_formula_sum   'Te4 Mo1 W3 S4'
_cell_volume   402.76818122
_cell_formula_units_Z   1
loop_
 _symmetry_equiv_pos_site_id
 _symmetry_equiv_pos_as_xyz
  1  'x, y, z'
loop_
 _atom_site_type_symbol
 _atom_site_label
 _atom_site_symmetry_multiplicity
 _atom_site_fract_x
 _atom_site_fract_y
 _atom_site_fract_z
 _atom_site_occupancy
  Te  Te0  1  0.333345  0.666691  0.330114  1
  Te  Te1  1  0.666701  0.333402  0.045520  1
  Te  Te2  1  0.666712  0.333423  0.137106  1
  Te  Te3  1  0.333285  0.666570  0.238014  1
  Mo  Mo4  1  0.333374  0.666748  0.091303  1
  W  W5  1  0.333325  0.666650  0.469973  1
  W  W6  1  0.666644  0.333288  0.284082  1
  W  W7  1  0.666656  0.333311  0.657563  1
  S  S8  1  0.333335  0.666671  0.694331  1
  S  S9  1  0.666642  0.333283  0.433197  1
  S  S10  1  0.666674  0.333347  0.506744  1
  S  S11  1  0.333306  0.666614  0.620799  1
