# generated using pymatgen
data_Ba6Y2Ti4O17
_symmetry_space_group_name_H-M   'P 1'
_cell_length_a   6.00232883
_cell_length_b   6.00232883
_cell_length_c   30.01966948
_cell_angle_alpha   90.00000000
_cell_angle_beta   90.00000000
_cell_angle_gamma   119.99999995
_symmetry_Int_Tables_number   1
_chemical_formula_structural   Ba6Y2Ti4O17
_chemical_formula_sum   'Ba12 Y4 Ti8 O34'
_cell_volume   936.64734440
_cell_formula_units_Z   2
loop_
 _symmetry_equiv_pos_site_id
 _symmetry_equiv_pos_as_xyz
  1  'x, y, z'
loop_
 _atom_site_type_symbol
 _atom_site_label
 _atom_site_symmetry_multiplicity
 _atom_site_fract_x
 _atom_site_fract_y
 _atom_site_fract_z
 _atom_site_occupancy
  O  O0  1  0.481603  0.963205  0.750000  1
  O  O1  1  0.518397  0.481603  0.250000  1
  O  O2  1  0.963205  0.481603  0.250000  1
  O  O3  1  0.036795  0.518397  0.750000  1
  O  O4  1  0.481603  0.518397  0.750000  1
  O  O5  1  0.518397  0.036795  0.250000  1
  O  O6  1  0.351592  0.175796  0.330273  1
  O  O7  1  0.824204  0.175796  0.330273  1
  O  O8  1  0.824204  0.648408  0.330273  1
  O  O9  1  0.175796  0.351592  0.830273  1
  O  O10  1  0.648408  0.824204  0.669727  1
  O  O11  1  0.648408  0.824204  0.830273  1
  O  O12  1  0.175796  0.824204  0.830273  1
  O  O13  1  0.824204  0.648408  0.169727  1
  O  O14  1  0.824204  0.175796  0.169727  1
  O  O15  1  0.175796  0.824204  0.669727  1
  O  O16  1  0.175796  0.351592  0.669727  1
  O  O17  1  0.351592  0.175796  0.169727  1
  O  O18  1  0.663695  0.831848  0.422567  1
  O  O19  1  0.168152  0.831848  0.422567  1
  O  O20  1  0.168152  0.336305  0.422567  1
  O  O21  1  0.831848  0.663695  0.922567  1
  O  O22  1  0.336305  0.168152  0.577433  1
  O  O23  1  0.336305  0.168152  0.922567  1
  O  O24  1  0.333333  0.666667  0.995574  1
  O  O25  1  0.666667  0.333333  0.495574  1
  O  O26  1  0.666667  0.333333  0.004426  1
  O  O27  1  0.333333  0.666667  0.504426  1
  O  O28  1  0.663695  0.831848  0.077433  1
  O  O29  1  0.831848  0.663695  0.577433  1
  O  O30  1  0.831848  0.168152  0.577433  1
  O  O31  1  0.168152  0.831848  0.077433  1
  O  O32  1  0.168152  0.336305  0.077433  1
  O  O33  1  0.831848  0.168152  0.922567  1
  Ti  Ti34  1  0.666667  0.333333  0.296156  1
  Ti  Ti35  1  0.333333  0.666667  0.796156  1
  Ti  Ti36  1  0.333333  0.666667  0.703844  1
  Ti  Ti37  1  0.666667  0.333333  0.203844  1
  Ti  Ti38  1  0.666667  0.333333  0.554739  1
  Ti  Ti39  1  0.666667  0.333333  0.945261  1
  Ti  Ti40  1  0.333333  0.666667  0.054739  1
  Ti  Ti41  1  0.333333  0.666667  0.445261  1
  Y  Y42  1  0.000000  0.000000  0.626873  1
  Y  Y43  1  0.000000  0.000000  0.873127  1
  Y  Y44  1  0.000000  0.000000  0.373127  1
  Y  Y45  1  0.000000  0.000000  0.126873  1
  Ba  Ba46  1  0.666667  0.333333  0.815478  1
  Ba  Ba47  1  0.333333  0.666667  0.184522  1
  Ba  Ba48  1  0.666667  0.333333  0.410389  1
  Ba  Ba49  1  0.333333  0.666667  0.910389  1
  Ba  Ba50  1  0.333333  0.666667  0.589611  1
  Ba  Ba51  1  0.666667  0.333333  0.089611  1
  Ba  Ba52  1  0.000000  0.000000  0.500000  1
  Ba  Ba53  1  0.000000  0.000000  0.000000  1
  Ba  Ba54  1  0.333333  0.666667  0.315478  1
  Ba  Ba55  1  0.000000  0.000000  0.250000  1
  Ba  Ba56  1  0.000000  0.000000  0.750000  1
  Ba  Ba57  1  0.666667  0.333333  0.684522  1
