# generated using pymatgen
data_SmAsO4
_symmetry_space_group_name_H-M   'P 1'
_cell_length_a   5.12890406
_cell_length_b   5.12890406
_cell_length_c   6.83651884
_cell_angle_alpha   112.03116089
_cell_angle_beta   112.03116086
_cell_angle_gamma   90.00000001
_symmetry_Int_Tables_number   1
_chemical_formula_structural   SmAsO4
_chemical_formula_sum   'Sm2 As2 O8'
_cell_volume   152.44840013
_cell_formula_units_Z   2
loop_
 _symmetry_equiv_pos_site_id
 _symmetry_equiv_pos_as_xyz
  1  'x, y, z'
loop_
 _atom_site_type_symbol
 _atom_site_label
 _atom_site_symmetry_multiplicity
 _atom_site_fract_x
 _atom_site_fract_y
 _atom_site_fract_z
 _atom_site_occupancy
  O  O0  1  0.939003  0.297263  0.593620  1
  O  O1  1  0.296356  0.439003  0.093620  1
  O  O2  1  0.797263  0.154617  0.093620  1
  O  O3  1  0.654617  0.796356  0.593620  1
  O  O4  1  0.345383  0.203644  0.406380  1
  O  O5  1  0.202737  0.845383  0.906380  1
  O  O6  1  0.703644  0.560997  0.906380  1
  O  O7  1  0.060997  0.702737  0.406380  1
  As  As8  1  0.875000  0.625000  0.750000  1
  As  As9  1  0.125000  0.375000  0.250000  1
  Sm  Sm10  1  0.375000  0.125000  0.750000  1
  Sm  Sm11  1  0.625000  0.875000  0.250000  1
