# generated using pymatgen
data_MoW2(Se2S)2
_symmetry_space_group_name_H-M   'P 1'
_cell_length_a   3.27457534
_cell_length_b   3.27452143
_cell_length_c   30.23205952
_cell_angle_alpha   90.00059062
_cell_angle_beta   90.00000000
_cell_angle_gamma   120.00054462
_symmetry_Int_Tables_number   1
_chemical_formula_structural   MoW2(Se2S)2
_chemical_formula_sum   'Mo1 W2 Se4 S2'
_cell_volume   280.73645144
_cell_formula_units_Z   1
loop_
 _symmetry_equiv_pos_site_id
 _symmetry_equiv_pos_as_xyz
  1  'x, y, z'
loop_
 _atom_site_type_symbol
 _atom_site_label
 _atom_site_symmetry_multiplicity
 _atom_site_fract_x
 _atom_site_fract_y
 _atom_site_fract_z
 _atom_site_occupancy
  Mo  Mo0  1  0.333312  0.666623  0.115630  1
  W  W1  1  0.333310  0.666620  0.578323  1
  W  W2  1  0.666687  0.333374  0.347004  1
  Se  Se3  1  0.333362  0.666725  0.403260  1
  Se  Se4  1  0.666645  0.333290  0.059737  1
  Se  Se5  1  0.666647  0.333292  0.171541  1
  Se  Se6  1  0.333351  0.666704  0.290715  1
  S  S7  1  0.666643  0.333285  0.527203  1
  S  S8  1  0.666644  0.333287  0.629428  1
