# generated using pymatgen
data_TeMoWSe2S
_symmetry_space_group_name_H-M   'P 1'
_cell_length_a   3.34571793
_cell_length_b   3.34571472
_cell_length_c   38.10389309
_cell_angle_alpha   90.00033165
_cell_angle_beta   90.00000000
_cell_angle_gamma   120.00003162
_symmetry_Int_Tables_number   1
_chemical_formula_structural   TeMoWSe2S
_chemical_formula_sum   'Te2 Mo2 W2 Se4 S2'
_cell_volume   369.38399537
_cell_formula_units_Z   2
loop_
 _symmetry_equiv_pos_site_id
 _symmetry_equiv_pos_as_xyz
  1  'x, y, z'
loop_
 _atom_site_type_symbol
 _atom_site_label
 _atom_site_symmetry_multiplicity
 _atom_site_fract_x
 _atom_site_fract_y
 _atom_site_fract_z
 _atom_site_occupancy
  Te  Te0  1  0.333360  0.666721  0.331915  1
  Te  Te1  1  0.333351  0.666703  0.231734  1
  Mo  Mo2  1  0.333313  0.666627  0.093858  1
  Mo  Mo3  1  0.333287  0.666573  0.469684  1
  W  W4  1  0.666692  0.333384  0.281837  1
  W  W5  1  0.666688  0.333376  0.657536  1
  Se  Se6  1  0.333352  0.666704  0.701518  1
  Se  Se7  1  0.666646  0.333290  0.050129  1
  Se  Se8  1  0.666650  0.333300  0.137635  1
  Se  Se9  1  0.333348  0.666698  0.613545  1
  S  S10  1  0.666653  0.333306  0.429877  1
  S  S11  1  0.666659  0.333318  0.509479  1
