# generated using pymatgen
data_Hf
_symmetry_space_group_name_H-M   'P 1'
_cell_length_a   3.08709871
_cell_length_b   4.99986441
_cell_length_c   4.99644873
_cell_angle_alpha   120.02262004
_cell_angle_beta   90.00000000
_cell_angle_gamma   90.00000000
_symmetry_Int_Tables_number   1
_chemical_formula_structural   Hf
_chemical_formula_sum   Hf3
_cell_volume   66.77313616
_cell_formula_units_Z   3
loop_
 _symmetry_equiv_pos_site_id
 _symmetry_equiv_pos_as_xyz
  1  'x, y, z'
loop_
 _atom_site_type_symbol
 _atom_site_label
 _atom_site_symmetry_multiplicity
 _atom_site_fract_x
 _atom_site_fract_y
 _atom_site_fract_z
 _atom_site_occupancy
  Hf  Hf0  1  0.000000  0.999976  1.000000  1
  Hf  Hf1  1  0.500000  0.333318  0.666712  1
  Hf  Hf2  1  0.500000  0.666606  0.333288  1
