# generated using pymatgen
data_KAl9O14
_symmetry_space_group_name_H-M   'P 1'
_cell_length_a   8.27819151
_cell_length_b   7.75653865
_cell_length_c   8.89517404
_cell_angle_alpha   90.00000000
_cell_angle_beta   110.59743162
_cell_angle_gamma   90.00000000
_symmetry_Int_Tables_number   1
_chemical_formula_structural   KAl9O14
_chemical_formula_sum   'K2 Al18 O28'
_cell_volume   534.64888934
_cell_formula_units_Z   2
loop_
 _symmetry_equiv_pos_site_id
 _symmetry_equiv_pos_as_xyz
  1  'x, y, z'
loop_
 _atom_site_type_symbol
 _atom_site_label
 _atom_site_symmetry_multiplicity
 _atom_site_fract_x
 _atom_site_fract_y
 _atom_site_fract_z
 _atom_site_occupancy
  K  K0  1  -0.000000  0.500000  0.500000  1
  K  K1  1  0.500000  0.000000  -0.000000  1
  Al  Al2  1  0.997208  0.997836  0.671315  1
  Al  Al3  1  0.497208  0.502164  0.171315  1
  Al  Al4  1  0.002792  0.002164  0.328685  1
  Al  Al5  1  0.502792  0.497836  0.828685  1
  Al  Al6  1  -0.000000  0.000000  -0.000000  1
  Al  Al7  1  0.500000  0.500000  0.500000  1
  Al  Al8  1  0.850794  0.665572  0.121616  1
  Al  Al9  1  0.350794  0.834428  0.621616  1
  Al  Al10  1  0.149206  0.334428  0.878384  1
  Al  Al11  1  0.649206  0.165572  0.378384  1
  Al  Al12  1  0.655808  0.177381  0.721545  1
  Al  Al13  1  0.155808  0.322619  0.221545  1
  Al  Al14  1  0.344192  0.822619  0.278455  1
  Al  Al15  1  0.844192  0.677381  0.778455  1
  Al  Al16  1  0.730809  0.810780  0.407078  1
  Al  Al17  1  0.230809  0.689220  0.907078  1
  Al  Al18  1  0.269191  0.189220  0.592922  1
  Al  Al19  1  0.769191  0.310780  0.092922  1
  O  O20  1  0.859710  0.794539  0.614292  1
  O  O21  1  0.359710  0.705461  0.114292  1
  O  O22  1  0.140290  0.205461  0.385708  1
  O  O23  1  0.640290  0.294539  0.885708  1
  O  O24  1  0.868402  0.786465  0.961593  1
  O  O25  1  0.368402  0.713535  0.461593  1
  O  O26  1  0.131598  0.213535  0.038407  1
  O  O27  1  0.631598  0.286465  0.538407  1
  O  O28  1  0.869053  0.792726  0.289867  1
  O  O29  1  0.369053  0.707274  0.789867  1
  O  O30  1  0.130947  0.207274  0.710133  1
  O  O31  1  0.630947  0.292726  0.210133  1
  O  O32  1  0.861075  0.083148  0.788721  1
  O  O33  1  0.361075  0.416852  0.288721  1
  O  O34  1  0.138925  0.916852  0.211279  1
  O  O35  1  0.638925  0.583148  0.711279  1
  O  O36  1  0.853636  0.063435  0.449023  1
  O  O37  1  0.353636  0.436565  0.949023  1
  O  O38  1  0.146364  0.936565  0.550977  1
  O  O39  1  0.646364  0.563435  0.050977  1
  O  O40  1  0.628149  0.602338  0.374021  1
  O  O41  1  0.128149  0.897662  0.874021  1
  O  O42  1  0.371851  0.397662  0.625979  1
  O  O43  1  0.871851  0.102338  0.125979  1
  O  O44  1  0.538415  0.958294  0.331915  1
  O  O45  1  0.038415  0.541706  0.831915  1
  O  O46  1  0.461585  0.041706  0.668085  1
  O  O47  1  0.961585  0.458294  0.168085  1
