# generated using pymatgen
data_LuNiO3
_symmetry_space_group_name_H-M   'P 1'
_cell_length_a   5.11981255
_cell_length_b   5.61718693
_cell_length_c   7.31261471
_cell_angle_alpha   90.00000000
_cell_angle_beta   89.94935018
_cell_angle_gamma   90.00000000
_symmetry_Int_Tables_number   1
_chemical_formula_structural   LuNiO3
_chemical_formula_sum   'Lu4 Ni4 O12'
_cell_volume   210.30299562
_cell_formula_units_Z   4
loop_
 _symmetry_equiv_pos_site_id
 _symmetry_equiv_pos_as_xyz
  1  'x, y, z'
loop_
 _atom_site_type_symbol
 _atom_site_label
 _atom_site_symmetry_multiplicity
 _atom_site_fract_x
 _atom_site_fract_y
 _atom_site_fract_z
 _atom_site_occupancy
  O  O0  1  0.693831  0.315143  0.442193  1
  O  O1  1  0.806170  0.815144  0.057807  1
  O  O2  1  0.306169  0.684856  0.557806  1
  O  O3  1  0.193831  0.184855  0.942193  1
  O  O4  1  0.194264  0.183864  0.557409  1
  O  O5  1  0.305736  0.683865  0.942592  1
  O  O6  1  0.805736  0.816136  0.442591  1
  O  O7  1  0.694263  0.316135  0.057409  1
  O  O8  1  0.120760  0.459780  0.250749  1
  O  O9  1  0.379239  0.959779  0.249251  1
  O  O10  1  0.620760  0.040220  0.750749  1
  O  O11  1  0.879239  0.540219  0.749251  1
  Ni  Ni12  1  0.000000  0.500001  0.000000  1
  Ni  Ni13  1  0.499999  0.000000  0.500000  1
  Ni  Ni14  1  0.000000  0.500001  0.499999  1
  Ni  Ni15  1  0.500001  0.000000  1.000000  1
  Lu  Lu16  1  0.474828  0.413986  0.750004  1
  Lu  Lu17  1  0.025172  0.913987  0.749995  1
  Lu  Lu18  1  0.525171  0.586013  0.249995  1
  Lu  Lu19  1  0.974829  0.086013  0.250004  1
