# generated using pymatgen
data_RbMo2P3O13
_symmetry_space_group_name_H-M   'P 1'
_cell_length_a   6.49584172
_cell_length_b   9.92708154
_cell_length_c   19.72600916
_cell_angle_alpha   90.00000000
_cell_angle_beta   90.00000000
_cell_angle_gamma   107.06833359
_symmetry_Int_Tables_number   1
_chemical_formula_structural   RbMo2P3O13
_chemical_formula_sum   'Rb4 Mo8 P12 O52'
_cell_volume   1216.00084204
_cell_formula_units_Z   4
loop_
 _symmetry_equiv_pos_site_id
 _symmetry_equiv_pos_as_xyz
  1  'x, y, z'
loop_
 _atom_site_type_symbol
 _atom_site_label
 _atom_site_symmetry_multiplicity
 _atom_site_fract_x
 _atom_site_fract_y
 _atom_site_fract_z
 _atom_site_occupancy
  O  O0  1  0.444071  0.578240  0.046275  1
  O  O1  1  0.555930  0.421760  0.546275  1
  O  O2  1  0.176796  0.933784  0.496869  1
  O  O3  1  0.823205  0.066217  0.996869  1
  O  O4  1  0.454549  0.161778  0.473695  1
  O  O5  1  0.545451  0.838223  0.973695  1
  O  O6  1  0.208654  0.226172  0.050499  1
  O  O7  1  0.791346  0.773828  0.550499  1
  O  O8  1  0.932526  0.555583  0.135579  1
  O  O9  1  0.067474  0.444417  0.635579  1
  O  O10  1  0.077429  0.938026  0.088226  1
  O  O11  1  0.922572  0.061974  0.588226  1
  O  O12  1  0.714125  0.207811  0.135904  1
  O  O13  1  0.285875  0.792189  0.635904  1
  O  O14  1  0.971206  0.290670  0.350254  1
  O  O15  1  0.028794  0.709330  0.850254  1
  O  O16  1  0.524381  0.694711  0.333599  1
  O  O17  1  0.475619  0.305289  0.833599  1
  O  O18  1  0.822675  0.839611  0.408852  1
  O  O19  1  0.330849  0.855163  0.777276  1
  O  O20  1  0.664214  0.580875  0.429395  1
  O  O21  1  0.335785  0.419125  0.929395  1
  O  O22  1  0.582516  0.930152  0.093906  1
  O  O23  1  0.417484  0.069848  0.593906  1
  O  O24  1  0.122041  0.633531  0.967008  1
  O  O25  1  0.877959  0.366469  0.467008  1
  O  O26  1  0.377254  0.379517  0.717280  1
  O  O27  1  0.622746  0.620482  0.217280  1
  O  O28  1  0.059815  0.962340  0.693807  1
  O  O29  1  0.940185  0.037659  0.193807  1
  O  O30  1  0.036750  0.870325  0.949223  1
  O  O31  1  0.963251  0.129675  0.449223  1
  O  O32  1  0.749636  0.629029  0.938644  1
  O  O33  1  0.250364  0.370971  0.438644  1
  O  O34  1  0.678587  0.949854  0.688270  1
  O  O35  1  0.321413  0.050146  0.188271  1
  O  O36  1  0.094300  0.329321  0.825442  1
  O  O37  1  0.905700  0.670679  0.325442  1
  O  O38  1  0.469673  0.146430  0.733565  1
  O  O39  1  0.530327  0.853570  0.233565  1
  O  O40  1  0.756458  0.386400  0.745510  1
  O  O41  1  0.243543  0.613600  0.245510  1
  O  O42  1  0.406267  0.681407  0.858540  1
  O  O43  1  0.593733  0.318593  0.358540  1
  O  O44  1  0.951570  0.182806  0.702193  1
  O  O45  1  0.048430  0.817194  0.202193  1
  O  O46  1  0.168397  0.594936  0.754727  1
  O  O47  1  0.831602  0.405064  0.254727  1
  O  O48  1  0.552722  0.940439  0.498043  1
  O  O49  1  0.447279  0.059561  0.998043  1
  O  O50  1  0.177325  0.160389  0.908852  1
  O  O51  1  0.669151  0.144837  0.277276  1
  P  P52  1  0.481012  0.698419  0.252101  1
  P  P53  1  0.518989  0.301581  0.752101  1
  P  P54  1  0.012927  0.284154  0.430843  1
  P  P55  1  0.987074  0.715846  0.930843  1
  P  P56  1  0.756399  0.292618  0.308346  1
  P  P57  1  0.243601  0.707382  0.808346  1
  P  P58  1  0.597467  0.970700  0.018509  1
  P  P59  1  0.904710  0.040591  0.665676  1
  P  P60  1  0.739408  0.693858  0.374786  1
  P  P61  1  0.260592  0.306142  0.874786  1
  P  P62  1  0.095289  0.959409  0.165676  1
  P  P63  1  0.402533  0.029300  0.518509  1
  Rb  Rb64  1  0.785602  0.373326  0.018254  1
  Rb  Rb65  1  0.224743  0.015297  0.337923  1
  Rb  Rb66  1  0.214398  0.626674  0.518254  1
  Rb  Rb67  1  0.775257  0.984703  0.837923  1
  Mo  Mo68  1  0.560084  0.373459  0.463546  1
  Mo  Mo69  1  0.439916  0.626541  0.963546  1
  Mo  Mo70  1  0.141037  0.071753  0.006329  1
  Mo  Mo71  1  0.858963  0.928246  0.506329  1
  Mo  Mo72  1  0.362264  0.946055  0.681004  1
  Mo  Mo73  1  0.637736  0.053945  0.181004  1
  Mo  Mo74  1  0.063539  0.391624  0.718003  1
  Mo  Mo75  1  0.936461  0.608377  0.218003  1
