# generated using pymatgen
data_Pr3GePO9
_symmetry_space_group_name_H-M   'P 1'
_cell_length_a   7.13440880
_cell_length_b   9.30952248
_cell_length_c   12.61508330
_cell_angle_alpha   90.00000000
_cell_angle_beta   90.00000000
_cell_angle_gamma   107.63953139
_symmetry_Int_Tables_number   1
_chemical_formula_structural   Pr3GePO9
_chemical_formula_sum   'Pr12 Ge4 P4 O36'
_cell_volume   798.47281339
_cell_formula_units_Z   4
loop_
 _symmetry_equiv_pos_site_id
 _symmetry_equiv_pos_as_xyz
  1  'x, y, z'
loop_
 _atom_site_type_symbol
 _atom_site_label
 _atom_site_symmetry_multiplicity
 _atom_site_fract_x
 _atom_site_fract_y
 _atom_site_fract_z
 _atom_site_occupancy
  O  O0  1  0.203935  0.380562  0.825639  1
  O  O1  1  0.296065  0.119438  0.325639  1
  O  O2  1  0.796065  0.619438  0.174361  1
  O  O3  1  0.703935  0.880562  0.674361  1
  O  O4  1  0.650594  0.588443  0.574981  1
  O  O5  1  0.849406  0.911557  0.074981  1
  O  O6  1  0.349406  0.411557  0.425019  1
  O  O7  1  0.150594  0.088443  0.925019  1
  O  O8  1  0.005441  0.376496  0.578478  1
  O  O9  1  0.494559  0.123504  0.078478  1
  O  O10  1  0.994559  0.623504  0.421522  1
  O  O11  1  0.505441  0.876496  0.921522  1
  O  O12  1  0.321399  0.634009  0.673977  1
  O  O13  1  0.178601  0.865991  0.173977  1
  O  O14  1  0.678601  0.365991  0.326023  1
  O  O15  1  0.821399  0.134009  0.826023  1
  O  O16  1  0.106465  0.107899  0.656573  1
  O  O17  1  0.393535  0.392101  0.156573  1
  O  O18  1  0.893535  0.892101  0.343427  1
  O  O19  1  0.606465  0.607899  0.843427  1
  O  O20  1  0.680137  0.393353  0.944356  1
  O  O21  1  0.819863  0.106647  0.444356  1
  O  O22  1  0.319863  0.606647  0.055644  1
  O  O23  1  0.180137  0.893353  0.555644  1
  O  O24  1  0.089072  0.849889  0.743449  1
  O  O25  1  0.410928  0.650111  0.243449  1
  O  O26  1  0.910928  0.150111  0.256551  1
  O  O27  1  0.589072  0.349889  0.756551  1
  O  O28  1  0.412506  0.040989  0.703805  1
  O  O29  1  0.087494  0.459011  0.203805  1
  O  O30  1  0.587494  0.959011  0.296195  1
  O  O31  1  0.912506  0.540989  0.796195  1
  O  O32  1  0.016912  0.727138  0.971152  1
  O  O33  1  0.483088  0.772862  0.471152  1
  O  O34  1  0.983088  0.272862  0.028848  1
  O  O35  1  0.516912  0.227138  0.528848  1
  P  P36  1  0.198406  0.977138  0.663379  1
  P  P37  1  0.301594  0.522862  0.163379  1
  P  P38  1  0.801594  0.022862  0.336621  1
  P  P39  1  0.698406  0.477138  0.836621  1
  Ge  Ge40  1  0.460080  0.264526  0.397425  1
  Ge  Ge41  1  0.039920  0.235474  0.897425  1
  Ge  Ge42  1  0.539920  0.735474  0.602575  1
  Ge  Ge43  1  0.960080  0.764526  0.102575  1
  Pr  Pr44  1  0.989392  0.624818  0.609714  1
  Pr  Pr45  1  0.510608  0.875182  0.109714  1
  Pr  Pr46  1  0.010608  0.375182  0.390286  1
  Pr  Pr47  1  0.489392  0.124818  0.890286  1
  Pr  Pr48  1  0.256181  0.644115  0.870995  1
  Pr  Pr49  1  0.243819  0.855885  0.370995  1
  Pr  Pr50  1  0.743819  0.355885  0.129005  1
  Pr  Pr51  1  0.756181  0.144115  0.629005  1
  Pr  Pr52  1  0.332281  0.370667  0.633439  1
  Pr  Pr53  1  0.167719  0.129333  0.133439  1
  Pr  Pr54  1  0.667719  0.629333  0.366561  1
  Pr  Pr55  1  0.832281  0.870667  0.866561  1
