# generated using pymatgen
data_CsCu2F6
_symmetry_space_group_name_H-M   'P 1'
_cell_length_a   7.39156557
_cell_length_b   7.31517563
_cell_length_c   7.31517562
_cell_angle_alpha   60.24580719
_cell_angle_beta   59.65395393
_cell_angle_gamma   59.65395393
_symmetry_Int_Tables_number   1
_chemical_formula_structural   CsCu2F6
_chemical_formula_sum   'Cs2 Cu4 F12'
_cell_volume   278.72194127
_cell_formula_units_Z   2
loop_
 _symmetry_equiv_pos_site_id
 _symmetry_equiv_pos_as_xyz
  1  'x, y, z'
loop_
 _atom_site_type_symbol
 _atom_site_label
 _atom_site_symmetry_multiplicity
 _atom_site_fract_x
 _atom_site_fract_y
 _atom_site_fract_z
 _atom_site_occupancy
  F  F0  1  0.934941  0.433710  0.315481  1
  F  F1  1  0.684132  0.566290  0.684519  1
  F  F2  1  0.065059  0.184519  0.066290  1
  F  F3  1  0.315868  0.815481  0.933710  1
  F  F4  1  0.065059  0.566290  0.684519  1
  F  F5  1  0.315868  0.433710  0.315481  1
  F  F6  1  0.319761  0.430239  0.930239  1
  F  F7  1  0.680239  0.569761  0.069761  1
  F  F8  1  0.069436  0.180564  0.680564  1
  F  F9  1  0.930564  0.819436  0.319436  1
  F  F10  1  0.684132  0.184519  0.066290  1
  F  F11  1  0.934941  0.815481  0.933710  1
  Cu  Cu12  1  0.000000  0.500000  0.500000  1
  Cu  Cu13  1  0.000000  0.000000  0.000000  1
  Cu  Cu14  1  0.500000  0.500000  0.000000  1
  Cu  Cu15  1  0.000000  0.500000  0.000000  1
  Cs  Cs16  1  0.625822  0.124178  0.624178  1
  Cs  Cs17  1  0.374178  0.875822  0.375822  1
