# generated using pymatgen
data_Te2Mo3W(SeS2)2
_symmetry_space_group_name_H-M   'P 1'
_cell_length_a   3.30548777
_cell_length_b   3.30541776
_cell_length_c   37.64907196
_cell_angle_alpha   90.00009150
_cell_angle_beta   90.00000000
_cell_angle_gamma   120.00070057
_symmetry_Int_Tables_number   1
_chemical_formula_structural   Te2Mo3W(SeS2)2
_chemical_formula_sum   'Te2 Mo3 W1 Se2 S4'
_cell_volume   356.24087742
_cell_formula_units_Z   1
loop_
 _symmetry_equiv_pos_site_id
 _symmetry_equiv_pos_as_xyz
  1  'x, y, z'
loop_
 _atom_site_type_symbol
 _atom_site_label
 _atom_site_symmetry_multiplicity
 _atom_site_fract_x
 _atom_site_fract_y
 _atom_site_fract_z
 _atom_site_occupancy
  Te  Te0  1  0.666648  0.333296  0.418791  1
  Te  Te1  1  0.666647  0.333294  0.520484  1
  Mo  Mo2  1  0.333310  0.666620  0.093929  1
  Mo  Mo3  1  0.333310  0.666620  0.469641  1
  Mo  Mo4  1  0.666704  0.333408  0.281782  1
  W  W5  1  0.666692  0.333383  0.657579  1
  Se  Se6  1  0.666643  0.333284  0.049234  1
  Se  Se7  1  0.666647  0.333293  0.138628  1
  S  S8  1  0.333345  0.666691  0.322325  1
  S  S9  1  0.333356  0.666713  0.698319  1
  S  S10  1  0.333345  0.666692  0.241227  1
  S  S11  1  0.333353  0.666706  0.616809  1
