# generated using pymatgen
data_Y2Si5Ni3
_symmetry_space_group_name_H-M   'P 1'
_cell_length_a   5.65899686
_cell_length_b   7.87461863
_cell_length_c   7.87461863
_cell_angle_alpha   75.00545763
_cell_angle_beta   68.94163351
_cell_angle_gamma   68.94163361
_symmetry_Int_Tables_number   1
_chemical_formula_structural   Y2Si5Ni3
_chemical_formula_sum   'Y4 Si10 Ni6'
_cell_volume   302.20223406
_cell_formula_units_Z   2
loop_
 _symmetry_equiv_pos_site_id
 _symmetry_equiv_pos_as_xyz
  1  'x, y, z'
loop_
 _atom_site_type_symbol
 _atom_site_label
 _atom_site_symmetry_multiplicity
 _atom_site_fract_x
 _atom_site_fract_y
 _atom_site_fract_z
 _atom_site_occupancy
  Si  Si0  1  0.250000  0.000000  0.000000  1
  Si  Si1  1  0.750000  0.000000  0.000000  1
  Si  Si2  1  0.983515  0.266485  0.266485  1
  Si  Si3  1  0.516485  0.733515  0.733515  1
  Si  Si4  1  0.016485  0.733515  0.733515  1
  Si  Si5  1  0.483515  0.266485  0.266485  1
  Si  Si6  1  0.392489  0.455091  0.759932  1
  Si  Si7  1  0.607511  0.544909  0.240068  1
  Si  Si8  1  0.892489  0.759932  0.455091  1
  Si  Si9  1  0.107511  0.240068  0.544909  1
  Ni  Ni10  1  0.634160  0.753832  0.977848  1
  Ni  Ni11  1  0.134160  0.977848  0.753832  1
  Ni  Ni12  1  0.250000  0.500000  0.500000  1
  Ni  Ni13  1  0.750000  0.500000  0.500000  1
  Ni  Ni14  1  0.365840  0.246168  0.022152  1
  Ni  Ni15  1  0.865840  0.022152  0.246168  1
  Y  Y16  1  0.631083  0.105759  0.632075  1
  Y  Y17  1  0.368917  0.894241  0.367925  1
  Y  Y18  1  0.868917  0.367925  0.894241  1
  Y  Y19  1  0.131083  0.632075  0.105759  1
