# generated using pymatgen
data_GdZnGe
_symmetry_space_group_name_H-M   'P 1'
_cell_length_a   4.27124715
_cell_length_b   4.27124715
_cell_length_c   15.96101697
_cell_angle_alpha   90.00000000
_cell_angle_beta   90.00000000
_cell_angle_gamma   119.99999993
_symmetry_Int_Tables_number   1
_chemical_formula_structural   GdZnGe
_chemical_formula_sum   'Gd4 Zn4 Ge4'
_cell_volume   252.17416726
_cell_formula_units_Z   4
loop_
 _symmetry_equiv_pos_site_id
 _symmetry_equiv_pos_as_xyz
  1  'x, y, z'
loop_
 _atom_site_type_symbol
 _atom_site_label
 _atom_site_symmetry_multiplicity
 _atom_site_fract_x
 _atom_site_fract_y
 _atom_site_fract_z
 _atom_site_occupancy
  Zn  Zn0  1  0.666667  0.333333  0.852126  1
  Zn  Zn1  1  0.666667  0.333333  0.647874  1
  Zn  Zn2  1  0.333333  0.666667  0.147874  1
  Zn  Zn3  1  0.333333  0.666667  0.352126  1
  Ge  Ge4  1  0.666667  0.333333  0.113692  1
  Ge  Ge5  1  0.666667  0.333333  0.386308  1
  Ge  Ge6  1  0.333333  0.666667  0.886308  1
  Ge  Ge7  1  0.333333  0.666667  0.613692  1
  Gd  Gd8  1  0.000000  0.000000  0.750000  1
  Gd  Gd9  1  0.000000  0.000000  0.250000  1
  Gd  Gd10  1  0.000000  0.000000  0.500000  1
  Gd  Gd11  1  0.000000  0.000000  0.000000  1
