# generated using pymatgen
data_Rb2GaAs2
_symmetry_space_group_name_H-M   'P 1'
_cell_length_a   9.23597905
_cell_length_b   11.07962347
_cell_length_c   14.92385798
_cell_angle_alpha   90.00000000
_cell_angle_beta   90.00000000
_cell_angle_gamma   109.02674700
_symmetry_Int_Tables_number   1
_chemical_formula_structural   Rb2GaAs2
_chemical_formula_sum   'Rb16 Ga8 As16'
_cell_volume   1443.74087467
_cell_formula_units_Z   8
loop_
 _symmetry_equiv_pos_site_id
 _symmetry_equiv_pos_as_xyz
  1  'x, y, z'
loop_
 _atom_site_type_symbol
 _atom_site_label
 _atom_site_symmetry_multiplicity
 _atom_site_fract_x
 _atom_site_fract_y
 _atom_site_fract_z
 _atom_site_occupancy
  Ga  Ga0  1  0.742205  0.743333  0.058300  1
  Ga  Ga1  1  0.757795  0.756667  0.558300  1
  Ga  Ga2  1  0.242205  0.243333  0.441700  1
  Ga  Ga3  1  0.386138  0.242654  0.216323  1
  Ga  Ga4  1  0.113862  0.257346  0.716323  1
  Ga  Ga5  1  0.613862  0.757346  0.783677  1
  Ga  Ga6  1  0.886138  0.742654  0.283677  1
  Ga  Ga7  1  0.257795  0.256667  0.941700  1
  As  As8  1  0.942502  0.739664  0.445066  1
  As  As9  1  0.915007  0.287509  0.809648  1
  As  As10  1  0.415007  0.787509  0.690352  1
  As  As11  1  0.584993  0.212491  0.309648  1
  As  As12  1  0.165189  0.271734  0.288696  1
  As  As13  1  0.334811  0.228266  0.788696  1
  As  As14  1  0.834811  0.728266  0.711304  1
  As  As15  1  0.665189  0.771734  0.211304  1
  As  As16  1  0.557498  0.760336  0.945066  1
  As  As17  1  0.057498  0.260336  0.554934  1
  As  As18  1  0.442502  0.239664  0.054934  1
  As  As19  1  0.991198  0.720963  0.035252  1
  As  As20  1  0.491198  0.220963  0.464748  1
  As  As21  1  0.008802  0.279037  0.964748  1
  As  As22  1  0.084993  0.712491  0.190352  1
  As  As23  1  0.508802  0.779037  0.535252  1
  Rb  Rb24  1  0.938204  0.430621  0.382891  1
  Rb  Rb25  1  0.561796  0.069379  0.882891  1
  Rb  Rb26  1  0.061796  0.569379  0.617109  1
  Rb  Rb27  1  0.438204  0.930621  0.117109  1
  Rb  Rb28  1  0.817869  0.023010  0.386396  1
  Rb  Rb29  1  0.682131  0.476990  0.886396  1
  Rb  Rb30  1  0.182131  0.976990  0.613604  1
  Rb  Rb31  1  0.317869  0.523010  0.113604  1
  Rb  Rb32  1  0.815830  0.406619  0.130560  1
  Rb  Rb33  1  0.684170  0.093381  0.630560  1
  Rb  Rb34  1  0.184170  0.593381  0.869440  1
  Rb  Rb35  1  0.315830  0.906619  0.369440  1
  Rb  Rb36  1  0.022174  0.035631  0.129121  1
  Rb  Rb37  1  0.477826  0.464369  0.629121  1
  Rb  Rb38  1  0.977826  0.964369  0.870879  1
  Rb  Rb39  1  0.522174  0.535631  0.370879  1
