# generated using pymatgen
data_Cs3Na2SnP3
_symmetry_space_group_name_H-M   'P 1'
_cell_length_a   6.92294760
_cell_length_b   10.88369145
_cell_length_c   16.55818276
_cell_angle_alpha   90.00000000
_cell_angle_beta   90.00000000
_cell_angle_gamma   108.54457017
_symmetry_Int_Tables_number   1
_chemical_formula_structural   Cs3Na2SnP3
_chemical_formula_sum   'Cs12 Na8 Sn4 P12'
_cell_volume   1182.83273888
_cell_formula_units_Z   4
loop_
 _symmetry_equiv_pos_site_id
 _symmetry_equiv_pos_as_xyz
  1  'x, y, z'
loop_
 _atom_site_type_symbol
 _atom_site_label
 _atom_site_symmetry_multiplicity
 _atom_site_fract_x
 _atom_site_fract_y
 _atom_site_fract_z
 _atom_site_occupancy
  Na  Na0  1  0.080604  0.161208  0.000000  1
  Na  Na1  1  0.419396  0.838792  0.500000  1
  Na  Na2  1  0.919396  0.838792  0.000000  1
  Na  Na3  1  0.580604  0.161208  0.500000  1
  Na  Na4  1  0.245903  0.491806  0.000000  1
  Na  Na5  1  0.254097  0.508194  0.500000  1
  Na  Na6  1  0.754097  0.508194  0.000000  1
  Na  Na7  1  0.745903  0.491806  0.500000  1
  P  P8  1  0.561099  0.685861  0.908695  1
  P  P9  1  0.124762  0.685861  0.091305  1
  P  P10  1  0.938901  0.314139  0.408695  1
  P  P11  1  0.624762  0.685861  0.408695  1
  P  P12  1  0.438901  0.314139  0.091305  1
  P  P13  1  0.875238  0.314139  0.908695  1
  P  P14  1  0.061099  0.685861  0.591305  1
  P  P15  1  0.200781  0.000000  0.417633  1
  P  P16  1  0.700781  0.000000  0.082367  1
  P  P17  1  0.299219  0.000000  0.917633  1
  P  P18  1  0.375238  0.314139  0.591305  1
  P  P19  1  0.799219  0.000000  0.582367  1
  Sn  Sn20  1  0.412603  0.825206  0.000000  1
  Sn  Sn21  1  0.087397  0.174794  0.500000  1
  Sn  Sn22  1  0.587397  0.174794  0.000000  1
  Sn  Sn23  1  0.912603  0.825206  0.500000  1
  Cs  Cs24  1  0.607256  0.665835  0.172712  1
  Cs  Cs25  1  0.892744  0.334165  0.672712  1
  Cs  Cs26  1  0.058580  0.665835  0.827288  1
  Cs  Cs27  1  0.392744  0.334165  0.827288  1
  Cs  Cs28  1  0.558580  0.665835  0.672712  1
  Cs  Cs29  1  0.107256  0.665835  0.327288  1
  Cs  Cs30  1  0.941420  0.334165  0.172712  1
  Cs  Cs31  1  0.267491  0.000000  0.678655  1
  Cs  Cs32  1  0.767491  0.000000  0.821345  1
  Cs  Cs33  1  0.232509  0.000000  0.178655  1
  Cs  Cs34  1  0.732509  0.000000  0.321345  1
  Cs  Cs35  1  0.441420  0.334165  0.327288  1
