# generated using pymatgen
data_Sr6Ga5N
_symmetry_space_group_name_H-M   'P 1'
_cell_length_a   14.23945830
_cell_length_b   14.23945830
_cell_length_c   14.23945830
_cell_angle_alpha   30.96330591
_cell_angle_beta   30.96330589
_cell_angle_gamma   30.96330589
_symmetry_Int_Tables_number   1
_chemical_formula_structural   Sr6Ga5N
_chemical_formula_sum   'Sr12 Ga10 N2'
_cell_volume   677.93636258
_cell_formula_units_Z   2
loop_
 _symmetry_equiv_pos_site_id
 _symmetry_equiv_pos_as_xyz
  1  'x, y, z'
loop_
 _atom_site_type_symbol
 _atom_site_label
 _atom_site_symmetry_multiplicity
 _atom_site_fract_x
 _atom_site_fract_y
 _atom_site_fract_z
 _atom_site_occupancy
  N  N0  1  0.500000  0.500000  0.500000  1
  N  N1  1  0.000000  0.000000  0.000000  1
  Ga  Ga2  1  0.958645  0.750000  0.541355  1
  Ga  Ga3  1  0.805645  0.805645  0.805645  1
  Ga  Ga4  1  0.305645  0.305645  0.305645  1
  Ga  Ga5  1  0.694355  0.694355  0.694355  1
  Ga  Ga6  1  0.194355  0.194355  0.194355  1
  Ga  Ga7  1  0.750000  0.541355  0.958645  1
  Ga  Ga8  1  0.541355  0.958645  0.750000  1
  Ga  Ga9  1  0.041355  0.250000  0.458645  1
  Ga  Ga10  1  0.250000  0.458645  0.041355  1
  Ga  Ga11  1  0.458645  0.041355  0.250000  1
  Sr  Sr12  1  0.634630  0.215370  0.758024  1
  Sr  Sr13  1  0.215370  0.758024  0.634630  1
  Sr  Sr14  1  0.758024  0.634630  0.215370  1
  Sr  Sr15  1  0.741976  0.284630  0.865370  1
  Sr  Sr16  1  0.284630  0.865370  0.741976  1
  Sr  Sr17  1  0.865370  0.741976  0.284630  1
  Sr  Sr18  1  0.365370  0.784630  0.241976  1
  Sr  Sr19  1  0.784630  0.241976  0.365370  1
  Sr  Sr20  1  0.241976  0.365370  0.784630  1
  Sr  Sr21  1  0.258024  0.715370  0.134630  1
  Sr  Sr22  1  0.715370  0.134630  0.258024  1
  Sr  Sr23  1  0.134630  0.258024  0.715370  1
