# generated using pymatgen
data_Te2MoW3(Se2S)2
_symmetry_space_group_name_H-M   'P 1'
_cell_length_a   3.34284488
_cell_length_b   3.34284354
_cell_length_c   38.08740063
_cell_angle_alpha   90.00065573
_cell_angle_beta   90.00000000
_cell_angle_gamma   120.00001326
_symmetry_Int_Tables_number   1
_chemical_formula_structural   Te2MoW3(Se2S)2
_chemical_formula_sum   'Te2 Mo1 W3 Se4 S2'
_cell_volume   368.59053790
_cell_formula_units_Z   1
loop_
 _symmetry_equiv_pos_site_id
 _symmetry_equiv_pos_as_xyz
  1  'x, y, z'
loop_
 _atom_site_type_symbol
 _atom_site_label
 _atom_site_symmetry_multiplicity
 _atom_site_fract_x
 _atom_site_fract_y
 _atom_site_fract_z
 _atom_site_occupancy
  Te  Te0  1  0.333353  0.666708  0.707622  1
  Te  Te1  1  0.333357  0.666715  0.607505  1
  Mo  Mo2  1  0.333311  0.666621  0.093904  1
  W  W3  1  0.333309  0.666618  0.469628  1
  W  W4  1  0.666688  0.333377  0.281789  1
  W  W5  1  0.666691  0.333382  0.657597  1
  Se  Se6  1  0.666642  0.333282  0.050190  1
  Se  Se7  1  0.666647  0.333294  0.425696  1
  Se  Se8  1  0.666652  0.333302  0.137651  1
  Se  Se9  1  0.666649  0.333296  0.513577  1
  S  S10  1  0.333351  0.666704  0.321775  1
  S  S11  1  0.333350  0.666701  0.241814  1
