# generated using pymatgen
data_Te2MoWSeS
_symmetry_space_group_name_H-M   'P 1'
_cell_length_a   3.39799923
_cell_length_b   3.39804003
_cell_length_c   39.18178240
_cell_angle_alpha   89.99945273
_cell_angle_beta   90.00000000
_cell_angle_gamma   119.99960272
_symmetry_Int_Tables_number   1
_chemical_formula_structural   Te2MoWSeS
_chemical_formula_sum   'Te4 Mo2 W2 Se2 S2'
_cell_volume   391.80351286
_cell_formula_units_Z   2
loop_
 _symmetry_equiv_pos_site_id
 _symmetry_equiv_pos_as_xyz
  1  'x, y, z'
loop_
 _atom_site_type_symbol
 _atom_site_label
 _atom_site_symmetry_multiplicity
 _atom_site_fract_x
 _atom_site_fract_y
 _atom_site_fract_z
 _atom_site_occupancy
  Te  Te0  1  0.333333  0.666666  0.330348  1
  Te  Te1  1  0.666666  0.333330  0.045572  1
  Te  Te2  1  0.666671  0.333341  0.141221  1
  Te  Te3  1  0.333338  0.666678  0.234199  1
  Mo  Mo4  1  0.333317  0.666634  0.093375  1
  Mo  Mo5  1  0.333304  0.666609  0.469647  1
  W  W6  1  0.666689  0.333378  0.282315  1
  W  W7  1  0.666685  0.333370  0.657570  1
  Se  Se8  1  0.333334  0.666669  0.699808  1
  Se  Se9  1  0.333330  0.666660  0.615365  1
  S  S10  1  0.666670  0.333339  0.431314  1
  S  S11  1  0.666664  0.333328  0.508014  1
