# generated using pymatgen
data_Sr3Ge2(B3O8)2
_symmetry_space_group_name_H-M   'P 1'
_cell_length_a   5.06346051
_cell_length_b   7.46609862
_cell_length_c   8.56458977
_cell_angle_alpha   76.71541572
_cell_angle_beta   77.15314171
_cell_angle_gamma   89.52854552
_symmetry_Int_Tables_number   1
_chemical_formula_structural   Sr3Ge2(B3O8)2
_chemical_formula_sum   'Sr3 Ge2 B6 O16'
_cell_volume   306.91259530
_cell_formula_units_Z   1
loop_
 _symmetry_equiv_pos_site_id
 _symmetry_equiv_pos_as_xyz
  1  'x, y, z'
loop_
 _atom_site_type_symbol
 _atom_site_label
 _atom_site_symmetry_multiplicity
 _atom_site_fract_x
 _atom_site_fract_y
 _atom_site_fract_z
 _atom_site_occupancy
  Sr  Sr0  1  0.908578  0.908821  0.742490  1
  Sr  Sr1  1  0.091422  0.091179  0.257510  1
  Sr  Sr2  1  0.000000  0.500000  0.500000  1
  Ge  Ge3  1  0.300242  0.685105  0.054159  1
  Ge  Ge4  1  0.699758  0.314895  0.945841  1
  B  B5  1  0.541787  0.191561  0.538616  1
  B  B6  1  0.458213  0.808439  0.461384  1
  B  B7  1  0.540625  0.410843  0.258189  1
  B  B8  1  0.459375  0.589157  0.741811  1
  B  B9  1  0.730079  0.755132  0.195969  1
  B  B10  1  0.269921  0.244868  0.804031  1
  O  O11  1  0.374733  0.116712  0.695609  1
  O  O12  1  0.625267  0.883288  0.304391  1
  O  O13  1  0.813436  0.177920  0.512338  1
  O  O14  1  0.186564  0.822080  0.487662  1
  O  O15  1  0.412886  0.276370  0.414080  1
  O  O16  1  0.587114  0.723630  0.585920  1
  O  O17  1  0.294221  0.465324  0.190160  1
  O  O18  1  0.705779  0.534676  0.809840  1
  O  O19  1  0.732106  0.315844  0.146067  1
  O  O20  1  0.267894  0.684156  0.853933  1
  O  O21  1  0.674712  0.563972  0.292956  1
  O  O22  1  0.325288  0.436028  0.707044  1
  O  O23  1  0.028155  0.806789  0.140734  1
  O  O24  1  0.971845  0.193211  0.859266  1
  O  O25  1  0.613298  0.795262  0.046452  1
  O  O26  1  0.386702  0.204738  0.953548  1
