# generated using pymatgen
data_Ti(CrSe2)2
_symmetry_space_group_name_H-M   'P 1'
_cell_length_a   3.64301351
_cell_length_b   6.52292169
_cell_length_c   6.98080678
_cell_angle_alpha   117.27429222
_cell_angle_beta   105.12529341
_cell_angle_gamma   90.00000000
_symmetry_Int_Tables_number   1
_chemical_formula_structural   Ti(CrSe2)2
_chemical_formula_sum   'Ti1 Cr2 Se4'
_cell_volume   140.94624672
_cell_formula_units_Z   1
loop_
 _symmetry_equiv_pos_site_id
 _symmetry_equiv_pos_as_xyz
  1  'x, y, z'
loop_
 _atom_site_type_symbol
 _atom_site_label
 _atom_site_symmetry_multiplicity
 _atom_site_fract_x
 _atom_site_fract_y
 _atom_site_fract_z
 _atom_site_occupancy
  Ti  Ti0  1  0.000000  0.000000  0.000000  1
  Cr  Cr1  1  0.261044  0.278810  0.522089  1
  Cr  Cr2  1  0.738956  0.721190  0.477911  1
  Se  Se3  1  0.124169  0.446899  0.248338  1
  Se  Se4  1  0.875831  0.553101  0.751662  1
  Se  Se5  1  0.365864  0.027268  0.731727  1
  Se  Se6  1  0.634136  0.972732  0.268273  1
