# generated using pymatgen
data_Zr2Fe
_symmetry_space_group_name_H-M   'P 1'
_cell_length_a   8.59708880
_cell_length_b   8.59708880
_cell_length_c   8.59708880
_cell_angle_alpha   60.00000000
_cell_angle_beta   60.00000000
_cell_angle_gamma   59.99999998
_symmetry_Int_Tables_number   1
_chemical_formula_structural   Zr2Fe
_chemical_formula_sum   'Zr16 Fe8'
_cell_volume   449.30291890
_cell_formula_units_Z   8
loop_
 _symmetry_equiv_pos_site_id
 _symmetry_equiv_pos_as_xyz
  1  'x, y, z'
loop_
 _atom_site_type_symbol
 _atom_site_label
 _atom_site_symmetry_multiplicity
 _atom_site_fract_x
 _atom_site_fract_y
 _atom_site_fract_z
 _atom_site_occupancy
  Fe  Fe0  1  0.718865  0.718865  0.718865  1
  Fe  Fe1  1  0.281135  0.281135  0.656596  1
  Fe  Fe2  1  0.656596  0.281135  0.281135  1
  Fe  Fe3  1  0.281135  0.656596  0.281135  1
  Fe  Fe4  1  0.343404  0.718865  0.718865  1
  Fe  Fe5  1  0.718865  0.343404  0.718865  1
  Fe  Fe6  1  0.718865  0.718865  0.343404  1
  Fe  Fe7  1  0.281135  0.281135  0.281135  1
  Zr  Zr8  1  0.500000  0.500000  0.500000  1
  Zr  Zr9  1  0.500000  0.500000  0.000000  1
  Zr  Zr10  1  0.000000  0.500000  0.500000  1
  Zr  Zr11  1  0.500000  0.000000  0.500000  1
  Zr  Zr12  1  0.686897  0.063103  0.063103  1
  Zr  Zr13  1  0.936897  0.936897  0.313103  1
  Zr  Zr14  1  0.313103  0.313103  0.936897  1
  Zr  Zr15  1  0.936897  0.313103  0.313103  1
  Zr  Zr16  1  0.936897  0.313103  0.936897  1
  Zr  Zr17  1  0.313103  0.936897  0.313103  1
  Zr  Zr18  1  0.063103  0.686897  0.063103  1
  Zr  Zr19  1  0.063103  0.063103  0.686897  1
  Zr  Zr20  1  0.686897  0.686897  0.063103  1
  Zr  Zr21  1  0.686897  0.063103  0.686897  1
  Zr  Zr22  1  0.313103  0.936897  0.936897  1
  Zr  Zr23  1  0.063103  0.686897  0.686897  1
