# generated using pymatgen
data_Te2Mo3W(SeS2)2
_symmetry_space_group_name_H-M   'P 1'
_cell_length_a   3.30815423
_cell_length_b   3.30818808
_cell_length_c   37.59844497
_cell_angle_alpha   89.99977067
_cell_angle_beta   90.00000000
_cell_angle_gamma   119.99966144
_symmetry_Int_Tables_number   1
_chemical_formula_structural   Te2Mo3W(SeS2)2
_chemical_formula_sum   'Te2 Mo3 W1 Se2 S4'
_cell_volume   356.35096363
_cell_formula_units_Z   1
loop_
 _symmetry_equiv_pos_site_id
 _symmetry_equiv_pos_as_xyz
  1  'x, y, z'
loop_
 _atom_site_type_symbol
 _atom_site_label
 _atom_site_symmetry_multiplicity
 _atom_site_fract_x
 _atom_site_fract_y
 _atom_site_fract_z
 _atom_site_occupancy
  Te  Te0  1  0.333351  0.666703  0.708395  1
  Te  Te1  1  0.333358  0.666717  0.606696  1
  Mo  Mo2  1  0.333316  0.666631  0.093907  1
  Mo  Mo3  1  0.333301  0.666602  0.469661  1
  Mo  Mo4  1  0.666689  0.333378  0.657580  1
  W  W5  1  0.666689  0.333378  0.281800  1
  Se  Se6  1  0.333356  0.666713  0.326731  1
  Se  Se7  1  0.333349  0.666699  0.236858  1
  S  S8  1  0.666647  0.333294  0.053282  1
  S  S9  1  0.666650  0.333299  0.429029  1
  S  S10  1  0.666644  0.333286  0.134542  1
  S  S11  1  0.666651  0.333300  0.510266  1
