# generated using pymatgen
data_Te4Mo3WSe4
_symmetry_space_group_name_H-M   'P 1'
_cell_length_a   3.44153090
_cell_length_b   3.44149529
_cell_length_c   39.06526841
_cell_angle_alpha   90.00035002
_cell_angle_beta   90.00000000
_cell_angle_gamma   120.00034227
_symmetry_Int_Tables_number   1
_chemical_formula_structural   Te4Mo3WSe4
_chemical_formula_sum   'Te4 Mo3 W1 Se4'
_cell_volume   400.69949895
_cell_formula_units_Z   1
loop_
 _symmetry_equiv_pos_site_id
 _symmetry_equiv_pos_as_xyz
  1  'x, y, z'
loop_
 _atom_site_type_symbol
 _atom_site_label
 _atom_site_symmetry_multiplicity
 _atom_site_fract_x
 _atom_site_fract_y
 _atom_site_fract_z
 _atom_site_occupancy
  Te  Te0  1  0.333357  0.666714  0.705334  1
  Te  Te1  1  0.666641  0.333282  0.046496  1
  Te  Te2  1  0.666648  0.333294  0.141358  1
  Te  Te3  1  0.333353  0.666706  0.609717  1
  Mo  Mo4  1  0.333309  0.666618  0.093932  1
  Mo  Mo5  1  0.333313  0.666626  0.469646  1
  Mo  Mo6  1  0.666690  0.333380  0.281814  1
  W  W7  1  0.666689  0.333377  0.657531  1
  Se  Se8  1  0.333356  0.666713  0.323674  1
  Se  Se9  1  0.666647  0.333293  0.427780  1
  Se  Se10  1  0.666647  0.333294  0.511542  1
  Se  Se11  1  0.333350  0.666702  0.239924  1
