# generated using pymatgen
data_V2PO5
_symmetry_space_group_name_H-M   'P 1'
_cell_length_a   5.47400673
_cell_length_b   5.47400673
_cell_length_c   7.38890576
_cell_angle_alpha   111.74156293
_cell_angle_beta   111.74156290
_cell_angle_gamma   90.00000005
_symmetry_Int_Tables_number   1
_chemical_formula_structural   V2PO5
_chemical_formula_sum   'V4 P2 O10'
_cell_volume   188.59603383
_cell_formula_units_Z   2
loop_
 _symmetry_equiv_pos_site_id
 _symmetry_equiv_pos_as_xyz
  1  'x, y, z'
loop_
 _atom_site_type_symbol
 _atom_site_label
 _atom_site_symmetry_multiplicity
 _atom_site_fract_x
 _atom_site_fract_y
 _atom_site_fract_z
 _atom_site_occupancy
  O  O0  1  0.375000  0.625000  0.750000  1
  O  O1  1  0.625000  0.375000  0.250000  1
  O  O2  1  0.191897  0.704811  0.383794  1
  O  O3  1  0.821016  0.808103  0.116206  1
  O  O4  1  0.295189  0.808103  0.116206  1
  O  O5  1  0.808103  0.295189  0.616206  1
  O  O6  1  0.191897  0.178984  0.383794  1
  O  O7  1  0.704811  0.191897  0.883794  1
  O  O8  1  0.178984  0.191897  0.883794  1
  O  O9  1  0.808103  0.821016  0.616206  1
  P  P10  1  0.875000  0.125000  0.750000  1
  P  P11  1  0.125000  0.875000  0.250000  1
  V  V12  1  0.000000  0.500000  0.500000  1
  V  V13  1  0.500000  0.000000  0.000000  1
  V  V14  1  0.500000  0.500000  0.000000  1
  V  V15  1  0.500000  0.500000  0.500000  1
