# generated using pymatgen
data_CO
_symmetry_space_group_name_H-M   'P 1'
_cell_length_a   5.96380833
_cell_length_b   5.96380833
_cell_length_c   5.96380833
_cell_angle_alpha   90.00000000
_cell_angle_beta   90.00000000
_cell_angle_gamma   90.00000000
_symmetry_Int_Tables_number   1
_chemical_formula_structural   CO
_chemical_formula_sum   'C4 O4'
_cell_volume   212.11482930
_cell_formula_units_Z   4
loop_
 _symmetry_equiv_pos_site_id
 _symmetry_equiv_pos_as_xyz
  1  'x, y, z'
loop_
 _atom_site_type_symbol
 _atom_site_label
 _atom_site_symmetry_multiplicity
 _atom_site_fract_x
 _atom_site_fract_y
 _atom_site_fract_z
 _atom_site_occupancy
  C  C0  1  0.959164  0.959164  0.959164  1
  C  C1  1  0.540836  0.040836  0.459164  1
  C  C2  1  0.459164  0.540836  0.040836  1
  C  C3  1  0.040836  0.459164  0.540836  1
  O  O4  1  0.069818  0.069818  0.069818  1
  O  O5  1  0.430182  0.930182  0.569818  1
  O  O6  1  0.569818  0.430182  0.930182  1
  O  O7  1  0.930182  0.569818  0.430182  1
