# generated using pymatgen
data_Sr2InF7
_symmetry_space_group_name_H-M   'P 1'
_cell_length_a   5.59825893
_cell_length_b   8.41229081
_cell_length_c   12.44248138
_cell_angle_alpha   90.00000000
_cell_angle_beta   90.00000000
_cell_angle_gamma   90.59506952
_symmetry_Int_Tables_number   1
_chemical_formula_structural   Sr2InF7
_chemical_formula_sum   'Sr8 In4 F28'
_cell_volume   585.93688088
_cell_formula_units_Z   4
loop_
 _symmetry_equiv_pos_site_id
 _symmetry_equiv_pos_as_xyz
  1  'x, y, z'
loop_
 _atom_site_type_symbol
 _atom_site_label
 _atom_site_symmetry_multiplicity
 _atom_site_fract_x
 _atom_site_fract_y
 _atom_site_fract_z
 _atom_site_occupancy
  F  F0  1  0.198614  0.031651  0.860644  1
  F  F1  1  0.801386  0.468349  0.360644  1
  F  F2  1  0.801386  0.968349  0.139356  1
  F  F3  1  0.198614  0.531651  0.639356  1
  F  F4  1  0.627098  0.373420  0.573860  1
  F  F5  1  0.372902  0.126580  0.073860  1
  F  F6  1  0.372902  0.626580  0.426140  1
  F  F7  1  0.627098  0.873420  0.926140  1
  F  F8  1  0.508251  0.706399  0.227563  1
  F  F9  1  0.491749  0.793601  0.727563  1
  F  F10  1  0.491749  0.293601  0.772437  1
  F  F11  1  0.508251  0.206399  0.272437  1
  F  F12  1  0.508567  0.927297  0.395613  1
  F  F13  1  0.491433  0.572703  0.895613  1
  F  F14  1  0.491433  0.072703  0.604387  1
  F  F15  1  0.508567  0.427297  0.104387  1
  F  F16  1  0.988356  0.695228  0.244090  1
  F  F17  1  0.011644  0.804772  0.744090  1
  F  F18  1  0.011644  0.304772  0.755910  1
  F  F19  1  0.988356  0.195228  0.255910  1
  F  F20  1  0.986885  0.911565  0.395395  1
  F  F21  1  0.013115  0.588435  0.895395  1
  F  F22  1  0.013115  0.088435  0.604605  1
  F  F23  1  0.986885  0.411565  0.104605  1
  F  F24  1  0.194314  0.788243  0.041205  1
  F  F25  1  0.805686  0.711757  0.541205  1
  F  F26  1  0.805686  0.211757  0.958795  1
  F  F27  1  0.194314  0.288243  0.458795  1
  Sr  Sr28  1  0.233188  0.447215  0.279352  1
  Sr  Sr29  1  0.766812  0.052785  0.779352  1
  Sr  Sr30  1  0.766812  0.552785  0.720648  1
  Sr  Sr31  1  0.233188  0.947215  0.220648  1
  Sr  Sr32  1  0.765741  0.676849  0.061451  1
  Sr  Sr33  1  0.234259  0.823151  0.561451  1
  Sr  Sr34  1  0.234259  0.323151  0.938549  1
  Sr  Sr35  1  0.765741  0.176849  0.438549  1
  In  In36  1  0.721101  0.714397  0.374471  1
  In  In37  1  0.278899  0.785603  0.874471  1
  In  In38  1  0.278899  0.285603  0.625529  1
  In  In39  1  0.721101  0.214397  0.125529  1
