# generated using pymatgen
data_LaCrS2O
_symmetry_space_group_name_H-M   'P 1'
_cell_length_a   3.75736210
_cell_length_b   8.52884820
_cell_length_c   11.29895663
_cell_angle_alpha   90.00000000
_cell_angle_beta   90.00000000
_cell_angle_gamma   90.00000000
_symmetry_Int_Tables_number   1
_chemical_formula_structural   LaCrS2O
_chemical_formula_sum   'La4 Cr4 S8 O4'
_cell_volume   362.08603631
_cell_formula_units_Z   4
loop_
 _symmetry_equiv_pos_site_id
 _symmetry_equiv_pos_as_xyz
  1  'x, y, z'
loop_
 _atom_site_type_symbol
 _atom_site_label
 _atom_site_symmetry_multiplicity
 _atom_site_fract_x
 _atom_site_fract_y
 _atom_site_fract_z
 _atom_site_occupancy
  O  O0  1  0.250001  0.887348  0.963618  1
  O  O1  1  0.749999  0.112652  0.036382  1
  O  O2  1  0.250001  0.387348  0.536382  1
  O  O3  1  0.749999  0.612652  0.463618  1
  S  S4  1  0.749999  0.242463  0.330912  1
  S  S5  1  0.250001  0.757537  0.669088  1
  S  S6  1  0.250001  0.257538  0.830912  1
  S  S7  1  0.749999  0.742463  0.169088  1
  S  S8  1  0.749999  0.597154  0.898173  1
  S  S9  1  0.250001  0.402847  0.101827  1
  S  S10  1  0.250001  0.902846  0.398173  1
  S  S11  1  0.749999  0.097154  0.601827  1
  Cr  Cr12  1  0.250001  0.669684  0.028480  1
  Cr  Cr13  1  0.749999  0.330316  0.971520  1
  Cr  Cr14  1  0.250001  0.169684  0.471520  1
  Cr  Cr15  1  0.749999  0.830316  0.528479  1
  La  La16  1  0.250001  0.546221  0.352240  1
  La  La17  1  0.749999  0.453779  0.647760  1
  La  La18  1  0.250001  0.046220  0.147760  1
  La  La19  1  0.749999  0.953779  0.852240  1
