# generated using pymatgen
data_Cr3N4
_symmetry_space_group_name_H-M   'P 1'
_cell_length_a   9.40598548
_cell_length_b   13.54091876
_cell_length_c   13.54091876
_cell_angle_alpha   119.99999914
_cell_angle_beta   90.00000000
_cell_angle_gamma   90.00000000
_symmetry_Int_Tables_number   1
_chemical_formula_structural   Cr3N4
_chemical_formula_sum   'Cr18 N24'
_cell_volume   1493.58933802
_cell_formula_units_Z   6
loop_
 _symmetry_equiv_pos_site_id
 _symmetry_equiv_pos_as_xyz
  1  'x, y, z'
loop_
 _atom_site_type_symbol
 _atom_site_label
 _atom_site_symmetry_multiplicity
 _atom_site_fract_x
 _atom_site_fract_y
 _atom_site_fract_z
 _atom_site_occupancy
  Cr  Cr0  1  0.249970  0.978225  0.202914  1
  Cr  Cr1  1  0.249970  0.797086  0.775311  1
  Cr  Cr2  1  0.249970  0.224689  0.021775  1
  Cr  Cr3  1  0.749970  0.021775  0.797086  1
  Cr  Cr4  1  0.749970  0.202914  0.224689  1
  Cr  Cr5  1  0.749970  0.775311  0.978225  1
  Cr  Cr6  1  0.914921  0.981262  0.186581  1
  Cr  Cr7  1  0.914921  0.813419  0.794682  1
  Cr  Cr8  1  0.914921  0.205318  0.018738  1
  Cr  Cr9  1  0.414921  0.018738  0.813419  1
  Cr  Cr10  1  0.414921  0.186581  0.205318  1
  Cr  Cr11  1  0.414921  0.794682  0.981262  1
  Cr  Cr12  1  0.584634  0.981486  0.186319  1
  Cr  Cr13  1  0.584634  0.813681  0.795167  1
  Cr  Cr14  1  0.584634  0.204833  0.018514  1
  Cr  Cr15  1  0.084634  0.018514  0.813681  1
  Cr  Cr16  1  0.084634  0.186319  0.204833  1
  Cr  Cr17  1  0.084634  0.795167  0.981486  1
  N  N18  1  0.250525  0.999874  0.327737  1
  N  N19  1  0.250525  0.672263  0.672137  1
  N  N20  1  0.250525  0.327863  0.000126  1
  N  N21  1  0.750525  0.000126  0.672263  1
  N  N22  1  0.750525  0.327737  0.327863  1
  N  N23  1  0.750525  0.672137  0.999874  1
  N  N24  1  0.419050  0.902165  0.132191  1
  N  N25  1  0.419050  0.867809  0.769974  1
  N  N26  1  0.419050  0.230026  0.097835  1
  N  N27  1  0.919050  0.097835  0.867809  1
  N  N28  1  0.919050  0.132191  0.230026  1
  N  N29  1  0.919050  0.769974  0.902165  1
  N  N30  1  0.080543  0.901936  0.132650  1
  N  N31  1  0.080543  0.867350  0.769286  1
  N  N32  1  0.080543  0.230714  0.098064  1
  N  N33  1  0.580543  0.098064  0.867350  1
  N  N34  1  0.580543  0.132650  0.230714  1
  N  N35  1  0.580543  0.769286  0.901936  1
  N  N36  1  0.749757  0.906123  0.127243  1
  N  N37  1  0.749757  0.872757  0.778880  1
  N  N38  1  0.749757  0.221120  0.093877  1
  N  N39  1  0.249757  0.093877  0.872757  1
  N  N40  1  0.249757  0.127243  0.221120  1
  N  N41  1  0.249757  0.778880  0.906123  1
