# generated using pymatgen
data_Sr3Sc2Cu2S2O5
_symmetry_space_group_name_H-M   'P 1'
_cell_length_a   4.09630215
_cell_length_b   4.09630215
_cell_length_c   13.39607479
_cell_angle_alpha   98.79455271
_cell_angle_beta   98.79455271
_cell_angle_gamma   89.99999997
_symmetry_Int_Tables_number   1
_chemical_formula_structural   Sr3Sc2Cu2S2O5
_chemical_formula_sum   'Sr3 Sc2 Cu2 S2 O5'
_cell_volume   219.46461899
_cell_formula_units_Z   1
loop_
 _symmetry_equiv_pos_site_id
 _symmetry_equiv_pos_as_xyz
  1  'x, y, z'
loop_
 _atom_site_type_symbol
 _atom_site_label
 _atom_site_symmetry_multiplicity
 _atom_site_fract_x
 _atom_site_fract_y
 _atom_site_fract_z
 _atom_site_occupancy
  O  O0  1  0.000000  0.000000  0.000000  1
  O  O1  1  0.413281  0.913281  0.826563  1
  O  O2  1  0.913281  0.413281  0.826563  1
  O  O3  1  0.086719  0.586719  0.173437  1
  O  O4  1  0.586719  0.086719  0.173437  1
  S  S5  1  0.800819  0.800819  0.601638  1
  S  S6  1  0.199181  0.199181  0.398362  1
  Sc  Sc7  1  0.923709  0.923709  0.847418  1
  Sc  Sc8  1  0.076291  0.076291  0.152582  1
  Cu  Cu9  1  0.250000  0.750000  0.500000  1
  Cu  Cu10  1  0.750000  0.250000  0.500000  1
  Sr  Sr11  1  0.500000  0.500000  0.000000  1
  Sr  Sr12  1  0.644881  0.644881  0.289762  1
  Sr  Sr13  1  0.355119  0.355119  0.710238  1
