# generated using pymatgen
data_Co2SiO4
_symmetry_space_group_name_H-M   'P 1'
_cell_length_a   5.79063358
_cell_length_b   5.79139231
_cell_length_c   5.79291152
_cell_angle_alpha   60.33977546
_cell_angle_beta   60.31549627
_cell_angle_gamma   60.32234033
_symmetry_Int_Tables_number   1
_chemical_formula_structural   Co2SiO4
_chemical_formula_sum   'Co4 Si2 O8'
_cell_volume   138.38251526
_cell_formula_units_Z   2
loop_
 _symmetry_equiv_pos_site_id
 _symmetry_equiv_pos_as_xyz
  1  'x, y, z'
loop_
 _atom_site_type_symbol
 _atom_site_label
 _atom_site_symmetry_multiplicity
 _atom_site_fract_x
 _atom_site_fract_y
 _atom_site_fract_z
 _atom_site_occupancy
  Co  Co0  1  0.500000  0.500000  0.000000  1
  Co  Co1  1  0.500000  0.000000  0.500000  1
  Co  Co2  1  0.500000  0.500000  0.500000  1
  Co  Co3  1  1.000000  0.500000  0.500000  1
  Si  Si4  1  0.125111  0.125086  0.124945  1
  Si  Si5  1  0.874891  0.874913  0.875055  1
  O  O6  1  0.241716  0.773403  0.243634  1
  O  O7  1  0.773386  0.243642  0.241997  1
  O  O8  1  0.758283  0.226597  0.756367  1
  O  O9  1  0.243428  0.241514  0.773466  1
  O  O10  1  0.226612  0.756359  0.758002  1
  O  O11  1  0.243935  0.243840  0.243350  1
  O  O12  1  0.756572  0.758485  0.226533  1
  O  O13  1  0.756065  0.756159  0.756650  1
