# generated using pymatgen
data_Li3Fe2(PO4)3
_symmetry_space_group_name_H-M   'P 1'
_cell_length_a   8.70252726
_cell_length_b   8.73930556
_cell_length_c   12.30018251
_cell_angle_alpha   90.00000000
_cell_angle_beta   90.25389325
_cell_angle_gamma   90.00000000
_symmetry_Int_Tables_number   1
_chemical_formula_structural   Li3Fe2(PO4)3
_chemical_formula_sum   'Li12 Fe8 P12 O48'
_cell_volume   935.46944765
_cell_formula_units_Z   4
loop_
 _symmetry_equiv_pos_site_id
 _symmetry_equiv_pos_as_xyz
  1  'x, y, z'
loop_
 _atom_site_type_symbol
 _atom_site_label
 _atom_site_symmetry_multiplicity
 _atom_site_fract_x
 _atom_site_fract_y
 _atom_site_fract_z
 _atom_site_occupancy
  Li  Li0  1  0.939355  0.939129  0.288635  1
  Li  Li1  1  0.560645  0.439128  0.211365  1
  Li  Li2  1  0.060645  0.060872  0.711365  1
  Li  Li3  1  0.439355  0.560872  0.788635  1
  Li  Li4  1  0.698898  0.768167  0.313589  1
  Li  Li5  1  0.801102  0.268167  0.186412  1
  Li  Li6  1  0.301103  0.231833  0.686412  1
  Li  Li7  1  0.198898  0.731833  0.813588  1
  Li  Li8  1  0.218295  0.771666  0.181453  1
  Li  Li9  1  0.281705  0.271666  0.318548  1
  Li  Li10  1  0.781705  0.228334  0.818547  1
  Li  Li11  1  0.718295  0.728334  0.681453  1
  O  O12  1  0.844855  0.774917  0.184318  1
  O  O13  1  0.655145  0.274917  0.315683  1
  O  O14  1  0.155145  0.225083  0.815682  1
  O  O15  1  0.344856  0.725083  0.684317  1
  O  O16  1  0.330793  0.758893  0.321125  1
  O  O17  1  0.169206  0.258893  0.178875  1
  O  O18  1  0.669207  0.241107  0.678875  1
  O  O19  1  0.830793  0.741108  0.821125  1
  O  O20  1  0.855094  0.661831  0.413520  1
  O  O21  1  0.644906  0.161831  0.086480  1
  O  O22  1  0.144905  0.338170  0.586481  1
  O  O23  1  0.355094  0.838170  0.913520  1
  O  O24  1  0.341007  0.662570  0.073455  1
  O  O25  1  0.158993  0.162570  0.426544  1
  O  O26  1  0.658993  0.337430  0.926544  1
  O  O27  1  0.841008  0.837431  0.573456  1
  O  O28  1  0.559748  0.844410  0.066038  1
  O  O29  1  0.940252  0.344410  0.433963  1
  O  O30  1  0.440252  0.155590  0.933962  1
  O  O31  1  0.059748  0.655590  0.566037  1
  O  O32  1  0.043062  0.870742  0.423941  1
  O  O33  1  0.456939  0.370741  0.076059  1
  O  O34  1  0.956938  0.129259  0.576059  1
  O  O35  1  0.543062  0.629259  0.923941  1
  O  O36  1  0.341039  0.549048  0.465321  1
  O  O37  1  0.158962  0.049048  0.034678  1
  O  O38  1  0.658962  0.450953  0.534678  1
  O  O39  1  0.841038  0.950953  0.965322  1
  O  O40  1  0.849005  0.587461  0.027518  1
  O  O41  1  0.650996  0.087461  0.472482  1
  O  O42  1  0.150996  0.412539  0.972482  1
  O  O43  1  0.349004  0.912539  0.527518  1
  O  O44  1  0.693822  0.988462  0.283397  1
  O  O45  1  0.806178  0.488462  0.216602  1
  O  O46  1  0.306177  0.011538  0.716602  1
  O  O47  1  0.193823  0.511538  0.783398  1
  O  O48  1  0.163667  0.976917  0.232228  1
  O  O49  1  0.336332  0.476917  0.267772  1
  O  O50  1  0.836333  0.023082  0.767772  1
  O  O51  1  0.663667  0.523082  0.732228  1
  O  O52  1  0.570004  0.596931  0.340601  1
  O  O53  1  0.929996  0.096931  0.159399  1
  O  O54  1  0.429997  0.403069  0.659399  1
  O  O55  1  0.070004  0.903070  0.840601  1
  O  O56  1  0.069442  0.596022  0.163383  1
  O  O57  1  0.430558  0.096021  0.336617  1
  O  O58  1  0.930558  0.403979  0.836617  1
  O  O59  1  0.569441  0.903979  0.663382  1
  P  P60  1  0.454103  0.744449  0.995605  1
  P  P61  1  0.045896  0.244449  0.504395  1
  P  P62  1  0.545897  0.255551  0.004394  1
  P  P63  1  0.954104  0.755552  0.495606  1
  P  P64  1  0.893824  0.609862  0.146959  1
  P  P65  1  0.606176  0.109862  0.353041  1
  P  P66  1  0.106177  0.390138  0.853041  1
  P  P67  1  0.393824  0.890137  0.646959  1
  P  P68  1  0.391548  0.598885  0.352298  1
  P  P69  1  0.108453  0.098886  0.147703  1
  P  P70  1  0.608452  0.401114  0.647702  1
  P  P71  1  0.891548  0.901114  0.852297  1
  Fe  Fe72  1  0.741398  0.959550  0.104386  1
  Fe  Fe73  1  0.758602  0.459551  0.395614  1
  Fe  Fe74  1  0.258603  0.040449  0.895614  1
  Fe  Fe75  1  0.241398  0.540449  0.604387  1
  Fe  Fe76  1  0.255183  0.957327  0.390133  1
  Fe  Fe77  1  0.244817  0.457327  0.109867  1
  Fe  Fe78  1  0.744817  0.042673  0.609867  1
  Fe  Fe79  1  0.755183  0.542673  0.890133  1
