# generated using pymatgen
data_Sr2LiSi3
_symmetry_space_group_name_H-M   'P 1'
_cell_length_a   8.53427185
_cell_length_b   8.55673740
_cell_length_c   10.07597842
_cell_angle_alpha   77.80778272
_cell_angle_beta   64.94450181
_cell_angle_gamma   60.08681231
_symmetry_Int_Tables_number   1
_chemical_formula_structural   Sr2LiSi3
_chemical_formula_sum   'Sr8 Li4 Si12'
_cell_volume   577.76480975
_cell_formula_units_Z   4
loop_
 _symmetry_equiv_pos_site_id
 _symmetry_equiv_pos_as_xyz
  1  'x, y, z'
loop_
 _atom_site_type_symbol
 _atom_site_label
 _atom_site_symmetry_multiplicity
 _atom_site_fract_x
 _atom_site_fract_y
 _atom_site_fract_z
 _atom_site_occupancy
  Li  Li0  1  0.542226  0.915548  0.250000  1
  Li  Li1  1  0.792226  0.415548  0.750000  1
  Li  Li2  1  0.457774  0.084452  0.750000  1
  Li  Li3  1  0.207774  0.584452  0.250000  1
  Si  Si4  1  0.711411  0.089202  0.255669  1
  Si  Si5  1  0.556281  0.410798  0.244331  1
  Si  Si6  1  0.199388  0.089202  0.244331  1
  Si  Si7  1  0.032921  0.410798  0.255669  1
  Si  Si8  1  0.288589  0.910798  0.744331  1
  Si  Si9  1  0.967079  0.589202  0.744331  1
  Si  Si10  1  0.800612  0.910798  0.755669  1
  Si  Si11  1  0.443719  0.589202  0.755669  1
  Si  Si12  1  0.713735  0.572531  0.250000  1
  Si  Si13  1  0.036265  0.927469  0.250000  1
  Si  Si14  1  0.286265  0.427469  0.750000  1
  Si  Si15  1  0.963735  0.072531  0.750000  1
  Sr  Sr16  1  0.500915  0.750000  0.998171  1
  Sr  Sr17  1  0.749085  0.750000  0.501829  1
  Sr  Sr18  1  0.499085  0.250000  0.001829  1
  Sr  Sr19  1  0.250915  0.250000  0.498171  1
  Sr  Sr20  1  0.000671  0.750000  0.998657  1
  Sr  Sr21  1  0.249329  0.750000  0.501343  1
  Sr  Sr22  1  0.999329  0.250000  0.001343  1
  Sr  Sr23  1  0.750671  0.250000  0.498657  1
