# generated using pymatgen
data_RbC10
_symmetry_space_group_name_H-M   'P 1'
_cell_length_a   10.16922182
_cell_length_b   10.16922182
_cell_length_c   10.16922182
_cell_angle_alpha   109.47122065
_cell_angle_beta   109.47122065
_cell_angle_gamma   109.47122062
_symmetry_Int_Tables_number   1
_chemical_formula_structural   RbC10
_chemical_formula_sum   'Rb6 C60'
_cell_volume   809.54551575
_cell_formula_units_Z   6
loop_
 _symmetry_equiv_pos_site_id
 _symmetry_equiv_pos_as_xyz
  1  'x, y, z'
loop_
 _atom_site_type_symbol
 _atom_site_label
 _atom_site_symmetry_multiplicity
 _atom_site_fract_x
 _atom_site_fract_y
 _atom_site_fract_z
 _atom_site_occupancy
  C  C0  1  0.298329  0.359303  0.060974  1
  C  C1  1  0.237356  0.939026  0.298329  1
  C  C2  1  0.939026  0.701671  0.640697  1
  C  C3  1  0.762644  0.060974  0.701671  1
  C  C4  1  0.939026  0.298329  0.237356  1
  C  C5  1  0.640697  0.939026  0.701671  1
  C  C6  1  0.060974  0.701671  0.762644  1
  C  C7  1  0.060974  0.298329  0.359303  1
  C  C8  1  0.359303  0.060974  0.298329  1
  C  C9  1  0.298329  0.237356  0.939026  1
  C  C10  1  0.701671  0.640697  0.939026  1
  C  C11  1  0.701671  0.762644  0.060974  1
  C  C12  1  0.359580  0.382224  0.222308  1
  C  C13  1  0.137273  0.777692  0.159916  1
  C  C14  1  0.977356  0.840084  0.617776  1
  C  C15  1  0.862727  0.022644  0.640420  1
  C  C16  1  0.777692  0.159916  0.137273  1
  C  C17  1  0.617776  0.977356  0.840084  1
  C  C18  1  0.022644  0.640420  0.862727  1
  C  C19  1  0.222308  0.359580  0.382224  1
  C  C20  1  0.382224  0.222308  0.359580  1
  C  C21  1  0.159916  0.137273  0.777692  1
  C  C22  1  0.840084  0.617776  0.977356  1
  C  C23  1  0.640420  0.862727  0.022644  1
  C  C24  1  0.640420  0.617776  0.777692  1
  C  C25  1  0.862727  0.222308  0.840084  1
  C  C26  1  0.022644  0.159916  0.382224  1
  C  C27  1  0.137273  0.977356  0.359580  1
  C  C28  1  0.222308  0.840084  0.862727  1
  C  C29  1  0.382224  0.022644  0.159916  1
  C  C30  1  0.977356  0.359580  0.137273  1
  C  C31  1  0.777692  0.640420  0.617776  1
  C  C32  1  0.617776  0.777692  0.640420  1
  C  C33  1  0.840084  0.862727  0.222308  1
  C  C34  1  0.159916  0.382224  0.022644  1
  C  C35  1  0.359580  0.137273  0.977356  1
  C  C36  1  0.419508  0.283300  0.259381  1
  C  C37  1  0.160127  0.740619  0.023919  1
  C  C38  1  0.136208  0.976081  0.716700  1
  C  C39  1  0.839873  0.863792  0.580492  1
  C  C40  1  0.740619  0.023919  0.160127  1
  C  C41  1  0.716700  0.136208  0.976081  1
  C  C42  1  0.863792  0.580492  0.839873  1
  C  C43  1  0.259381  0.419508  0.283300  1
  C  C44  1  0.283300  0.259381  0.419508  1
  C  C45  1  0.023919  0.160127  0.740619  1
  C  C46  1  0.976081  0.716700  0.136208  1
  C  C47  1  0.580492  0.839873  0.863792  1
  C  C48  1  0.580492  0.716700  0.740619  1
  C  C49  1  0.839873  0.259381  0.976081  1
  C  C50  1  0.863792  0.023919  0.283300  1
  C  C51  1  0.160127  0.136208  0.419508  1
  C  C52  1  0.259381  0.976081  0.839873  1
  C  C53  1  0.283300  0.863792  0.023919  1
  C  C54  1  0.136208  0.419508  0.160127  1
  C  C55  1  0.740619  0.580492  0.716700  1
  C  C56  1  0.716700  0.740619  0.580492  1
  C  C57  1  0.976081  0.839873  0.259381  1
  C  C58  1  0.023919  0.283300  0.863792  1
  C  C59  1  0.419508  0.160127  0.136208  1
  Rb  Rb60  1  0.778527  0.278527  0.500000  1
  Rb  Rb61  1  0.278527  0.500000  0.778527  1
  Rb  Rb62  1  0.500000  0.221473  0.721473  1
  Rb  Rb63  1  0.721473  0.500000  0.221473  1
  Rb  Rb64  1  0.500000  0.778527  0.278527  1
  Rb  Rb65  1  0.221473  0.721473  0.500000  1
