# generated using pymatgen
data_CsSi2BO6
_symmetry_space_group_name_H-M   'P 1'
_cell_length_a   11.38970585
_cell_length_b   11.38970585
_cell_length_c   11.38970585
_cell_angle_alpha   109.90429923
_cell_angle_beta   109.25511631
_cell_angle_gamma   109.25511631
_symmetry_Int_Tables_number   1
_chemical_formula_structural   CsSi2BO6
_chemical_formula_sum   'Cs8 Si16 B8 O48'
_cell_volume   1137.35753082
_cell_formula_units_Z   8
loop_
 _symmetry_equiv_pos_site_id
 _symmetry_equiv_pos_as_xyz
  1  'x, y, z'
loop_
 _atom_site_type_symbol
 _atom_site_label
 _atom_site_symmetry_multiplicity
 _atom_site_fract_x
 _atom_site_fract_y
 _atom_site_fract_z
 _atom_site_occupancy
  Cs  Cs0  1  0.496946  0.998473  0.248473  1
  Cs  Cs1  1  0.250000  0.251527  0.748473  1
  Cs  Cs2  1  0.996946  0.248473  0.998473  1
  Cs  Cs3  1  0.750000  0.501527  0.498473  1
  Cs  Cs4  1  0.503054  0.001527  0.751527  1
  Cs  Cs5  1  0.750000  0.748473  0.251527  1
  Cs  Cs6  1  0.003054  0.751527  0.001527  1
  Cs  Cs7  1  0.250000  0.498473  0.501527  1
  Si  Si8  1  0.207409  0.952223  0.427297  1
  Si  Si9  1  0.475074  0.719888  0.927297  1
  Si  Si10  1  0.707409  0.427297  0.952223  1
  Si  Si11  1  0.524926  0.744814  0.452223  1
  Si  Si12  1  0.792591  0.047777  0.572703  1
  Si  Si13  1  0.524926  0.280112  0.072703  1
  Si  Si14  1  0.292591  0.572703  0.047777  1
  Si  Si15  1  0.475074  0.255186  0.547777  1
  Si  Si16  1  0.024926  0.452223  0.744814  1
  Si  Si17  1  0.292591  0.219888  0.244814  1
  Si  Si18  1  0.975074  0.927297  0.719888  1
  Si  Si19  1  0.792591  0.244814  0.219888  1
  Si  Si20  1  0.975074  0.547777  0.255186  1
  Si  Si21  1  0.707409  0.780112  0.755186  1
  Si  Si22  1  0.024926  0.072703  0.280112  1
  Si  Si23  1  0.207409  0.755186  0.780112  1
  B  B24  1  0.921224  0.210612  0.460612  1
  B  B25  1  0.250000  0.039388  0.960612  1
  B  B26  1  0.421224  0.460612  0.210612  1
  B  B27  1  0.750000  0.289388  0.710612  1
  B  B28  1  0.078776  0.789388  0.539388  1
  B  B29  1  0.750000  0.960612  0.039388  1
  B  B30  1  0.578776  0.539388  0.789388  1
  B  B31  1  0.250000  0.710612  0.289388  1
  O  O32  1  0.274857  0.683183  0.165189  1
  O  O33  1  0.482006  0.390332  0.665189  1
  O  O34  1  0.774857  0.165189  0.683183  1
  O  O35  1  0.517994  0.408327  0.183183  1
  O  O36  1  0.725143  0.316817  0.834811  1
  O  O37  1  0.517994  0.609668  0.334811  1
  O  O38  1  0.225143  0.834811  0.316817  1
  O  O39  1  0.482006  0.591673  0.816817  1
  O  O40  1  0.017994  0.183183  0.408327  1
  O  O41  1  0.225143  0.890332  0.908327  1
  O  O42  1  0.982006  0.665189  0.390332  1
  O  O43  1  0.725143  0.908327  0.890332  1
  O  O44  1  0.982006  0.816817  0.591673  1
  O  O45  1  0.774857  0.109668  0.091673  1
  O  O46  1  0.017994  0.334811  0.609668  1
  O  O47  1  0.274857  0.091673  0.109668  1
  O  O48  1  0.356369  0.109507  0.528863  1
  O  O49  1  0.419356  0.672494  0.028863  1
  O  O50  1  0.856369  0.528863  0.109507  1
  O  O51  1  0.580644  0.753138  0.609507  1
  O  O52  1  0.643631  0.890493  0.471137  1
  O  O53  1  0.580644  0.327506  0.971137  1
  O  O54  1  0.143631  0.471137  0.890493  1
  O  O55  1  0.419356  0.246862  0.390493  1
  O  O56  1  0.080644  0.609507  0.753138  1
  O  O57  1  0.143631  0.172494  0.253138  1
  O  O58  1  0.919356  0.028863  0.672494  1
  O  O59  1  0.643631  0.253138  0.172494  1
  O  O60  1  0.919356  0.390493  0.246862  1
  O  O61  1  0.856369  0.827506  0.746862  1
  O  O62  1  0.080644  0.971137  0.327506  1
  O  O63  1  0.356369  0.746862  0.827506  1
  O  O64  1  0.375474  0.745512  0.417595  1
  O  O65  1  0.672083  0.542121  0.917595  1
  O  O66  1  0.875474  0.417595  0.745512  1
  O  O67  1  0.327917  0.370038  0.245512  1
  O  O68  1  0.624526  0.254488  0.582405  1
  O  O69  1  0.327917  0.457879  0.082405  1
  O  O70  1  0.124526  0.582405  0.254488  1
  O  O71  1  0.672083  0.629962  0.754488  1
  O  O72  1  0.827917  0.245512  0.370038  1
  O  O73  1  0.124526  0.042121  0.870038  1
  O  O74  1  0.172082  0.917595  0.542121  1
  O  O75  1  0.624526  0.870038  0.042121  1
  O  O76  1  0.172082  0.754488  0.629962  1
  O  O77  1  0.875474  0.957879  0.129962  1
  O  O78  1  0.827917  0.082405  0.457879  1
  O  O79  1  0.375474  0.129962  0.957879  1
