# generated using pymatgen
data_Te2MoWSeS
_symmetry_space_group_name_H-M   'P 1'
_cell_length_a   3.39543414
_cell_length_b   3.39543429
_cell_length_c   38.69259557
_cell_angle_alpha   90.00023941
_cell_angle_beta   90.00000000
_cell_angle_gamma   119.99999850
_symmetry_Int_Tables_number   1
_chemical_formula_structural   Te2MoWSeS
_chemical_formula_sum   'Te4 Mo2 W2 Se2 S2'
_cell_volume   386.32173602
_cell_formula_units_Z   2
loop_
 _symmetry_equiv_pos_site_id
 _symmetry_equiv_pos_as_xyz
  1  'x, y, z'
loop_
 _atom_site_type_symbol
 _atom_site_label
 _atom_site_symmetry_multiplicity
 _atom_site_fract_x
 _atom_site_fract_y
 _atom_site_fract_z
 _atom_site_occupancy
  Te  Te0  1  0.333354  0.666709  0.706200  1
  Te  Te1  1  0.666643  0.333285  0.045579  1
  Te  Te2  1  0.666649  0.333297  0.142257  1
  Te  Te3  1  0.333365  0.666732  0.608850  1
  Mo  Mo4  1  0.333309  0.666619  0.093918  1
  Mo  Mo5  1  0.666687  0.333374  0.281824  1
  W  W6  1  0.333309  0.666618  0.469660  1
  W  W7  1  0.666690  0.333380  0.657545  1
  Se  Se8  1  0.333352  0.666705  0.324371  1
  Se  Se9  1  0.333350  0.666701  0.239234  1
  S  S10  1  0.666646  0.333290  0.430735  1
  S  S11  1  0.666646  0.333290  0.508575  1
