# generated using pymatgen
data_KGaS2
_symmetry_space_group_name_H-M   'P 1'
_cell_length_a   7.47782948
_cell_length_b   7.47782542
_cell_length_c   15.02263590
_cell_angle_alpha   97.16021939
_cell_angle_beta   97.16022465
_cell_angle_gamma   89.97785919
_symmetry_Int_Tables_number   1
_chemical_formula_structural   KGaS2
_chemical_formula_sum   'K8 Ga8 S16'
_cell_volume   826.88540700
_cell_formula_units_Z   8
loop_
 _symmetry_equiv_pos_site_id
 _symmetry_equiv_pos_as_xyz
  1  'x, y, z'
loop_
 _atom_site_type_symbol
 _atom_site_label
 _atom_site_symmetry_multiplicity
 _atom_site_fract_x
 _atom_site_fract_y
 _atom_site_fract_z
 _atom_site_occupancy
  S  S0  1  0.838637  0.463326  0.086815  1
  S  S1  1  0.463325  0.838637  0.586815  1
  S  S2  1  0.629112  0.253333  0.267565  1
  S  S3  1  0.253333  0.629112  0.767565  1
  S  S4  1  0.328589  0.953433  0.086081  1
  S  S5  1  0.953434  0.328589  0.586081  1
  S  S6  1  0.753050  0.627503  0.763978  1
  S  S7  1  0.627502  0.753050  0.263978  1
  S  S8  1  0.463421  0.328584  0.586577  1
  S  S9  1  0.328584  0.463421  0.086577  1
  S  S10  1  0.538369  0.164184  0.905293  1
  S  S11  1  0.838289  0.953092  0.086217  1
  S  S12  1  0.164898  0.038961  0.408944  1
  S  S13  1  0.038961  0.164898  0.908943  1
  S  S14  1  0.953092  0.838289  0.586217  1
  S  S15  1  0.164184  0.538369  0.405293  1
  K  K16  1  0.117111  0.241845  0.225250  1
  K  K17  1  0.548907  0.672411  0.947273  1
  K  K18  1  0.119677  0.743668  0.227397  1
  K  K19  1  0.743668  0.119677  0.727397  1
  K  K20  1  0.047234  0.672915  0.945729  1
  K  K21  1  0.672915  0.047234  0.445729  1
  K  K22  1  0.241845  0.117111  0.725250  1
  K  K23  1  0.672411  0.548908  0.447273  1
  Ga  Ga24  1  0.604936  0.983259  0.172589  1
  Ga  Ga25  1  0.983259  0.604936  0.672589  1
  Ga  Ga26  1  0.476601  0.605051  0.672986  1
  Ga  Ga27  1  0.605051  0.476601  0.172986  1
  Ga  Ga28  1  0.315358  0.187150  0.000002  1
  Ga  Ga29  1  0.187150  0.315358  0.500002  1
  Ga  Ga30  1  0.187012  0.808585  0.500204  1
  Ga  Ga31  1  0.808585  0.187012  0.000204  1
