# generated using pymatgen
data_Ho4C7
_symmetry_space_group_name_H-M   'P 1'
_cell_length_a   3.68842083
_cell_length_b   12.53687438
_cell_length_c   13.69170423
_cell_angle_alpha   90.00000000
_cell_angle_beta   96.72041143
_cell_angle_gamma   90.00000000
_symmetry_Int_Tables_number   1
_chemical_formula_structural   Ho4C7
_chemical_formula_sum   'Ho16 C28'
_cell_volume   628.77160822
_cell_formula_units_Z   4
loop_
 _symmetry_equiv_pos_site_id
 _symmetry_equiv_pos_as_xyz
  1  'x, y, z'
loop_
 _atom_site_type_symbol
 _atom_site_label
 _atom_site_symmetry_multiplicity
 _atom_site_fract_x
 _atom_site_fract_y
 _atom_site_fract_z
 _atom_site_occupancy
  C  C0  1  0.257526  0.116682  0.050275  1
  C  C1  1  0.242474  0.616682  0.449725  1
  C  C2  1  0.742474  0.883318  0.949725  1
  C  C3  1  0.757526  0.383318  0.550275  1
  C  C4  1  0.839536  0.640735  0.674322  1
  C  C5  1  0.660464  0.140735  0.825678  1
  C  C6  1  0.160464  0.359265  0.325678  1
  C  C7  1  0.339536  0.859265  0.174322  1
  C  C8  1  0.303455  0.889996  0.547590  1
  C  C9  1  0.196545  0.389996  0.952410  1
  C  C10  1  0.696545  0.110004  0.452410  1
  C  C11  1  0.803455  0.610004  0.047590  1
  C  C12  1  0.138689  0.917284  0.729348  1
  C  C13  1  0.361311  0.417284  0.770652  1
  C  C14  1  0.861311  0.082716  0.270652  1
  C  C15  1  0.638689  0.582716  0.229348  1
  C  C16  1  0.223211  0.671550  0.847925  1
  C  C17  1  0.276789  0.171550  0.652075  1
  C  C18  1  0.776789  0.328450  0.152075  1
  C  C19  1  0.723211  0.828450  0.347925  1
  C  C20  1  0.225115  0.896116  0.639565  1
  C  C21  1  0.274885  0.396116  0.860435  1
  C  C22  1  0.774885  0.103884  0.360435  1
  C  C23  1  0.725115  0.603884  0.139565  1
  C  C24  1  0.059139  0.651535  0.756355  1
  C  C25  1  0.440861  0.151535  0.743645  1
  C  C26  1  0.940861  0.348465  0.243645  1
  C  C27  1  0.559139  0.848465  0.256355  1
  Ho  Ho28  1  0.193194  0.015526  0.892608  1
  Ho  Ho29  1  0.306806  0.515526  0.607392  1
  Ho  Ho30  1  0.806806  0.984474  0.107392  1
  Ho  Ho31  1  0.693194  0.484474  0.392608  1
  Ho  Ho32  1  0.741154  0.039744  0.617805  1
  Ho  Ho33  1  0.758846  0.539744  0.882195  1
  Ho  Ho34  1  0.258846  0.960256  0.382195  1
  Ho  Ho35  1  0.241154  0.460256  0.117805  1
  Ho  Ho36  1  0.656528  0.805093  0.789596  1
  Ho  Ho37  1  0.843472  0.305093  0.710404  1
  Ho  Ho38  1  0.343472  0.194907  0.210404  1
  Ho  Ho39  1  0.156528  0.694907  0.289596  1
  Ho  Ho40  1  0.270130  0.762744  0.006592  1
  Ho  Ho41  1  0.229870  0.262744  0.493408  1
  Ho  Ho42  1  0.729870  0.237256  0.993408  1
  Ho  Ho43  1  0.770130  0.737256  0.506592  1
