# generated using pymatgen
data_SrLiAl3N4
_symmetry_space_group_name_H-M   'P 1'
_cell_length_a   5.88490804
_cell_length_b   7.53077078
_cell_length_c   9.99846730
_cell_angle_alpha   83.58023483
_cell_angle_beta   76.82025761
_cell_angle_gamma   79.54867340
_symmetry_Int_Tables_number   1
_chemical_formula_structural   SrLiAl3N4
_chemical_formula_sum   'Sr4 Li4 Al12 N16'
_cell_volume   423.13139924
_cell_formula_units_Z   4
loop_
 _symmetry_equiv_pos_site_id
 _symmetry_equiv_pos_as_xyz
  1  'x, y, z'
loop_
 _atom_site_type_symbol
 _atom_site_label
 _atom_site_symmetry_multiplicity
 _atom_site_fract_x
 _atom_site_fract_y
 _atom_site_fract_z
 _atom_site_occupancy
  Sr  Sr0  1  0.997514  0.865303  0.873700  1
  Sr  Sr1  1  0.002486  0.134697  0.126300  1
  Sr  Sr2  1  0.976245  0.616468  0.628323  1
  Sr  Sr3  1  0.023755  0.383532  0.371677  1
  Li  Li4  1  0.532651  0.674468  0.887486  1
  Li  Li5  1  0.467349  0.325532  0.112514  1
  Li  Li6  1  0.790571  0.820069  0.355861  1
  Li  Li7  1  0.209429  0.179931  0.644139  1
  Al  Al8  1  0.447963  0.045708  0.876565  1
  Al  Al9  1  0.552037  0.954292  0.123435  1
  Al  Al10  1  0.824423  0.059007  0.602278  1
  Al  Al11  1  0.175577  0.940993  0.397722  1
  Al  Al12  1  0.831878  0.291543  0.852120  1
  Al  Al13  1  0.168122  0.708457  0.147880  1
  Al  Al14  1  0.178869  0.442772  0.899954  1
  Al  Al15  1  0.821131  0.557228  0.100046  1
  Al  Al16  1  0.530879  0.438228  0.624615  1
  Al  Al17  1  0.469121  0.561772  0.375385  1
  Al  Al18  1  0.435773  0.796277  0.632973  1
  Al  Al19  1  0.564227  0.203723  0.367027  1
  N  N20  1  0.651170  0.131898  0.971052  1
  N  N21  1  0.348830  0.868102  0.028948  1
  N  N22  1  0.626256  0.644862  0.496090  1
  N  N23  1  0.373744  0.355138  0.503910  1
  N  N24  1  0.613712  0.916313  0.720210  1
  N  N25  1  0.386288  0.083687  0.279790  1
  N  N26  1  0.849207  0.069147  0.407743  1
  N  N27  1  0.150793  0.930853  0.592257  1
  N  N28  1  0.169190  0.204675  0.856034  1
  N  N29  1  0.830810  0.795325  0.143966  1
  N  N30  1  0.838033  0.522586  0.911566  1
  N  N31  1  0.161967  0.477414  0.088434  1
  N  N32  1  0.801980  0.290561  0.667338  1
  N  N33  1  0.198020  0.709439  0.332662  1
  N  N34  1  0.340855  0.590284  0.761057  1
  N  N35  1  0.659145  0.409716  0.238943  1
