# generated using pymatgen
data_Ba4LiTa3O12
_symmetry_space_group_name_H-M   'P 1'
_cell_length_a   5.86322590
_cell_length_b   5.86322590
_cell_length_c   19.35660838
_cell_angle_alpha   90.00000000
_cell_angle_beta   90.00000000
_cell_angle_gamma   119.99999999
_symmetry_Int_Tables_number   1
_chemical_formula_structural   Ba4LiTa3O12
_chemical_formula_sum   'Ba8 Li2 Ta6 O24'
_cell_volume   576.27947218
_cell_formula_units_Z   2
loop_
 _symmetry_equiv_pos_site_id
 _symmetry_equiv_pos_as_xyz
  1  'x, y, z'
loop_
 _atom_site_type_symbol
 _atom_site_label
 _atom_site_symmetry_multiplicity
 _atom_site_fract_x
 _atom_site_fract_y
 _atom_site_fract_z
 _atom_site_occupancy
  Li  Li0  1  0.000000  0.000000  0.166194  1
  Li  Li1  1  0.000000  0.000000  0.666194  1
  O  O2  1  0.841337  0.682675  0.757789  1
  O  O3  1  0.158663  0.317325  0.257789  1
  O  O4  1  0.682675  0.841337  0.257789  1
  O  O5  1  0.841337  0.158663  0.757789  1
  O  O6  1  0.169443  0.830557  0.878926  1
  O  O7  1  0.338887  0.169443  0.378926  1
  O  O8  1  0.830557  0.661113  0.378926  1
  O  O9  1  0.169443  0.338887  0.878926  1
  O  O10  1  0.661113  0.830557  0.878926  1
  O  O11  1  0.830557  0.169443  0.378926  1
  O  O12  1  0.173808  0.826192  0.617691  1
  O  O13  1  0.347617  0.173808  0.117691  1
  O  O14  1  0.158663  0.841337  0.257789  1
  O  O15  1  0.317325  0.158663  0.757789  1
  O  O16  1  0.498558  0.501442  0.996532  1
  O  O17  1  0.997116  0.498558  0.496532  1
  O  O18  1  0.501442  0.002884  0.496532  1
  O  O19  1  0.498558  0.997116  0.996532  1
  O  O20  1  0.002884  0.501442  0.996532  1
  O  O21  1  0.501442  0.498558  0.496532  1
  O  O22  1  0.826192  0.173808  0.117691  1
  O  O23  1  0.652383  0.826192  0.617691  1
  O  O24  1  0.173808  0.347617  0.617691  1
  O  O25  1  0.826192  0.652383  0.117691  1
  Ba  Ba26  1  0.000000  0.000000  0.002997  1
  Ba  Ba27  1  0.000000  0.000000  0.502997  1
  Ba  Ba28  1  0.333333  0.666667  0.145023  1
  Ba  Ba29  1  0.666667  0.333333  0.645023  1
  Ba  Ba30  1  0.333333  0.666667  0.369587  1
  Ba  Ba31  1  0.666667  0.333333  0.869587  1
  Ba  Ba32  1  0.666667  0.333333  0.248126  1
  Ba  Ba33  1  0.333333  0.666667  0.748126  1
  Ta  Ta34  1  0.000000  0.000000  0.309962  1
  Ta  Ta35  1  0.000000  0.000000  0.809962  1
  Ta  Ta36  1  0.333333  0.666667  0.565823  1
  Ta  Ta37  1  0.666667  0.333333  0.065823  1
  Ta  Ta38  1  0.333333  0.666667  0.939473  1
  Ta  Ta39  1  0.666667  0.333333  0.439473  1
