# generated using pymatgen
data_TeMoWSe3
_symmetry_space_group_name_H-M   'P 1'
_cell_length_a   3.38354523
_cell_length_b   3.38345582
_cell_length_c   38.47438121
_cell_angle_alpha   90.00012948
_cell_angle_beta   90.00000000
_cell_angle_gamma   120.00087425
_symmetry_Int_Tables_number   1
_chemical_formula_structural   TeMoWSe3
_chemical_formula_sum   'Te2 Mo2 W2 Se6'
_cell_volume   381.44413872
_cell_formula_units_Z   2
loop_
 _symmetry_equiv_pos_site_id
 _symmetry_equiv_pos_as_xyz
  1  'x, y, z'
loop_
 _atom_site_type_symbol
 _atom_site_label
 _atom_site_symmetry_multiplicity
 _atom_site_fract_x
 _atom_site_fract_y
 _atom_site_fract_z
 _atom_site_occupancy
  Te  Te0  1  0.333351  0.666702  0.706636  1
  Te  Te1  1  0.333353  0.666708  0.608436  1
  Mo  Mo2  1  0.333310  0.666621  0.093924  1
  Mo  Mo3  1  0.666690  0.333381  0.281798  1
  W  W4  1  0.333313  0.666627  0.469646  1
  W  W5  1  0.666692  0.333384  0.657546  1
  Se  Se6  1  0.333354  0.666709  0.324840  1
  Se  Se7  1  0.666647  0.333292  0.050890  1
  Se  Se8  1  0.666643  0.333285  0.426521  1
  Se  Se9  1  0.666645  0.333289  0.136966  1
  Se  Se10  1  0.666649  0.333298  0.512796  1
  Se  Se11  1  0.333352  0.666704  0.238750  1
