# generated using pymatgen
data_MoW(SeS)2
_symmetry_space_group_name_H-M   'P 1'
_cell_length_a   3.25556115
_cell_length_b   3.25550581
_cell_length_c   36.89296859
_cell_angle_alpha   89.99999323
_cell_angle_beta   90.00000564
_cell_angle_gamma   120.00058077
_symmetry_Int_Tables_number   1
_chemical_formula_structural   MoW(SeS)2
_chemical_formula_sum   'Mo2 W2 Se4 S4'
_cell_volume   338.62266516
_cell_formula_units_Z   2
loop_
 _symmetry_equiv_pos_site_id
 _symmetry_equiv_pos_as_xyz
  1  'x, y, z'
loop_
 _atom_site_type_symbol
 _atom_site_label
 _atom_site_symmetry_multiplicity
 _atom_site_fract_x
 _atom_site_fract_y
 _atom_site_fract_z
 _atom_site_occupancy
  Mo  Mo0  1  0.333313  0.666625  0.093885  1
  Mo  Mo1  1  0.333306  0.666610  0.469634  1
  W  W2  1  0.666694  0.333389  0.281801  1
  W  W3  1  0.666701  0.333404  0.657571  1
  Se  Se4  1  0.333362  0.666725  0.703870  1
  Se  Se5  1  0.666629  0.333258  0.047842  1
  Se  Se6  1  0.666649  0.333298  0.139990  1
  Se  Se7  1  0.333355  0.666710  0.611240  1
  S  S8  1  0.333353  0.666707  0.323840  1
  S  S9  1  0.666647  0.333294  0.427818  1
  S  S10  1  0.666637  0.333275  0.511467  1
  S  S11  1  0.333353  0.666707  0.239789  1
