# generated using pymatgen
data_Mn2NbP12
_symmetry_space_group_name_H-M   'P 1'
_cell_length_a   5.79157181
_cell_length_b   8.56120707
_cell_length_c   10.62944843
_cell_angle_alpha   66.66986317
_cell_angle_beta   74.19105320
_cell_angle_gamma   70.23001108
_symmetry_Int_Tables_number   1
_chemical_formula_structural   Mn2NbP12
_chemical_formula_sum   'Mn4 Nb2 P24'
_cell_volume   449.53617239
_cell_formula_units_Z   2
loop_
 _symmetry_equiv_pos_site_id
 _symmetry_equiv_pos_as_xyz
  1  'x, y, z'
loop_
 _atom_site_type_symbol
 _atom_site_label
 _atom_site_symmetry_multiplicity
 _atom_site_fract_x
 _atom_site_fract_y
 _atom_site_fract_z
 _atom_site_occupancy
  P  P0  1  0.048458  0.621697  0.925820  1
  P  P1  1  0.595975  0.878303  0.574180  1
  P  P2  1  0.951542  0.378303  0.074180  1
  P  P3  1  0.404025  0.121697  0.425820  1
  P  P4  1  0.708103  0.040317  0.834698  1
  P  P5  1  0.583118  0.459683  0.665302  1
  P  P6  1  0.667806  0.070492  0.241872  1
  P  P7  1  0.980170  0.429508  0.258128  1
  P  P8  1  0.332194  0.929508  0.758128  1
  P  P9  1  0.019830  0.570492  0.741872  1
  P  P10  1  0.082154  0.861482  0.072265  1
  P  P11  1  0.015902  0.638518  0.427735  1
  P  P12  1  0.917846  0.138518  0.927735  1
  P  P13  1  0.984098  0.361482  0.572265  1
  P  P14  1  0.567224  0.270094  0.495843  1
  P  P15  1  0.333161  0.229906  0.004157  1
  P  P16  1  0.432776  0.729906  0.504157  1
  P  P17  1  0.666839  0.770094  0.995843  1
  P  P18  1  0.350885  0.479473  0.164414  1
  P  P19  1  0.994773  0.020527  0.335586  1
  P  P20  1  0.649115  0.520527  0.835586  1
  P  P21  1  0.005227  0.979473  0.664414  1
  P  P22  1  0.416882  0.540317  0.334698  1
  P  P23  1  0.291897  0.959683  0.165302  1
  Mn  Mn24  1  0.007587  0.818777  0.545664  1
  Mn  Mn25  1  0.372028  0.681223  0.954336  1
  Mn  Mn26  1  0.992413  0.181223  0.454336  1
  Mn  Mn27  1  0.627972  0.318777  0.045664  1
  Nb  Nb28  1  0.304134  0.250000  0.750000  1
  Nb  Nb29  1  0.695866  0.750000  0.250000  1
