# generated using pymatgen
data_La4Si2Se3O7
_symmetry_space_group_name_H-M   'P 1'
_cell_length_a   11.45046458
_cell_length_b   11.45046458
_cell_length_c   11.45046459
_cell_angle_alpha   99.49862220
_cell_angle_beta   114.67609921
_cell_angle_gamma   114.67609922
_symmetry_Int_Tables_number   1
_chemical_formula_structural   La4Si2Se3O7
_chemical_formula_sum   'La16 Si8 Se12 O28'
_cell_volume   1130.12421790
_cell_formula_units_Z   4
loop_
 _symmetry_equiv_pos_site_id
 _symmetry_equiv_pos_as_xyz
  1  'x, y, z'
loop_
 _atom_site_type_symbol
 _atom_site_label
 _atom_site_symmetry_multiplicity
 _atom_site_fract_x
 _atom_site_fract_y
 _atom_site_fract_z
 _atom_site_occupancy
  O  O0  1  0.526716  0.170056  0.196772  1
  O  O1  1  0.973284  0.170056  0.643339  1
  O  O2  1  0.973284  0.803228  0.829944  1
  O  O3  1  0.473284  0.643339  0.170056  1
  O  O4  1  0.026716  0.196772  0.170056  1
  O  O5  1  0.026716  0.829944  0.356661  1
  O  O6  1  0.473284  0.829944  0.803228  1
  O  O7  1  0.526716  0.356661  0.829944  1
  O  O8  1  0.250000  0.388837  0.138837  1
  O  O9  1  0.750000  0.138837  0.388837  1
  O  O10  1  0.750000  0.611163  0.861163  1
  O  O11  1  0.250000  0.861163  0.611163  1
  O  O12  1  0.273679  0.841575  0.848132  1
  O  O13  1  0.226321  0.074453  0.567895  1
  O  O14  1  0.226321  0.151868  0.158425  1
  O  O15  1  0.493442  0.567895  0.841575  1
  O  O16  1  0.726321  0.567895  0.074453  1
  O  O17  1  0.273679  0.432105  0.925547  1
  O  O18  1  0.993442  0.841575  0.567895  1
  O  O19  1  0.993442  0.151868  0.925547  1
  O  O20  1  0.506558  0.432105  0.158425  1
  O  O21  1  0.773679  0.848132  0.841575  1
  O  O22  1  0.773679  0.925547  0.432105  1
  O  O23  1  0.726321  0.158425  0.151868  1
  O  O24  1  0.006558  0.848132  0.074453  1
  O  O25  1  0.006558  0.158425  0.432105  1
  O  O26  1  0.493442  0.925547  0.151868  1
  O  O27  1  0.506558  0.074453  0.848132  1
  Si  Si28  1  0.626652  0.094268  0.220920  1
  Si  Si29  1  0.873348  0.094268  0.467615  1
  Si  Si30  1  0.873348  0.779080  0.905732  1
  Si  Si31  1  0.373348  0.467615  0.094268  1
  Si  Si32  1  0.126652  0.220920  0.094268  1
  Si  Si33  1  0.126652  0.905732  0.532385  1
  Si  Si34  1  0.373348  0.905732  0.779080  1
  Si  Si35  1  0.626652  0.532385  0.905732  1
  Se  Se36  1  0.353409  0.000000  0.353409  1
  Se  Se37  1  0.353409  0.353409  0.500000  1
  Se  Se38  1  0.146591  0.646591  0.000000  1
  Se  Se39  1  0.146591  0.500000  0.646591  1
  Se  Se40  1  0.646591  0.000000  0.646591  1
  Se  Se41  1  0.646591  0.646591  0.500000  1
  Se  Se42  1  0.853409  0.353409  0.000000  1
  Se  Se43  1  0.853409  0.500000  0.353409  1
  Se  Se44  1  0.750000  0.375000  0.625000  1
  Se  Se45  1  0.250000  0.625000  0.375000  1
  Se  Se46  1  0.750000  0.875000  0.125000  1
  Se  Se47  1  0.250000  0.125000  0.875000  1
  La  La48  1  0.250000  0.952845  0.047155  1
  La  La49  1  0.250000  0.297155  0.702845  1
  La  La50  1  0.094309  0.047155  0.297155  1
  La  La51  1  0.405691  0.702845  0.952845  1
  La  La52  1  0.905691  0.952845  0.702845  1
  La  La53  1  0.750000  0.702845  0.297155  1
  La  La54  1  0.750000  0.047155  0.952845  1
  La  La55  1  0.594309  0.297155  0.047155  1
  La  La56  1  0.989973  0.334306  0.824278  1
  La  La57  1  0.510027  0.334306  0.344333  1
  La  La58  1  0.510027  0.175722  0.665694  1
  La  La59  1  0.010027  0.344333  0.334306  1
  La  La60  1  0.489973  0.824278  0.334306  1
  La  La61  1  0.489973  0.665694  0.655667  1
  La  La62  1  0.010027  0.665694  0.175722  1
  La  La63  1  0.989973  0.655667  0.665694  1
