# generated using pymatgen
data_Rb2Cd3S4
_symmetry_space_group_name_H-M   'P 1'
_cell_length_a   6.72472906
_cell_length_b   10.76183900
_cell_length_c   14.46681647
_cell_angle_alpha   90.00000000
_cell_angle_beta   90.00000000
_cell_angle_gamma   90.00000000
_symmetry_Int_Tables_number   1
_chemical_formula_structural   Rb2Cd3S4
_chemical_formula_sum   'Rb8 Cd12 S16'
_cell_volume   1046.97003916
_cell_formula_units_Z   4
loop_
 _symmetry_equiv_pos_site_id
 _symmetry_equiv_pos_as_xyz
  1  'x, y, z'
loop_
 _atom_site_type_symbol
 _atom_site_label
 _atom_site_symmetry_multiplicity
 _atom_site_fract_x
 _atom_site_fract_y
 _atom_site_fract_z
 _atom_site_occupancy
  S  S0  1  0.608052  0.962041  0.858637  1
  S  S1  1  0.108052  0.037959  0.641363  1
  S  S2  1  0.391948  0.462041  0.141363  1
  S  S3  1  0.891948  0.537959  0.358637  1
  S  S4  1  0.391948  0.037959  0.141363  1
  S  S5  1  0.891948  0.962041  0.358637  1
  S  S6  1  0.608052  0.537959  0.858637  1
  S  S7  1  0.108052  0.462041  0.641363  1
  S  S8  1  0.956020  0.750000  0.144050  1
  S  S9  1  0.456020  0.250000  0.355950  1
  S  S10  1  0.043980  0.250000  0.855950  1
  S  S11  1  0.543980  0.750000  0.644050  1
  S  S12  1  0.883472  0.250000  0.153941  1
  S  S13  1  0.616528  0.250000  0.653941  1
  S  S14  1  0.116528  0.750000  0.846059  1
  S  S15  1  0.383472  0.750000  0.346059  1
  Rb  Rb16  1  0.021478  0.750000  0.534316  1
  Rb  Rb17  1  0.521478  0.250000  0.965684  1
  Rb  Rb18  1  0.978522  0.250000  0.465684  1
  Rb  Rb19  1  0.478522  0.750000  0.034316  1
  Rb  Rb20  1  0.000000  0.000000  0.000000  1
  Rb  Rb21  1  0.500000  0.500000  0.500000  1
  Rb  Rb22  1  0.000000  0.500000  0.000000  1
  Rb  Rb23  1  0.500000  0.000000  0.500000  1
  Cd  Cd24  1  0.322525  0.906057  0.747053  1
  Cd  Cd25  1  0.822525  0.093943  0.752947  1
  Cd  Cd26  1  0.677475  0.406057  0.252947  1
  Cd  Cd27  1  0.177475  0.593943  0.247053  1
  Cd  Cd28  1  0.677475  0.093943  0.252947  1
  Cd  Cd29  1  0.177475  0.906057  0.247053  1
  Cd  Cd30  1  0.322525  0.593943  0.747053  1
  Cd  Cd31  1  0.822525  0.406057  0.752947  1
  Cd  Cd32  1  0.740517  0.750000  0.292716  1
  Cd  Cd33  1  0.240517  0.250000  0.207284  1
  Cd  Cd34  1  0.259483  0.250000  0.707284  1
  Cd  Cd35  1  0.759483  0.750000  0.792716  1
