# generated using pymatgen
data_K3UF7
_symmetry_space_group_name_H-M   'P 1'
_cell_length_a   9.38504987
_cell_length_b   9.38504986
_cell_length_c   11.36985582
_cell_angle_alpha   114.37558371
_cell_angle_beta   114.37558373
_cell_angle_gamma   89.99999999
_symmetry_Int_Tables_number   1
_chemical_formula_structural   K3UF7
_chemical_formula_sum   'K12 U4 F28'
_cell_volume   813.16692941
_cell_formula_units_Z   4
loop_
 _symmetry_equiv_pos_site_id
 _symmetry_equiv_pos_as_xyz
  1  'x, y, z'
loop_
 _atom_site_type_symbol
 _atom_site_label
 _atom_site_symmetry_multiplicity
 _atom_site_fract_x
 _atom_site_fract_y
 _atom_site_fract_z
 _atom_site_occupancy
  F  F0  1  0.672759  0.133148  0.210417  1
  F  F1  1  0.077269  0.172759  0.710417  1
  F  F2  1  0.633148  0.037658  0.710417  1
  F  F3  1  0.537658  0.577269  0.210417  1
  F  F4  1  0.327241  0.866852  0.789583  1
  F  F5  1  0.922731  0.827241  0.289583  1
  F  F6  1  0.366852  0.962342  0.289583  1
  F  F7  1  0.462342  0.422731  0.789583  1
  F  F8  1  0.130685  0.543759  0.712228  1
  F  F9  1  0.168469  0.630685  0.212228  1
  F  F10  1  0.043759  0.081543  0.212228  1
  F  F11  1  0.581543  0.668469  0.712228  1
  F  F12  1  0.869315  0.456241  0.287772  1
  F  F13  1  0.831531  0.369315  0.787772  1
  F  F14  1  0.956241  0.918457  0.787772  1
  F  F15  1  0.418457  0.331531  0.287772  1
  F  F16  1  0.269781  0.519781  0.539561  1
  F  F17  1  0.019781  0.769781  0.039561  1
  F  F18  1  0.730219  0.480219  0.460439  1
  F  F19  1  0.980219  0.230219  0.960439  1
  F  F20  1  0.366346  0.242151  0.015500  1
  F  F21  1  0.773348  0.866346  0.515500  1
  F  F22  1  0.742151  0.149154  0.515500  1
  F  F23  1  0.649154  0.273348  0.015500  1
  F  F24  1  0.633654  0.757849  0.984500  1
  F  F25  1  0.226652  0.133654  0.484500  1
  F  F26  1  0.257849  0.850846  0.484500  1
  F  F27  1  0.350846  0.726652  0.984500  1
  K  K28  1  0.125000  0.375000  0.250000  1
  K  K29  1  0.875000  0.625000  0.750000  1
  K  K30  1  0.625000  0.875000  0.250000  1
  K  K31  1  0.375000  0.125000  0.750000  1
  K  K32  1  0.207789  0.477201  0.978398  1
  K  K33  1  0.501197  0.707789  0.478398  1
  K  K34  1  0.977201  0.270609  0.478398  1
  K  K35  1  0.770609  0.001197  0.978398  1
  K  K36  1  0.792211  0.522799  0.021602  1
  K  K37  1  0.498803  0.292211  0.521602  1
  K  K38  1  0.022799  0.729391  0.521602  1
  K  K39  1  0.229391  0.998803  0.021602  1
  U  U40  1  0.393430  0.643430  0.786860  1
  U  U41  1  0.143430  0.893430  0.286860  1
  U  U42  1  0.606570  0.356570  0.213140  1
  U  U43  1  0.856570  0.106570  0.713140  1
