# generated using pymatgen
data_TeMoWSeS2
_symmetry_space_group_name_H-M   'P 1'
_cell_length_a   3.30635760
_cell_length_b   3.30636415
_cell_length_c   37.62979892
_cell_angle_alpha   90.00014138
_cell_angle_beta   90.00000000
_cell_angle_gamma   119.99993446
_symmetry_Int_Tables_number   1
_chemical_formula_structural   TeMoWSeS2
_chemical_formula_sum   'Te2 Mo2 W2 Se2 S4'
_cell_volume   356.25693126
_cell_formula_units_Z   2
loop_
 _symmetry_equiv_pos_site_id
 _symmetry_equiv_pos_as_xyz
  1  'x, y, z'
loop_
 _atom_site_type_symbol
 _atom_site_label
 _atom_site_symmetry_multiplicity
 _atom_site_fract_x
 _atom_site_fract_y
 _atom_site_fract_z
 _atom_site_occupancy
  Te  Te0  1  0.666646  0.333291  0.043114  1
  Te  Te1  1  0.666647  0.333294  0.144626  1
  Mo  Mo2  1  0.333309  0.666617  0.093861  1
  Mo  Mo3  1  0.333312  0.666625  0.469655  1
  W  W4  1  0.666689  0.333378  0.281860  1
  W  W5  1  0.666691  0.333382  0.657541  1
  Se  Se6  1  0.333349  0.666699  0.326669  1
  Se  Se7  1  0.333357  0.666715  0.237016  1
  S  S8  1  0.333356  0.666714  0.698295  1
  S  S9  1  0.666645  0.333288  0.429011  1
  S  S10  1  0.666642  0.333283  0.510334  1
  S  S11  1  0.333356  0.666713  0.616767  1
