# generated using pymatgen
data_NaGe2(PO4)3
_symmetry_space_group_name_H-M   'P 1'
_cell_length_a   8.68668607
_cell_length_b   8.68668635
_cell_length_c   8.68668631
_cell_angle_alpha   57.45534098
_cell_angle_beta   57.45533726
_cell_angle_gamma   57.45534205
_symmetry_Int_Tables_number   1
_chemical_formula_structural   NaGe2(PO4)3
_chemical_formula_sum   'Na2 Ge4 P6 O24'
_cell_volume   436.36468843
_cell_formula_units_Z   2
loop_
 _symmetry_equiv_pos_site_id
 _symmetry_equiv_pos_as_xyz
  1  'x, y, z'
loop_
 _atom_site_type_symbol
 _atom_site_label
 _atom_site_symmetry_multiplicity
 _atom_site_fract_x
 _atom_site_fract_y
 _atom_site_fract_z
 _atom_site_occupancy
  Na  Na0  1  0.000000  -0.000000  -0.000000  1
  Na  Na1  1  0.500000  0.500000  0.500000  1
  Ge  Ge2  1  0.354670  0.354670  0.354670  1
  Ge  Ge3  1  0.145330  0.145330  0.145330  1
  Ge  Ge4  1  0.854670  0.854670  0.854670  1
  Ge  Ge5  1  0.645330  0.645330  0.645330  1
  P  P6  1  0.750000  0.464543  0.035457  1
  P  P7  1  0.464543  0.035457  0.750000  1
  P  P8  1  0.250000  0.535457  0.964543  1
  P  P9  1  0.535457  0.964543  0.250000  1
  P  P10  1  0.035457  0.750000  0.464543  1
  P  P11  1  0.964543  0.250000  0.535457  1
  O  O12  1  0.777969  0.430821  0.559069  1
  O  O13  1  0.430821  0.559069  0.777969  1
  O  O14  1  0.559069  0.777969  0.430821  1
  O  O15  1  0.940931  0.069179  0.722031  1
  O  O16  1  0.069179  0.722031  0.940931  1
  O  O17  1  0.722031  0.940931  0.069179  1
  O  O18  1  0.222031  0.569179  0.440931  1
  O  O19  1  0.569179  0.440931  0.222031  1
  O  O20  1  0.440931  0.222031  0.569179  1
  O  O21  1  0.059069  0.930821  0.277969  1
  O  O22  1  0.930821  0.277969  0.059069  1
  O  O23  1  0.277969  0.059069  0.930821  1
  O  O24  1  0.359235  0.986172  0.228688  1
  O  O25  1  0.228688  0.359235  0.986172  1
  O  O26  1  0.986172  0.228688  0.359235  1
  O  O27  1  0.513828  0.140765  0.271311  1
  O  O28  1  0.271311  0.513828  0.140765  1
  O  O29  1  0.140765  0.271311  0.513828  1
  O  O30  1  0.640765  0.013828  0.771312  1
  O  O31  1  0.771312  0.640765  0.013828  1
  O  O32  1  0.013828  0.771312  0.640765  1
  O  O33  1  0.486172  0.859235  0.728688  1
  O  O34  1  0.728688  0.486172  0.859235  1
  O  O35  1  0.859235  0.728688  0.486172  1
