# generated using pymatgen
data_Te2MoWSe2
_symmetry_space_group_name_H-M   'P 1'
_cell_length_a   3.43760899
_cell_length_b   3.43761087
_cell_length_c   39.14105512
_cell_angle_alpha   90.00077930
_cell_angle_beta   90.00000000
_cell_angle_gamma   119.99998202
_symmetry_Int_Tables_number   1
_chemical_formula_structural   Te2MoWSe2
_chemical_formula_sum   'Te4 Mo2 W2 Se4'
_cell_volume   400.56816346
_cell_formula_units_Z   2
loop_
 _symmetry_equiv_pos_site_id
 _symmetry_equiv_pos_as_xyz
  1  'x, y, z'
loop_
 _atom_site_type_symbol
 _atom_site_label
 _atom_site_symmetry_multiplicity
 _atom_site_fract_x
 _atom_site_fract_y
 _atom_site_fract_z
 _atom_site_occupancy
  Te  Te0  1  0.333354  0.666708  0.329425  1
  Te  Te1  1  0.666647  0.333292  0.422330  1
  Te  Te2  1  0.666647  0.333293  0.517057  1
  Te  Te3  1  0.333350  0.666702  0.234079  1
  Mo  Mo4  1  0.333307  0.666615  0.093931  1
  Mo  Mo5  1  0.333311  0.666621  0.469709  1
  W  W6  1  0.666689  0.333377  0.281771  1
  W  W7  1  0.666694  0.333389  0.657540  1
  Se  Se8  1  0.333355  0.666711  0.699460  1
  Se  Se9  1  0.666643  0.333285  0.052122  1
  Se  Se10  1  0.666645  0.333288  0.135709  1
  Se  Se11  1  0.333359  0.666719  0.615615  1
