# generated using pymatgen
data_Te4Mo3WS4
_symmetry_space_group_name_H-M   'P 1'
_cell_length_a   3.35787400
_cell_length_b   3.35786528
_cell_length_c   38.29683479
_cell_angle_alpha   90.00010202
_cell_angle_beta   90.00000000
_cell_angle_gamma   120.00008588
_symmetry_Int_Tables_number   1
_chemical_formula_structural   Te4Mo3WS4
_chemical_formula_sum   'Te4 Mo3 W1 S4'
_cell_volume   373.95625431
_cell_formula_units_Z   1
loop_
 _symmetry_equiv_pos_site_id
 _symmetry_equiv_pos_as_xyz
  1  'x, y, z'
loop_
 _atom_site_type_symbol
 _atom_site_label
 _atom_site_symmetry_multiplicity
 _atom_site_fract_x
 _atom_site_fract_y
 _atom_site_fract_z
 _atom_site_occupancy
  Te  Te0  1  0.666645  0.333289  0.044533  1
  Te  Te1  1  0.666644  0.333286  0.420246  1
  Te  Te2  1  0.666649  0.333296  0.143319  1
  Te  Te3  1  0.666645  0.333290  0.519061  1
  Mo  Mo4  1  0.333311  0.666623  0.093904  1
  Mo  Mo5  1  0.333306  0.666612  0.469662  1
  Mo  Mo6  1  0.666688  0.333375  0.281788  1
  W  W7  1  0.666691  0.333383  0.657557  1
  S  S8  1  0.333357  0.666716  0.321315  1
  S  S9  1  0.333355  0.666710  0.697223  1
  S  S10  1  0.333354  0.666709  0.242268  1
  S  S11  1  0.333355  0.666711  0.617871  1
