# generated using pymatgen
data_Ba3Sc4(CuO4)3
_symmetry_space_group_name_H-M   'P 1'
_cell_length_a   8.46111751
_cell_length_b   9.50341897
_cell_length_c   9.50341897
_cell_angle_alpha   78.57009265
_cell_angle_beta   63.56631112
_cell_angle_gamma   63.56631111
_symmetry_Int_Tables_number   1
_chemical_formula_structural   Ba3Sc4(CuO4)3
_chemical_formula_sum   'Ba6 Sc8 Cu6 O24'
_cell_volume   612.73166338
_cell_formula_units_Z   2
loop_
 _symmetry_equiv_pos_site_id
 _symmetry_equiv_pos_as_xyz
  1  'x, y, z'
loop_
 _atom_site_type_symbol
 _atom_site_label
 _atom_site_symmetry_multiplicity
 _atom_site_fract_x
 _atom_site_fract_y
 _atom_site_fract_z
 _atom_site_occupancy
  O  O0  1  0.737579  0.261040  0.263802  1
  O  O1  1  0.262421  0.738960  0.736198  1
  O  O2  1  0.001381  0.736198  0.261040  1
  O  O3  1  0.998619  0.263802  0.738960  1
  O  O4  1  0.762421  0.736198  0.738960  1
  O  O5  1  0.501381  0.261040  0.736198  1
  O  O6  1  0.498619  0.738960  0.263802  1
  O  O7  1  0.237579  0.263802  0.261040  1
  O  O8  1  0.877496  0.000000  0.745007  1
  O  O9  1  0.622504  0.254993  0.000000  1
  O  O10  1  0.877496  0.745007  0.000000  1
  O  O11  1  0.622504  0.000000  0.254993  1
  O  O12  1  0.122504  0.000000  0.254993  1
  O  O13  1  0.377496  0.745007  0.000000  1
  O  O14  1  0.122504  0.254993  0.000000  1
  O  O15  1  0.377496  0.000000  0.745007  1
  O  O16  1  0.385313  0.267949  0.500000  1
  O  O17  1  0.153262  0.732051  0.500000  1
  O  O18  1  0.885313  0.500000  0.267949  1
  O  O19  1  0.653262  0.500000  0.732051  1
  O  O20  1  0.346738  0.500000  0.267949  1
  O  O21  1  0.614687  0.732051  0.500000  1
  O  O22  1  0.846738  0.267949  0.500000  1
  O  O23  1  0.114687  0.500000  0.732051  1
  Sc  Sc24  1  0.991101  0.758899  0.758899  1
  Sc  Sc25  1  0.750000  0.241101  0.758899  1
  Sc  Sc26  1  0.750000  0.758899  0.241101  1
  Sc  Sc27  1  0.508899  0.241101  0.241101  1
  Sc  Sc28  1  0.008899  0.241101  0.241101  1
  Sc  Sc29  1  0.250000  0.758899  0.241101  1
  Sc  Sc30  1  0.250000  0.241101  0.758899  1
  Sc  Sc31  1  0.491101  0.758899  0.758899  1
  Cu  Cu32  1  0.896302  0.500000  0.707396  1
  Cu  Cu33  1  0.603698  0.292604  0.500000  1
  Cu  Cu34  1  0.396302  0.707396  0.500000  1
  Cu  Cu35  1  0.103698  0.500000  0.292604  1
  Cu  Cu36  1  0.250000  0.500000  0.500000  1
  Cu  Cu37  1  0.750000  0.500000  0.500000  1
  Ba  Ba38  1  0.722850  0.500000  0.054301  1
  Ba  Ba39  1  0.777150  0.945699  0.500000  1
  Ba  Ba40  1  0.222850  0.054301  0.500000  1
  Ba  Ba41  1  0.277150  0.500000  0.945699  1
  Ba  Ba42  1  0.500000  0.000000  0.000000  1
  Ba  Ba43  1  0.000000  0.000000  0.000000  1
