# generated using pymatgen
data_Rb6Si2O7
_symmetry_space_group_name_H-M   'P 1'
_cell_length_a   6.85814741
_cell_length_b   9.31789941
_cell_length_c   9.38692552
_cell_angle_alpha   90.00000000
_cell_angle_beta   91.10306910
_cell_angle_gamma   90.00000000
_symmetry_Int_Tables_number   1
_chemical_formula_structural   Rb6Si2O7
_chemical_formula_sum   'Rb12 Si4 O14'
_cell_volume   599.74649124
_cell_formula_units_Z   2
loop_
 _symmetry_equiv_pos_site_id
 _symmetry_equiv_pos_as_xyz
  1  'x, y, z'
loop_
 _atom_site_type_symbol
 _atom_site_label
 _atom_site_symmetry_multiplicity
 _atom_site_fract_x
 _atom_site_fract_y
 _atom_site_fract_z
 _atom_site_occupancy
  O  O0  1  0.068362  0.276616  0.064393  1
  O  O1  1  0.000000  0.000000  0.000000  1
  O  O2  1  0.500000  0.500000  0.500000  1
  O  O3  1  0.956475  0.921303  0.722652  1
  O  O4  1  0.431638  0.776616  0.435607  1
  O  O5  1  0.931638  0.723384  0.935607  1
  O  O6  1  0.568362  0.223384  0.564393  1
  O  O7  1  0.784186  0.656169  0.376002  1
  O  O8  1  0.715814  0.156169  0.123998  1
  O  O9  1  0.215814  0.343831  0.623998  1
  O  O10  1  0.284186  0.843831  0.876002  1
  O  O11  1  0.456475  0.578697  0.222652  1
  O  O12  1  0.043525  0.078697  0.277348  1
  O  O13  1  0.543525  0.421303  0.777348  1
  Si  Si14  1  0.545369  0.632034  0.378215  1
  Si  Si15  1  0.045369  0.867966  0.878215  1
  Si  Si16  1  0.454631  0.367966  0.621785  1
  Si  Si17  1  0.954631  0.132034  0.121785  1
  Rb  Rb18  1  0.885663  0.352882  0.408637  1
  Rb  Rb19  1  0.385663  0.147118  0.908637  1
  Rb  Rb20  1  0.114337  0.647118  0.591363  1
  Rb  Rb21  1  0.748088  0.972850  0.456418  1
  Rb  Rb22  1  0.751912  0.472850  0.043582  1
  Rb  Rb23  1  0.251912  0.027150  0.543582  1
  Rb  Rb24  1  0.248088  0.527150  0.956418  1
  Rb  Rb25  1  0.382713  0.278871  0.275157  1
  Rb  Rb26  1  0.117287  0.778871  0.224844  1
  Rb  Rb27  1  0.617287  0.721129  0.724843  1
  Rb  Rb28  1  0.882713  0.221129  0.775157  1
  Rb  Rb29  1  0.614337  0.852882  0.091363  1
