# generated using pymatgen
data_Te6Mo3WS2
_symmetry_space_group_name_H-M   'P 1'
_cell_length_a   3.45565471
_cell_length_b   3.45564820
_cell_length_c   39.28496991
_cell_angle_alpha   90.00014856
_cell_angle_beta   90.00000000
_cell_angle_gamma   120.00006223
_symmetry_Int_Tables_number   1
_chemical_formula_structural   Te6Mo3WS2
_chemical_formula_sum   'Te6 Mo3 W1 S2'
_cell_volume   406.27177184
_cell_formula_units_Z   1
loop_
 _symmetry_equiv_pos_site_id
 _symmetry_equiv_pos_as_xyz
  1  'x, y, z'
loop_
 _atom_site_type_symbol
 _atom_site_label
 _atom_site_symmetry_multiplicity
 _atom_site_fract_x
 _atom_site_fract_y
 _atom_site_fract_z
 _atom_site_occupancy
  Te  Te0  1  0.333356  0.666714  0.704876  1
  Te  Te1  1  0.666643  0.333284  0.046815  1
  Te  Te2  1  0.666645  0.333289  0.422487  1
  Te  Te3  1  0.666641  0.333282  0.141090  1
  Te  Te4  1  0.666644  0.333287  0.516639  1
  Te  Te5  1  0.333359  0.666719  0.610281  1
  Mo  Mo6  1  0.333308  0.666616  0.093924  1
  Mo  Mo7  1  0.333313  0.666625  0.469614  1
  Mo  Mo8  1  0.666688  0.333377  0.281819  1
  W  W9  1  0.666690  0.333379  0.657605  1
  S  S10  1  0.333358  0.666717  0.319689  1
  S  S11  1  0.333355  0.666711  0.243910  1
