# generated using pymatgen
data_SmTl(MoO4)2
_symmetry_space_group_name_H-M   'P 1'
_cell_length_a   5.20319695
_cell_length_b   8.26256523
_cell_length_c   19.41994696
_cell_angle_alpha   90.00000000
_cell_angle_beta   90.00000000
_cell_angle_gamma   90.00000000
_symmetry_Int_Tables_number   1
_chemical_formula_structural   SmTl(MoO4)2
_chemical_formula_sum   'Sm4 Tl4 Mo8 O32'
_cell_volume   834.89758636
_cell_formula_units_Z   4
loop_
 _symmetry_equiv_pos_site_id
 _symmetry_equiv_pos_as_xyz
  1  'x, y, z'
loop_
 _atom_site_type_symbol
 _atom_site_label
 _atom_site_symmetry_multiplicity
 _atom_site_fract_x
 _atom_site_fract_y
 _atom_site_fract_z
 _atom_site_occupancy
  O  O0  1  0.599478  0.515652  0.184096  1
  O  O1  1  0.099478  0.484348  0.315904  1
  O  O2  1  0.900522  0.015652  0.315904  1
  O  O3  1  0.400522  0.984348  0.184096  1
  O  O4  1  0.400522  0.484348  0.815904  1
  O  O5  1  0.900522  0.515652  0.684096  1
  O  O6  1  0.099478  0.984348  0.684096  1
  O  O7  1  0.599478  0.015652  0.815904  1
  O  O8  1  0.750311  0.497875  0.036794  1
  O  O9  1  0.250311  0.502125  0.463206  1
  O  O10  1  0.749689  0.997875  0.463206  1
  O  O11  1  0.249689  0.002125  0.036794  1
  O  O12  1  0.249689  0.502125  0.963206  1
  O  O13  1  0.749689  0.497875  0.536794  1
  O  O14  1  0.250311  0.002125  0.536794  1
  O  O15  1  0.750311  0.997875  0.963206  1
  O  O16  1  0.272769  0.836783  0.905488  1
  O  O17  1  0.772769  0.163217  0.594512  1
  O  O18  1  0.227231  0.336783  0.594512  1
  O  O19  1  0.727231  0.663217  0.905488  1
  O  O20  1  0.727231  0.163217  0.094512  1
  O  O21  1  0.227231  0.836783  0.405488  1
  O  O22  1  0.772769  0.663217  0.405488  1
  O  O23  1  0.272769  0.336783  0.094512  1
  O  O24  1  0.262293  0.181347  0.909572  1
  O  O25  1  0.762293  0.818653  0.590428  1
  O  O26  1  0.237707  0.681347  0.590428  1
  O  O27  1  0.737707  0.318653  0.909572  1
  O  O28  1  0.737707  0.818653  0.090428  1
  O  O29  1  0.237707  0.181347  0.409572  1
  O  O30  1  0.762293  0.318653  0.409572  1
  O  O31  1  0.262293  0.681347  0.090428  1
  Mo  Mo32  1  0.479250  0.510288  0.099386  1
  Mo  Mo33  1  0.979250  0.489712  0.400614  1
  Mo  Mo34  1  0.020750  0.010288  0.400614  1
  Mo  Mo35  1  0.520750  0.989712  0.099386  1
  Mo  Mo36  1  0.520750  0.489712  0.900614  1
  Mo  Mo37  1  0.020750  0.510288  0.599386  1
  Mo  Mo38  1  0.979250  0.989712  0.599386  1
  Mo  Mo39  1  0.479250  0.010288  0.900614  1
  Sm  Sm40  1  0.500000  0.750000  0.495754  1
  Sm  Sm41  1  0.000000  0.250000  0.004246  1
  Sm  Sm42  1  0.500000  0.250000  0.504246  1
  Sm  Sm43  1  0.000000  0.750000  0.995754  1
  Tl  Tl44  1  0.000000  0.750000  0.226517  1
  Tl  Tl45  1  0.500000  0.250000  0.273483  1
  Tl  Tl46  1  0.000000  0.250000  0.773483  1
  Tl  Tl47  1  0.500000  0.750000  0.726517  1
