# generated using pymatgen
data_RbNa2Si17
_symmetry_space_group_name_H-M   'P 1'
_cell_length_a   10.47920928
_cell_length_b   10.47920928
_cell_length_c   10.47920928
_cell_angle_alpha   60.00000001
_cell_angle_beta   60.00000001
_cell_angle_gamma   60.00000000
_symmetry_Int_Tables_number   1
_chemical_formula_structural   RbNa2Si17
_chemical_formula_sum   'Rb2 Na4 Si34'
_cell_volume   813.71166811
_cell_formula_units_Z   2
loop_
 _symmetry_equiv_pos_site_id
 _symmetry_equiv_pos_as_xyz
  1  'x, y, z'
loop_
 _atom_site_type_symbol
 _atom_site_label
 _atom_site_symmetry_multiplicity
 _atom_site_fract_x
 _atom_site_fract_y
 _atom_site_fract_z
 _atom_site_occupancy
  Na  Na0  1  0.500000  0.000000  0.000000  1
  Na  Na1  1  0.000000  0.000000  0.500000  1
  Na  Na2  1  0.000000  0.000000  0.000000  1
  Na  Na3  1  0.000000  0.500000  0.000000  1
  Si  Si4  1  0.235118  0.629630  0.005622  1
  Si  Si5  1  0.235118  0.005622  0.629630  1
  Si  Si6  1  0.005622  0.235118  0.629630  1
  Si  Si7  1  0.764882  0.370370  0.370370  1
  Si  Si8  1  0.370370  0.764882  0.370370  1
  Si  Si9  1  0.994378  0.370370  0.764882  1
  Si  Si10  1  0.370370  0.994378  0.764882  1
  Si  Si11  1  0.994378  0.370370  0.370370  1
  Si  Si12  1  0.764882  0.370370  0.994378  1
  Si  Si13  1  0.370370  0.764882  0.994378  1
  Si  Si14  1  0.370370  0.994378  0.370370  1
  Si  Si15  1  0.005622  0.629630  0.235118  1
  Si  Si16  1  0.629630  0.005622  0.235118  1
  Si  Si17  1  0.629630  0.629630  0.005622  1
  Si  Si18  1  0.629630  0.629630  0.235118  1
  Si  Si19  1  0.235118  0.629630  0.629630  1
  Si  Si20  1  0.629630  0.235118  0.629630  1
  Si  Si21  1  0.764882  0.994378  0.370370  1
  Si  Si22  1  0.994378  0.764882  0.370370  1
  Si  Si23  1  0.370370  0.370370  0.994378  1
  Si  Si24  1  0.217431  0.217431  0.217431  1
  Si  Si25  1  0.782569  0.782569  0.152294  1
  Si  Si26  1  0.152294  0.782569  0.782569  1
  Si  Si27  1  0.782569  0.152294  0.782569  1
  Si  Si28  1  0.847706  0.217431  0.217431  1
  Si  Si29  1  0.217431  0.847706  0.217431  1
  Si  Si30  1  0.217431  0.217431  0.847706  1
  Si  Si31  1  0.782569  0.782569  0.782569  1
  Si  Si32  1  0.125000  0.125000  0.125000  1
  Si  Si33  1  0.875000  0.875000  0.875000  1
  Si  Si34  1  0.005622  0.629630  0.629630  1
  Si  Si35  1  0.629630  0.235118  0.005622  1
  Si  Si36  1  0.370370  0.370370  0.764882  1
  Si  Si37  1  0.629630  0.005622  0.629630  1
  Rb  Rb38  1  0.375000  0.375000  0.375000  1
  Rb  Rb39  1  0.625000  0.625000  0.625000  1
