# generated using pymatgen
data_Te4Mo3WS4
_symmetry_space_group_name_H-M   'P 1'
_cell_length_a   3.36334840
_cell_length_b   3.36341862
_cell_length_c   38.31731601
_cell_angle_alpha   90.00040816
_cell_angle_beta   90.00000000
_cell_angle_gamma   119.99930937
_symmetry_Int_Tables_number   1
_chemical_formula_structural   Te4Mo3WS4
_chemical_formula_sum   'Te4 Mo3 W1 S4'
_cell_volume   375.38897718
_cell_formula_units_Z   1
loop_
 _symmetry_equiv_pos_site_id
 _symmetry_equiv_pos_as_xyz
  1  'x, y, z'
loop_
 _atom_site_type_symbol
 _atom_site_label
 _atom_site_symmetry_multiplicity
 _atom_site_fract_x
 _atom_site_fract_y
 _atom_site_fract_z
 _atom_site_occupancy
  Te  Te0  1  0.333353  0.666708  0.331395  1
  Te  Te1  1  0.333355  0.666711  0.706792  1
  Te  Te2  1  0.333356  0.666713  0.232179  1
  Te  Te3  1  0.333351  0.666703  0.608260  1
  Mo  Mo4  1  0.333311  0.666623  0.093924  1
  Mo  Mo5  1  0.333309  0.666617  0.469665  1
  Mo  Mo6  1  0.666690  0.333380  0.657538  1
  W  W7  1  0.666688  0.333376  0.281799  1
  S  S8  1  0.666643  0.333285  0.054439  1
  S  S9  1  0.666649  0.333297  0.430229  1
  S  S10  1  0.666649  0.333296  0.133428  1
  S  S11  1  0.666646  0.333291  0.509100  1
