# generated using pymatgen
data_KGePO5
_symmetry_space_group_name_H-M   'P 1'
_cell_length_a   6.40152404
_cell_length_b   10.17297545
_cell_length_c   12.82633183
_cell_angle_alpha   90.00000000
_cell_angle_beta   90.00000000
_cell_angle_gamma   90.00000000
_symmetry_Int_Tables_number   1
_chemical_formula_structural   KGePO5
_chemical_formula_sum   'K8 Ge8 P8 O40'
_cell_volume   835.28339617
_cell_formula_units_Z   8
loop_
 _symmetry_equiv_pos_site_id
 _symmetry_equiv_pos_as_xyz
  1  'x, y, z'
loop_
 _atom_site_type_symbol
 _atom_site_label
 _atom_site_symmetry_multiplicity
 _atom_site_fract_x
 _atom_site_fract_y
 _atom_site_fract_z
 _atom_site_occupancy
  O  O0  1  0.961108  0.887926  0.244220  1
  O  O1  1  0.038892  0.387926  0.755780  1
  O  O2  1  0.538892  0.887926  0.744220  1
  O  O3  1  0.461108  0.387926  0.255780  1
  O  O4  1  0.040901  0.121687  0.246492  1
  O  O5  1  0.959099  0.621687  0.753508  1
  O  O6  1  0.459099  0.121687  0.746492  1
  O  O7  1  0.540901  0.621687  0.253508  1
  O  O8  1  0.195153  0.971654  0.390317  1
  O  O9  1  0.804847  0.471654  0.609683  1
  O  O10  1  0.304847  0.971654  0.890317  1
  O  O11  1  0.695153  0.471654  0.109683  1
  O  O12  1  0.813200  0.033235  0.391318  1
  O  O13  1  0.186800  0.533235  0.608682  1
  O  O14  1  0.686800  0.033235  0.891318  1
  O  O15  1  0.690372  0.726716  0.902330  1
  O  O16  1  0.313200  0.533235  0.108682  1
  O  O17  1  0.532685  0.634895  0.724929  1
  O  O18  1  0.032685  0.134895  0.775071  1
  O  O19  1  0.967315  0.634895  0.224929  1
  O  O20  1  0.546309  0.877392  0.268890  1
  O  O21  1  0.453691  0.377392  0.731110  1
  O  O22  1  0.953691  0.877392  0.768890  1
  O  O23  1  0.046309  0.377392  0.231110  1
  O  O24  1  0.484136  0.132580  0.484721  1
  O  O25  1  0.515864  0.632580  0.515279  1
  O  O26  1  0.015864  0.132580  0.984721  1
  O  O27  1  0.984136  0.632580  0.015279  1
  O  O28  1  0.475665  0.374621  0.518258  1
  O  O29  1  0.524335  0.874621  0.481742  1
  O  O30  1  0.024335  0.374621  0.018258  1
  O  O31  1  0.975665  0.874621  0.981742  1
  O  O32  1  0.194800  0.275780  0.405327  1
  O  O33  1  0.805200  0.775780  0.594673  1
  O  O34  1  0.305200  0.275780  0.905327  1
  O  O35  1  0.694800  0.775780  0.094673  1
  O  O36  1  0.190372  0.226716  0.597670  1
  O  O37  1  0.809628  0.726716  0.402330  1
  O  O38  1  0.309628  0.226716  0.097670  1
  O  O39  1  0.467315  0.134895  0.275071  1
  P  P40  1  0.834043  0.751047  0.997797  1
  P  P41  1  0.334043  0.251047  0.502203  1
  P  P42  1  0.665957  0.751047  0.497797  1
  P  P43  1  0.165957  0.251047  0.002203  1
  P  P44  1  0.503782  0.503024  0.179122  1
  P  P45  1  0.496218  0.003024  0.820878  1
  P  P46  1  0.996218  0.503024  0.679122  1
  P  P47  1  0.003782  0.003024  0.320878  1
  K  K48  1  0.191423  0.568956  0.391575  1
  K  K49  1  0.220276  0.815442  0.618771  1
  K  K50  1  0.720276  0.315442  0.881229  1
  K  K51  1  0.279724  0.815442  0.118771  1
  K  K52  1  0.779724  0.315442  0.381229  1
  K  K53  1  0.691423  0.068956  0.108425  1
  K  K54  1  0.308577  0.568956  0.891575  1
  K  K55  1  0.808577  0.068956  0.608425  1
  Ge  Ge56  1  0.754074  0.752060  0.251576  1
  Ge  Ge57  1  0.245926  0.252060  0.748424  1
  Ge  Ge58  1  0.745926  0.752060  0.751576  1
  Ge  Ge59  1  0.254074  0.252060  0.248424  1
  Ge  Ge60  1  0.997281  0.500974  0.130438  1
  Ge  Ge61  1  0.002719  0.000974  0.869562  1
  Ge  Ge62  1  0.502719  0.500974  0.630438  1
  Ge  Ge63  1  0.497281  0.000974  0.369562  1
