# generated using pymatgen
data_Te2MoW3(SeS2)2
_symmetry_space_group_name_H-M   'P 1'
_cell_length_a   3.30787002
_cell_length_b   3.30780371
_cell_length_c   39.69745288
_cell_angle_alpha   90.00336913
_cell_angle_beta   90.00000000
_cell_angle_gamma   120.00066313
_symmetry_Int_Tables_number   1
_chemical_formula_structural   Te2MoW3(SeS2)2
_chemical_formula_sum   'Te2 Mo1 W3 Se2 S4'
_cell_volume   376.16513169
_cell_formula_units_Z   1
loop_
 _symmetry_equiv_pos_site_id
 _symmetry_equiv_pos_as_xyz
  1  'x, y, z'
loop_
 _atom_site_type_symbol
 _atom_site_label
 _atom_site_symmetry_multiplicity
 _atom_site_fract_x
 _atom_site_fract_y
 _atom_site_fract_z
 _atom_site_occupancy
  Te  Te0  1  0.666557  0.333113  0.420350  1
  Te  Te1  1  0.666637  0.333273  0.517292  1
  Mo  Mo2  1  0.333377  0.666754  0.093825  1
  W  W3  1  0.333263  0.666526  0.468782  1
  W  W4  1  0.666663  0.333325  0.280962  1
  W  W5  1  0.666685  0.333370  0.659314  1
  Se  Se6  1  0.333396  0.666793  0.701802  1
  Se  Se7  1  0.333308  0.666616  0.616857  1
  S  S8  1  0.333331  0.666663  0.319560  1
  S  S9  1  0.666727  0.333453  0.055353  1
  S  S10  1  0.666724  0.333448  0.132290  1
  S  S11  1  0.333332  0.666665  0.242361  1
