# generated using pymatgen
data_Co5As2
_symmetry_space_group_name_H-M   'P 1'
_cell_length_a   6.78679965
_cell_length_b   6.78679965
_cell_length_c   12.37938015
_cell_angle_alpha   90.00000000
_cell_angle_beta   90.00000000
_cell_angle_gamma   119.99999995
_symmetry_Int_Tables_number   1
_chemical_formula_structural   Co5As2
_chemical_formula_sum   'Co30 As12'
_cell_volume   493.80966865
_cell_formula_units_Z   6
loop_
 _symmetry_equiv_pos_site_id
 _symmetry_equiv_pos_as_xyz
  1  'x, y, z'
loop_
 _atom_site_type_symbol
 _atom_site_label
 _atom_site_symmetry_multiplicity
 _atom_site_fract_x
 _atom_site_fract_y
 _atom_site_fract_z
 _atom_site_occupancy
  Co  Co0  1  0.000000  0.000000  0.947143  1
  Co  Co1  1  0.000000  0.000000  0.447143  1
  Co  Co2  1  0.333333  0.666667  0.085826  1
  Co  Co3  1  0.666667  0.333333  0.585826  1
  Co  Co4  1  0.333333  0.666667  0.585826  1
  Co  Co5  1  0.666667  0.333333  0.085826  1
  Co  Co6  1  0.270609  0.000000  0.117477  1
  Co  Co7  1  0.270609  0.270609  0.617477  1
  Co  Co8  1  0.000000  0.729391  0.617477  1
  Co  Co9  1  0.000000  0.270609  0.117477  1
  Co  Co10  1  0.729391  0.729391  0.117477  1
  Co  Co11  1  0.729391  0.000000  0.617477  1
  Co  Co12  1  0.626377  0.000000  0.212210  1
  Co  Co13  1  0.626377  0.626377  0.712210  1
  Co  Co14  1  0.000000  0.373623  0.712210  1
  Co  Co15  1  0.000000  0.626377  0.212210  1
  Co  Co16  1  0.373623  0.373623  0.212210  1
  Co  Co17  1  0.373623  0.000000  0.712210  1
  Co  Co18  1  0.306856  0.000000  0.322330  1
  Co  Co19  1  0.306856  0.306856  0.822330  1
  Co  Co20  1  0.000000  0.693144  0.822330  1
  Co  Co21  1  0.000000  0.306856  0.322330  1
  Co  Co22  1  0.693144  0.693144  0.322330  1
  Co  Co23  1  0.693144  0.000000  0.822330  1
  Co  Co24  1  0.630012  0.000000  0.423271  1
  Co  Co25  1  0.630012  0.630012  0.923271  1
  Co  Co26  1  0.000000  0.369988  0.923271  1
  Co  Co27  1  0.000000  0.630012  0.423271  1
  Co  Co28  1  0.369988  0.369988  0.423271  1
  Co  Co29  1  0.369988  0.000000  0.923271  1
  As  As30  1  0.000000  0.000000  0.244937  1
  As  As31  1  0.000000  0.000000  0.744937  1
  As  As32  1  0.333333  0.666667  0.290074  1
  As  As33  1  0.666667  0.333333  0.790074  1
  As  As34  1  0.333333  0.666667  0.790074  1
  As  As35  1  0.666667  0.333333  0.290074  1
  As  As36  1  0.671350  0.000000  0.016084  1
  As  As37  1  0.671350  0.671350  0.516084  1
  As  As38  1  0.000000  0.328650  0.516084  1
  As  As39  1  0.000000  0.671350  0.016084  1
  As  As40  1  0.328650  0.328650  0.016084  1
  As  As41  1  0.328650  0.000000  0.516084  1
