# generated using pymatgen
data_Gd3Al5O12
_symmetry_space_group_name_H-M   'P 1'
_cell_length_a   10.57487587
_cell_length_b   10.57487586
_cell_length_c   10.57487586
_cell_angle_alpha   109.47122064
_cell_angle_beta   109.47122062
_cell_angle_gamma   109.47122066
_symmetry_Int_Tables_number   1
_chemical_formula_structural   Gd3Al5O12
_chemical_formula_sum   'Gd12 Al20 O48'
_cell_volume   910.34066432
_cell_formula_units_Z   4
loop_
 _symmetry_equiv_pos_site_id
 _symmetry_equiv_pos_as_xyz
  1  'x, y, z'
loop_
 _atom_site_type_symbol
 _atom_site_label
 _atom_site_symmetry_multiplicity
 _atom_site_fract_x
 _atom_site_fract_y
 _atom_site_fract_z
 _atom_site_occupancy
  O  O0  1  0.802568  0.419728  0.820151  1
  O  O1  1  0.080272  0.882840  0.400423  1
  O  O2  1  0.679849  0.099577  0.982416  1
  O  O3  1  0.697432  0.517584  0.617160  1
  O  O4  1  0.697432  0.679849  0.080272  1
  O  O5  1  0.517584  0.617160  0.697432  1
  O  O6  1  0.099577  0.617160  0.419728  1
  O  O7  1  0.617160  0.697432  0.517584  1
  O  O8  1  0.400423  0.820151  0.517584  1
  O  O9  1  0.882840  0.982416  0.802568  1
  O  O10  1  0.982416  0.802568  0.882840  1
  O  O11  1  0.080272  0.697432  0.679849  1
  O  O12  1  0.617160  0.419728  0.099577  1
  O  O13  1  0.517584  0.400423  0.820151  1
  O  O14  1  0.679849  0.080272  0.697432  1
  O  O15  1  0.419728  0.099577  0.617160  1
  O  O16  1  0.820151  0.517584  0.400423  1
  O  O17  1  0.400423  0.080272  0.882840  1
  O  O18  1  0.099577  0.982416  0.679849  1
  O  O19  1  0.599577  0.179849  0.482416  1
  O  O20  1  0.982416  0.679849  0.099577  1
  O  O21  1  0.820151  0.802568  0.419728  1
  O  O22  1  0.882840  0.400423  0.080272  1
  O  O23  1  0.802568  0.882840  0.982416  1
  O  O24  1  0.197432  0.580272  0.179849  1
  O  O25  1  0.919728  0.117160  0.599577  1
  O  O26  1  0.320151  0.900423  0.017584  1
  O  O27  1  0.302568  0.482416  0.382840  1
  O  O28  1  0.302568  0.320151  0.919728  1
  O  O29  1  0.482416  0.382840  0.302568  1
  O  O30  1  0.900423  0.382840  0.580272  1
  O  O31  1  0.382840  0.302568  0.482416  1
  O  O32  1  0.197432  0.117160  0.017584  1
  O  O33  1  0.117160  0.599577  0.919728  1
  O  O34  1  0.179849  0.197432  0.580272  1
  O  O35  1  0.580272  0.179849  0.197432  1
  O  O36  1  0.017584  0.320151  0.900423  1
  O  O37  1  0.900423  0.017584  0.320151  1
  O  O38  1  0.599577  0.919728  0.117160  1
  O  O39  1  0.179849  0.482416  0.599577  1
  O  O40  1  0.580272  0.900423  0.382840  1
  O  O41  1  0.320151  0.919728  0.302568  1
  O  O42  1  0.482416  0.599577  0.179849  1
  O  O43  1  0.382840  0.580272  0.900423  1
  O  O44  1  0.919728  0.302568  0.320151  1
  O  O45  1  0.017584  0.197432  0.117160  1
  O  O46  1  0.117160  0.017584  0.197432  1
  O  O47  1  0.419728  0.820151  0.802568  1
  Al  Al48  1  0.000000  0.000000  0.000000  1
  Al  Al49  1  0.000000  0.500000  0.000000  1
  Al  Al50  1  0.000000  0.000000  0.500000  1
  Al  Al51  1  0.500000  0.000000  0.000000  1
  Al  Al52  1  0.000000  0.500000  0.500000  1
  Al  Al53  1  0.500000  0.000000  0.500000  1
  Al  Al54  1  0.500000  0.500000  0.000000  1
  Al  Al55  1  0.500000  0.500000  0.500000  1
  Al  Al56  1  0.250000  0.625000  0.375000  1
  Al  Al57  1  0.625000  0.750000  0.375000  1
  Al  Al58  1  0.875000  0.250000  0.125000  1
  Al  Al59  1  0.125000  0.875000  0.250000  1
  Al  Al60  1  0.250000  0.125000  0.875000  1
  Al  Al61  1  0.750000  0.875000  0.125000  1
  Al  Al62  1  0.375000  0.250000  0.625000  1
  Al  Al63  1  0.625000  0.375000  0.250000  1
  Al  Al64  1  0.125000  0.750000  0.875000  1
  Al  Al65  1  0.875000  0.125000  0.750000  1
  Al  Al66  1  0.750000  0.375000  0.625000  1
  Al  Al67  1  0.375000  0.625000  0.750000  1
  Gd  Gd68  1  0.250000  0.375000  0.125000  1
  Gd  Gd69  1  0.375000  0.750000  0.125000  1
  Gd  Gd70  1  0.125000  0.250000  0.375000  1
  Gd  Gd71  1  0.375000  0.125000  0.250000  1
  Gd  Gd72  1  0.125000  0.375000  0.750000  1
  Gd  Gd73  1  0.750000  0.125000  0.375000  1
  Gd  Gd74  1  0.750000  0.625000  0.875000  1
  Gd  Gd75  1  0.625000  0.250000  0.875000  1
  Gd  Gd76  1  0.875000  0.750000  0.625000  1
  Gd  Gd77  1  0.625000  0.875000  0.750000  1
  Gd  Gd78  1  0.875000  0.625000  0.250000  1
  Gd  Gd79  1  0.250000  0.875000  0.625000  1
