# generated using pymatgen
data_Na4(CoO2)7
_symmetry_space_group_name_H-M   'P 1'
_cell_length_a   7.71666608
_cell_length_b   7.71666609
_cell_length_c   11.34633669
_cell_angle_alpha   90.00000000
_cell_angle_beta   90.00000000
_cell_angle_gamma   119.99999997
_symmetry_Int_Tables_number   1
_chemical_formula_structural   Na4(CoO2)7
_chemical_formula_sum   'Na8 Co14 O28'
_cell_volume   585.12103880
_cell_formula_units_Z   2
loop_
 _symmetry_equiv_pos_site_id
 _symmetry_equiv_pos_as_xyz
  1  'x, y, z'
loop_
 _atom_site_type_symbol
 _atom_site_label
 _atom_site_symmetry_multiplicity
 _atom_site_fract_x
 _atom_site_fract_y
 _atom_site_fract_z
 _atom_site_occupancy
  O  O0  1  0.333334  0.666667  0.608067  1
  O  O1  1  0.666667  0.333334  0.108067  1
  O  O2  1  0.666667  0.333334  0.391933  1
  O  O3  1  0.333334  0.666667  0.891933  1
  O  O4  1  0.096849  0.472544  0.414390  1
  O  O5  1  0.624305  0.096850  0.914390  1
  O  O6  1  0.472544  0.375694  0.914390  1
  O  O7  1  0.527456  0.624305  0.414390  1
  O  O8  1  0.375695  0.903150  0.414390  1
  O  O9  1  0.903150  0.527455  0.914390  1
  O  O10  1  0.903150  0.527455  0.585610  1
  O  O11  1  0.375695  0.903150  0.085610  1
  O  O12  1  0.527456  0.624305  0.085610  1
  O  O13  1  0.472544  0.375694  0.585610  1
  O  O14  1  0.624305  0.096850  0.585610  1
  O  O15  1  0.096849  0.472544  0.085610  1
  O  O16  1  0.226772  0.179438  0.407839  1
  O  O17  1  0.047334  0.226772  0.907839  1
  O  O18  1  0.179437  0.952666  0.907839  1
  O  O19  1  0.820563  0.047336  0.407839  1
  O  O20  1  0.952665  0.773228  0.407839  1
  O  O21  1  0.773228  0.820562  0.907839  1
  O  O22  1  0.226772  0.179438  0.092161  1
  O  O23  1  0.047334  0.226772  0.592161  1
  O  O24  1  0.179437  0.952666  0.592161  1
  O  O25  1  0.773228  0.820562  0.592161  1
  O  O26  1  0.952665  0.773228  0.092161  1
  O  O27  1  0.820563  0.047336  0.092161  1
  Na  Na28  1  0.000000  0.000000  0.250000  1
  Na  Na29  1  0.000000  0.000000  0.750000  1
  Na  Na30  1  0.452624  0.404641  0.250000  1
  Na  Na31  1  0.047983  0.452624  0.750000  1
  Na  Na32  1  0.404641  0.952017  0.750000  1
  Na  Na33  1  0.595359  0.047983  0.250000  1
  Na  Na34  1  0.952016  0.547376  0.250000  1
  Na  Na35  1  0.547375  0.595359  0.750000  1
  Co  Co36  1  0.278485  0.427546  0.994645  1
  Co  Co37  1  0.427545  0.149060  0.494645  1
  Co  Co38  1  0.850939  0.278486  0.494645  1
  Co  Co39  1  0.572454  0.850939  0.994645  1
  Co  Co40  1  0.000000  0.000000  0.500000  1
  Co  Co41  1  0.000000  0.000000  0.000000  1
  Co  Co42  1  0.149060  0.721514  0.994645  1
  Co  Co43  1  0.721515  0.572454  0.494645  1
  Co  Co44  1  0.721515  0.572454  0.005355  1
  Co  Co45  1  0.149060  0.721514  0.505355  1
  Co  Co46  1  0.572454  0.850939  0.505355  1
  Co  Co47  1  0.427545  0.149060  0.005355  1
  Co  Co48  1  0.850939  0.278486  0.005355  1
  Co  Co49  1  0.278485  0.427546  0.505355  1
