# generated using pymatgen
data_MoW3(SeS3)2
_symmetry_space_group_name_H-M   'P 1'
_cell_length_a   3.22187411
_cell_length_b   3.22183045
_cell_length_c   36.39137157
_cell_angle_alpha   90.00013101
_cell_angle_beta   90.00000000
_cell_angle_gamma   120.00044838
_symmetry_Int_Tables_number   1
_chemical_formula_structural   MoW3(SeS3)2
_chemical_formula_sum   'Mo1 W3 Se2 S6'
_cell_volume   327.14353521
_cell_formula_units_Z   1
loop_
 _symmetry_equiv_pos_site_id
 _symmetry_equiv_pos_as_xyz
  1  'x, y, z'
loop_
 _atom_site_type_symbol
 _atom_site_label
 _atom_site_symmetry_multiplicity
 _atom_site_fract_x
 _atom_site_fract_y
 _atom_site_fract_z
 _atom_site_occupancy
  Mo  Mo0  1  0.666689  0.333378  0.281787  1
  W  W1  1  0.333310  0.666620  0.093920  1
  W  W2  1  0.333311  0.666621  0.469652  1
  W  W3  1  0.666689  0.333378  0.657551  1
  Se  Se4  1  0.666646  0.333290  0.422394  1
  Se  Se5  1  0.666648  0.333295  0.516922  1
  S  S6  1  0.333357  0.666716  0.324527  1
  S  S7  1  0.333354  0.666709  0.700465  1
  S  S8  1  0.666646  0.333290  0.051004  1
  S  S9  1  0.666642  0.333283  0.136839  1
  S  S10  1  0.333353  0.666707  0.239042  1
  S  S11  1  0.333356  0.666713  0.614645  1
