# generated using pymatgen
data_BaCe2ZnS5
_symmetry_space_group_name_H-M   'P 1'
_cell_length_a   7.87127132
_cell_length_b   7.87127131
_cell_length_c   8.84148657
_cell_angle_alpha   116.43183553
_cell_angle_beta   116.43183551
_cell_angle_gamma   89.99999996
_symmetry_Int_Tables_number   1
_chemical_formula_structural   BaCe2ZnS5
_chemical_formula_sum   'Ba2 Ce4 Zn2 S10'
_cell_volume   425.62833284
_cell_formula_units_Z   2
loop_
 _symmetry_equiv_pos_site_id
 _symmetry_equiv_pos_as_xyz
  1  'x, y, z'
loop_
 _atom_site_type_symbol
 _atom_site_label
 _atom_site_symmetry_multiplicity
 _atom_site_fract_x
 _atom_site_fract_y
 _atom_site_fract_z
 _atom_site_occupancy
  S  S0  1  0.483290  0.983290  0.267413  1
  S  S1  1  0.215878  0.715878  0.732587  1
  S  S2  1  0.516710  0.016710  0.732587  1
  S  S3  1  0.715878  0.516710  0.732587  1
  S  S4  1  0.016710  0.215878  0.732587  1
  S  S5  1  0.284122  0.483290  0.267413  1
  S  S6  1  0.983290  0.784122  0.267413  1
  S  S7  1  0.784122  0.284122  0.267413  1
  S  S8  1  0.000000  0.000000  0.000000  1
  S  S9  1  0.500000  0.500000  0.000000  1
  Zn  Zn10  1  0.750000  0.250000  0.500000  1
  Zn  Zn11  1  0.250000  0.750000  0.500000  1
  Ba  Ba12  1  0.750000  0.750000  0.500000  1
  Ba  Ba13  1  0.250000  0.250000  0.500000  1
  Ce  Ce14  1  0.659176  0.840824  0.000000  1
  Ce  Ce15  1  0.159176  0.659176  0.000000  1
  Ce  Ce16  1  0.840824  0.340824  0.000000  1
  Ce  Ce17  1  0.340824  0.159176  0.000000  1
