# generated using pymatgen
data_CsPrCdTe3
_symmetry_space_group_name_H-M   'P 1'
_cell_length_a   4.66176643
_cell_length_b   9.00706362
_cell_length_c   12.20091115
_cell_angle_alpha   90.00000000
_cell_angle_beta   90.00000000
_cell_angle_gamma   104.99791636
_symmetry_Int_Tables_number   1
_chemical_formula_structural   CsPrCdTe3
_chemical_formula_sum   'Cs2 Pr2 Cd2 Te6'
_cell_volume   494.85050136
_cell_formula_units_Z   2
loop_
 _symmetry_equiv_pos_site_id
 _symmetry_equiv_pos_as_xyz
  1  'x, y, z'
loop_
 _atom_site_type_symbol
 _atom_site_label
 _atom_site_symmetry_multiplicity
 _atom_site_fract_x
 _atom_site_fract_y
 _atom_site_fract_z
 _atom_site_occupancy
  Cd  Cd0  1  0.465025  0.930050  0.250000  1
  Cd  Cd1  1  0.534975  0.069950  0.750000  1
  Te  Te2  1  0.622751  0.245502  0.554385  1
  Te  Te3  1  0.377249  0.754498  0.445615  1
  Te  Te4  1  0.377249  0.754498  0.054385  1
  Te  Te5  1  0.622751  0.245502  0.945615  1
  Te  Te6  1  0.066397  0.132793  0.250000  1
  Te  Te7  1  0.933603  0.867207  0.750000  1
  Cs  Cs8  1  0.249838  0.499676  0.750000  1
  Cs  Cs9  1  0.750162  0.500324  0.250000  1
  Pr  Pr10  1  0.000000  0.000000  0.500000  1
  Pr  Pr11  1  0.000000  0.000000  0.000000  1
