# generated using pymatgen
data_Te2MoW3(SeS2)2
_symmetry_space_group_name_H-M   'P 1'
_cell_length_a   3.30728241
_cell_length_b   3.30725780
_cell_length_c   40.95305734
_cell_angle_alpha   89.99481666
_cell_angle_beta   90.00000000
_cell_angle_gamma   120.00024625
_symmetry_Int_Tables_number   1
_chemical_formula_structural   Te2MoW3(SeS2)2
_chemical_formula_sum   'Te2 Mo1 W3 Se2 S4'
_cell_volume   387.93164813
_cell_formula_units_Z   1
loop_
 _symmetry_equiv_pos_site_id
 _symmetry_equiv_pos_as_xyz
  1  'x, y, z'
loop_
 _atom_site_type_symbol
 _atom_site_label
 _atom_site_symmetry_multiplicity
 _atom_site_fract_x
 _atom_site_fract_y
 _atom_site_fract_z
 _atom_site_occupancy
  Te  Te0  1  0.666692  0.333383  0.421442  1
  Te  Te1  1  0.666622  0.333242  0.514848  1
  Mo  Mo2  1  0.333323  0.666646  0.468144  1
  W  W3  1  0.333391  0.666782  0.093968  1
  W  W4  1  0.666675  0.333350  0.280546  1
  W  W5  1  0.666610  0.333220  0.660230  1
  Se  Se6  1  0.333246  0.666492  0.701486  1
  Se  Se7  1  0.333311  0.666623  0.618975  1
  S  S8  1  0.333314  0.666629  0.318029  1
  S  S9  1  0.666751  0.333501  0.056525  1
  S  S10  1  0.666690  0.333380  0.131441  1
  S  S11  1  0.333375  0.666752  0.243114  1
