# generated using pymatgen
data_Mg3V2O8
_symmetry_space_group_name_H-M   'P 1'
_cell_length_a   6.12633417
_cell_length_b   6.56680510
_cell_length_c   8.42351352
_cell_angle_alpha   90.00003095
_cell_angle_beta   90.00000000
_cell_angle_gamma   117.80490140
_symmetry_Int_Tables_number   1
_chemical_formula_structural   Mg3V2O8
_chemical_formula_sum   'Mg6 V4 O16'
_cell_volume   299.75476193
_cell_formula_units_Z   2
loop_
 _symmetry_equiv_pos_site_id
 _symmetry_equiv_pos_as_xyz
  1  'x, y, z'
loop_
 _atom_site_type_symbol
 _atom_site_label
 _atom_site_symmetry_multiplicity
 _atom_site_fract_x
 _atom_site_fract_y
 _atom_site_fract_z
 _atom_site_occupancy
  O  O0  1  0.112146  0.765928  0.499977  1
  O  O1  1  0.346218  0.234072  0.500023  1
  O  O2  1  0.387854  0.234072  0.999977  1
  O  O3  1  0.153782  0.765928  0.000023  1
  O  O4  1  0.887854  0.234072  0.500023  1
  O  O5  1  0.653782  0.765928  0.499977  1
  O  O6  1  0.612146  0.765928  0.000023  1
  O  O7  1  0.846218  0.234072  0.999977  1
  O  O8  1  0.502689  0.005378  0.744926  1
  O  O9  1  0.497311  0.994622  0.255074  1
  O  O10  1  0.250902  0.501805  0.774679  1
  O  O11  1  0.749098  0.498195  0.225321  1
  O  O12  1  0.249097  0.498195  0.274679  1
  O  O13  1  0.750903  0.501805  0.725321  1
  O  O14  1  0.002689  0.005378  0.755074  1
  O  O15  1  0.997311  0.994622  0.244926  1
  Mg  Mg16  1  0.000000  0.000000  0.000000  1
  Mg  Mg17  1  0.500000  0.000000  0.500000  1
  Mg  Mg18  1  0.885769  0.271539  0.750000  1
  Mg  Mg19  1  0.614231  0.728461  0.250000  1
  Mg  Mg20  1  0.385769  0.271539  0.750000  1
  Mg  Mg21  1  0.114231  0.728461  0.250000  1
  V  V22  1  0.380009  0.760017  0.880353  1
  V  V23  1  0.619991  0.239983  0.119647  1
  V  V24  1  0.119991  0.239983  0.380353  1
  V  V25  1  0.880009  0.760017  0.619647  1
