# generated using pymatgen
data_CeSe2
_symmetry_space_group_name_H-M   'P 1'
_cell_length_a   4.08569483
_cell_length_b   4.08569532
_cell_length_c   6.81281123
_cell_angle_alpha   72.45368602
_cell_angle_beta   72.45368354
_cell_angle_gamma   59.95267545
_symmetry_Int_Tables_number   1
_chemical_formula_structural   CeSe2
_chemical_formula_sum   'Ce1 Se2'
_cell_volume   92.28790335
_cell_formula_units_Z   1
loop_
 _symmetry_equiv_pos_site_id
 _symmetry_equiv_pos_as_xyz
  1  'x, y, z'
loop_
 _atom_site_type_symbol
 _atom_site_label
 _atom_site_symmetry_multiplicity
 _atom_site_fract_x
 _atom_site_fract_y
 _atom_site_fract_z
 _atom_site_occupancy
  Ce  Ce0  1  0.332858  0.332858  0.001461  1
  Se  Se1  1  0.754324  0.754324  0.739238  1
  Se  Se2  1  0.577118  0.577118  0.266301  1
