# generated using pymatgen
data_Ag2PSe3
_symmetry_space_group_name_H-M   'P 1'
_cell_length_a   6.63126183
_cell_length_b   11.75556468
_cell_length_c   14.70132352
_cell_angle_alpha   90.00000000
_cell_angle_beta   90.00000000
_cell_angle_gamma   90.00000000
_symmetry_Int_Tables_number   1
_chemical_formula_structural   Ag2PSe3
_chemical_formula_sum   'Ag16 P8 Se24'
_cell_volume   1146.03031606
_cell_formula_units_Z   8
loop_
 _symmetry_equiv_pos_site_id
 _symmetry_equiv_pos_as_xyz
  1  'x, y, z'
loop_
 _atom_site_type_symbol
 _atom_site_label
 _atom_site_symmetry_multiplicity
 _atom_site_fract_x
 _atom_site_fract_y
 _atom_site_fract_z
 _atom_site_occupancy
  P  P0  1  0.357513  0.719265  0.050645  1
  P  P1  1  0.857513  0.280735  0.449355  1
  P  P2  1  0.142487  0.219265  0.949355  1
  P  P3  1  0.642487  0.780735  0.550645  1
  P  P4  1  0.312641  0.755016  0.205686  1
  P  P5  1  0.812641  0.244984  0.294314  1
  P  P6  1  0.187359  0.255016  0.794314  1
  P  P7  1  0.687359  0.744984  0.705686  1
  Se  Se8  1  0.509416  0.551145  0.040085  1
  Se  Se9  1  0.009416  0.448855  0.459915  1
  Se  Se10  1  0.990584  0.051145  0.959915  1
  Se  Se11  1  0.490584  0.948855  0.540085  1
  Se  Se12  1  0.052810  0.720334  0.988951  1
  Se  Se13  1  0.552810  0.279666  0.511049  1
  Se  Se14  1  0.447190  0.220334  0.011049  1
  Se  Se15  1  0.947190  0.779666  0.488951  1
  Se  Se16  1  0.385628  0.736469  0.769097  1
  Se  Se17  1  0.885628  0.263531  0.730903  1
  Se  Se18  1  0.114372  0.236469  0.230903  1
  Se  Se19  1  0.614372  0.763531  0.269097  1
  Se  Se20  1  0.869041  0.887203  0.763909  1
  Se  Se21  1  0.369041  0.112797  0.736091  1
  Se  Se22  1  0.630959  0.387203  0.236091  1
  Se  Se23  1  0.130959  0.612797  0.263909  1
  Se  Se24  1  0.840885  0.573615  0.713002  1
  Se  Se25  1  0.340885  0.426385  0.786998  1
  Se  Se26  1  0.659115  0.073615  0.286998  1
  Se  Se27  1  0.159115  0.926385  0.213002  1
  Se  Se28  1  0.457639  0.634452  0.496113  1
  Se  Se29  1  0.957639  0.365548  0.003887  1
  Se  Se30  1  0.042361  0.134452  0.503887  1
  Se  Se31  1  0.542361  0.865548  0.996113  1
  Ag  Ag32  1  0.030082  0.536746  0.878895  1
  Ag  Ag33  1  0.530082  0.463254  0.621105  1
  Ag  Ag34  1  0.469918  0.036746  0.121105  1
  Ag  Ag35  1  0.969918  0.963254  0.378895  1
  Ag  Ag36  1  0.714260  0.554641  0.357114  1
  Ag  Ag37  1  0.214260  0.445359  0.142886  1
  Ag  Ag38  1  0.785740  0.054641  0.642886  1
  Ag  Ag39  1  0.285740  0.945359  0.857114  1
  Ag  Ag40  1  0.825378  0.865912  0.125272  1
  Ag  Ag41  1  0.325378  0.134088  0.374728  1
  Ag  Ag42  1  0.674622  0.365912  0.874728  1
  Ag  Ag43  1  0.174622  0.634088  0.625272  1
  Ag  Ag44  1  0.833330  0.611000  0.137781  1
  Ag  Ag45  1  0.333330  0.389000  0.362219  1
  Ag  Ag46  1  0.666670  0.111000  0.862219  1
  Ag  Ag47  1  0.166670  0.889000  0.637781  1
