# generated using pymatgen
data_CrN2
_symmetry_space_group_name_H-M   'P 1'
_cell_length_a   8.03433615
_cell_length_b   12.51507042
_cell_length_c   24.11663035
_cell_angle_alpha   90.00000000
_cell_angle_beta   90.00000000
_cell_angle_gamma   94.43218905
_symmetry_Int_Tables_number   1
_chemical_formula_structural   CrN2
_chemical_formula_sum   'Cr32 N64'
_cell_volume   2417.68221875
_cell_formula_units_Z   32
loop_
 _symmetry_equiv_pos_site_id
 _symmetry_equiv_pos_as_xyz
  1  'x, y, z'
loop_
 _atom_site_type_symbol
 _atom_site_label
 _atom_site_symmetry_multiplicity
 _atom_site_fract_x
 _atom_site_fract_y
 _atom_site_fract_z
 _atom_site_occupancy
  Cr  Cr0  1  0.935018  0.269217  0.522376  1
  Cr  Cr1  1  0.064982  0.730783  0.022376  1
  Cr  Cr2  1  0.064982  0.730783  0.477624  1
  Cr  Cr3  1  0.935018  0.269217  0.977624  1
  Cr  Cr4  1  0.100497  0.134573  0.871184  1
  Cr  Cr5  1  0.899503  0.865427  0.371184  1
  Cr  Cr6  1  0.899503  0.865427  0.128816  1
  Cr  Cr7  1  0.100497  0.134573  0.628816  1
  Cr  Cr8  1  0.477325  0.239419  0.819032  1
  Cr  Cr9  1  0.522675  0.760581  0.319032  1
  Cr  Cr10  1  0.522675  0.760581  0.180968  1
  Cr  Cr11  1  0.477325  0.239419  0.680968  1
  Cr  Cr12  1  0.594978  0.393048  0.930069  1
  Cr  Cr13  1  0.405022  0.606952  0.430069  1
  Cr  Cr14  1  0.405022  0.606952  0.069931  1
  Cr  Cr15  1  0.594978  0.393048  0.569931  1
  Cr  Cr16  1  0.741022  0.037003  0.816964  1
  Cr  Cr17  1  0.258978  0.962997  0.316964  1
  Cr  Cr18  1  0.258978  0.962997  0.183036  1
  Cr  Cr19  1  0.741022  0.037003  0.683036  1
  Cr  Cr20  1  0.762527  0.050537  0.459125  1
  Cr  Cr21  1  0.237473  0.949463  0.959125  1
  Cr  Cr22  1  0.237473  0.949463  0.540875  1
  Cr  Cr23  1  0.762527  0.050537  0.040875  1
  Cr  Cr24  1  0.365496  0.108007  0.431337  1
  Cr  Cr25  1  0.634504  0.891993  0.931337  1
  Cr  Cr26  1  0.634504  0.891993  0.568663  1
  Cr  Cr27  1  0.365496  0.108007  0.068663  1
  Cr  Cr28  1  0.291931  0.361213  0.471246  1
  Cr  Cr29  1  0.708069  0.638787  0.971246  1
  Cr  Cr30  1  0.708069  0.638787  0.528754  1
  Cr  Cr31  1  0.291931  0.361213  0.028754  1
  N  N32  1  0.022543  0.221806  0.582066  1
  N  N33  1  0.977457  0.778194  0.082066  1
  N  N34  1  0.977457  0.778194  0.417934  1
  N  N35  1  0.022543  0.221806  0.917934  1
  N  N36  1  0.752407  0.324498  0.541818  1
  N  N37  1  0.247593  0.675502  0.041818  1
  N  N38  1  0.247593  0.675502  0.458182  1
  N  N39  1  0.752407  0.324498  0.958182  1
  N  N40  1  0.086016  0.358218  0.492841  1
  N  N41  1  0.913984  0.641782  0.992841  1
  N  N42  1  0.913984  0.641782  0.507159  1
  N  N43  1  0.086016  0.358218  0.007159  1
  N  N44  1  0.888316  0.164517  0.477404  1
  N  N45  1  0.111684  0.835483  0.977404  1
  N  N46  1  0.111684  0.835483  0.522596  1
  N  N47  1  0.888316  0.164517  0.022596  1
  N  N48  1  0.152902  0.023819  0.906263  1
  N  N49  1  0.847098  0.976181  0.406263  1
  N  N50  1  0.847098  0.976181  0.093737  1
  N  N51  1  0.152902  0.023819  0.593737  1
  N  N52  1  0.278696  0.194285  0.839869  1
  N  N53  1  0.721304  0.805715  0.339869  1
  N  N54  1  0.721304  0.805715  0.160131  1
  N  N55  1  0.278696  0.194285  0.660131  1
  N  N56  1  0.938671  0.095421  0.825424  1
  N  N57  1  0.061329  0.904579  0.325424  1
  N  N58  1  0.061329  0.904579  0.174576  1
  N  N59  1  0.938671  0.095421  0.674576  1
  N  N60  1  0.478999  0.279057  0.750000  1
  N  N61  1  0.521001  0.720943  0.250000  1
  N  N62  1  0.549269  0.338441  0.865538  1
  N  N63  1  0.450731  0.661559  0.365538  1
  N  N64  1  0.450731  0.661559  0.134462  1
  N  N65  1  0.549269  0.338441  0.634462  1
  N  N66  1  0.604815  0.136033  0.827055  1
  N  N67  1  0.395185  0.863967  0.327055  1
  N  N68  1  0.395185  0.863967  0.172945  1
  N  N69  1  0.604815  0.136033  0.672945  1
  N  N70  1  0.419553  0.370025  0.970952  1
  N  N71  1  0.580447  0.629975  0.470952  1
  N  N72  1  0.580447  0.629975  0.029048  1
  N  N73  1  0.419553  0.370025  0.529048  1
  N  N74  1  0.655682  0.529718  0.929308  1
  N  N75  1  0.344318  0.470282  0.429308  1
  N  N76  1  0.344318  0.470282  0.070692  1
  N  N77  1  0.655682  0.529718  0.570692  1
  N  N78  1  0.697360  0.939028  0.867271  1
  N  N79  1  0.302640  0.060972  0.367271  1
  N  N80  1  0.302640  0.060972  0.132729  1
  N  N81  1  0.697360  0.939028  0.632729  1
  N  N82  1  0.716183  0.988139  0.750000  1
  N  N83  1  0.283817  0.011861  0.250000  1
  N  N84  1  0.730025  0.969677  0.515578  1
  N  N85  1  0.269975  0.030323  0.015578  1
  N  N86  1  0.269975  0.030323  0.484422  1
  N  N87  1  0.730025  0.969677  0.984422  1
  N  N88  1  0.576367  0.093090  0.436184  1
  N  N89  1  0.423633  0.906910  0.936184  1
  N  N90  1  0.423633  0.906910  0.563816  1
  N  N91  1  0.576367  0.093090  0.063816  1
  N  N92  1  0.332236  0.241337  0.439722  1
  N  N93  1  0.667764  0.758663  0.939722  1
  N  N94  1  0.667764  0.758663  0.560278  1
  N  N95  1  0.332236  0.241337  0.060278  1
