# generated using pymatgen
data_Al2Fe3(SiO4)3
_symmetry_space_group_name_H-M   'P 1'
_cell_length_a   10.09940738
_cell_length_b   10.09940737
_cell_length_c   10.09940737
_cell_angle_alpha   109.47122061
_cell_angle_beta   109.47122060
_cell_angle_gamma   109.47122065
_symmetry_Int_Tables_number   1
_chemical_formula_structural   Al2Fe3(SiO4)3
_chemical_formula_sum   'Al8 Fe12 Si12 O48'
_cell_volume   792.98647569
_cell_formula_units_Z   4
loop_
 _symmetry_equiv_pos_site_id
 _symmetry_equiv_pos_as_xyz
  1  'x, y, z'
loop_
 _atom_site_type_symbol
 _atom_site_label
 _atom_site_symmetry_multiplicity
 _atom_site_fract_x
 _atom_site_fract_y
 _atom_site_fract_z
 _atom_site_occupancy
  O  O0  1  0.298832  0.485566  0.381376  1
  O  O1  1  0.014434  0.313266  0.895810  1
  O  O2  1  0.118623  0.604190  0.917456  1
  O  O3  1  0.201167  0.582543  0.186734  1
  O  O4  1  0.201168  0.118624  0.014433  1
  O  O5  1  0.582544  0.186734  0.201168  1
  O  O6  1  0.604191  0.186734  0.485567  1
  O  O7  1  0.186734  0.201167  0.582543  1
  O  O8  1  0.895809  0.381376  0.582544  1
  O  O9  1  0.313266  0.917457  0.298832  1
  O  O10  1  0.917456  0.298832  0.313265  1
  O  O11  1  0.014433  0.201167  0.118623  1
  O  O12  1  0.186735  0.485566  0.604191  1
  O  O13  1  0.582543  0.895810  0.381376  1
  O  O14  1  0.118623  0.014433  0.201167  1
  O  O15  1  0.485567  0.604190  0.186735  1
  O  O16  1  0.381376  0.582543  0.895810  1
  O  O17  1  0.895810  0.014433  0.313266  1
  O  O18  1  0.604190  0.917457  0.118624  1
  O  O19  1  0.104191  0.618623  0.417456  1
  O  O20  1  0.485567  0.381376  0.298833  1
  O  O21  1  0.381376  0.298832  0.485566  1
  O  O22  1  0.313266  0.895810  0.014433  1
  O  O23  1  0.298833  0.313266  0.917456  1
  O  O24  1  0.701167  0.514433  0.618624  1
  O  O25  1  0.985567  0.686735  0.104191  1
  O  O26  1  0.881376  0.395809  0.082544  1
  O  O27  1  0.798833  0.417456  0.813266  1
  O  O28  1  0.798832  0.881377  0.985567  1
  O  O29  1  0.417456  0.813265  0.798833  1
  O  O30  1  0.395809  0.813265  0.514433  1
  O  O31  1  0.813266  0.798833  0.417456  1
  O  O32  1  0.701168  0.686735  0.082544  1
  O  O33  1  0.686734  0.104190  0.985566  1
  O  O34  1  0.618623  0.701167  0.514433  1
  O  O35  1  0.514433  0.618623  0.701167  1
  O  O36  1  0.082544  0.881377  0.395810  1
  O  O37  1  0.395810  0.082544  0.881376  1
  O  O38  1  0.104190  0.985567  0.686734  1
  O  O39  1  0.618624  0.417456  0.104190  1
  O  O40  1  0.514433  0.395809  0.813265  1
  O  O41  1  0.881376  0.985567  0.798832  1
  O  O42  1  0.417455  0.104190  0.618623  1
  O  O43  1  0.813265  0.514433  0.395809  1
  O  O44  1  0.985567  0.798833  0.881377  1
  O  O45  1  0.082544  0.701167  0.686734  1
  O  O46  1  0.686734  0.082544  0.701167  1
  O  O47  1  0.917456  0.118624  0.604190  1
  Al  Al48  1  0.500000  0.000000  1.000000  1
  Al  Al49  1  0.000000  0.000000  0.000000  1
  Al  Al50  1  0.000001  0.500000  0.000000  1
  Al  Al51  1  0.000000  0.000000  0.500000  1
  Al  Al52  1  0.000001  0.500000  0.500001  1
  Al  Al53  1  0.500000  0.000000  0.500000  1
  Al  Al54  1  0.500000  0.500000  1.000000  1
  Al  Al55  1  0.500000  0.500000  0.500000  1
  Si  Si56  1  0.250000  0.125000  0.875000  1
  Si  Si57  1  0.875000  0.250000  0.125000  1
  Si  Si58  1  0.625000  0.750001  0.375000  1
  Si  Si59  1  0.250000  0.625000  0.375000  1
  Si  Si60  1  0.375000  0.625000  0.750001  1
  Si  Si61  1  0.750000  0.375000  0.625000  1
  Si  Si62  1  0.875000  0.125000  0.750000  1
  Si  Si63  1  0.125001  0.750001  0.875000  1
  Si  Si64  1  0.124999  0.874999  0.249999  1
  Si  Si65  1  0.625000  0.375000  0.250000  1
  Si  Si66  1  0.375000  0.250000  0.625000  1
  Si  Si67  1  0.750000  0.874999  0.124999  1
  Fe  Fe68  1  0.625000  0.250000  0.875000  1
  Fe  Fe69  1  0.875000  0.750001  0.625000  1
  Fe  Fe70  1  0.750000  0.625000  0.875001  1
  Fe  Fe71  1  0.250000  0.874999  0.625000  1
  Fe  Fe72  1  0.875000  0.625000  0.250000  1
  Fe  Fe73  1  0.624999  0.874999  0.750000  1
  Fe  Fe74  1  0.375000  0.750001  0.125000  1
  Fe  Fe75  1  0.125000  0.250000  0.375000  1
  Fe  Fe76  1  0.250000  0.375000  0.125000  1
  Fe  Fe77  1  0.750000  0.125000  0.375000  1
  Fe  Fe78  1  0.125000  0.375000  0.750000  1
  Fe  Fe79  1  0.375001  0.125000  0.250000  1
