# generated using pymatgen
data_CeMg2Ni9
_symmetry_space_group_name_H-M   'P 1'
_cell_length_a   8.38110808
_cell_length_b   8.38110808
_cell_length_c   8.38110808
_cell_angle_alpha   33.58860946
_cell_angle_beta   33.58860942
_cell_angle_gamma   33.58860950
_symmetry_Int_Tables_number   1
_chemical_formula_structural   CeMg2Ni9
_chemical_formula_sum   'Ce1 Mg2 Ni9'
_cell_volume   160.49987838
_cell_formula_units_Z   1
loop_
 _symmetry_equiv_pos_site_id
 _symmetry_equiv_pos_as_xyz
  1  'x, y, z'
loop_
 _atom_site_type_symbol
 _atom_site_label
 _atom_site_symmetry_multiplicity
 _atom_site_fract_x
 _atom_site_fract_y
 _atom_site_fract_z
 _atom_site_occupancy
  Mg  Mg0  1  0.855455  0.855455  0.855455  1
  Mg  Mg1  1  0.144545  0.144545  0.144545  1
  Ni  Ni2  1  0.082298  0.586472  0.586472  1
  Ni  Ni3  1  0.586472  0.082298  0.586472  1
  Ni  Ni4  1  0.586472  0.586472  0.082298  1
  Ni  Ni5  1  0.917702  0.413528  0.413528  1
  Ni  Ni6  1  0.413528  0.917702  0.413528  1
  Ni  Ni7  1  0.333789  0.333789  0.333789  1
  Ni  Ni8  1  0.413528  0.413528  0.917702  1
  Ni  Ni9  1  0.500000  0.500000  0.500000  1
  Ni  Ni10  1  0.666211  0.666211  0.666211  1
  Ce  Ce11  1  0.000000  0.000000  0.000000  1
