# generated using pymatgen
data_Sr2YSbO6
_symmetry_space_group_name_H-M   'P 1'
_cell_length_a   5.86665572
_cell_length_b   5.93425488
_cell_length_c   8.33181857
_cell_angle_alpha   90.00000000
_cell_angle_beta   89.76809818
_cell_angle_gamma   90.00000000
_symmetry_Int_Tables_number   1
_chemical_formula_structural   Sr2YSbO6
_chemical_formula_sum   'Sr4 Y2 Sb2 O12'
_cell_volume   290.06347485
_cell_formula_units_Z   2
loop_
 _symmetry_equiv_pos_site_id
 _symmetry_equiv_pos_as_xyz
  1  'x, y, z'
loop_
 _atom_site_type_symbol
 _atom_site_label
 _atom_site_symmetry_multiplicity
 _atom_site_fract_x
 _atom_site_fract_y
 _atom_site_fract_z
 _atom_site_occupancy
  O  O0  1  0.078576  0.522843  0.235247  1
  O  O1  1  0.421424  0.022843  0.264753  1
  O  O2  1  0.921424  0.477157  0.764753  1
  O  O3  1  0.578576  0.977157  0.735247  1
  O  O4  1  0.772812  0.199582  0.459742  1
  O  O5  1  0.727188  0.699582  0.040258  1
  O  O6  1  0.227188  0.800418  0.540258  1
  O  O7  1  0.272812  0.300418  0.959742  1
  O  O8  1  0.196321  0.773776  0.956811  1
  O  O9  1  0.303679  0.273776  0.543189  1
  O  O10  1  0.803679  0.226224  0.043189  1
  O  O11  1  0.696321  0.726224  0.456811  1
  Sr  Sr12  1  0.991618  0.965014  0.249648  1
  Sr  Sr13  1  0.508382  0.465014  0.250352  1
  Sr  Sr14  1  0.008382  0.034986  0.750352  1
  Sr  Sr15  1  0.491618  0.534986  0.749648  1
  Y  Y16  1  0.000000  0.500000  0.500000  1
  Y  Y17  1  0.500000  0.000000  0.000000  1
  Sb  Sb18  1  0.500000  0.000000  0.500000  1
  Sb  Sb19  1  0.000000  0.500000  0.000000  1
