# generated using pymatgen
data_Ce(YS2)3
_symmetry_space_group_name_H-M   'P 1'
_cell_length_a   11.37274630
_cell_length_b   11.08616833
_cell_length_c   3.98319291
_cell_angle_alpha   90.00000000
_cell_angle_beta   90.00000000
_cell_angle_gamma   108.85392096
_symmetry_Int_Tables_number   1
_chemical_formula_structural   Ce(YS2)3
_chemical_formula_sum   'Ce2 Y6 S12'
_cell_volume   475.25632722
_cell_formula_units_Z   2
loop_
 _symmetry_equiv_pos_site_id
 _symmetry_equiv_pos_as_xyz
  1  'x, y, z'
loop_
 _atom_site_type_symbol
 _atom_site_label
 _atom_site_symmetry_multiplicity
 _atom_site_fract_x
 _atom_site_fract_y
 _atom_site_fract_z
 _atom_site_occupancy
  Ce  Ce0  1  0.193458  0.548746  0.250001  1
  Ce  Ce1  1  0.806542  0.451255  0.750000  1
  Y  Y2  1  0.000526  0.180563  0.250001  1
  Y  Y3  1  0.999475  0.819437  0.750000  1
  Y  Y4  1  0.585968  0.659824  0.250001  1
  Y  Y5  1  0.414033  0.340177  0.750000  1
  Y  Y6  1  0.332654  0.941729  0.250001  1
  Y  Y7  1  0.667345  0.058271  0.750000  1
  S  S8  1  0.557351  0.893565  0.250001  1
  S  S9  1  0.442648  0.106435  0.750000  1
  S  S10  1  0.249493  0.305991  0.250001  1
  S  S11  1  0.750508  0.694009  0.750000  1
  S  S12  1  0.112038  0.979283  0.250001  1
  S  S13  1  0.887961  0.020716  0.750000  1
  S  S14  1  0.962394  0.615297  0.250001  1
  S  S15  1  0.037606  0.384703  0.750000  1
  S  S16  1  0.771803  0.236768  0.250001  1
  S  S17  1  0.228197  0.763232  0.750000  1
  S  S18  1  0.595931  0.417297  0.250001  1
  S  S19  1  0.404070  0.582704  0.750000  1
