# generated using pymatgen
data_VSiP2O9
_symmetry_space_group_name_H-M   'P 1'
_cell_length_a   8.33545044
_cell_length_b   8.95066102
_cell_length_c   8.95066102
_cell_angle_alpha   90.00000000
_cell_angle_beta   90.00000000
_cell_angle_gamma   90.00000000
_symmetry_Int_Tables_number   1
_chemical_formula_structural   VSiP2O9
_chemical_formula_sum   'V4 Si4 P8 O36'
_cell_volume   667.78904971
_cell_formula_units_Z   4
loop_
 _symmetry_equiv_pos_site_id
 _symmetry_equiv_pos_as_xyz
  1  'x, y, z'
loop_
 _atom_site_type_symbol
 _atom_site_label
 _atom_site_symmetry_multiplicity
 _atom_site_fract_x
 _atom_site_fract_y
 _atom_site_fract_z
 _atom_site_occupancy
  O  O0  1  0.890749  0.182766  0.884560  1
  O  O1  1  0.890749  0.317234  0.615440  1
  O  O2  1  0.890749  0.884560  0.317234  1
  O  O3  1  0.890749  0.615440  0.182766  1
  O  O4  1  0.609250  0.384560  0.682766  1
  O  O5  1  0.609250  0.817234  0.384560  1
  O  O6  1  0.609250  0.682766  0.115440  1
  O  O7  1  0.609250  0.115440  0.817234  1
  O  O8  1  0.109250  0.817234  0.115440  1
  O  O9  1  0.109250  0.682766  0.384560  1
  O  O10  1  0.109250  0.115440  0.682766  1
  O  O11  1  0.109250  0.384560  0.817234  1
  O  O12  1  0.390750  0.615440  0.317234  1
  O  O13  1  0.390750  0.182766  0.615440  1
  O  O14  1  0.390750  0.317234  0.884560  1
  O  O15  1  0.390750  0.884560  0.182766  1
  O  O16  1  0.537841  0.750000  0.750000  1
  O  O17  1  0.962159  0.250000  0.250000  1
  O  O18  1  0.462158  0.250000  0.250000  1
  O  O19  1  0.037842  0.750000  0.750000  1
  O  O20  1  0.297567  0.900499  0.912166  1
  O  O21  1  0.297567  0.587833  0.900499  1
  O  O22  1  0.297567  0.912166  0.599502  1
  O  O23  1  0.297567  0.599502  0.587833  1
  O  O24  1  0.202434  0.400499  0.087834  1
  O  O25  1  0.202434  0.099502  0.412166  1
  O  O26  1  0.797567  0.912166  0.900499  1
  O  O27  1  0.202434  0.087834  0.099502  1
  O  O28  1  0.702433  0.099502  0.087834  1
  O  O29  1  0.702433  0.412166  0.099502  1
  O  O30  1  0.702433  0.087834  0.400499  1
  O  O31  1  0.702433  0.400499  0.412166  1
  O  O32  1  0.797567  0.599502  0.912166  1
  O  O33  1  0.797567  0.900499  0.587833  1
  O  O34  1  0.797567  0.587833  0.599502  1
  O  O35  1  0.202434  0.412166  0.400499  1
  Si  Si36  1  0.500000  0.250000  0.750000  1
  Si  Si37  1  0.500000  0.750000  0.250000  1
  Si  Si38  1  0.000000  0.750000  0.250000  1
  Si  Si39  1  0.000000  0.250000  0.750000  1
  P  P40  1  0.750001  0.071600  0.928400  1
  P  P41  1  0.750001  0.928400  0.428400  1
  P  P42  1  0.750001  0.428400  0.571601  1
  P  P43  1  0.750001  0.571601  0.071600  1
  P  P44  1  0.250000  0.428400  0.928400  1
  P  P45  1  0.250000  0.928400  0.071600  1
  P  P46  1  0.250000  0.571601  0.428400  1
  P  P47  1  0.250000  0.071600  0.571601  1
  V  V48  1  0.841193  0.750000  0.750000  1
  V  V49  1  0.658806  0.250000  0.250000  1
  V  V50  1  0.158806  0.250000  0.250000  1
  V  V51  1  0.341194  0.750000  0.750000  1
