# generated using pymatgen
data_LaN
_symmetry_space_group_name_H-M   'P 1'
_cell_length_a   4.45335852
_cell_length_b   4.45329259
_cell_length_c   3.78434823
_cell_angle_alpha   89.99899890
_cell_angle_beta   89.99960950
_cell_angle_gamma   90.00002084
_symmetry_Int_Tables_number   1
_chemical_formula_structural   LaN
_chemical_formula_sum   'La2 N2'
_cell_volume   75.05160468
_cell_formula_units_Z   2
loop_
 _symmetry_equiv_pos_site_id
 _symmetry_equiv_pos_as_xyz
  1  'x, y, z'
loop_
 _atom_site_type_symbol
 _atom_site_label
 _atom_site_symmetry_multiplicity
 _atom_site_fract_x
 _atom_site_fract_y
 _atom_site_fract_z
 _atom_site_occupancy
  La  La0  1  -0.000001  0.499997  0.259086  1
  La  La1  1  0.500001  0.000003  0.740915  1
  N  N2  1  0.500000  0.499999  0.000005  1
  N  N3  1  -0.000001  0.000001  0.999994  1
