# generated using pymatgen
data_TeMoWSe2S
_symmetry_space_group_name_H-M   'P 1'
_cell_length_a   3.34566061
_cell_length_b   3.34570672
_cell_length_c   38.11135406
_cell_angle_alpha   89.99982968
_cell_angle_beta   90.00000000
_cell_angle_gamma   119.99954421
_symmetry_Int_Tables_number   1
_chemical_formula_structural   TeMoWSe2S
_chemical_formula_sum   'Te2 Mo2 W2 Se4 S2'
_cell_volume   369.45092412
_cell_formula_units_Z   2
loop_
 _symmetry_equiv_pos_site_id
 _symmetry_equiv_pos_as_xyz
  1  'x, y, z'
loop_
 _atom_site_type_symbol
 _atom_site_label
 _atom_site_symmetry_multiplicity
 _atom_site_fract_x
 _atom_site_fract_y
 _atom_site_fract_z
 _atom_site_occupancy
  Te  Te0  1  0.666642  0.333283  0.419553  1
  Te  Te1  1  0.666638  0.333274  0.519672  1
  Mo  Mo2  1  0.333309  0.666618  0.093929  1
  Mo  Mo3  1  0.666713  0.333427  0.281787  1
  W  W4  1  0.333309  0.666618  0.469621  1
  W  W5  1  0.666690  0.333380  0.657593  1
  Se  Se6  1  0.333359  0.666718  0.701540  1
  Se  Se7  1  0.666640  0.333280  0.050181  1
  Se  Se8  1  0.666649  0.333297  0.137682  1
  Se  Se9  1  0.333356  0.666714  0.613615  1
  S  S10  1  0.333346  0.666692  0.321580  1
  S  S11  1  0.333349  0.666699  0.241994  1
