# generated using pymatgen
data_MoWSe3S
_symmetry_space_group_name_H-M   'P 1'
_cell_length_a   3.29213575
_cell_length_b   3.29215389
_cell_length_c   37.41113897
_cell_angle_alpha   90.00082235
_cell_angle_beta   90.00000000
_cell_angle_gamma   119.99981779
_symmetry_Int_Tables_number   1
_chemical_formula_structural   MoWSe3S
_chemical_formula_sum   'Mo2 W2 Se6 S2'
_cell_volume   351.14801899
_cell_formula_units_Z   2
loop_
 _symmetry_equiv_pos_site_id
 _symmetry_equiv_pos_as_xyz
  1  'x, y, z'
loop_
 _atom_site_type_symbol
 _atom_site_label
 _atom_site_symmetry_multiplicity
 _atom_site_fract_x
 _atom_site_fract_y
 _atom_site_fract_z
 _atom_site_occupancy
  Mo  Mo0  1  0.333300  0.666600  0.469646  1
  Mo  Mo1  1  0.666690  0.333379  0.281804  1
  W  W2  1  0.333317  0.666633  0.093915  1
  W  W3  1  0.666690  0.333380  0.657558  1
  Se  Se4  1  0.333355  0.666710  0.702899  1
  Se  Se5  1  0.666636  0.333272  0.048581  1
  Se  Se6  1  0.666631  0.333261  0.424551  1
  Se  Se7  1  0.666648  0.333295  0.139257  1
  Se  Se8  1  0.666650  0.333300  0.514724  1
  Se  Se9  1  0.333364  0.666728  0.612219  1
  S  S10  1  0.333362  0.666725  0.322785  1
  S  S11  1  0.333358  0.666716  0.240808  1
