# generated using pymatgen
data_Cd3(AsO4)2
_symmetry_space_group_name_H-M   'P 1'
_cell_length_a   6.73094519
_cell_length_b   9.48452223
_cell_length_c   12.34130387
_cell_angle_alpha   90.00000000
_cell_angle_beta   90.00000000
_cell_angle_gamma   98.15473292
_symmetry_Int_Tables_number   1
_chemical_formula_structural   Cd3(AsO4)2
_chemical_formula_sum   'Cd12 As8 O32'
_cell_volume   779.89993527
_cell_formula_units_Z   4
loop_
 _symmetry_equiv_pos_site_id
 _symmetry_equiv_pos_as_xyz
  1  'x, y, z'
loop_
 _atom_site_type_symbol
 _atom_site_label
 _atom_site_symmetry_multiplicity
 _atom_site_fract_x
 _atom_site_fract_y
 _atom_site_fract_z
 _atom_site_occupancy
  O  O0  1  0.252513  0.528584  0.539611  1
  O  O1  1  0.247487  0.471416  0.039611  1
  O  O2  1  0.747487  0.471416  0.460389  1
  O  O3  1  0.752513  0.528584  0.960389  1
  O  O4  1  0.517341  0.734985  0.420978  1
  O  O5  1  0.982659  0.265015  0.920978  1
  O  O6  1  0.482659  0.265015  0.579022  1
  O  O7  1  0.017341  0.734985  0.079022  1
  O  O8  1  0.134761  0.707422  0.369584  1
  O  O9  1  0.365239  0.292578  0.869584  1
  O  O10  1  0.865239  0.292578  0.630416  1
  O  O11  1  0.634761  0.707422  0.130416  1
  O  O12  1  0.340573  0.475326  0.320222  1
  O  O13  1  0.159427  0.524674  0.820222  1
  O  O14  1  0.659427  0.524674  0.679778  1
  O  O15  1  0.840573  0.475326  0.179778  1
  O  O16  1  0.110398  0.117591  0.435760  1
  O  O17  1  0.389602  0.882409  0.935760  1
  O  O18  1  0.889602  0.882409  0.564240  1
  O  O19  1  0.610398  0.117591  0.064240  1
  O  O20  1  0.167542  0.078748  0.066153  1
  O  O21  1  0.332458  0.921252  0.566153  1
  O  O22  1  0.832458  0.921252  0.933847  1
  O  O23  1  0.667542  0.078748  0.433847  1
  O  O24  1  0.397443  0.925301  0.205257  1
  O  O25  1  0.102557  0.074699  0.705257  1
  O  O26  1  0.602557  0.074699  0.794743  1
  O  O27  1  0.897443  0.925301  0.294743  1
  O  O28  1  0.374382  0.216640  0.230806  1
  O  O29  1  0.125618  0.783360  0.730806  1
  O  O30  1  0.625618  0.783360  0.769194  1
  O  O31  1  0.874382  0.216640  0.269194  1
  As  As32  1  0.311455  0.605430  0.413666  1
  As  As33  1  0.188545  0.394570  0.913666  1
  As  As34  1  0.688545  0.394570  0.586334  1
  As  As35  1  0.811455  0.605430  0.086334  1
  As  As36  1  0.890260  0.083055  0.363194  1
  As  As37  1  0.609740  0.916945  0.863194  1
  As  As38  1  0.109740  0.916945  0.636806  1
  As  As39  1  0.390260  0.083055  0.136806  1
  Cd  Cd40  1  0.627621  0.358177  0.307276  1
  Cd  Cd41  1  0.872379  0.641823  0.807276  1
  Cd  Cd42  1  0.372379  0.641823  0.692724  1
  Cd  Cd43  1  0.127621  0.358177  0.192724  1
  Cd  Cd44  1  0.833231  0.720799  0.424707  1
  Cd  Cd45  1  0.666769  0.279201  0.924707  1
  Cd  Cd46  1  0.166769  0.279201  0.575293  1
  Cd  Cd47  1  0.333231  0.720799  0.075293  1
  Cd  Cd48  1  0.345959  0.944199  0.383728  1
  Cd  Cd49  1  0.154041  0.055801  0.883728  1
  Cd  Cd50  1  0.654041  0.055801  0.616272  1
  Cd  Cd51  1  0.845959  0.944199  0.116272  1
