# generated using pymatgen
data_Ba2YbNbO6
_symmetry_space_group_name_H-M   'P 1'
_cell_length_a   6.07498827
_cell_length_b   6.07498828
_cell_length_c   6.07498828
_cell_angle_alpha   60.00000000
_cell_angle_beta   59.99999996
_cell_angle_gamma   59.99999998
_symmetry_Int_Tables_number   1
_chemical_formula_structural   Ba2YbNbO6
_chemical_formula_sum   'Ba2 Yb1 Nb1 O6'
_cell_volume   158.53360476
_cell_formula_units_Z   1
loop_
 _symmetry_equiv_pos_site_id
 _symmetry_equiv_pos_as_xyz
  1  'x, y, z'
loop_
 _atom_site_type_symbol
 _atom_site_label
 _atom_site_symmetry_multiplicity
 _atom_site_fract_x
 _atom_site_fract_y
 _atom_site_fract_z
 _atom_site_occupancy
  O  O0  1  0.235435  0.764565  0.764565  1
  O  O1  1  0.235435  0.764565  0.235435  1
  O  O2  1  0.764566  0.235435  0.764565  1
  O  O3  1  0.235433  0.235435  0.764565  1
  O  O4  1  0.764566  0.235435  0.235435  1
  O  O5  1  0.764565  0.764565  0.235434  1
  Nb  Nb6  1  0.000000  0.000000  0.000000  1
  Ba  Ba7  1  0.749999  0.749999  0.750000  1
  Ba  Ba8  1  0.250000  0.250000  0.250000  1
  Yb  Yb9  1  0.499999  0.500001  0.499999  1
