# generated using pymatgen
data_NdCo(BO2)5
_symmetry_space_group_name_H-M   'P 1'
_cell_length_a   7.67418859
_cell_length_b   8.79110412
_cell_length_c   9.51759442
_cell_angle_alpha   92.82159496
_cell_angle_beta   90.00000000
_cell_angle_gamma   90.00000000
_symmetry_Int_Tables_number   1
_chemical_formula_structural   NdCo(BO2)5
_chemical_formula_sum   'Nd4 Co4 B20 O40'
_cell_volume   641.32216658
_cell_formula_units_Z   4
loop_
 _symmetry_equiv_pos_site_id
 _symmetry_equiv_pos_as_xyz
  1  'x, y, z'
loop_
 _atom_site_type_symbol
 _atom_site_label
 _atom_site_symmetry_multiplicity
 _atom_site_fract_x
 _atom_site_fract_y
 _atom_site_fract_z
 _atom_site_occupancy
  B  B0  1  0.420174  0.089162  0.736470  1
  B  B1  1  0.815039  0.571759  0.085474  1
  B  B2  1  0.315038  0.928240  0.414525  1
  B  B3  1  0.184962  0.428240  0.914525  1
  B  B4  1  0.684961  0.071759  0.585474  1
  B  B5  1  0.095006  0.653284  0.497639  1
  B  B6  1  0.595006  0.846716  0.002361  1
  B  B7  1  0.904993  0.346716  0.502361  1
  B  B8  1  0.404993  0.153284  0.997639  1
  B  B9  1  0.920174  0.410839  0.763530  1
  B  B10  1  0.579827  0.910838  0.263530  1
  B  B11  1  0.079827  0.589162  0.236470  1
  B  B12  1  0.673149  0.515101  0.608177  1
  B  B13  1  0.173149  0.984899  0.891822  1
  B  B14  1  0.326850  0.484900  0.391823  1
  B  B15  1  0.826850  0.015100  0.108178  1
  B  B16  1  0.466043  0.282054  0.552479  1
  B  B17  1  0.966043  0.217947  0.947522  1
  B  B18  1  0.533956  0.717947  0.447521  1
  B  B19  1  0.033956  0.782054  0.052479  1
  O  O20  1  0.782585  0.526546  0.738350  1
  O  O21  1  0.345935  0.497833  0.931280  1
  O  O22  1  0.845935  0.002168  0.568720  1
  O  O23  1  0.654065  0.502167  0.068720  1
  O  O24  1  0.154065  0.997833  0.431280  1
  O  O25  1  0.542586  0.768354  0.884067  1
  O  O26  1  0.042584  0.731646  0.615933  1
  O  O27  1  0.457415  0.231646  0.115933  1
  O  O28  1  0.282586  0.973454  0.761650  1
  O  O29  1  0.957415  0.268355  0.384067  1
  O  O30  1  0.717414  0.026546  0.238350  1
  O  O31  1  0.217414  0.473453  0.261650  1
  O  O32  1  0.465552  0.184117  0.866081  1
  O  O33  1  0.965552  0.315884  0.633919  1
  O  O34  1  0.534448  0.815884  0.133919  1
  O  O35  1  0.034448  0.684116  0.366081  1
  O  O36  1  0.583805  0.013664  0.690257  1
  O  O37  1  0.083805  0.486337  0.809743  1
  O  O38  1  0.416195  0.986337  0.309743  1
  O  O39  1  0.916194  0.513663  0.190257  1
  O  O40  1  0.348393  0.187219  0.630610  1
  O  O41  1  0.848393  0.312782  0.869390  1
  O  O42  1  0.651608  0.812782  0.369390  1
  O  O43  1  0.151608  0.687218  0.130610  1
  O  O44  1  0.523226  0.416021  0.644024  1
  O  O45  1  0.023226  0.083978  0.855977  1
  O  O46  1  0.476774  0.583978  0.355977  1
  O  O47  1  0.976774  0.916022  0.144024  1
  O  O48  1  0.608322  0.671493  0.585064  1
  O  O49  1  0.108323  0.828507  0.914937  1
  O  O50  1  0.391677  0.328507  0.414936  1
  O  O51  1  0.874640  0.689073  0.008607  1
  O  O52  1  0.777248  0.458251  0.487759  1
  O  O53  1  0.277248  0.041749  0.012242  1
  O  O54  1  0.222752  0.541748  0.512241  1
  O  O55  1  0.722753  0.958252  0.987758  1
  O  O56  1  0.625359  0.189073  0.508607  1
  O  O57  1  0.125359  0.310928  0.991393  1
  O  O58  1  0.374640  0.810927  0.491393  1
  O  O59  1  0.891677  0.171493  0.085063  1
  Co  Co60  1  0.908588  0.899453  0.374096  1
  Co  Co61  1  0.408588  0.600547  0.125904  1
  Co  Co62  1  0.091413  0.100547  0.625904  1
  Co  Co63  1  0.591413  0.399454  0.874096  1
  Nd  Nd64  1  0.686849  0.317901  0.263775  1
  Nd  Nd65  1  0.186849  0.182099  0.236225  1
  Nd  Nd66  1  0.313151  0.682099  0.736225  1
  Nd  Nd67  1  0.813151  0.817901  0.763775  1
