# generated using pymatgen
data_RbDy2CuSe4
_symmetry_space_group_name_H-M   'P 1'
_cell_length_a   4.13989716
_cell_length_b   7.45626144
_cell_length_c   14.43578636
_cell_angle_alpha   90.00000000
_cell_angle_beta   90.00000000
_cell_angle_gamma   106.11774040
_symmetry_Int_Tables_number   1
_chemical_formula_structural   RbDy2CuSe4
_chemical_formula_sum   'Rb2 Dy4 Cu2 Se8'
_cell_volume   428.09076873
_cell_formula_units_Z   2
loop_
 _symmetry_equiv_pos_site_id
 _symmetry_equiv_pos_as_xyz
  1  'x, y, z'
loop_
 _atom_site_type_symbol
 _atom_site_label
 _atom_site_symmetry_multiplicity
 _atom_site_fract_x
 _atom_site_fract_y
 _atom_site_fract_z
 _atom_site_occupancy
  Cu  Cu0  1  0.836783  0.673566  0.750000  1
  Cu  Cu1  1  0.163217  0.326434  0.250000  1
  Se  Se2  1  0.570492  0.140983  0.250000  1
  Se  Se3  1  0.429508  0.859017  0.750000  1
  Se  Se4  1  0.261716  0.523433  0.109034  1
  Se  Se5  1  0.738284  0.476567  0.890966  1
  Se  Se6  1  0.000000  0.000000  0.500000  1
  Se  Se7  1  0.000000  0.000000  0.000000  1
  Se  Se8  1  0.261716  0.523433  0.390966  1
  Se  Se9  1  0.738284  0.476567  0.609034  1
  Rb  Rb10  1  0.110286  0.220573  0.750000  1
  Rb  Rb11  1  0.889714  0.779427  0.250000  1
  Dy  Dy12  1  0.633972  0.267944  0.063853  1
  Dy  Dy13  1  0.366028  0.732056  0.936147  1
  Dy  Dy14  1  0.633972  0.267944  0.436147  1
  Dy  Dy15  1  0.366028  0.732056  0.563853  1
