# generated using pymatgen
data_Tb6O11
_symmetry_space_group_name_H-M   'P 1'
_cell_length_a   6.71152737
_cell_length_b   12.01736772
_cell_length_c   12.77619182
_cell_angle_alpha   74.23822621
_cell_angle_beta   81.46342890
_cell_angle_gamma   79.98354562
_symmetry_Int_Tables_number   1
_chemical_formula_structural   Tb6O11
_chemical_formula_sum   'Tb24 O44'
_cell_volume   971.01744438
_cell_formula_units_Z   4
loop_
 _symmetry_equiv_pos_site_id
 _symmetry_equiv_pos_as_xyz
  1  'x, y, z'
loop_
 _atom_site_type_symbol
 _atom_site_label
 _atom_site_symmetry_multiplicity
 _atom_site_fract_x
 _atom_site_fract_y
 _atom_site_fract_z
 _atom_site_occupancy
  O  O0  1  0.569393  0.063871  0.061697  1
  O  O1  1  0.430607  0.936129  0.938303  1
  O  O2  1  0.018814  0.093531  0.540014  1
  O  O3  1  0.981186  0.906469  0.459986  1
  O  O4  1  0.742339  0.422141  0.210813  1
  O  O5  1  0.257661  0.577859  0.789187  1
  O  O6  1  0.409948  0.747005  0.847615  1
  O  O7  1  0.590052  0.252995  0.152385  1
  O  O8  1  0.087845  0.754908  0.623347  1
  O  O9  1  0.912155  0.245092  0.376653  1
  O  O10  1  0.814898  0.404185  0.839309  1
  O  O11  1  0.185102  0.595815  0.160691  1
  O  O12  1  0.820415  0.909344  0.813484  1
  O  O13  1  0.179585  0.090656  0.186516  1
  O  O14  1  0.596116  0.903165  0.584719  1
  O  O15  1  0.403884  0.096835  0.415281  1
  O  O16  1  0.620966  0.098954  0.672386  1
  O  O17  1  0.912525  0.591519  0.896010  1
  O  O18  1  0.741986  0.255413  0.771991  1
  O  O19  1  0.258014  0.744587  0.228009  1
  O  O20  1  0.417646  0.577769  0.409873  1
  O  O21  1  0.582354  0.422231  0.590127  1
  O  O22  1  0.959006  0.077087  0.905493  1
  O  O23  1  0.040994  0.922913  0.094507  1
  O  O24  1  0.351233  0.231841  0.884738  1
  O  O25  1  0.648767  0.768159  0.115262  1
  O  O26  1  0.131745  0.247325  0.648054  1
  O  O27  1  0.868255  0.752675  0.351946  1
  O  O28  1  0.032724  0.578814  0.533406  1
  O  O29  1  0.967276  0.421186  0.466594  1
  O  O30  1  0.800148  0.567206  0.278781  1
  O  O31  1  0.199852  0.432794  0.721219  1
  O  O32  1  0.566494  0.588342  0.033415  1
  O  O33  1  0.433506  0.411658  0.966585  1
  O  O34  1  0.202527  0.944219  0.702686  1
  O  O35  1  0.797473  0.055781  0.297314  1
  O  O36  1  0.523259  0.246029  0.515532  1
  O  O37  1  0.476741  0.753971  0.484468  1
  O  O38  1  0.971115  0.240258  0.016144  1
  O  O39  1  0.028885  0.759742  0.983856  1
  O  O40  1  0.646971  0.600305  0.666614  1
  O  O41  1  0.353029  0.399695  0.333386  1
  O  O42  1  0.379034  0.901046  0.327614  1
  O  O43  1  0.087475  0.408481  0.103990  1
  Tb  Tb44  1  0.726607  0.070589  0.478915  1
  Tb  Tb45  1  0.273393  0.929411  0.521085  1
  Tb  Tb46  1  0.194125  0.251565  0.466112  1
  Tb  Tb47  1  0.805875  0.748435  0.533888  1
  Tb  Tb48  1  0.659882  0.411372  0.404512  1
  Tb  Tb49  1  0.340118  0.588628  0.595488  1
  Tb  Tb50  1  0.104720  0.579270  0.346437  1
  Tb  Tb51  1  0.895280  0.420730  0.653563  1
  Tb  Tb52  1  0.569846  0.729189  0.299982  1
  Tb  Tb53  1  0.430154  0.270811  0.700018  1
  Tb  Tb54  1  0.056112  0.908593  0.276987  1
  Tb  Tb55  1  0.943888  0.091407  0.723013  1
  Tb  Tb56  1  0.226735  0.080524  0.006018  1
  Tb  Tb57  1  0.773265  0.919476  0.993982  1
  Tb  Tb58  1  0.657482  0.242870  0.959705  1
  Tb  Tb59  1  0.342518  0.757130  0.040295  1
  Tb  Tb60  1  0.128760  0.397181  0.911143  1
  Tb  Tb61  1  0.871240  0.602819  0.088857  1
  Tb  Tb62  1  0.581743  0.564893  0.858722  1
  Tb  Tb63  1  0.418257  0.435107  0.141278  1
  Tb  Tb64  1  0.087356  0.764512  0.803118  1
  Tb  Tb65  1  0.912644  0.235488  0.196882  1
  Tb  Tb66  1  0.510315  0.920600  0.761650  1
  Tb  Tb67  1  0.489685  0.079400  0.238350  1
