# generated using pymatgen
data_TeMoWSeS2
_symmetry_space_group_name_H-M   'P 1'
_cell_length_a   3.30899800
_cell_length_b   3.30897748
_cell_length_c   37.61481928
_cell_angle_alpha   90.00003378
_cell_angle_beta   90.00000000
_cell_angle_gamma   120.00020518
_symmetry_Int_Tables_number   1
_chemical_formula_structural   TeMoWSeS2
_chemical_formula_sum   'Te2 Mo2 W2 Se2 S4'
_cell_volume   356.68022260
_cell_formula_units_Z   2
loop_
 _symmetry_equiv_pos_site_id
 _symmetry_equiv_pos_as_xyz
  1  'x, y, z'
loop_
 _atom_site_type_symbol
 _atom_site_label
 _atom_site_symmetry_multiplicity
 _atom_site_fract_x
 _atom_site_fract_y
 _atom_site_fract_z
 _atom_site_occupancy
  Te  Te0  1  0.333352  0.666705  0.708681  1
  Te  Te1  1  0.333355  0.666711  0.606413  1
  Mo  Mo2  1  0.333309  0.666619  0.093917  1
  Mo  Mo3  1  0.666668  0.333337  0.281796  1
  W  W4  1  0.333311  0.666623  0.469630  1
  W  W5  1  0.666690  0.333379  0.657581  1
  Se  Se6  1  0.666641  0.333280  0.049316  1
  Se  Se7  1  0.666646  0.333291  0.138549  1
  S  S8  1  0.333367  0.666735  0.322419  1
  S  S9  1  0.666646  0.333291  0.428883  1
  S  S10  1  0.666647  0.333293  0.510389  1
  S  S11  1  0.333368  0.666737  0.241174  1
