# generated using pymatgen
data_Te6Mo3WS2
_symmetry_space_group_name_H-M   'P 1'
_cell_length_a   3.45043977
_cell_length_b   3.45043604
_cell_length_c   39.34102924
_cell_angle_alpha   89.99943076
_cell_angle_beta   90.00000000
_cell_angle_gamma   120.00003567
_symmetry_Int_Tables_number   1
_chemical_formula_structural   Te6Mo3WS2
_chemical_formula_sum   'Te6 Mo3 W1 S2'
_cell_volume   405.62491719
_cell_formula_units_Z   1
loop_
 _symmetry_equiv_pos_site_id
 _symmetry_equiv_pos_as_xyz
  1  'x, y, z'
loop_
 _atom_site_type_symbol
 _atom_site_label
 _atom_site_symmetry_multiplicity
 _atom_site_fract_x
 _atom_site_fract_y
 _atom_site_fract_z
 _atom_site_occupancy
  Te  Te0  1  0.333360  0.666721  0.328885  1
  Te  Te1  1  0.666639  0.333277  0.046809  1
  Te  Te2  1  0.666647  0.333293  0.422612  1
  Te  Te3  1  0.666644  0.333287  0.140979  1
  Te  Te4  1  0.666647  0.333294  0.516796  1
  Te  Te5  1  0.333357  0.666715  0.234743  1
  Mo  Mo6  1  0.333313  0.666625  0.093856  1
  Mo  Mo7  1  0.333312  0.666624  0.469704  1
  Mo  Mo8  1  0.666687  0.333374  0.281772  1
  W  W9  1  0.666684  0.333368  0.657530  1
  S  S10  1  0.333355  0.666711  0.695478  1
  S  S11  1  0.333355  0.666710  0.619583  1
