# generated using pymatgen
data_Ba2ZnGe2S6O
_symmetry_space_group_name_H-M   'P 1'
_cell_length_a   6.52762152
_cell_length_b   9.74641102
_cell_length_c   9.74641102
_cell_angle_alpha   90.00000000
_cell_angle_beta   90.00000000
_cell_angle_gamma   90.00000000
_symmetry_Int_Tables_number   1
_chemical_formula_structural   Ba2ZnGe2S6O
_chemical_formula_sum   'Ba4 Zn2 Ge4 S12 O2'
_cell_volume   620.07526852
_cell_formula_units_Z   2
loop_
 _symmetry_equiv_pos_site_id
 _symmetry_equiv_pos_as_xyz
  1  'x, y, z'
loop_
 _atom_site_type_symbol
 _atom_site_label
 _atom_site_symmetry_multiplicity
 _atom_site_fract_x
 _atom_site_fract_y
 _atom_site_fract_z
 _atom_site_occupancy
  O  O0  1  0.823499  0.500000  0.000000  1
  O  O1  1  0.176501  0.000000  0.500000  1
  S  S2  1  0.224731  0.937763  0.819788  1
  S  S3  1  0.224731  0.062237  0.180212  1
  S  S4  1  0.775269  0.180212  0.937763  1
  S  S5  1  0.775269  0.819788  0.062237  1
  S  S6  1  0.224731  0.680212  0.562237  1
  S  S7  1  0.775269  0.562237  0.319788  1
  S  S8  1  0.775269  0.437763  0.680212  1
  S  S9  1  0.224731  0.319788  0.437763  1
  S  S10  1  0.266498  0.366394  0.866394  1
  S  S11  1  0.733502  0.866394  0.633606  1
  S  S12  1  0.733502  0.133606  0.366394  1
  S  S13  1  0.266498  0.633606  0.133606  1
  Zn  Zn14  1  0.000000  0.000000  0.000000  1
  Zn  Zn15  1  0.000000  0.500000  0.500000  1
  Ge  Ge16  1  0.934521  0.624930  0.124930  1
  Ge  Ge17  1  0.934521  0.375070  0.875070  1
  Ge  Ge18  1  0.065479  0.124930  0.375070  1
  Ge  Ge19  1  0.065479  0.875070  0.624930  1
  Ba  Ba20  1  0.501389  0.839265  0.339265  1
  Ba  Ba21  1  0.498611  0.339265  0.160735  1
  Ba  Ba22  1  0.498611  0.660735  0.839265  1
  Ba  Ba23  1  0.501389  0.160735  0.660735  1
