# generated using pymatgen
data_H6RuCI3N
_symmetry_space_group_name_H-M   'P 1'
_cell_length_a   7.68417980
_cell_length_b   7.69642387
_cell_length_c   13.73569226
_cell_angle_alpha   90.01785657
_cell_angle_beta   89.37323136
_cell_angle_gamma   90.14721430
_symmetry_Int_Tables_number   1
_chemical_formula_structural   H6RuCI3N
_chemical_formula_sum   'H24 Ru4 C4 I12 N4'
_cell_volume   812.28720296
_cell_formula_units_Z   4
loop_
 _symmetry_equiv_pos_site_id
 _symmetry_equiv_pos_as_xyz
  1  'x, y, z'
loop_
 _atom_site_type_symbol
 _atom_site_label
 _atom_site_symmetry_multiplicity
 _atom_site_fract_x
 _atom_site_fract_y
 _atom_site_fract_z
 _atom_site_occupancy
  H  H0  1  0.911468  0.387951  0.278904  1
  H  H1  1  0.956056  0.614338  0.301489  1
  H  H2  1  0.049303  0.424289  0.117631  1
  H  H3  1  0.086505  0.631983  0.138728  1
  H  H4  1  0.882133  0.560138  0.131481  1
  H  H5  1  0.408658  0.939569  0.307741  1
  H  H6  1  0.482773  0.154389  0.279435  1
  H  H7  1  0.503455  0.843719  0.149203  1
  H  H8  1  0.582982  0.040899  0.119743  1
  H  H9  1  0.371087  0.013314  0.134680  1
  H  H10  1  0.492709  0.859464  0.786896  1
  H  H11  1  0.381462  0.062923  0.795941  1
  H  H12  1  0.606111  0.951212  0.627712  1
  H  H13  1  0.504004  0.141312  0.637265  1
  H  H14  1  0.391254  0.957344  0.628134  1
  H  H15  1  0.910881  0.429720  0.806989  1
  H  H16  1  0.986600  0.646197  0.784102  1
  H  H17  1  0.005350  0.351202  0.643650  1
  H  H18  1  0.076197  0.552677  0.620354  1
  H  H19  1  0.864674  0.514022  0.637962  1
  H  H20  1  0.614438  0.057185  0.796434  1
  H  H21  1  0.637777  0.981929  0.290724  1
  H  H22  1  0.131442  0.462582  0.288013  1
  H  H23  1  0.138333  0.470606  0.789000  1
  Ru  Ru24  1  0.998559  0.004525  0.909429  1
  Ru  Ru25  1  0.506540  0.497633  0.552846  1
  Ru  Ru26  1  0.004160  0.008887  0.511717  1
  Ru  Ru27  1  0.501480  0.495157  0.946801  1
  C  C28  1  0.007186  0.508778  0.767956  1
  C  C29  1  0.506206  0.015873  0.267815  1
  C  C30  1  0.496928  -0.002975  0.767383  1
  C  C31  1  0.000276  0.496281  0.264376  1
  I  I32  1  0.997474  0.018745  0.710931  1
  I  I33  1  0.502445  0.510894  0.151279  1
  I  I34  1  0.013396  0.996207  0.308012  1
  I  I35  1  0.514898  0.477766  0.749050  1
  I  I36  1  0.752401  0.234588  0.980946  1
  I  I37  1  0.244794  0.732412  0.497852  1
  I  I38  1  0.234018  0.246304  0.980379  1
  I  I39  1  0.737014  0.754235  0.490917  1
  I  I40  1  0.245205  0.761616  0.966685  1
  I  I41  1  0.749931  0.263539  0.479541  1
  I  I42  1  0.758105  0.755868  0.967049  1
  I  I43  1  0.269869  0.253604  0.483301  1
  N  N44  1  0.987478  0.480524  0.661846  1
  N  N45  1  0.490208  0.976932  0.162091  1
  N  N46  1  0.499928  0.012782  0.659778  1
  N  N47  1  0.004626  0.530192  0.157646  1
