# generated using pymatgen
data_KEr(PO3)4
_symmetry_space_group_name_H-M   'P 1'
_cell_length_a   7.32614382
_cell_length_b   7.91906441
_cell_length_c   8.39209018
_cell_angle_alpha   90.00000000
_cell_angle_beta   90.00000000
_cell_angle_gamma   91.44959086
_symmetry_Int_Tables_number   1
_chemical_formula_structural   KEr(PO3)4
_chemical_formula_sum   'K2 Er2 P8 O24'
_cell_volume   486.72140709
_cell_formula_units_Z   2
loop_
 _symmetry_equiv_pos_site_id
 _symmetry_equiv_pos_as_xyz
  1  'x, y, z'
loop_
 _atom_site_type_symbol
 _atom_site_label
 _atom_site_symmetry_multiplicity
 _atom_site_fract_x
 _atom_site_fract_y
 _atom_site_fract_z
 _atom_site_occupancy
  O  O0  1  0.091822  0.170676  0.748691  1
  O  O1  1  0.908178  0.829324  0.248691  1
  O  O2  1  0.015174  0.924239  0.553979  1
  O  O3  1  0.984826  0.075761  0.053979  1
  O  O4  1  0.035960  0.460900  0.945174  1
  O  O5  1  0.964040  0.539100  0.445174  1
  O  O6  1  0.839514  0.617628  0.744148  1
  O  O7  1  0.160486  0.382372  0.244148  1
  O  O8  1  0.009721  0.779088  0.964989  1
  O  O9  1  0.990279  0.220912  0.464989  1
  O  O10  1  0.479667  0.645636  0.599503  1
  O  O11  1  0.520333  0.354364  0.099503  1
  O  O12  1  0.534325  0.274653  0.393682  1
  O  O13  1  0.465675  0.725347  0.893682  1
  O  O14  1  0.692474  0.898340  0.031598  1
  O  O15  1  0.307526  0.101660  0.531598  1
  O  O16  1  0.571733  0.955783  0.405332  1
  O  O17  1  0.428267  0.044217  0.905332  1
  O  O18  1  0.322881  0.071399  0.227869  1
  O  O19  1  0.677119  0.928601  0.727869  1
  O  O20  1  0.609126  0.576846  0.313260  1
  O  O21  1  0.390874  0.423154  0.813260  1
  O  O22  1  0.819753  0.338533  0.239449  1
  O  O23  1  0.180247  0.661467  0.739449  1
  P  P24  1  0.096803  0.097012  0.584831  1
  P  P25  1  0.903197  0.902988  0.084831  1
  P  P26  1  0.005216  0.617990  0.849441  1
  P  P27  1  0.994784  0.382010  0.349441  1
  P  P28  1  0.387907  0.601329  0.753887  1
  P  P29  1  0.612093  0.398671  0.253887  1
  P  P30  1  0.564660  0.909290  0.876184  1
  P  P31  1  0.435340  0.090710  0.376184  1
  K  K32  1  0.732596  0.283069  0.810963  1
  K  K33  1  0.267404  0.716931  0.310963  1
  Er  Er34  1  0.761387  0.757761  0.502321  1
  Er  Er35  1  0.238613  0.242239  0.002321  1
