# generated using pymatgen
data_BaSr2Mn2(Si2O7)2
_symmetry_space_group_name_H-M   'P 1'
_cell_length_a   5.23606352
_cell_length_b   7.87491647
_cell_length_c   8.39950712
_cell_angle_alpha   117.95464852
_cell_angle_beta   92.83504593
_cell_angle_gamma   90.00000005
_symmetry_Int_Tables_number   1
_chemical_formula_structural   BaSr2Mn2(Si2O7)2
_chemical_formula_sum   'Ba1 Sr2 Mn2 Si4 O14'
_cell_volume   305.45011670
_cell_formula_units_Z   1
loop_
 _symmetry_equiv_pos_site_id
 _symmetry_equiv_pos_as_xyz
  1  'x, y, z'
loop_
 _atom_site_type_symbol
 _atom_site_label
 _atom_site_symmetry_multiplicity
 _atom_site_fract_x
 _atom_site_fract_y
 _atom_site_fract_z
 _atom_site_occupancy
  O  O0  1  0.669972  0.133751  0.544871  1
  O  O1  1  0.330028  0.588880  0.455129  1
  O  O2  1  0.779638  0.415986  0.873831  1
  O  O3  1  0.220362  0.542155  0.126169  1
  O  O4  1  0.791057  0.624226  0.631482  1
  O  O5  1  0.208943  0.992745  0.368518  1
  O  O6  1  0.808399  0.065139  0.879123  1
  O  O7  1  0.191601  0.186016  0.120877  1
  O  O8  1  0.635352  0.014572  0.193360  1
  O  O9  1  0.332056  0.188759  0.802117  1
  O  O10  1  0.667944  0.386641  0.197883  1
  O  O11  1  0.378134  0.440549  0.674528  1
  O  O12  1  0.621866  0.766022  0.325472  1
  O  O13  1  0.364648  0.821213  0.806640  1
  Si  Si14  1  0.513116  0.977284  0.348365  1
  Si  Si15  1  0.486884  0.628919  0.651635  1
  Si  Si16  1  0.539063  0.294858  0.737560  1
  Si  Si17  1  0.460937  0.557297  0.262440  1
  Mn  Mn18  1  0.000000  0.303854  0.000000  1
  Mn  Mn19  1  0.500000  0.109629  0.000000  1
  Sr  Sr20  1  0.018935  0.893801  0.592413  1
  Sr  Sr21  1  0.981065  0.301388  0.407587  1
  Ba  Ba22  1  0.000000  0.775517  0.000000  1
