# generated using pymatgen
data_Te2Mo2SeS
_symmetry_space_group_name_H-M   'P 1'
_cell_length_a   3.40029873
_cell_length_b   3.40022210
_cell_length_c   38.64391719
_cell_angle_alpha   90.00074690
_cell_angle_beta   90.00000000
_cell_angle_gamma   120.00074540
_symmetry_Int_Tables_number   1
_chemical_formula_structural   Te2Mo2SeS
_chemical_formula_sum   'Te4 Mo4 Se2 S2'
_cell_volume   386.93041711
_cell_formula_units_Z   2
loop_
 _symmetry_equiv_pos_site_id
 _symmetry_equiv_pos_as_xyz
  1  'x, y, z'
loop_
 _atom_site_type_symbol
 _atom_site_label
 _atom_site_symmetry_multiplicity
 _atom_site_fract_x
 _atom_site_fract_y
 _atom_site_fract_z
 _atom_site_occupancy
  Te  Te0  1  0.333356  0.666713  0.330330  1
  Te  Te1  1  0.333355  0.666711  0.705997  1
  Te  Te2  1  0.333356  0.666713  0.233302  1
  Te  Te3  1  0.333354  0.666709  0.609030  1
  Mo  Mo4  1  0.333302  0.666605  0.093894  1
  Mo  Mo5  1  0.333308  0.666617  0.469674  1
  Mo  Mo6  1  0.666698  0.333395  0.281827  1
  Mo  Mo7  1  0.666697  0.333393  0.657546  1
  Se  Se8  1  0.666634  0.333268  0.051202  1
  Se  Se9  1  0.666646  0.333291  0.136609  1
  S  S10  1  0.666649  0.333296  0.430842  1
  S  S11  1  0.666644  0.333288  0.508496  1
