# generated using pymatgen
data_Ba2SmMoO6
_symmetry_space_group_name_H-M   'P 1'
_cell_length_a   6.07555560
_cell_length_b   6.07555560
_cell_length_c   6.09753832
_cell_angle_alpha   119.88081306
_cell_angle_beta   119.88081299
_cell_angle_gamma   90.00000006
_symmetry_Int_Tables_number   1
_chemical_formula_structural   Ba2SmMoO6
_chemical_formula_sum   'Ba2 Sm1 Mo1 O6'
_cell_volume   159.72350419
_cell_formula_units_Z   1
loop_
 _symmetry_equiv_pos_site_id
 _symmetry_equiv_pos_as_xyz
  1  'x, y, z'
loop_
 _atom_site_type_symbol
 _atom_site_label
 _atom_site_symmetry_multiplicity
 _atom_site_fract_x
 _atom_site_fract_y
 _atom_site_fract_z
 _atom_site_occupancy
  O  O0  1  0.767835  0.767835  0.000000  1
  O  O1  1  0.232165  0.767835  0.000000  1
  O  O2  1  0.767835  0.232165  0.000000  1
  O  O3  1  0.232165  0.232165  0.000000  1
  O  O4  1  0.234831  0.234831  0.469663  1
  O  O5  1  0.765169  0.765169  0.530337  1
  Mo  Mo6  1  0.000000  0.000000  0.000000  1
  Ba  Ba7  1  0.250000  0.750000  0.500000  1
  Ba  Ba8  1  0.750000  0.250000  0.500000  1
  Sm  Sm9  1  0.500000  0.500000  0.000000  1
