# generated using pymatgen
data_KEr2CuSe4
_symmetry_space_group_name_H-M   'P 1'
_cell_length_a   4.08845061
_cell_length_b   7.28608840
_cell_length_c   14.30799567
_cell_angle_alpha   90.00000000
_cell_angle_beta   90.00000000
_cell_angle_gamma   106.29396058
_symmetry_Int_Tables_number   1
_chemical_formula_structural   KEr2CuSe4
_chemical_formula_sum   'K2 Er4 Cu2 Se8'
_cell_volume   409.09909217
_cell_formula_units_Z   2
loop_
 _symmetry_equiv_pos_site_id
 _symmetry_equiv_pos_as_xyz
  1  'x, y, z'
loop_
 _atom_site_type_symbol
 _atom_site_label
 _atom_site_symmetry_multiplicity
 _atom_site_fract_x
 _atom_site_fract_y
 _atom_site_fract_z
 _atom_site_occupancy
  K  K0  1  0.887154  0.774309  0.250000  1
  K  K1  1  0.112846  0.225691  0.750000  1
  Cu  Cu2  1  0.160532  0.321063  0.250000  1
  Cu  Cu3  1  0.839468  0.678937  0.750000  1
  Se  Se4  1  0.436148  0.872296  0.750000  1
  Se  Se5  1  0.563852  0.127704  0.250000  1
  Se  Se6  1  0.735226  0.470452  0.889468  1
  Se  Se7  1  0.264774  0.529548  0.110532  1
  Se  Se8  1  0.264774  0.529548  0.389468  1
  Se  Se9  1  0.735226  0.470452  0.610532  1
  Se  Se10  1  0.000000  0.000000  0.000000  1
  Se  Se11  1  0.000000  0.000000  0.500000  1
  Er  Er12  1  0.634077  0.268154  0.434865  1
  Er  Er13  1  0.365923  0.731846  0.565135  1
  Er  Er14  1  0.365923  0.731846  0.934865  1
  Er  Er15  1  0.634077  0.268154  0.065135  1
