# generated using pymatgen
data_VO
_symmetry_space_group_name_H-M   'P 1'
_cell_length_a   3.15471790
_cell_length_b   3.15471790
_cell_length_c   3.15471790
_cell_angle_alpha   59.99999999
_cell_angle_beta   59.99999997
_cell_angle_gamma   60.00000006
_symmetry_Int_Tables_number   1
_chemical_formula_structural   VO
_chemical_formula_sum   'V1 O1'
_cell_volume   22.20069609
_cell_formula_units_Z   1
loop_
 _symmetry_equiv_pos_site_id
 _symmetry_equiv_pos_as_xyz
  1  'x, y, z'
loop_
 _atom_site_type_symbol
 _atom_site_label
 _atom_site_symmetry_multiplicity
 _atom_site_fract_x
 _atom_site_fract_y
 _atom_site_fract_z
 _atom_site_occupancy
  O  O0  1  0.000000  0.000000  0.000000  1
  V  V1  1  0.500001  0.499999  0.500001  1
