# generated using pymatgen
data_Cs2Hg6S7
_symmetry_space_group_name_H-M   'P 1'
_cell_length_a   4.26229197
_cell_length_b   14.35970698
_cell_length_c   14.35970698
_cell_angle_alpha   90.00000000
_cell_angle_beta   90.00000000
_cell_angle_gamma   90.00000000
_symmetry_Int_Tables_number   1
_chemical_formula_structural   Cs2Hg6S7
_chemical_formula_sum   'Cs4 Hg12 S14'
_cell_volume   878.88965312
_cell_formula_units_Z   2
loop_
 _symmetry_equiv_pos_site_id
 _symmetry_equiv_pos_as_xyz
  1  'x, y, z'
loop_
 _atom_site_type_symbol
 _atom_site_label
 _atom_site_symmetry_multiplicity
 _atom_site_fract_x
 _atom_site_fract_y
 _atom_site_fract_z
 _atom_site_occupancy
  S  S0  1  0.711545  0.818494  0.818494  1
  S  S1  1  0.211545  0.681506  0.318494  1
  S  S2  1  0.211545  0.318494  0.681506  1
  S  S3  1  0.711545  0.181506  0.181506  1
  S  S4  1  0.496828  0.500000  0.500000  1
  S  S5  1  0.996828  0.000000  0.000000  1
  S  S6  1  0.223486  0.690723  0.024424  1
  S  S7  1  0.223486  0.309277  0.975576  1
  S  S8  1  0.723486  0.524424  0.809277  1
  S  S9  1  0.723486  0.475576  0.190723  1
  S  S10  1  0.223486  0.975576  0.309277  1
  S  S11  1  0.723486  0.190723  0.475576  1
  S  S12  1  0.223486  0.024424  0.690723  1
  S  S13  1  0.723486  0.809277  0.524424  1
  Cs  Cs14  1  0.721983  0.829644  0.170356  1
  Cs  Cs15  1  0.221983  0.670356  0.670356  1
  Cs  Cs16  1  0.221983  0.329644  0.329644  1
  Cs  Cs17  1  0.721983  0.170356  0.829644  1
  Hg  Hg18  1  0.315002  0.902073  0.902073  1
  Hg  Hg19  1  0.815002  0.597927  0.402073  1
  Hg  Hg20  1  0.815002  0.402073  0.597927  1
  Hg  Hg21  1  0.315002  0.097927  0.097927  1
  Hg  Hg22  1  0.223332  0.571631  0.154488  1
  Hg  Hg23  1  0.223332  0.428369  0.845512  1
  Hg  Hg24  1  0.723332  0.654488  0.928369  1
  Hg  Hg25  1  0.723332  0.345512  0.071631  1
  Hg  Hg26  1  0.223332  0.845512  0.428369  1
  Hg  Hg27  1  0.723332  0.071631  0.345512  1
  Hg  Hg28  1  0.723332  0.928369  0.654488  1
  Hg  Hg29  1  0.223332  0.154488  0.571631  1
