# generated using pymatgen
data_Te4MoW3Se4
_symmetry_space_group_name_H-M   'P 1'
_cell_length_a   3.43685822
_cell_length_b   3.43685132
_cell_length_c   39.17168255
_cell_angle_alpha   89.99993169
_cell_angle_beta   89.99998537
_cell_angle_gamma   120.00005193
_symmetry_Int_Tables_number   1
_chemical_formula_structural   Te4MoW3Se4
_chemical_formula_sum   'Te4 Mo1 W3 Se4'
_cell_volume   400.70521274
_cell_formula_units_Z   1
loop_
 _symmetry_equiv_pos_site_id
 _symmetry_equiv_pos_as_xyz
  1  'x, y, z'
loop_
 _atom_site_type_symbol
 _atom_site_label
 _atom_site_symmetry_multiplicity
 _atom_site_fract_x
 _atom_site_fract_y
 _atom_site_fract_z
 _atom_site_occupancy
  Te  Te0  1  0.333360  0.666721  0.329506  1
  Te  Te1  1  0.666641  0.333281  0.046555  1
  Te  Te2  1  0.666647  0.333293  0.141247  1
  Te  Te3  1  0.333352  0.666706  0.234153  1
  Mo  Mo4  1  0.333307  0.666613  0.093878  1
  W  W5  1  0.333307  0.666614  0.469653  1
  W  W6  1  0.666691  0.333382  0.281818  1
  W  W7  1  0.666691  0.333382  0.657530  1
  Se  Se8  1  0.333352  0.666704  0.699469  1
  Se  Se9  1  0.666644  0.333287  0.427726  1
  Se  Se10  1  0.666641  0.333281  0.511614  1
  Se  Se11  1  0.333367  0.666736  0.615598  1
