# generated using pymatgen
data_Be13Sb
_symmetry_space_group_name_H-M   'P 1'
_cell_length_a   7.26625660
_cell_length_b   7.26625660
_cell_length_c   7.26625660
_cell_angle_alpha   60.00000000
_cell_angle_beta   60.00000002
_cell_angle_gamma   60.00000002
_symmetry_Int_Tables_number   1
_chemical_formula_structural   Be13Sb
_chemical_formula_sum   'Be26 Sb2'
_cell_volume   271.27963582
_cell_formula_units_Z   2
loop_
 _symmetry_equiv_pos_site_id
 _symmetry_equiv_pos_as_xyz
  1  'x, y, z'
loop_
 _atom_site_type_symbol
 _atom_site_label
 _atom_site_symmetry_multiplicity
 _atom_site_fract_x
 _atom_site_fract_y
 _atom_site_fract_z
 _atom_site_occupancy
  Be  Be0  1  0.932722  0.286816  0.713184  1
  Be  Be1  1  0.713184  0.067278  0.932722  1
  Be  Be2  1  0.000000  0.000000  0.000000  1
  Be  Be3  1  0.500000  0.500000  0.500000  1
  Be  Be4  1  0.286816  0.932722  0.067278  1
  Be  Be5  1  0.567278  0.432722  0.786816  1
  Be  Be6  1  0.786816  0.213184  0.567278  1
  Be  Be7  1  0.567278  0.786816  0.213184  1
  Be  Be8  1  0.432722  0.213184  0.786816  1
  Be  Be9  1  0.432722  0.786816  0.567278  1
  Be  Be10  1  0.786816  0.432722  0.213184  1
  Be  Be11  1  0.067278  0.286816  0.932722  1
  Be  Be12  1  0.932722  0.067278  0.286816  1
  Be  Be13  1  0.713184  0.286816  0.067278  1
  Be  Be14  1  0.932722  0.713184  0.067278  1
  Be  Be15  1  0.713184  0.932722  0.286816  1
  Be  Be16  1  0.067278  0.932722  0.713184  1
  Be  Be17  1  0.286816  0.067278  0.713184  1
  Be  Be18  1  0.286816  0.713184  0.932722  1
  Be  Be19  1  0.786816  0.567278  0.432722  1
  Be  Be20  1  0.213184  0.786816  0.432722  1
  Be  Be21  1  0.213184  0.567278  0.786816  1
  Be  Be22  1  0.567278  0.213184  0.432722  1
  Be  Be23  1  0.432722  0.567278  0.213184  1
  Be  Be24  1  0.213184  0.432722  0.567278  1
  Be  Be25  1  0.067278  0.713184  0.286816  1
  Sb  Sb26  1  0.750000  0.750000  0.750000  1
  Sb  Sb27  1  0.250000  0.250000  0.250000  1
