# generated using pymatgen
data_LaTm(Ge2Ir)2
_symmetry_space_group_name_H-M   'P 1'
_cell_length_a   4.35952630
_cell_length_b   8.93143576
_cell_length_c   9.53911635
_cell_angle_alpha   117.91417561
_cell_angle_beta   103.20923959
_cell_angle_gamma   90.00000000
_symmetry_Int_Tables_number   1
_chemical_formula_structural   LaTm(Ge2Ir)2
_chemical_formula_sum   'La2 Tm2 Ge8 Ir4'
_cell_volume   317.04406128
_cell_formula_units_Z   2
loop_
 _symmetry_equiv_pos_site_id
 _symmetry_equiv_pos_as_xyz
  1  'x, y, z'
loop_
 _atom_site_type_symbol
 _atom_site_label
 _atom_site_symmetry_multiplicity
 _atom_site_fract_x
 _atom_site_fract_y
 _atom_site_fract_z
 _atom_site_occupancy
  Ge  Ge0  1  0.201316  0.049952  0.402632  1
  Ge  Ge1  1  0.798684  0.950048  0.597368  1
  Ge  Ge2  1  0.798684  0.647320  0.597369  1
  Ge  Ge3  1  0.201316  0.352680  0.402631  1
  Ge  Ge4  1  0.421022  0.921022  0.842045  1
  Ge  Ge5  1  0.420106  0.420106  0.840212  1
  Ge  Ge6  1  0.578978  0.078978  0.157955  1
  Ge  Ge7  1  0.579894  0.579894  0.159788  1
  La  La8  1  0.000000  0.260997  0.000000  1
  La  La9  1  1.000000  0.739003  1.000000  1
  Tm  Tm10  1  0.793284  0.293285  0.586569  1
  Tm  Tm11  1  0.206716  0.706715  0.413431  1
  Ir  Ir12  1  0.648954  0.397212  0.297908  1
  Ir  Ir13  1  0.351046  0.602788  0.702092  1
  Ir  Ir14  1  0.648954  0.900695  0.297908  1
  Ir  Ir15  1  0.351046  0.099305  0.702092  1
