# generated using pymatgen
data_EuCuSn2
_symmetry_space_group_name_H-M   'P 1'
_cell_length_a   4.50123769
_cell_length_b   4.58623895
_cell_length_c   9.92153586
_cell_angle_alpha   90.00000000
_cell_angle_beta   103.11120505
_cell_angle_gamma   90.00000000
_symmetry_Int_Tables_number   1
_chemical_formula_structural   EuCuSn2
_chemical_formula_sum   'Eu2 Cu2 Sn4'
_cell_volume   199.47845630
_cell_formula_units_Z   2
loop_
 _symmetry_equiv_pos_site_id
 _symmetry_equiv_pos_as_xyz
  1  'x, y, z'
loop_
 _atom_site_type_symbol
 _atom_site_label
 _atom_site_symmetry_multiplicity
 _atom_site_fract_x
 _atom_site_fract_y
 _atom_site_fract_z
 _atom_site_occupancy
  Cu  Cu0  1  0.825256  0.250000  0.650511  1
  Cu  Cu1  1  0.174744  0.750000  0.349489  1
  Sn  Sn2  1  0.751336  0.750000  0.502672  1
  Sn  Sn3  1  0.248664  0.250000  0.497328  1
  Sn  Sn4  1  0.956935  0.250000  0.913871  1
  Sn  Sn5  1  0.043065  0.750000  0.086129  1
  Eu  Eu6  1  0.391810  0.750000  0.783619  1
  Eu  Eu7  1  0.608190  0.250000  0.216381  1
