# generated using pymatgen
data_LiFeAs
_symmetry_space_group_name_H-M   'P 1'
_cell_length_a   3.01569126
_cell_length_b   3.01569126
_cell_length_c   4.56533300
_cell_angle_alpha   109.28587022
_cell_angle_beta   109.28587022
_cell_angle_gamma   90.00000000
_symmetry_Int_Tables_number   1
_chemical_formula_structural   LiFeAs
_chemical_formula_sum   'Li1 Fe1 As1'
_cell_volume   36.71147641
_cell_formula_units_Z   1
loop_
 _symmetry_equiv_pos_site_id
 _symmetry_equiv_pos_as_xyz
  1  'x, y, z'
loop_
 _atom_site_type_symbol
 _atom_site_label
 _atom_site_symmetry_multiplicity
 _atom_site_fract_x
 _atom_site_fract_y
 _atom_site_fract_z
 _atom_site_occupancy
  Li  Li0  1  0.534626  0.534626  0.069252  1
  Fe  Fe1  1  0.213983  0.213983  0.427965  1
  As  As2  1  0.857092  0.857092  0.714183  1
