# generated using pymatgen
data_CdGeO3
_symmetry_space_group_name_H-M   'P 1'
_cell_length_a   5.31191267
_cell_length_b   5.36356002
_cell_length_c   7.58068118
_cell_angle_alpha   90.00000000
_cell_angle_beta   90.00000000
_cell_angle_gamma   90.00000000
_symmetry_Int_Tables_number   1
_chemical_formula_structural   CdGeO3
_chemical_formula_sum   'Cd4 Ge4 O12'
_cell_volume   215.97938653
_cell_formula_units_Z   4
loop_
 _symmetry_equiv_pos_site_id
 _symmetry_equiv_pos_as_xyz
  1  'x, y, z'
loop_
 _atom_site_type_symbol
 _atom_site_label
 _atom_site_symmetry_multiplicity
 _atom_site_fract_x
 _atom_site_fract_y
 _atom_site_fract_z
 _atom_site_occupancy
  O  O0  1  0.705320  0.289670  0.452312  1
  O  O1  1  0.205320  0.210330  0.547688  1
  O  O2  1  0.794680  0.789670  0.047688  1
  O  O3  1  0.294680  0.710330  0.952312  1
  O  O4  1  0.294680  0.710330  0.547688  1
  O  O5  1  0.794680  0.789670  0.452312  1
  O  O6  1  0.205320  0.210330  0.952312  1
  O  O7  1  0.705320  0.289670  0.047688  1
  O  O8  1  0.090091  0.470893  0.250000  1
  O  O9  1  0.590091  0.029107  0.750000  1
  O  O10  1  0.409909  0.970893  0.250000  1
  O  O11  1  0.909909  0.529107  0.750000  1
  Ge  Ge12  1  0.000000  0.500000  0.500000  1
  Ge  Ge13  1  0.500000  0.000000  0.500000  1
  Ge  Ge14  1  0.500000  0.000000  0.000000  1
  Ge  Ge15  1  0.000000  0.500000  0.000000  1
  Cd  Cd16  1  0.008328  0.964364  0.750000  1
  Cd  Cd17  1  0.508328  0.535636  0.250000  1
  Cd  Cd18  1  0.491672  0.464364  0.750000  1
  Cd  Cd19  1  0.991672  0.035636  0.250000  1
