# generated using pymatgen
data_GaSi(MoS2)4
_symmetry_space_group_name_H-M   'P 1'
_cell_length_a   7.49563880
_cell_length_b   7.49563881
_cell_length_c   7.49563881
_cell_angle_alpha   60.00000003
_cell_angle_beta   60.00000001
_cell_angle_gamma   60.00000003
_symmetry_Int_Tables_number   1
_chemical_formula_structural   GaSi(MoS2)4
_chemical_formula_sum   'Ga1 Si1 Mo4 S8'
_cell_volume   297.79057972
_cell_formula_units_Z   1
loop_
 _symmetry_equiv_pos_site_id
 _symmetry_equiv_pos_as_xyz
  1  'x, y, z'
loop_
 _atom_site_type_symbol
 _atom_site_label
 _atom_site_symmetry_multiplicity
 _atom_site_fract_x
 _atom_site_fract_y
 _atom_site_fract_z
 _atom_site_occupancy
  Si  Si0  1  0.250000  0.250000  0.250000  1
  S  S1  1  0.136359  0.136359  0.136359  1
  S  S2  1  0.590923  0.136359  0.136359  1
  S  S3  1  0.136359  0.136359  0.590923  1
  S  S4  1  0.136359  0.590923  0.136359  1
  S  S5  1  0.624373  0.126881  0.624373  1
  S  S6  1  0.624373  0.624373  0.624373  1
  S  S7  1  0.624373  0.624373  0.126881  1
  S  S8  1  0.126881  0.624373  0.624373  1
  Ga  Ga9  1  0.000000  0.000000  0.000000  1
  Mo  Mo10  1  0.782362  0.405879  0.405879  1
  Mo  Mo11  1  0.405879  0.405879  0.782362  1
  Mo  Mo12  1  0.405879  0.405879  0.405879  1
  Mo  Mo13  1  0.405879  0.782362  0.405879  1
