# generated using pymatgen
data_Ce(FeAs3)4
_symmetry_space_group_name_H-M   'P 1'
_cell_length_a   7.20562893
_cell_length_b   7.20562893
_cell_length_c   7.20562893
_cell_angle_alpha   109.47122063
_cell_angle_beta   109.47122063
_cell_angle_gamma   109.47122063
_symmetry_Int_Tables_number   1
_chemical_formula_structural   Ce(FeAs3)4
_chemical_formula_sum   'Ce1 Fe4 As12'
_cell_volume   288.00086270
_cell_formula_units_Z   1
loop_
 _symmetry_equiv_pos_site_id
 _symmetry_equiv_pos_as_xyz
  1  'x, y, z'
loop_
 _atom_site_type_symbol
 _atom_site_label
 _atom_site_symmetry_multiplicity
 _atom_site_fract_x
 _atom_site_fract_y
 _atom_site_fract_z
 _atom_site_occupancy
  Ce  Ce0  1  -0.000000  -0.000000  -0.000000  1
  Fe  Fe1  1  0.500000  0.500000  0.500000  1
  Fe  Fe2  1  0.500000  0.000000  0.000000  1
  Fe  Fe3  1  0.000000  0.500000  -0.000000  1
  Fe  Fe4  1  0.000000  0.000000  0.500000  1
  As  As5  1  0.843752  0.658159  0.501910  1
  As  As6  1  0.156248  0.341841  0.498090  1
  As  As7  1  0.156248  0.658159  0.814407  1
  As  As8  1  0.843752  0.341841  0.185593  1
  As  As9  1  0.658159  0.501910  0.843752  1
  As  As10  1  0.341841  0.498090  0.156248  1
  As  As11  1  0.658159  0.814407  0.156248  1
  As  As12  1  0.341841  0.185593  0.843752  1
  As  As13  1  0.501910  0.843752  0.658159  1
  As  As14  1  0.498090  0.156248  0.341841  1
  As  As15  1  0.814407  0.156248  0.658159  1
  As  As16  1  0.185593  0.843752  0.341841  1
