# generated using pymatgen
data_LaPIr
_symmetry_space_group_name_H-M   'P 1'
_cell_length_a   4.16310812
_cell_length_b   4.16310811
_cell_length_c   7.77794833
_cell_angle_alpha   105.52284130
_cell_angle_beta   105.52284123
_cell_angle_gamma   89.99999994
_symmetry_Int_Tables_number   1
_chemical_formula_structural   LaPIr
_chemical_formula_sum   'La2 P2 Ir2'
_cell_volume   124.77543932
_cell_formula_units_Z   2
loop_
 _symmetry_equiv_pos_site_id
 _symmetry_equiv_pos_as_xyz
  1  'x, y, z'
loop_
 _atom_site_type_symbol
 _atom_site_label
 _atom_site_symmetry_multiplicity
 _atom_site_fract_x
 _atom_site_fract_y
 _atom_site_fract_z
 _atom_site_occupancy
  P  P0  1  0.329340  0.829340  0.658680  1
  P  P1  1  0.579340  0.579340  0.158680  1
  La  La2  1  0.750776  0.250776  0.501552  1
  La  La3  1  0.000776  0.000776  0.001552  1
  Ir  Ir4  1  0.412464  0.412464  0.824929  1
  Ir  Ir5  1  0.162464  0.662464  0.324929  1
