# generated using pymatgen
data_KMg(PO3)3
_symmetry_space_group_name_H-M   'P 1'
_cell_length_a   6.71764470
_cell_length_b   6.71764470
_cell_length_c   9.93288196
_cell_angle_alpha   90.00000000
_cell_angle_beta   90.00000000
_cell_angle_gamma   120.00000002
_symmetry_Int_Tables_number   1
_chemical_formula_structural   KMg(PO3)3
_chemical_formula_sum   'K2 Mg2 P6 O18'
_cell_volume   388.18608715
_cell_formula_units_Z   2
loop_
 _symmetry_equiv_pos_site_id
 _symmetry_equiv_pos_as_xyz
  1  'x, y, z'
loop_
 _atom_site_type_symbol
 _atom_site_label
 _atom_site_symmetry_multiplicity
 _atom_site_fract_x
 _atom_site_fract_y
 _atom_site_fract_z
 _atom_site_occupancy
  O  O0  1  0.079619  0.674038  0.620327  1
  O  O1  1  0.325962  0.920381  0.379673  1
  O  O2  1  0.325962  0.405581  0.620327  1
  O  O3  1  0.594419  0.920381  0.620327  1
  O  O4  1  0.325962  0.405581  0.879673  1
  O  O5  1  0.594419  0.920381  0.879673  1
  O  O6  1  0.079619  0.674038  0.879673  1
  O  O7  1  0.594419  0.674038  0.120327  1
  O  O8  1  0.079619  0.405581  0.120327  1
  O  O9  1  0.079619  0.405581  0.379673  1
  O  O10  1  0.238579  0.188121  0.250000  1
  O  O11  1  0.949542  0.761421  0.250000  1
  O  O12  1  0.811879  0.050458  0.250000  1
  O  O13  1  0.811879  0.761421  0.750000  1
  O  O14  1  0.949542  0.188121  0.750000  1
  O  O15  1  0.238579  0.050458  0.750000  1
  O  O16  1  0.325962  0.920381  0.120327  1
  O  O17  1  0.594419  0.674038  0.379673  1
  Mg  Mg18  1  0.333333  0.666667  0.500000  1
  Mg  Mg19  1  0.333333  0.666667  0.000000  1
  P  P20  1  0.060251  0.777057  0.750000  1
  P  P21  1  0.060251  0.283195  0.250000  1
  P  P22  1  0.716805  0.777057  0.250000  1
  P  P23  1  0.222943  0.939749  0.250000  1
  P  P24  1  0.222943  0.283195  0.750000  1
  P  P25  1  0.716805  0.939749  0.750000  1
  K  K26  1  0.666667  0.333333  0.500000  1
  K  K27  1  0.666667  0.333333  0.000000  1
