# generated using pymatgen
data_TeMo2SeS2
_symmetry_space_group_name_H-M   'P 1'
_cell_length_a   3.30911906
_cell_length_b   3.30911787
_cell_length_c   37.58381030
_cell_angle_alpha   89.99978720
_cell_angle_beta   90.00000000
_cell_angle_gamma   120.00001186
_symmetry_Int_Tables_number   1
_chemical_formula_structural   TeMo2SeS2
_chemical_formula_sum   'Te2 Mo4 Se2 S4'
_cell_volume   356.41503631
_cell_formula_units_Z   2
loop_
 _symmetry_equiv_pos_site_id
 _symmetry_equiv_pos_as_xyz
  1  'x, y, z'
loop_
 _atom_site_type_symbol
 _atom_site_label
 _atom_site_symmetry_multiplicity
 _atom_site_fract_x
 _atom_site_fract_y
 _atom_site_fract_z
 _atom_site_occupancy
  Te  Te0  1  0.333350  0.666700  0.708379  1
  Te  Te1  1  0.333359  0.666719  0.606768  1
  Mo  Mo2  1  0.333311  0.666621  0.093917  1
  Mo  Mo3  1  0.333309  0.666619  0.469622  1
  Mo  Mo4  1  0.666687  0.333374  0.281807  1
  Mo  Mo5  1  0.666688  0.333376  0.657600  1
  Se  Se6  1  0.666646  0.333291  0.424988  1
  Se  Se7  1  0.666645  0.333290  0.514236  1
  S  S8  1  0.333356  0.666713  0.322483  1
  S  S9  1  0.666647  0.333292  0.053244  1
  S  S10  1  0.666647  0.333293  0.134610  1
  S  S11  1  0.333355  0.666711  0.241094  1
