# generated using pymatgen
data_SrF2
_symmetry_space_group_name_H-M   'P 1'
_cell_length_a   4.15175105
_cell_length_b   4.15160762
_cell_length_c   5.87148828
_cell_angle_alpha   90.00000000
_cell_angle_beta   90.00000000
_cell_angle_gamma   120.00114279
_symmetry_Int_Tables_number   1
_chemical_formula_structural   SrF2
_chemical_formula_sum   'Sr2 F4'
_cell_volume   87.64384722
_cell_formula_units_Z   2
loop_
 _symmetry_equiv_pos_site_id
 _symmetry_equiv_pos_as_xyz
  1  'x, y, z'
loop_
 _atom_site_type_symbol
 _atom_site_label
 _atom_site_symmetry_multiplicity
 _atom_site_fract_x
 _atom_site_fract_y
 _atom_site_fract_z
 _atom_site_occupancy
  Sr  Sr0  1  0.333329  0.666657  0.250000  1
  Sr  Sr1  1  0.666671  0.333343  0.750000  1
  F  F2  1  0.000000  0.000000  0.500000  1
  F  F3  1  0.000000  0.000000  0.000000  1
  F  F4  1  0.333338  0.666677  0.750000  1
  F  F5  1  0.666662  0.333323  0.250000  1
