# generated using pymatgen
data_SrMg3SiN4
_symmetry_space_group_name_H-M   'P 1'
_cell_length_a   10.67727237
_cell_length_b   10.67727237
_cell_length_c   10.67727237
_cell_angle_alpha   79.22749202
_cell_angle_beta   66.01201785
_cell_angle_gamma   113.98798215
_symmetry_Int_Tables_number   1
_chemical_formula_structural   SrMg3SiN4
_chemical_formula_sum   'Sr8 Mg24 Si8 N32'
_cell_volume   921.19816087
_cell_formula_units_Z   8
loop_
 _symmetry_equiv_pos_site_id
 _symmetry_equiv_pos_as_xyz
  1  'x, y, z'
loop_
 _atom_site_type_symbol
 _atom_site_label
 _atom_site_symmetry_multiplicity
 _atom_site_fract_x
 _atom_site_fract_y
 _atom_site_fract_z
 _atom_site_occupancy
  Sr  Sr0  1  0.251752  0.439207  0.828549  1
  Sr  Sr1  1  0.248248  0.919699  0.312545  1
  Sr  Sr2  1  0.232244  0.171451  0.080301  1
  Sr  Sr3  1  0.267756  0.687455  0.560793  1
  Sr  Sr4  1  0.748248  0.560793  0.171451  1
  Sr  Sr5  1  0.751752  0.080301  0.687455  1
  Sr  Sr6  1  0.767756  0.828549  0.919699  1
  Sr  Sr7  1  0.732244  0.312545  0.439207  1
  Mg  Mg8  1  0.878074  0.341695  0.087891  1
  Mg  Mg9  1  0.621926  0.034035  0.036379  1
  Mg  Mg10  1  0.070414  0.912109  0.965965  1
  Mg  Mg11  1  0.429586  0.963621  0.658305  1
  Mg  Mg12  1  0.121926  0.658305  0.912109  1
  Mg  Mg13  1  0.378074  0.965965  0.963621  1
  Mg  Mg14  1  0.929586  0.087891  0.034035  1
  Mg  Mg15  1  0.570414  0.036379  0.341695  1
  Mg  Mg16  1  0.601769  0.814338  0.571726  1
  Mg  Mg17  1  0.898231  0.826505  0.287432  1
  Mg  Mg18  1  0.113936  0.428274  0.173495  1
  Mg  Mg19  1  0.386064  0.712568  0.185662  1
  Mg  Mg20  1  0.398231  0.185662  0.428274  1
  Mg  Mg21  1  0.101769  0.173495  0.712568  1
  Mg  Mg22  1  0.886064  0.571726  0.826505  1
  Mg  Mg23  1  0.613936  0.287432  0.814338  1
  Mg  Mg24  1  0.612879  0.530420  0.537811  1
  Mg  Mg25  1  0.887121  0.849310  0.582460  1
  Mg  Mg26  1  0.431769  0.462189  0.150690  1
  Mg  Mg27  1  0.068231  0.417540  0.469580  1
  Mg  Mg28  1  0.387121  0.469580  0.462189  1
  Mg  Mg29  1  0.112879  0.150690  0.417540  1
  Mg  Mg30  1  0.568231  0.537811  0.849310  1
  Mg  Mg31  1  0.931769  0.582460  0.530420  1
  Si  Si32  1  0.961295  0.341796  0.766355  1
  Si  Si33  1  0.538705  0.272349  0.119500  1
  Si  Si34  1  0.391849  0.233645  0.727651  1
  Si  Si35  1  0.108151  0.880500  0.658204  1
  Si  Si36  1  0.038705  0.658204  0.233645  1
  Si  Si37  1  0.461295  0.727651  0.880500  1
  Si  Si38  1  0.608151  0.766355  0.272349  1
  Si  Si39  1  0.891849  0.119500  0.341796  1
  N  N40  1  0.153874  0.394161  0.611354  1
  N  N41  1  0.346126  0.234773  0.259713  1
  N  N42  1  0.494485  0.388646  0.765227  1
  N  N43  1  0.005515  0.740287  0.605839  1
  N  N44  1  0.846126  0.605839  0.388646  1
  N  N45  1  0.653874  0.765227  0.740287  1
  N  N46  1  0.505515  0.611354  0.234773  1
  N  N47  1  0.994485  0.259713  0.394161  1
  N  N48  1  0.369040  0.746112  0.777708  1
  N  N49  1  0.130960  0.853251  0.122928  1
  N  N50  1  0.976180  0.222292  0.146749  1
  N  N51  1  0.523820  0.877072  0.253888  1
  N  N52  1  0.630960  0.253888  0.222292  1
  N  N53  1  0.869040  0.146749  0.877072  1
  N  N54  1  0.023820  0.777708  0.853251  1
  N  N55  1  0.476180  0.122928  0.746112  1
  N  N56  1  0.006510  0.465210  0.854067  1
  N  N57  1  0.493490  0.139423  0.041300  1
  N  N58  1  0.180723  0.145933  0.860577  1
  N  N59  1  0.319277  0.958700  0.534790  1
  N  N60  1  0.993490  0.534790  0.145933  1
  N  N61  1  0.506510  0.860577  0.958700  1
  N  N62  1  0.819277  0.854067  0.139423  1
  N  N63  1  0.680723  0.041300  0.465210  1
  N  N64  1  0.548201  0.676884  0.463421  1
  N  N65  1  0.951799  0.988378  0.371317  1
  N  N66  1  0.359694  0.536579  0.011622  1
  N  N67  1  0.140306  0.628683  0.323116  1
  N  N68  1  0.451799  0.323116  0.536579  1
  N  N69  1  0.048201  0.011622  0.628683  1
  N  N70  1  0.640306  0.463421  0.988378  1
  N  N71  1  0.859694  0.371317  0.676884  1
