# generated using pymatgen
data_Cd(C2N3)2
_symmetry_space_group_name_H-M   'P 1'
_cell_length_a   6.61966002
_cell_length_b   7.70977595
_cell_length_c   7.77460304
_cell_angle_alpha   90.00000000
_cell_angle_beta   90.00000000
_cell_angle_gamma   90.00000000
_symmetry_Int_Tables_number   1
_chemical_formula_structural   Cd(C2N3)2
_chemical_formula_sum   'Cd2 C8 N12'
_cell_volume   396.78538415
_cell_formula_units_Z   2
loop_
 _symmetry_equiv_pos_site_id
 _symmetry_equiv_pos_as_xyz
  1  'x, y, z'
loop_
 _atom_site_type_symbol
 _atom_site_label
 _atom_site_symmetry_multiplicity
 _atom_site_fract_x
 _atom_site_fract_y
 _atom_site_fract_z
 _atom_site_occupancy
  C  C0  1  0.751302  0.151615  0.646782  1
  C  C1  1  0.251302  0.348385  0.853218  1
  C  C2  1  0.751302  0.151615  0.353218  1
  C  C3  1  0.251302  0.348385  0.146782  1
  C  C4  1  0.748698  0.651615  0.146782  1
  C  C5  1  0.248698  0.848385  0.353218  1
  C  C6  1  0.248698  0.848385  0.646782  1
  C  C7  1  0.748698  0.651615  0.853218  1
  N  N8  1  0.808527  0.715785  0.000000  1
  N  N9  1  0.308527  0.784215  0.500000  1
  N  N10  1  0.794640  0.103020  0.214853  1
  N  N11  1  0.294640  0.396980  0.285147  1
  N  N12  1  0.705360  0.603020  0.285147  1
  N  N13  1  0.205360  0.896980  0.214853  1
  N  N14  1  0.205360  0.896980  0.785147  1
  N  N15  1  0.705360  0.603020  0.714853  1
  N  N16  1  0.294640  0.396980  0.714853  1
  N  N17  1  0.794640  0.103020  0.785147  1
  N  N18  1  0.691473  0.215785  0.500000  1
  N  N19  1  0.191473  0.284215  0.000000  1
  Cd  Cd20  1  0.500000  0.500000  0.500000  1
  Cd  Cd21  1  0.000000  0.000000  0.000000  1
