# generated using pymatgen
data_Rb2Cd3Se4
_symmetry_space_group_name_H-M   'P 1'
_cell_length_a   6.96074147
_cell_length_b   11.24334241
_cell_length_c   14.95715017
_cell_angle_alpha   90.00000000
_cell_angle_beta   90.00000000
_cell_angle_gamma   90.00000000
_symmetry_Int_Tables_number   1
_chemical_formula_structural   Rb2Cd3Se4
_chemical_formula_sum   'Rb8 Cd12 Se16'
_cell_volume   1170.57648323
_cell_formula_units_Z   4
loop_
 _symmetry_equiv_pos_site_id
 _symmetry_equiv_pos_as_xyz
  1  'x, y, z'
loop_
 _atom_site_type_symbol
 _atom_site_label
 _atom_site_symmetry_multiplicity
 _atom_site_fract_x
 _atom_site_fract_y
 _atom_site_fract_z
 _atom_site_occupancy
  Se  Se0  1  0.097389  0.538420  0.360897  1
  Se  Se1  1  0.597389  0.461580  0.139103  1
  Se  Se2  1  0.902611  0.038420  0.639103  1
  Se  Se3  1  0.402611  0.961580  0.860897  1
  Se  Se4  1  0.902611  0.461580  0.639103  1
  Se  Se5  1  0.402611  0.538420  0.860897  1
  Se  Se6  1  0.097389  0.961580  0.360897  1
  Se  Se7  1  0.597389  0.038420  0.139103  1
  Se  Se8  1  0.962108  0.250000  0.860075  1
  Se  Se9  1  0.462108  0.750000  0.639925  1
  Se  Se10  1  0.037892  0.750000  0.139925  1
  Se  Se11  1  0.537892  0.250000  0.360075  1
  Se  Se12  1  0.891350  0.750000  0.846714  1
  Se  Se13  1  0.608650  0.750000  0.346714  1
  Se  Se14  1  0.108650  0.250000  0.153286  1
  Se  Se15  1  0.391350  0.250000  0.653286  1
  Rb  Rb16  1  0.019944  0.250000  0.462232  1
  Rb  Rb17  1  0.519944  0.750000  0.037768  1
  Rb  Rb18  1  0.980056  0.750000  0.537768  1
  Rb  Rb19  1  0.480056  0.250000  0.962232  1
  Rb  Rb20  1  0.500000  0.500000  0.500000  1
  Rb  Rb21  1  0.000000  0.000000  0.000000  1
  Rb  Rb22  1  0.500000  0.000000  0.500000  1
  Rb  Rb23  1  0.000000  0.500000  0.000000  1
  Cd  Cd24  1  0.814841  0.595368  0.245002  1
  Cd  Cd25  1  0.314841  0.404632  0.254998  1
  Cd  Cd26  1  0.185159  0.095368  0.754998  1
  Cd  Cd27  1  0.685159  0.904632  0.745002  1
  Cd  Cd28  1  0.185159  0.404632  0.754998  1
  Cd  Cd29  1  0.685159  0.595368  0.745002  1
  Cd  Cd30  1  0.814841  0.904632  0.245002  1
  Cd  Cd31  1  0.314841  0.095368  0.254998  1
  Cd  Cd32  1  0.753276  0.250000  0.706844  1
  Cd  Cd33  1  0.253276  0.750000  0.793156  1
  Cd  Cd34  1  0.246724  0.750000  0.293156  1
  Cd  Cd35  1  0.746724  0.250000  0.206844  1
