# generated using pymatgen
data_Er2Be2GeO7
_symmetry_space_group_name_H-M   'P 1'
_cell_length_a   4.79803575
_cell_length_b   7.40368645
_cell_length_c   7.40368645
_cell_angle_alpha   90.00000000
_cell_angle_beta   90.00000000
_cell_angle_gamma   90.00000000
_symmetry_Int_Tables_number   1
_chemical_formula_structural   Er2Be2GeO7
_chemical_formula_sum   'Er4 Be4 Ge2 O14'
_cell_volume   263.00228111
_cell_formula_units_Z   2
loop_
 _symmetry_equiv_pos_site_id
 _symmetry_equiv_pos_as_xyz
  1  'x, y, z'
loop_
 _atom_site_type_symbol
 _atom_site_label
 _atom_site_symmetry_multiplicity
 _atom_site_fract_x
 _atom_site_fract_y
 _atom_site_fract_z
 _atom_site_occupancy
  Be  Be0  1  0.049049  0.364728  0.135272  1
  Be  Be1  1  0.950951  0.864728  0.364728  1
  Be  Be2  1  0.049049  0.635272  0.864728  1
  Be  Be3  1  0.950951  0.135272  0.635272  1
  O  O4  1  0.780606  0.917369  0.171123  1
  O  O5  1  0.219394  0.171123  0.082631  1
  O  O6  1  0.219394  0.582631  0.671123  1
  O  O7  1  0.219394  0.417369  0.328877  1
  O  O8  1  0.780606  0.328877  0.582631  1
  O  O9  1  0.780606  0.671123  0.417369  1
  O  O10  1  0.809914  0.000000  0.500000  1
  O  O11  1  0.190086  0.500000  0.000000  1
  O  O12  1  0.282224  0.141982  0.641982  1
  O  O13  1  0.717776  0.641982  0.858018  1
  O  O14  1  0.717776  0.358018  0.141982  1
  O  O15  1  0.282224  0.858018  0.358018  1
  O  O16  1  0.780606  0.082631  0.828877  1
  O  O17  1  0.219394  0.828877  0.917369  1
  Ge  Ge18  1  0.000000  0.500000  0.500000  1
  Ge  Ge19  1  0.000000  0.000000  0.000000  1
  Er  Er20  1  0.506565  0.657746  0.157746  1
  Er  Er21  1  0.493435  0.157746  0.342254  1
  Er  Er22  1  0.493435  0.842254  0.657746  1
  Er  Er23  1  0.506565  0.342254  0.842254  1
