# generated using pymatgen
data_Mo(WS3)2
_symmetry_space_group_name_H-M   'P 1'
_cell_length_a   3.18823960
_cell_length_b   3.18811101
_cell_length_c   29.11487781
_cell_angle_alpha   90.00000000
_cell_angle_beta   90.00000000
_cell_angle_gamma   120.00133428
_symmetry_Int_Tables_number   1
_chemical_formula_structural   Mo(WS3)2
_chemical_formula_sum   'Mo1 W2 S6'
_cell_volume   256.28556791
_cell_formula_units_Z   1
loop_
 _symmetry_equiv_pos_site_id
 _symmetry_equiv_pos_as_xyz
  1  'x, y, z'
loop_
 _atom_site_type_symbol
 _atom_site_label
 _atom_site_symmetry_multiplicity
 _atom_site_fract_x
 _atom_site_fract_y
 _atom_site_fract_z
 _atom_site_occupancy
  Mo  Mo0  1  0.666687  0.333373  0.346982  1
  W  W1  1  0.333314  0.666629  0.115648  1
  W  W2  1  0.333314  0.666629  0.578317  1
  S  S3  1  0.333356  0.666713  0.400817  1
  S  S4  1  0.666644  0.333287  0.061577  1
  S  S5  1  0.666643  0.333285  0.524257  1
  S  S6  1  0.666643  0.333285  0.169708  1
  S  S7  1  0.666644  0.333287  0.632387  1
  S  S8  1  0.333356  0.666713  0.293148  1
