# generated using pymatgen
data_K3Na2SnAs3
_symmetry_space_group_name_H-M   'P 1'
_cell_length_a   6.86557234
_cell_length_b   10.88884391
_cell_length_c   15.61491138
_cell_angle_alpha   90.00000000
_cell_angle_beta   90.00000000
_cell_angle_gamma   108.37633991
_symmetry_Int_Tables_number   1
_chemical_formula_structural   K3Na2SnAs3
_chemical_formula_sum   'K12 Na8 Sn4 As12'
_cell_volume   1107.81471261
_cell_formula_units_Z   4
loop_
 _symmetry_equiv_pos_site_id
 _symmetry_equiv_pos_as_xyz
  1  'x, y, z'
loop_
 _atom_site_type_symbol
 _atom_site_label
 _atom_site_symmetry_multiplicity
 _atom_site_fract_x
 _atom_site_fract_y
 _atom_site_fract_z
 _atom_site_occupancy
  Na  Na0  1  0.918640  0.837280  0.000000  1
  Na  Na1  1  0.418640  0.837280  0.500000  1
  Na  Na2  1  0.081360  0.162720  0.000000  1
  Na  Na3  1  0.245227  0.490455  0.000000  1
  Na  Na4  1  0.254773  0.509545  0.500000  1
  Na  Na5  1  0.754773  0.509545  0.000000  1
  Na  Na6  1  0.745227  0.490455  0.500000  1
  Na  Na7  1  0.581360  0.162720  0.500000  1
  K  K8  1  0.933883  0.333386  0.175445  1
  K  K9  1  0.259698  0.000000  0.677700  1
  K  K10  1  0.240302  0.000000  0.177700  1
  K  K11  1  0.740302  0.000000  0.322300  1
  K  K12  1  0.100498  0.666614  0.324555  1
  K  K13  1  0.566117  0.666614  0.675445  1
  K  K14  1  0.399502  0.333386  0.824555  1
  K  K15  1  0.066117  0.666614  0.824555  1
  K  K16  1  0.899502  0.333386  0.675445  1
  K  K17  1  0.433883  0.333386  0.324555  1
  K  K18  1  0.600498  0.666614  0.175445  1
  K  K19  1  0.759698  0.000000  0.822300  1
  As  As20  1  0.381487  0.317763  0.605746  1
  As  As21  1  0.563724  0.682237  0.894254  1
  As  As22  1  0.118513  0.682237  0.105746  1
  As  As23  1  0.936276  0.317763  0.394254  1
  As  As24  1  0.618513  0.682237  0.394254  1
  As  As25  1  0.436276  0.317763  0.105746  1
  As  As26  1  0.881487  0.317763  0.894254  1
  As  As27  1  0.063724  0.682237  0.605746  1
  As  As28  1  0.206078  0.000000  0.405136  1
  As  As29  1  0.706078  0.000000  0.094864  1
  As  As30  1  0.293922  0.000000  0.905136  1
  As  As31  1  0.793922  0.000000  0.594864  1
  Sn  Sn32  1  0.911403  0.822805  0.500000  1
  Sn  Sn33  1  0.588597  0.177195  0.000000  1
  Sn  Sn34  1  0.088597  0.177195  0.500000  1
  Sn  Sn35  1  0.411403  0.822805  0.000000  1
