# generated using pymatgen
data_Nb5Ga4
_symmetry_space_group_name_H-M   'P 1'
_cell_length_a   8.01326283
_cell_length_b   8.01326283
_cell_length_c   5.47444454
_cell_angle_alpha   90.00000000
_cell_angle_beta   90.00000000
_cell_angle_gamma   120.00000002
_symmetry_Int_Tables_number   1
_chemical_formula_structural   Nb5Ga4
_chemical_formula_sum   'Nb10 Ga8'
_cell_volume   304.43141575
_cell_formula_units_Z   2
loop_
 _symmetry_equiv_pos_site_id
 _symmetry_equiv_pos_as_xyz
  1  'x, y, z'
loop_
 _atom_site_type_symbol
 _atom_site_label
 _atom_site_symmetry_multiplicity
 _atom_site_fract_x
 _atom_site_fract_y
 _atom_site_fract_z
 _atom_site_occupancy
  Ga  Ga0  1  0.000000  0.000000  0.000000  1
  Ga  Ga1  1  0.000000  0.000000  0.500000  1
  Ga  Ga2  1  0.616057  0.000000  0.250000  1
  Ga  Ga3  1  0.616057  0.616057  0.750000  1
  Ga  Ga4  1  0.000000  0.383943  0.750000  1
  Ga  Ga5  1  0.000000  0.616057  0.250000  1
  Ga  Ga6  1  0.383943  0.383943  0.250000  1
  Ga  Ga7  1  0.383943  0.000000  0.750000  1
  Nb  Nb8  1  0.333333  0.666667  0.000000  1
  Nb  Nb9  1  0.666667  0.333333  0.500000  1
  Nb  Nb10  1  0.666667  0.333333  0.000000  1
  Nb  Nb11  1  0.333333  0.666667  0.500000  1
  Nb  Nb12  1  0.280794  0.000000  0.250000  1
  Nb  Nb13  1  0.280794  0.280794  0.750000  1
  Nb  Nb14  1  0.000000  0.719206  0.750000  1
  Nb  Nb15  1  0.000000  0.280794  0.250000  1
  Nb  Nb16  1  0.719206  0.719206  0.250000  1
  Nb  Nb17  1  0.719206  0.000000  0.750000  1
