# generated using pymatgen
data_Te2W3(SeS)2
_symmetry_space_group_name_H-M   'P 1'
_cell_length_a   3.34767927
_cell_length_b   3.34769202
_cell_length_c   31.04127892
_cell_angle_alpha   90.00004994
_cell_angle_beta   90.00000345
_cell_angle_gamma   119.99985925
_symmetry_Int_Tables_number   1
_chemical_formula_structural   Te2W3(SeS)2
_chemical_formula_sum   'Te2 W3 Se2 S2'
_cell_volume   301.27298735
_cell_formula_units_Z   1
loop_
 _symmetry_equiv_pos_site_id
 _symmetry_equiv_pos_as_xyz
  1  'x, y, z'
loop_
 _atom_site_type_symbol
 _atom_site_label
 _atom_site_symmetry_multiplicity
 _atom_site_fract_x
 _atom_site_fract_y
 _atom_site_fract_z
 _atom_site_occupancy
  Te  Te0  1  0.333361  0.666722  0.408320  1
  Te  Te1  1  0.333348  0.666696  0.285600  1
  W  W2  1  0.333309  0.666617  0.115634  1
  W  W3  1  0.333311  0.666622  0.578362  1
  W  W4  1  0.666689  0.333378  0.346944  1
  Se  Se5  1  0.666646  0.333291  0.524491  1
  Se  Se6  1  0.666648  0.333296  0.632203  1
  S  S7  1  0.666644  0.333286  0.066632  1
  S  S8  1  0.666646  0.333291  0.164656  1
