# generated using pymatgen
data_Sr3CuRhO6
_symmetry_space_group_name_H-M   'P 1'
_cell_length_a   6.79428655
_cell_length_b   6.79428655
_cell_length_c   6.73188479
_cell_angle_alpha   91.20107447
_cell_angle_beta   91.20107453
_cell_angle_gamma   92.32632186
_symmetry_Int_Tables_number   1
_chemical_formula_structural   Sr3CuRhO6
_chemical_formula_sum   'Sr6 Cu2 Rh2 O12'
_cell_volume   310.36114354
_cell_formula_units_Z   2
loop_
 _symmetry_equiv_pos_site_id
 _symmetry_equiv_pos_as_xyz
  1  'x, y, z'
loop_
 _atom_site_type_symbol
 _atom_site_label
 _atom_site_symmetry_multiplicity
 _atom_site_fract_x
 _atom_site_fract_y
 _atom_site_fract_z
 _atom_site_occupancy
  O  O0  1  0.283300  0.606756  0.464973  1
  O  O1  1  0.393244  0.716700  0.035027  1
  O  O2  1  0.716700  0.393244  0.535027  1
  O  O3  1  0.606756  0.283300  0.964973  1
  O  O4  1  0.074214  0.219572  0.430858  1
  O  O5  1  0.780428  0.925786  0.069142  1
  O  O6  1  0.925786  0.780428  0.569142  1
  O  O7  1  0.219572  0.074214  0.930858  1
  O  O8  1  0.108075  0.476459  0.785583  1
  O  O9  1  0.523541  0.891925  0.714417  1
  O  O10  1  0.476459  0.108075  0.285583  1
  O  O11  1  0.891925  0.523541  0.214417  1
  Cu  Cu12  1  0.692162  0.307838  0.250000  1
  Cu  Cu13  1  0.307838  0.692162  0.750000  1
  Sr  Sr14  1  0.101669  0.898331  0.250000  1
  Sr  Sr15  1  0.898331  0.101669  0.750000  1
  Sr  Sr16  1  0.760249  0.610906  0.874914  1
  Sr  Sr17  1  0.389094  0.239751  0.625086  1
  Sr  Sr18  1  0.239751  0.389094  0.125086  1
  Sr  Sr19  1  0.610906  0.760249  0.374914  1
  Rh  Rh20  1  0.000000  0.500000  0.500000  1
  Rh  Rh21  1  0.500000  0.000000  0.000000  1
