# generated using pymatgen
data_Cu2As2O7
_symmetry_space_group_name_H-M   'P 1'
_cell_length_a   5.01974662
_cell_length_b   5.61573223
_cell_length_c   5.61573223
_cell_angle_alpha   96.11334826
_cell_angle_beta   105.02294312
_cell_angle_gamma   105.02294312
_symmetry_Int_Tables_number   1
_chemical_formula_structural   Cu2As2O7
_chemical_formula_sum   'Cu2 As2 O7'
_cell_volume   145.08657584
_cell_formula_units_Z   1
loop_
 _symmetry_equiv_pos_site_id
 _symmetry_equiv_pos_as_xyz
  1  'x, y, z'
loop_
 _atom_site_type_symbol
 _atom_site_label
 _atom_site_symmetry_multiplicity
 _atom_site_fract_x
 _atom_site_fract_y
 _atom_site_fract_z
 _atom_site_occupancy
  O  O0  1  0.283349  0.965413  0.628109  1
  O  O1  1  0.716651  0.371891  0.034587  1
  O  O2  1  0.716651  0.034587  0.371891  1
  O  O3  1  0.283349  0.628109  0.965413  1
  O  O4  1  0.000000  0.000000  0.000000  1
  O  O5  1  0.766260  0.600566  0.600566  1
  O  O6  1  0.233740  0.399434  0.399434  1
  Cu  Cu7  1  0.500000  0.685826  0.314174  1
  Cu  Cu8  1  0.500000  0.314174  0.685826  1
  As  As9  1  0.094585  0.798558  0.798558  1
  As  As10  1  0.905415  0.201441  0.201441  1
