# generated using pymatgen
data_Mn3V2(SiO4)3
_symmetry_space_group_name_H-M   'P 1'
_cell_length_a   10.38562555
_cell_length_b   10.38562555
_cell_length_c   10.38562555
_cell_angle_alpha   109.47122062
_cell_angle_beta   109.47122062
_cell_angle_gamma   109.47122068
_symmetry_Int_Tables_number   1
_chemical_formula_structural   Mn3V2(SiO4)3
_chemical_formula_sum   'Mn12 V8 Si12 O48'
_cell_volume   862.33515157
_cell_formula_units_Z   4
loop_
 _symmetry_equiv_pos_site_id
 _symmetry_equiv_pos_as_xyz
  1  'x, y, z'
loop_
 _atom_site_type_symbol
 _atom_site_label
 _atom_site_symmetry_multiplicity
 _atom_site_fract_x
 _atom_site_fract_y
 _atom_site_fract_z
 _atom_site_occupancy
  O  O0  1  0.709139  0.693738  0.088106  1
  O  O1  1  0.693738  0.105632  0.984598  1
  O  O2  1  0.621033  0.709139  0.515402  1
  O  O3  1  0.515402  0.621033  0.709139  1
  O  O4  1  0.088106  0.878967  0.394368  1
  O  O5  1  0.394368  0.088106  0.878967  1
  O  O6  1  0.105632  0.984598  0.693738  1
  O  O7  1  0.621033  0.411894  0.105632  1
  O  O8  1  0.515402  0.394368  0.806262  1
  O  O9  1  0.878967  0.984598  0.790861  1
  O  O10  1  0.411894  0.105632  0.621033  1
  O  O11  1  0.806262  0.515402  0.394368  1
  O  O12  1  0.984598  0.790861  0.878967  1
  O  O13  1  0.088106  0.709139  0.693738  1
  O  O14  1  0.693738  0.088106  0.709139  1
  O  O15  1  0.105632  0.621033  0.411894  1
  O  O16  1  0.806262  0.790861  0.411894  1
  O  O17  1  0.394368  0.806262  0.515402  1
  O  O18  1  0.411894  0.806262  0.790861  1
  O  O19  1  0.790861  0.878967  0.984598  1
  O  O20  1  0.790861  0.411894  0.806262  1
  O  O21  1  0.878967  0.394368  0.088106  1
  O  O22  1  0.984598  0.693738  0.105632  1
  O  O23  1  0.709139  0.515402  0.621033  1
  O  O24  1  0.290861  0.306262  0.911894  1
  O  O25  1  0.306262  0.894368  0.015402  1
  O  O26  1  0.378967  0.290861  0.484598  1
  O  O27  1  0.484598  0.378967  0.290861  1
  O  O28  1  0.911894  0.121033  0.605632  1
  O  O29  1  0.605632  0.911894  0.121033  1
  O  O30  1  0.894368  0.015402  0.306262  1
  O  O31  1  0.378967  0.588106  0.894368  1
  O  O32  1  0.484598  0.605632  0.193738  1
  O  O33  1  0.121033  0.015402  0.209139  1
  O  O34  1  0.588106  0.894368  0.378967  1
  O  O35  1  0.193738  0.484598  0.605632  1
  O  O36  1  0.015402  0.209139  0.121033  1
  O  O37  1  0.911894  0.290861  0.306262  1
  O  O38  1  0.306262  0.911894  0.290861  1
  O  O39  1  0.894368  0.378967  0.588106  1
  O  O40  1  0.193738  0.209139  0.588106  1
  O  O41  1  0.605632  0.193738  0.484598  1
  O  O42  1  0.588106  0.193738  0.209139  1
  O  O43  1  0.209139  0.121033  0.015402  1
  O  O44  1  0.209139  0.588106  0.193738  1
  O  O45  1  0.121033  0.605632  0.911894  1
  O  O46  1  0.015402  0.306262  0.894368  1
  O  O47  1  0.290861  0.484598  0.378967  1
  Si  Si48  1  0.250000  0.125000  0.875000  1
  Si  Si49  1  0.750000  0.875000  0.125000  1
  Si  Si50  1  0.375000  0.250000  0.625000  1
  Si  Si51  1  0.625000  0.375000  0.250000  1
  Si  Si52  1  0.125000  0.750000  0.875000  1
  Si  Si53  1  0.875000  0.125000  0.750000  1
  Si  Si54  1  0.750000  0.375000  0.625000  1
  Si  Si55  1  0.375000  0.625000  0.750000  1
  Si  Si56  1  0.125000  0.875000  0.250000  1
  Si  Si57  1  0.875000  0.250000  0.125000  1
  Si  Si58  1  0.625000  0.750000  0.375000  1
  Si  Si59  1  0.250000  0.625000  0.375000  1
  V  V60  1  0.500000  0.500000  0.500000  1
  V  V61  1  0.500000  0.500000  0.000000  1
  V  V62  1  0.500000  0.000000  0.500000  1
  V  V63  1  0.000000  0.500000  0.500000  1
  V  V64  1  0.500000  0.000000  0.000000  1
  V  V65  1  0.000000  0.000000  0.500000  1
  V  V66  1  0.000000  0.500000  0.000000  1
  V  V67  1  0.000000  0.000000  0.000000  1
  Mn  Mn68  1  0.250000  0.875000  0.625000  1
  Mn  Mn69  1  0.875000  0.625000  0.250000  1
  Mn  Mn70  1  0.625000  0.875000  0.750000  1
  Mn  Mn71  1  0.875000  0.750000  0.625000  1
  Mn  Mn72  1  0.625000  0.250000  0.875000  1
  Mn  Mn73  1  0.750000  0.625000  0.875000  1
  Mn  Mn74  1  0.750000  0.125000  0.375000  1
  Mn  Mn75  1  0.125000  0.375000  0.750000  1
  Mn  Mn76  1  0.375000  0.125000  0.250000  1
  Mn  Mn77  1  0.125000  0.250000  0.375000  1
  Mn  Mn78  1  0.375000  0.750000  0.125000  1
  Mn  Mn79  1  0.250000  0.375000  0.125000  1
