# generated using pymatgen
data_BaYSi4N7
_symmetry_space_group_name_H-M   'P 1'
_cell_length_a   6.10545420
_cell_length_b   6.10545420
_cell_length_c   9.94432054
_cell_angle_alpha   90.00000000
_cell_angle_beta   90.00000000
_cell_angle_gamma   119.99999999
_symmetry_Int_Tables_number   1
_chemical_formula_structural   BaYSi4N7
_chemical_formula_sum   'Ba2 Y2 Si8 N14'
_cell_volume   321.02710469
_cell_formula_units_Z   2
loop_
 _symmetry_equiv_pos_site_id
 _symmetry_equiv_pos_as_xyz
  1  'x, y, z'
loop_
 _atom_site_type_symbol
 _atom_site_label
 _atom_site_symmetry_multiplicity
 _atom_site_fract_x
 _atom_site_fract_y
 _atom_site_fract_z
 _atom_site_occupancy
  N  N0  1  0.000000  0.000000  0.623712  1
  N  N1  1  0.000000  0.000000  0.123712  1
  N  N2  1  0.152552  0.305105  0.874130  1
  N  N3  1  0.847448  0.152552  0.374130  1
  N  N4  1  0.305105  0.152552  0.374130  1
  N  N5  1  0.694895  0.847448  0.874130  1
  N  N6  1  0.152552  0.847448  0.874130  1
  N  N7  1  0.847448  0.694895  0.374130  1
  N  N8  1  0.975057  0.487529  0.598533  1
  N  N9  1  0.487529  0.975057  0.098533  1
  N  N10  1  0.487529  0.512471  0.098533  1
  N  N11  1  0.512471  0.487529  0.598533  1
  N  N12  1  0.024943  0.512471  0.098533  1
  N  N13  1  0.512471  0.024943  0.598533  1
  Si  Si14  1  0.825612  0.651223  0.546072  1
  Si  Si15  1  0.174388  0.825612  0.046072  1
  Si  Si16  1  0.651223  0.825612  0.046072  1
  Si  Si17  1  0.348777  0.174388  0.546072  1
  Si  Si18  1  0.825612  0.174388  0.546072  1
  Si  Si19  1  0.174388  0.348777  0.046072  1
  Si  Si20  1  0.000000  0.000000  0.814834  1
  Si  Si21  1  0.000000  0.000000  0.314834  1
  Y  Y22  1  0.333333  0.666667  0.736243  1
  Y  Y23  1  0.666667  0.333333  0.236243  1
  Ba  Ba24  1  0.333333  0.666667  0.362906  1
  Ba  Ba25  1  0.666667  0.333333  0.862906  1
