# generated using pymatgen
data_LuAu2
_symmetry_space_group_name_H-M   'P 1'
_cell_length_a   3.67312321
_cell_length_b   3.67312321
_cell_length_c   5.19804443
_cell_angle_alpha   110.69038114
_cell_angle_beta   110.69038114
_cell_angle_gamma   90.00000000
_symmetry_Int_Tables_number   1
_chemical_formula_structural   LuAu2
_chemical_formula_sum   'Lu1 Au2'
_cell_volume   60.74884484
_cell_formula_units_Z   1
loop_
 _symmetry_equiv_pos_site_id
 _symmetry_equiv_pos_as_xyz
  1  'x, y, z'
loop_
 _atom_site_type_symbol
 _atom_site_label
 _atom_site_symmetry_multiplicity
 _atom_site_fract_x
 _atom_site_fract_y
 _atom_site_fract_z
 _atom_site_occupancy
  Lu  Lu0  1  0.000000  0.000000  -0.000000  1
  Au  Au1  1  0.662726  0.662726  0.325452  1
  Au  Au2  1  0.337274  0.337274  0.674548  1
