# generated using pymatgen
data_Tm5(SiSb)2
_symmetry_space_group_name_H-M   'P 1'
_cell_length_a   7.74893077
_cell_length_b   7.76709896
_cell_length_c   8.40851400
_cell_angle_alpha   90.00000000
_cell_angle_beta   117.43737655
_cell_angle_gamma   90.00000000
_symmetry_Int_Tables_number   1
_chemical_formula_structural   Tm5(SiSb)2
_chemical_formula_sum   'Tm10 Si4 Sb4'
_cell_volume   449.15430498
_cell_formula_units_Z   2
loop_
 _symmetry_equiv_pos_site_id
 _symmetry_equiv_pos_as_xyz
  1  'x, y, z'
loop_
 _atom_site_type_symbol
 _atom_site_label
 _atom_site_symmetry_multiplicity
 _atom_site_fract_x
 _atom_site_fract_y
 _atom_site_fract_z
 _atom_site_occupancy
  Si  Si0  1  0.633741  0.132863  0.000000  1
  Si  Si1  1  0.133741  0.367137  0.000000  1
  Si  Si2  1  0.866259  0.632863  0.000000  1
  Si  Si3  1  0.366259  0.867137  0.000000  1
  Sb  Sb4  1  0.294291  0.500000  0.588583  1
  Sb  Sb5  1  0.205709  0.000000  0.411417  1
  Sb  Sb6  1  0.705709  0.500000  0.411417  1
  Sb  Sb7  1  0.794291  0.000000  0.588583  1
  Tm  Tm8  1  0.540308  0.835381  0.750547  1
  Tm  Tm9  1  0.289761  0.664619  0.249453  1
  Tm  Tm10  1  0.210239  0.164619  0.750547  1
  Tm  Tm11  1  0.959692  0.335381  0.249453  1
  Tm  Tm12  1  0.710239  0.335381  0.750547  1
  Tm  Tm13  1  0.459692  0.164619  0.249453  1
  Tm  Tm14  1  0.789761  0.835381  0.249453  1
  Tm  Tm15  1  0.040308  0.664619  0.750547  1
  Tm  Tm16  1  0.500000  0.500000  0.000000  1
  Tm  Tm17  1  0.000000  0.000000  0.000000  1
