# generated using pymatgen
data_Te2Mo3W(Se2S)2
_symmetry_space_group_name_H-M   'P 1'
_cell_length_a   3.34684612
_cell_length_b   3.34687004
_cell_length_c   38.08036010
_cell_angle_alpha   90.00011362
_cell_angle_beta   90.00000000
_cell_angle_gamma   119.99976360
_symmetry_Int_Tables_number   1
_chemical_formula_structural   Te2Mo3W(Se2S)2
_chemical_formula_sum   'Te2 Mo3 W1 Se4 S2'
_cell_volume   369.40885904
_cell_formula_units_Z   1
loop_
 _symmetry_equiv_pos_site_id
 _symmetry_equiv_pos_as_xyz
  1  'x, y, z'
loop_
 _atom_site_type_symbol
 _atom_site_label
 _atom_site_symmetry_multiplicity
 _atom_site_fract_x
 _atom_site_fract_y
 _atom_site_fract_z
 _atom_site_occupancy
  Te  Te0  1  0.333359  0.666720  0.707643  1
  Te  Te1  1  0.333358  0.666716  0.607496  1
  Mo  Mo2  1  0.333306  0.666611  0.093931  1
  Mo  Mo3  1  0.333312  0.666625  0.469624  1
  Mo  Mo4  1  0.666689  0.333378  0.281787  1
  W  W5  1  0.666693  0.333386  0.657594  1
  Se  Se6  1  0.333350  0.666701  0.325567  1
  Se  Se7  1  0.666647  0.333294  0.425842  1
  Se  Se8  1  0.666649  0.333298  0.513411  1
  Se  Se9  1  0.333349  0.666699  0.237995  1
  S  S10  1  0.666647  0.333294  0.054083  1
  S  S11  1  0.666640  0.333278  0.133776  1
