# generated using pymatgen
data_ZrMnSi2
_symmetry_space_group_name_H-M   'P 1'
_cell_length_a   5.15849615
_cell_length_b   7.88563986
_cell_length_c   9.85793528
_cell_angle_alpha   113.57593247
_cell_angle_beta   105.16750390
_cell_angle_gamma   90.00000003
_symmetry_Int_Tables_number   1
_chemical_formula_structural   ZrMnSi2
_chemical_formula_sum   'Zr6 Mn6 Si12'
_cell_volume   352.23647539
_cell_formula_units_Z   6
loop_
 _symmetry_equiv_pos_site_id
 _symmetry_equiv_pos_as_xyz
  1  'x, y, z'
loop_
 _atom_site_type_symbol
 _atom_site_label
 _atom_site_symmetry_multiplicity
 _atom_site_fract_x
 _atom_site_fract_y
 _atom_site_fract_z
 _atom_site_occupancy
  Si  Si0  1  0.755468  0.000000  0.000000  1
  Si  Si1  1  0.244532  0.000000  0.000000  1
  Si  Si2  1  0.245462  0.500000  0.000000  1
  Si  Si3  1  0.754538  0.500000  0.000000  1
  Si  Si4  1  0.201971  0.201971  0.403943  1
  Si  Si5  1  0.798029  0.798029  0.596057  1
  Si  Si6  1  0.788368  0.288368  0.576736  1
  Si  Si7  1  0.211632  0.711632  0.423264  1
  Si  Si8  1  0.363079  0.713567  0.726157  1
  Si  Si9  1  0.636921  0.286433  0.273843  1
  Si  Si10  1  0.636921  0.987410  0.273843  1
  Si  Si11  1  0.363079  0.012590  0.726157  1
  Mn  Mn12  1  0.000000  0.500000  0.500000  1
  Mn  Mn13  1  0.500000  0.500000  0.500000  1
  Mn  Mn14  1  0.000000  0.000000  0.500000  1
  Mn  Mn15  1  0.500000  0.000000  0.500000  1
  Mn  Mn16  1  0.500000  0.247846  0.000000  1
  Mn  Mn17  1  0.500000  0.752154  0.000000  1
  Zr  Zr18  1  0.094734  0.353664  0.189469  1
  Zr  Zr19  1  0.905266  0.646336  0.810531  1
  Zr  Zr20  1  0.905266  0.164196  0.810531  1
  Zr  Zr21  1  0.094734  0.835804  0.189469  1
  Zr  Zr22  1  0.641101  0.641101  0.282202  1
  Zr  Zr23  1  0.358899  0.358899  0.717798  1
