# generated using pymatgen
data_AlV2O4
_symmetry_space_group_name_H-M   'P 1'
_cell_length_a   5.92038532
_cell_length_b   5.92038518
_cell_length_c   5.92038550
_cell_angle_alpha   60.83717501
_cell_angle_beta   60.83718052
_cell_angle_gamma   60.83717687
_symmetry_Int_Tables_number   1
_chemical_formula_structural   AlV2O4
_chemical_formula_sum   'Al2 V4 O8'
_cell_volume   149.50547778
_cell_formula_units_Z   2
loop_
 _symmetry_equiv_pos_site_id
 _symmetry_equiv_pos_as_xyz
  1  'x, y, z'
loop_
 _atom_site_type_symbol
 _atom_site_label
 _atom_site_symmetry_multiplicity
 _atom_site_fract_x
 _atom_site_fract_y
 _atom_site_fract_z
 _atom_site_occupancy
  Al  Al0  1  0.624535  0.624535  0.624535  1
  Al  Al1  1  0.375465  0.375465  0.375465  1
  V  V2  1  0.000000  0.500000  0.000000  1
  V  V3  1  0.000000  0.000000  0.000000  1
  V  V4  1  0.500000  0.000000  0.000000  1
  V  V5  1  0.000000  0.000000  0.500000  1
  O  O6  1  0.251647  0.747382  0.747382  1
  O  O7  1  0.252618  0.252618  0.748353  1
  O  O8  1  0.252618  0.748353  0.252618  1
  O  O9  1  0.251034  0.251034  0.251034  1
  O  O10  1  0.747382  0.747382  0.251647  1
  O  O11  1  0.748353  0.252618  0.252618  1
  O  O12  1  0.747382  0.251647  0.747382  1
  O  O13  1  0.748966  0.748966  0.748966  1
