# generated using pymatgen
data_RbSbO2
_symmetry_space_group_name_H-M   'P 1'
_cell_length_a   5.67690971
_cell_length_b   6.20979967
_cell_length_c   6.20979967
_cell_angle_alpha   98.35084446
_cell_angle_beta   111.31072064
_cell_angle_gamma   111.31072065
_symmetry_Int_Tables_number   1
_chemical_formula_structural   RbSbO2
_chemical_formula_sum   'Rb2 Sb2 O4'
_cell_volume   180.03814886
_cell_formula_units_Z   2
loop_
 _symmetry_equiv_pos_site_id
 _symmetry_equiv_pos_as_xyz
  1  'x, y, z'
loop_
 _atom_site_type_symbol
 _atom_site_label
 _atom_site_symmetry_multiplicity
 _atom_site_fract_x
 _atom_site_fract_y
 _atom_site_fract_z
 _atom_site_occupancy
  O  O0  1  0.212437  0.130144  0.224243  1
  O  O1  1  0.287563  0.775757  0.869856  1
  O  O2  1  0.712437  0.224243  0.130144  1
  O  O3  1  0.787563  0.869856  0.775757  1
  Rb  Rb4  1  0.250000  0.642841  0.357159  1
  Rb  Rb5  1  0.750000  0.357159  0.642841  1
  Sb  Sb6  1  0.750000  0.915148  0.084852  1
  Sb  Sb7  1  0.250000  0.084852  0.915148  1
