# generated using pymatgen
data_Rb9Fe2S7
_symmetry_space_group_name_H-M   'P 1'
_cell_length_a   13.27098677
_cell_length_b   13.27098677
_cell_length_c   13.27098677
_cell_angle_alpha   90.00000000
_cell_angle_beta   90.00000000
_cell_angle_gamma   90.00000000
_symmetry_Int_Tables_number   1
_chemical_formula_structural   Rb9Fe2S7
_chemical_formula_sum   'Rb36 Fe8 S28'
_cell_volume   2337.27411134
_cell_formula_units_Z   4
loop_
 _symmetry_equiv_pos_site_id
 _symmetry_equiv_pos_as_xyz
  1  'x, y, z'
loop_
 _atom_site_type_symbol
 _atom_site_label
 _atom_site_symmetry_multiplicity
 _atom_site_fract_x
 _atom_site_fract_y
 _atom_site_fract_z
 _atom_site_occupancy
  S  S0  1  0.202020  0.297980  0.702020  1
  S  S1  1  0.297980  0.702020  0.202020  1
  S  S2  1  0.702020  0.202020  0.297980  1
  S  S3  1  0.797980  0.797980  0.797980  1
  S  S4  1  0.421458  0.947964  0.813242  1
  S  S5  1  0.921458  0.552036  0.186758  1
  S  S6  1  0.578542  0.447964  0.686758  1
  S  S7  1  0.552036  0.186758  0.921458  1
  S  S8  1  0.686758  0.578542  0.447964  1
  S  S9  1  0.186758  0.921458  0.552036  1
  S  S10  1  0.947964  0.813242  0.421458  1
  S  S11  1  0.813242  0.421458  0.947964  1
  S  S12  1  0.447964  0.686758  0.578542  1
  S  S13  1  0.052036  0.313242  0.078542  1
  S  S14  1  0.313242  0.078542  0.052036  1
  S  S15  1  0.078542  0.052036  0.313242  1
  S  S16  1  0.588772  0.937015  0.336933  1
  S  S17  1  0.088772  0.562985  0.663067  1
  S  S18  1  0.911228  0.062985  0.836933  1
  S  S19  1  0.562985  0.663067  0.088772  1
  S  S20  1  0.163067  0.411228  0.437015  1
  S  S21  1  0.663067  0.088772  0.562985  1
  S  S22  1  0.937015  0.336933  0.588772  1
  S  S23  1  0.336933  0.588772  0.937015  1
  S  S24  1  0.437015  0.163067  0.411228  1
  S  S25  1  0.062985  0.836933  0.911228  1
  S  S26  1  0.836933  0.911228  0.062985  1
  S  S27  1  0.411228  0.437015  0.163067  1
  Fe  Fe28  1  0.099392  0.400608  0.599392  1
  Fe  Fe29  1  0.400608  0.599392  0.099392  1
  Fe  Fe30  1  0.599392  0.099392  0.400608  1
  Fe  Fe31  1  0.900608  0.900608  0.900608  1
  Fe  Fe32  1  0.427576  0.072424  0.927576  1
  Fe  Fe33  1  0.072424  0.927576  0.427576  1
  Fe  Fe34  1  0.927576  0.427576  0.072424  1
  Fe  Fe35  1  0.572424  0.572424  0.572424  1
  Rb  Rb36  1  0.956550  0.290424  0.324184  1
  Rb  Rb37  1  0.558114  0.441886  0.941886  1
  Rb  Rb38  1  0.441886  0.941886  0.558114  1
  Rb  Rb39  1  0.058114  0.058114  0.058114  1
  Rb  Rb40  1  0.764437  0.735563  0.264437  1
  Rb  Rb41  1  0.735563  0.264437  0.764437  1
  Rb  Rb42  1  0.264437  0.764437  0.735563  1
  Rb  Rb43  1  0.235563  0.235563  0.235563  1
  Rb  Rb44  1  0.586094  0.913906  0.086094  1
  Rb  Rb45  1  0.913906  0.086094  0.586094  1
  Rb  Rb46  1  0.086094  0.586094  0.913906  1
  Rb  Rb47  1  0.413906  0.413906  0.413906  1
  Rb  Rb48  1  0.324184  0.956550  0.290424  1
  Rb  Rb49  1  0.824184  0.543450  0.709576  1
  Rb  Rb50  1  0.675816  0.456550  0.209576  1
  Rb  Rb51  1  0.543450  0.709576  0.824184  1
  Rb  Rb52  1  0.209576  0.675816  0.456550  1
  Rb  Rb53  1  0.709576  0.824184  0.543450  1
  Rb  Rb54  1  0.941886  0.558114  0.441886  1
  Rb  Rb55  1  0.290424  0.324184  0.956550  1
  Rb  Rb56  1  0.456550  0.209576  0.675816  1
  Rb  Rb57  1  0.043450  0.790424  0.175816  1
  Rb  Rb58  1  0.790424  0.175816  0.043450  1
  Rb  Rb59  1  0.175816  0.043450  0.790424  1
  Rb  Rb60  1  0.666303  0.999102  0.797800  1
  Rb  Rb61  1  0.166303  0.500898  0.202200  1
  Rb  Rb62  1  0.333697  0.499102  0.702200  1
  Rb  Rb63  1  0.500898  0.202200  0.166303  1
  Rb  Rb64  1  0.702200  0.333697  0.499102  1
  Rb  Rb65  1  0.202200  0.166303  0.500898  1
  Rb  Rb66  1  0.999102  0.797800  0.666303  1
  Rb  Rb67  1  0.797800  0.666303  0.999102  1
  Rb  Rb68  1  0.499102  0.702200  0.333697  1
  Rb  Rb69  1  0.000898  0.297800  0.833697  1
  Rb  Rb70  1  0.297800  0.833697  0.000898  1
  Rb  Rb71  1  0.833697  0.000898  0.297800  1
