# generated using pymatgen
data_CsHo3Te5
_symmetry_space_group_name_H-M   'P 1'
_cell_length_a   4.41002277
_cell_length_b   13.19676950
_cell_length_c   23.81560412
_cell_angle_alpha   90.00000000
_cell_angle_beta   90.00000000
_cell_angle_gamma   90.00000000
_symmetry_Int_Tables_number   1
_chemical_formula_structural   CsHo3Te5
_chemical_formula_sum   'Cs4 Ho12 Te20'
_cell_volume   1386.02181427
_cell_formula_units_Z   4
loop_
 _symmetry_equiv_pos_site_id
 _symmetry_equiv_pos_as_xyz
  1  'x, y, z'
loop_
 _atom_site_type_symbol
 _atom_site_label
 _atom_site_symmetry_multiplicity
 _atom_site_fract_x
 _atom_site_fract_y
 _atom_site_fract_z
 _atom_site_occupancy
  Te  Te0  1  0.250000  0.443939  0.568843  1
  Te  Te1  1  0.750000  0.556061  0.431157  1
  Te  Te2  1  0.750000  0.943939  0.931157  1
  Te  Te3  1  0.250000  0.056061  0.068843  1
  Te  Te4  1  0.250000  0.769227  0.546997  1
  Te  Te5  1  0.750000  0.230773  0.453003  1
  Te  Te6  1  0.750000  0.269227  0.953003  1
  Te  Te7  1  0.250000  0.730773  0.046997  1
  Te  Te8  1  0.250000  0.797708  0.803143  1
  Te  Te9  1  0.750000  0.202292  0.196857  1
  Te  Te10  1  0.750000  0.297708  0.696857  1
  Te  Te11  1  0.250000  0.702292  0.303143  1
  Te  Te12  1  0.250000  0.454384  0.825730  1
  Te  Te13  1  0.750000  0.545616  0.174270  1
  Te  Te14  1  0.750000  0.954384  0.674270  1
  Te  Te15  1  0.250000  0.045616  0.325730  1
  Te  Te16  1  0.250000  0.375290  0.313768  1
  Te  Te17  1  0.750000  0.624710  0.686232  1
  Te  Te18  1  0.750000  0.875290  0.186232  1
  Te  Te19  1  0.250000  0.124710  0.813768  1
  Cs  Cs20  1  0.250000  0.354046  0.089177  1
  Cs  Cs21  1  0.750000  0.645954  0.910823  1
  Cs  Cs22  1  0.750000  0.854046  0.410823  1
  Cs  Cs23  1  0.250000  0.145954  0.589177  1
  Ho  Ho24  1  0.250000  0.453832  0.697610  1
  Ho  Ho25  1  0.750000  0.546168  0.302390  1
  Ho  Ho26  1  0.750000  0.953832  0.802390  1
  Ho  Ho27  1  0.250000  0.046168  0.197610  1
  Ho  Ho28  1  0.250000  0.796782  0.674842  1
  Ho  Ho29  1  0.750000  0.203218  0.325158  1
  Ho  Ho30  1  0.750000  0.296782  0.825158  1
  Ho  Ho31  1  0.250000  0.703218  0.174842  1
  Ho  Ho32  1  0.250000  0.392129  0.444379  1
  Ho  Ho33  1  0.750000  0.607871  0.555621  1
  Ho  Ho34  1  0.750000  0.892129  0.055621  1
  Ho  Ho35  1  0.250000  0.107871  0.944379  1
