# generated using pymatgen
data_Mg2Co12P7
_symmetry_space_group_name_H-M   'P 1'
_cell_length_a   8.96811337
_cell_length_b   8.96811337
_cell_length_c   3.46778550
_cell_angle_alpha   90.00000000
_cell_angle_beta   90.00000000
_cell_angle_gamma   119.99999999
_symmetry_Int_Tables_number   1
_chemical_formula_structural   Mg2Co12P7
_chemical_formula_sum   'Mg2 Co12 P7'
_cell_volume   241.53776182
_cell_formula_units_Z   1
loop_
 _symmetry_equiv_pos_site_id
 _symmetry_equiv_pos_as_xyz
  1  'x, y, z'
loop_
 _atom_site_type_symbol
 _atom_site_label
 _atom_site_symmetry_multiplicity
 _atom_site_fract_x
 _atom_site_fract_y
 _atom_site_fract_z
 _atom_site_occupancy
  Mg  Mg0  1  0.333333  0.666667  0.000000  1
  Mg  Mg1  1  0.666667  0.333333  0.500000  1
  P  P2  1  0.594550  0.707676  0.500000  1
  P  P3  1  0.292324  0.886874  0.500000  1
  P  P4  1  0.113126  0.405450  0.500000  1
  P  P5  1  0.709659  0.115614  0.000000  1
  P  P6  1  0.884386  0.594045  0.000000  1
  P  P7  1  0.405955  0.290341  0.000000  1
  P  P8  1  0.000000  0.000000  0.000000  1
  Co  Co9  1  0.381961  0.442147  0.500000  1
  Co  Co10  1  0.060186  0.618039  0.500000  1
  Co  Co11  1  0.239326  0.105484  0.500000  1
  Co  Co12  1  0.866159  0.760674  0.500000  1
  Co  Co13  1  0.894516  0.133842  0.500000  1
  Co  Co14  1  0.725551  0.878626  0.000000  1
  Co  Co15  1  0.121374  0.846925  0.000000  1
  Co  Co16  1  0.153075  0.274449  0.000000  1
  Co  Co17  1  0.933659  0.376751  0.000000  1
  Co  Co18  1  0.623249  0.556908  0.000000  1
  Co  Co19  1  0.443092  0.066341  0.000000  1
  Co  Co20  1  0.557853  0.939814  0.500000  1
