# generated using pymatgen
data_TeMo2Se2S
_symmetry_space_group_name_H-M   'P 1'
_cell_length_a   3.34465138
_cell_length_b   3.34463159
_cell_length_c   38.00496091
_cell_angle_alpha   90.00010402
_cell_angle_beta   90.00000000
_cell_angle_gamma   120.00019573
_symmetry_Int_Tables_number   1
_chemical_formula_structural   TeMo2Se2S
_chemical_formula_sum   'Te2 Mo4 Se4 S2'
_cell_volume   368.18764375
_cell_formula_units_Z   2
loop_
 _symmetry_equiv_pos_site_id
 _symmetry_equiv_pos_as_xyz
  1  'x, y, z'
loop_
 _atom_site_type_symbol
 _atom_site_label
 _atom_site_symmetry_multiplicity
 _atom_site_fract_x
 _atom_site_fract_y
 _atom_site_fract_z
 _atom_site_occupancy
  Te  Te0  1  0.333361  0.666722  0.707436  1
  Te  Te1  1  0.333349  0.666699  0.607674  1
  Mo  Mo2  1  0.333309  0.666618  0.093910  1
  Mo  Mo3  1  0.333308  0.666616  0.469634  1
  Mo  Mo4  1  0.666701  0.333402  0.281792  1
  Mo  Mo5  1  0.666690  0.333379  0.657580  1
  Se  Se6  1  0.666646  0.333290  0.050110  1
  Se  Se7  1  0.666648  0.333295  0.425817  1
  Se  Se8  1  0.666647  0.333293  0.137741  1
  Se  Se9  1  0.666648  0.333295  0.513459  1
  S  S10  1  0.333348  0.666697  0.321762  1
  S  S11  1  0.333346  0.666693  0.241834  1
