# generated using pymatgen
data_LaMnO3
_symmetry_space_group_name_H-M   'P 1'
_cell_length_a   5.56283344
_cell_length_b   5.56283345
_cell_length_c   5.56283345
_cell_angle_alpha   61.01561009
_cell_angle_beta   61.01561005
_cell_angle_gamma   61.01561004
_symmetry_Int_Tables_number   1
_chemical_formula_structural   LaMnO3
_chemical_formula_sum   'La2 Mn2 O6'
_cell_volume   124.50745150
_cell_formula_units_Z   2
loop_
 _symmetry_equiv_pos_site_id
 _symmetry_equiv_pos_as_xyz
  1  'x, y, z'
loop_
 _atom_site_type_symbol
 _atom_site_label
 _atom_site_symmetry_multiplicity
 _atom_site_fract_x
 _atom_site_fract_y
 _atom_site_fract_z
 _atom_site_occupancy
  O  O0  1  0.322552  0.750001  0.177448  1
  O  O1  1  0.750000  0.177449  0.322553  1
  O  O2  1  0.177447  0.322552  0.750001  1
  O  O3  1  0.677448  0.249999  0.822553  1
  O  O4  1  0.822551  0.677448  0.250001  1
  O  O5  1  0.250001  0.822552  0.677448  1
  Mn  Mn6  1  0.500001  0.499999  0.500001  1
  Mn  Mn7  1  0.000000  0.000000  0.000000  1
  La  La8  1  0.749999  0.750001  0.750001  1
  La  La9  1  0.249999  0.250000  0.250001  1
