# generated using pymatgen
data_VO2
_symmetry_space_group_name_H-M   'P 1'
_cell_length_a   5.15044264
_cell_length_b   5.48363799
_cell_length_c   9.21873736
_cell_angle_alpha   89.42372353
_cell_angle_beta   90.00171079
_cell_angle_gamma   90.00365338
_symmetry_Int_Tables_number   1
_chemical_formula_structural   VO2
_chemical_formula_sum   'V8 O16'
_cell_volume   260.35313145
_cell_formula_units_Z   8
loop_
 _symmetry_equiv_pos_site_id
 _symmetry_equiv_pos_as_xyz
  1  'x, y, z'
loop_
 _atom_site_type_symbol
 _atom_site_label
 _atom_site_symmetry_multiplicity
 _atom_site_fract_x
 _atom_site_fract_y
 _atom_site_fract_z
 _atom_site_occupancy
  V  V0  1  0.631185  0.110345  0.630495  1
  V  V1  1  0.357151  0.402435  0.126776  1
  V  V2  1  0.857149  0.597508  0.373130  1
  V  V3  1  0.131222  0.889737  0.869601  1
  V  V4  1  0.368857  0.889583  0.369604  1
  V  V5  1  0.642891  0.597703  0.873140  1
  V  V6  1  0.142752  0.402339  0.626782  1
  V  V7  1  0.868833  0.110357  0.130543  1
  O  O8  1  0.328924  0.150346  0.515335  1
  O  O9  1  0.686591  0.355401  0.004143  1
  O  O10  1  0.186681  0.644569  0.495779  1
  O  O11  1  0.828989  0.849551  0.984710  1
  O  O12  1  0.671013  0.849493  0.484714  1
  O  O13  1  0.313427  0.644875  0.995920  1
  O  O14  1  0.813319  0.355195  0.504068  1
  O  O15  1  0.170957  0.150569  0.015298  1
  O  O16  1  0.954593  0.112815  0.725298  1
  O  O17  1  0.038549  0.388712  0.230421  1
  O  O18  1  0.538585  0.611214  0.269570  1
  O  O19  1  0.454630  0.887260  0.774748  1
  O  O20  1  0.045410  0.887100  0.274660  1
  O  O21  1  0.961503  0.611246  0.769579  1
  O  O22  1  0.461424  0.388857  0.730361  1
  O  O23  1  0.545367  0.112792  0.225326  1
