# generated using pymatgen
data_Mg(InSe2)2
_symmetry_space_group_name_H-M   'P 1'
_cell_length_a   13.69373458
_cell_length_b   27.34668679
_cell_length_c   40.61441555
_cell_angle_alpha   11.60005918
_cell_angle_beta   15.46802202
_cell_angle_gamma   17.44226711
_symmetry_Int_Tables_number   1
_chemical_formula_structural   Mg(InSe2)2
_chemical_formula_sum   'Mg4 In8 Se16'
_cell_volume   801.54701943
_cell_formula_units_Z   4
loop_
 _symmetry_equiv_pos_site_id
 _symmetry_equiv_pos_as_xyz
  1  'x, y, z'
loop_
 _atom_site_type_symbol
 _atom_site_label
 _atom_site_symmetry_multiplicity
 _atom_site_fract_x
 _atom_site_fract_y
 _atom_site_fract_z
 _atom_site_occupancy
  Mg  Mg0  1  0.995971  0.998417  0.002045  1
  Mg  Mg1  1  0.233581  0.058785  0.116943  1
  Mg  Mg2  1  0.004029  0.251583  0.497955  1
  Mg  Mg3  1  0.766419  0.191215  0.383057  1
  In  In4  1  0.993272  0.490924  0.008193  1
  In  In5  1  0.239845  0.563481  0.111975  1
  In  In6  1  0.224907  0.309880  0.619434  1
  In  In7  1  0.006728  0.759076  0.491807  1
  In  In8  1  0.760155  0.686519  0.388025  1
  In  In9  1  0.237560  0.802146  0.619766  1
  In  In10  1  0.762440  0.447854  0.880234  1
  In  In11  1  0.775093  0.940120  0.880566  1
  Se  Se12  1  0.126835  0.030981  0.064193  1
  Se  Se13  1  0.306510  0.073992  0.146298  1
  Se  Se14  1  0.124322  0.528381  0.066361  1
  Se  Se15  1  0.290434  0.576498  0.150680  1
  Se  Se16  1  0.693490  0.176008  0.353702  1
  Se  Se17  1  0.132136  0.281424  0.561692  1
  Se  Se18  1  0.873165  0.219019  0.435807  1
  Se  Se19  1  0.303476  0.321253  0.650197  1
  Se  Se20  1  0.709565  0.673502  0.349320  1
  Se  Se21  1  0.125308  0.786110  0.560934  1
  Se  Se22  1  0.875678  0.721619  0.433639  1
  Se  Se23  1  0.292032  0.828345  0.648852  1
  Se  Se24  1  0.707968  0.421655  0.851148  1
  Se  Se25  1  0.874692  0.463890  0.939066  1
  Se  Se26  1  0.696524  0.928747  0.849803  1
  Se  Se27  1  0.867864  0.968576  0.938308  1
