# generated using pymatgen
data_Te2W
_symmetry_space_group_name_H-M   'P 1'
_cell_length_a   3.55691810
_cell_length_b   3.55653675
_cell_length_c   32.58847765
_cell_angle_alpha   90.00000000
_cell_angle_beta   90.00000000
_cell_angle_gamma   120.00354705
_symmetry_Int_Tables_number   1
_chemical_formula_structural   Te2W
_chemical_formula_sum   'Te6 W3'
_cell_volume   357.00997201
_cell_formula_units_Z   3
loop_
 _symmetry_equiv_pos_site_id
 _symmetry_equiv_pos_as_xyz
  1  'x, y, z'
loop_
 _atom_site_type_symbol
 _atom_site_label
 _atom_site_symmetry_multiplicity
 _atom_site_fract_x
 _atom_site_fract_y
 _atom_site_fract_z
 _atom_site_occupancy
  Te  Te0  1  0.333343  0.666688  0.402719  1
  Te  Te1  1  0.666656  0.333311  0.059936  1
  Te  Te2  1  0.666656  0.333311  0.522561  1
  Te  Te3  1  0.666656  0.333311  0.171404  1
  Te  Te4  1  0.666656  0.333311  0.634028  1
  Te  Te5  1  0.333343  0.666688  0.291246  1
  W  W6  1  0.333291  0.666581  0.115638  1
  W  W7  1  0.333291  0.666581  0.578327  1
  W  W8  1  0.666709  0.333419  0.346982  1
