# generated using pymatgen
data_SmCd(BO2)5
_symmetry_space_group_name_H-M   'P 1'
_cell_length_a   7.98028698
_cell_length_b   8.70857805
_cell_length_c   9.63746191
_cell_angle_alpha   92.05071965
_cell_angle_beta   90.00000000
_cell_angle_gamma   90.00000000
_symmetry_Int_Tables_number   1
_chemical_formula_structural   SmCd(BO2)5
_chemical_formula_sum   'Sm4 Cd4 B20 O40'
_cell_volume   669.34526544
_cell_formula_units_Z   4
loop_
 _symmetry_equiv_pos_site_id
 _symmetry_equiv_pos_as_xyz
  1  'x, y, z'
loop_
 _atom_site_type_symbol
 _atom_site_label
 _atom_site_symmetry_multiplicity
 _atom_site_fract_x
 _atom_site_fract_y
 _atom_site_fract_z
 _atom_site_occupancy
  B  B0  1  0.426203  0.083844  0.752185  1
  B  B1  1  0.825383  0.565265  0.094451  1
  B  B2  1  0.325383  0.934735  0.405549  1
  B  B3  1  0.174618  0.434735  0.905549  1
  B  B4  1  0.674617  0.065265  0.594451  1
  B  B5  1  0.105533  0.656326  0.511050  1
  B  B6  1  0.605533  0.843674  0.988950  1
  B  B7  1  0.894467  0.343674  0.488950  1
  B  B8  1  0.394467  0.156326  0.011050  1
  B  B9  1  0.926203  0.416156  0.747815  1
  B  B10  1  0.573797  0.916156  0.247815  1
  B  B11  1  0.073797  0.583844  0.252185  1
  B  B12  1  0.676185  0.517188  0.594809  1
  B  B13  1  0.176185  0.982812  0.905191  1
  B  B14  1  0.323815  0.482812  0.405191  1
  B  B15  1  0.823815  0.017188  0.094809  1
  B  B16  1  0.469651  0.279153  0.558212  1
  B  B17  1  0.969651  0.220847  0.941788  1
  B  B18  1  0.530349  0.720847  0.441788  1
  B  B19  1  0.030349  0.779153  0.058212  1
  O  O20  1  0.794635  0.532761  0.717690  1
  O  O21  1  0.329124  0.505929  0.919436  1
  O  O22  1  0.829124  0.994071  0.580564  1
  O  O23  1  0.670876  0.494071  0.080564  1
  O  O24  1  0.170876  0.005929  0.419436  1
  O  O25  1  0.559921  0.753798  0.876658  1
  O  O26  1  0.059921  0.746202  0.623342  1
  O  O27  1  0.440079  0.246202  0.123342  1
  O  O28  1  0.294635  0.967239  0.782310  1
  O  O29  1  0.940079  0.253798  0.376658  1
  O  O30  1  0.705365  0.032761  0.217690  1
  O  O31  1  0.205365  0.467239  0.282310  1
  O  O32  1  0.467884  0.170875  0.883459  1
  O  O33  1  0.967884  0.329125  0.616541  1
  O  O34  1  0.532116  0.829125  0.116541  1
  O  O35  1  0.032116  0.670875  0.383459  1
  O  O36  1  0.581375  0.009309  0.702391  1
  O  O37  1  0.081375  0.490691  0.797609  1
  O  O38  1  0.418625  0.990691  0.297609  1
  O  O39  1  0.918625  0.509309  0.202391  1
  O  O40  1  0.362267  0.190579  0.649501  1
  O  O41  1  0.862267  0.309421  0.850499  1
  O  O42  1  0.637733  0.809421  0.350499  1
  O  O43  1  0.137733  0.690579  0.149501  1
  O  O44  1  0.533878  0.418815  0.637218  1
  O  O45  1  0.033878  0.081185  0.862782  1
  O  O46  1  0.466122  0.581185  0.362782  1
  O  O47  1  0.966122  0.918815  0.137218  1
  O  O48  1  0.616081  0.676013  0.573020  1
  O  O49  1  0.116081  0.823987  0.926980  1
  O  O50  1  0.383919  0.323987  0.426980  1
  O  O51  1  0.882919  0.679770  0.012132  1
  O  O52  1  0.765791  0.450202  0.472924  1
  O  O53  1  0.265791  0.049798  0.027076  1
  O  O54  1  0.234209  0.549798  0.527076  1
  O  O55  1  0.734209  0.950202  0.972924  1
  O  O56  1  0.617081  0.179770  0.512132  1
  O  O57  1  0.117081  0.320230  0.987868  1
  O  O58  1  0.382919  0.820230  0.487868  1
  O  O59  1  0.883919  0.176013  0.073020  1
  Cd  Cd60  1  0.594955  0.398170  0.871258  1
  Cd  Cd61  1  0.094955  0.101830  0.628742  1
  Cd  Cd62  1  0.405045  0.601830  0.128742  1
  Cd  Cd63  1  0.905045  0.898170  0.371258  1
  Sm  Sm64  1  0.816909  0.807655  0.759691  1
  Sm  Sm65  1  0.316909  0.692345  0.740309  1
  Sm  Sm66  1  0.183091  0.192345  0.240309  1
  Sm  Sm67  1  0.683091  0.307655  0.259691  1
