# generated using pymatgen
data_La(GeRu)2
_symmetry_space_group_name_H-M   'P 1'
_cell_length_a   4.32956445
_cell_length_b   4.32956444
_cell_length_c   5.94535063
_cell_angle_alpha   111.35303407
_cell_angle_beta   111.35303404
_cell_angle_gamma   89.99999991
_symmetry_Int_Tables_number   1
_chemical_formula_structural   La(GeRu)2
_chemical_formula_sum   'La1 Ge2 Ru2'
_cell_volume   95.53513047
_cell_formula_units_Z   1
loop_
 _symmetry_equiv_pos_site_id
 _symmetry_equiv_pos_as_xyz
  1  'x, y, z'
loop_
 _atom_site_type_symbol
 _atom_site_label
 _atom_site_symmetry_multiplicity
 _atom_site_fract_x
 _atom_site_fract_y
 _atom_site_fract_z
 _atom_site_occupancy
  Ge  Ge0  1  0.635453  0.635453  0.270907  1
  Ge  Ge1  1  0.364547  0.364547  0.729093  1
  Ru  Ru2  1  0.750000  0.250000  0.500000  1
  Ru  Ru3  1  0.250000  0.750000  0.500000  1
  La  La4  1  0.000000  0.000000  0.000000  1
