# generated using pymatgen
data_TeMoWSeS2
_symmetry_space_group_name_H-M   'P 1'
_cell_length_a   3.30627879
_cell_length_b   3.30626739
_cell_length_c   39.14849445
_cell_angle_alpha   90.00048628
_cell_angle_beta   90.00000000
_cell_angle_gamma   120.00011399
_symmetry_Int_Tables_number   1
_chemical_formula_structural   TeMoWSeS2
_chemical_formula_sum   'Te2 Mo2 W2 Se2 S4'
_cell_volume   370.61470081
_cell_formula_units_Z   2
loop_
 _symmetry_equiv_pos_site_id
 _symmetry_equiv_pos_as_xyz
  1  'x, y, z'
loop_
 _atom_site_type_symbol
 _atom_site_label
 _atom_site_symmetry_multiplicity
 _atom_site_fract_x
 _atom_site_fract_y
 _atom_site_fract_z
 _atom_site_occupancy
  Te  Te0  1  0.666604  0.333207  0.420171  1
  Te  Te1  1  0.666626  0.333251  0.517895  1
  Mo  Mo2  1  0.333364  0.666729  0.093910  1
  Mo  Mo3  1  0.333271  0.666541  0.469049  1
  W  W4  1  0.666659  0.333318  0.281248  1
  W  W5  1  0.666671  0.333343  0.658735  1
  Se  Se6  1  0.333356  0.666713  0.701887  1
  Se  Se7  1  0.333334  0.666669  0.615549  1
  S  S8  1  0.333335  0.666671  0.320438  1
  S  S9  1  0.666725  0.333450  0.054857  1
  S  S10  1  0.666735  0.333469  0.132967  1
  S  S11  1  0.333319  0.666639  0.242041  1
