# generated using pymatgen
data_TeMoWSeS2
_symmetry_space_group_name_H-M   'P 1'
_cell_length_a   3.30626982
_cell_length_b   3.30622511
_cell_length_c   38.64139797
_cell_angle_alpha   90.00518497
_cell_angle_beta   90.00000000
_cell_angle_gamma   120.00044729
_symmetry_Int_Tables_number   1
_chemical_formula_structural   TeMoWSeS2
_chemical_formula_sum   'Te2 Mo2 W2 Se2 S4'
_cell_volume   365.80717128
_cell_formula_units_Z   2
loop_
 _symmetry_equiv_pos_site_id
 _symmetry_equiv_pos_as_xyz
  1  'x, y, z'
loop_
 _atom_site_type_symbol
 _atom_site_label
 _atom_site_symmetry_multiplicity
 _atom_site_fract_x
 _atom_site_fract_y
 _atom_site_fract_z
 _atom_site_occupancy
  Te  Te0  1  0.333412  0.666826  0.332090  1
  Te  Te1  1  0.333312  0.666624  0.232481  1
  Mo  Mo2  1  0.333328  0.666655  0.093059  1
  Mo  Mo3  1  0.333222  0.666444  0.470001  1
  W  W4  1  0.666702  0.333403  0.282304  1
  W  W5  1  0.666682  0.333364  0.657596  1
  Se  Se6  1  0.666629  0.333256  0.049545  1
  Se  Se7  1  0.666650  0.333298  0.136565  1
  S  S8  1  0.333390  0.666781  0.697289  1
  S  S9  1  0.666644  0.333287  0.430463  1
  S  S10  1  0.666710  0.333419  0.509474  1
  S  S11  1  0.333320  0.666642  0.617881  1
