# generated using pymatgen
data_MoWSe3S
_symmetry_space_group_name_H-M   'P 1'
_cell_length_a   3.28858266
_cell_length_b   3.28858094
_cell_length_c   37.34337631
_cell_angle_alpha   90.00637544
_cell_angle_beta   90.00000000
_cell_angle_gamma   120.00001734
_symmetry_Int_Tables_number   1
_chemical_formula_structural   MoWSe3S
_chemical_formula_sum   'Mo2 W2 Se6 S2'
_cell_volume   349.75298580
_cell_formula_units_Z   2
loop_
 _symmetry_equiv_pos_site_id
 _symmetry_equiv_pos_as_xyz
  1  'x, y, z'
loop_
 _atom_site_type_symbol
 _atom_site_label
 _atom_site_symmetry_multiplicity
 _atom_site_fract_x
 _atom_site_fract_y
 _atom_site_fract_z
 _atom_site_occupancy
  Mo  Mo0  1  0.333307  0.666614  0.093929  1
  Mo  Mo1  1  0.666696  0.333392  0.281797  1
  W  W2  1  0.333314  0.666627  0.469647  1
  W  W3  1  0.666684  0.333367  0.657552  1
  Se  Se4  1  0.333371  0.666743  0.702953  1
  Se  Se5  1  0.666611  0.333222  0.048789  1
  Se  Se6  1  0.666627  0.333252  0.424252  1
  Se  Se7  1  0.666667  0.333332  0.139062  1
  Se  Se8  1  0.666674  0.333348  0.515051  1
  Se  Se9  1  0.333331  0.666664  0.612118  1
  S  S10  1  0.333365  0.666731  0.322870  1
  S  S11  1  0.333353  0.666707  0.240728  1
