# generated using pymatgen
data_LaGa
_symmetry_space_group_name_H-M   'P 1'
_cell_length_a   4.24860394
_cell_length_b   4.57661014
_cell_length_c   6.24511377
_cell_angle_alpha   111.49470705
_cell_angle_beta   90.00000000
_cell_angle_gamma   90.00000000
_symmetry_Int_Tables_number   1
_chemical_formula_structural   LaGa
_chemical_formula_sum   'La2 Ga2'
_cell_volume   112.98589337
_cell_formula_units_Z   2
loop_
 _symmetry_equiv_pos_site_id
 _symmetry_equiv_pos_as_xyz
  1  'x, y, z'
loop_
 _atom_site_type_symbol
 _atom_site_label
 _atom_site_symmetry_multiplicity
 _atom_site_fract_x
 _atom_site_fract_y
 _atom_site_fract_z
 _atom_site_occupancy
  La  La0  1  0.750000  0.139065  0.278130  1
  La  La1  1  0.250000  0.860935  0.721870  1
  Ga  Ga2  1  0.750000  0.431555  0.863109  1
  Ga  Ga3  1  0.250000  0.568445  0.136891  1
