# generated using pymatgen
data_Te4Mo2WSe2
_symmetry_space_group_name_H-M   'P 1'
_cell_length_a   3.47787568
_cell_length_b   3.47786724
_cell_length_c   31.97565913
_cell_angle_alpha   89.99977486
_cell_angle_beta   90.00000000
_cell_angle_gamma   120.00008031
_symmetry_Int_Tables_number   1
_chemical_formula_structural   Te4Mo2WSe2
_chemical_formula_sum   'Te4 Mo2 W1 Se2'
_cell_volume   334.94757566
_cell_formula_units_Z   1
loop_
 _symmetry_equiv_pos_site_id
 _symmetry_equiv_pos_as_xyz
  1  'x, y, z'
loop_
 _atom_site_type_symbol
 _atom_site_label
 _atom_site_symmetry_multiplicity
 _atom_site_fract_x
 _atom_site_fract_y
 _atom_site_fract_z
 _atom_site_occupancy
  Te  Te0  1  0.666641  0.333281  0.058122  1
  Te  Te1  1  0.666643  0.333286  0.520374  1
  Te  Te2  1  0.666649  0.333298  0.173204  1
  Te  Te3  1  0.666647  0.333293  0.636236  1
  Mo  Mo4  1  0.333311  0.666622  0.115655  1
  Mo  Mo5  1  0.666688  0.333376  0.346978  1
  W  W6  1  0.333313  0.666626  0.578315  1
  Se  Se7  1  0.333354  0.666709  0.397764  1
  Se  Se8  1  0.333354  0.666709  0.296193  1
