# generated using pymatgen
data_CeGa4Co9
_symmetry_space_group_name_H-M   'P 1'
_cell_length_a   8.10432815
_cell_length_b   8.10432815
_cell_length_c   8.10432815
_cell_angle_alpha   121.16678479
_cell_angle_beta   121.16678479
_cell_angle_gamma   87.99067723
_symmetry_Int_Tables_number   1
_chemical_formula_structural   CeGa4Co9
_chemical_formula_sum   'Ce2 Ga8 Co18'
_cell_volume   369.50355445
_cell_formula_units_Z   2
loop_
 _symmetry_equiv_pos_site_id
 _symmetry_equiv_pos_as_xyz
  1  'x, y, z'
loop_
 _atom_site_type_symbol
 _atom_site_label
 _atom_site_symmetry_multiplicity
 _atom_site_fract_x
 _atom_site_fract_y
 _atom_site_fract_z
 _atom_site_occupancy
  Ce  Ce0  1  0.750000  0.750000  -0.000000  1
  Ce  Ce1  1  0.250000  0.250000  -0.000000  1
  Ga  Ga2  1  0.804929  0.304928  0.861446  1
  Ga  Ga3  1  0.443482  0.943483  0.138555  1
  Ga  Ga4  1  0.695073  0.556518  0.500000  1
  Ga  Ga5  1  0.056517  0.195072  0.500000  1
  Ga  Ga6  1  0.195073  0.695073  0.138555  1
  Ga  Ga7  1  0.556517  0.056517  0.861446  1
  Ga  Ga8  1  0.943483  0.804928  0.500000  1
  Ga  Ga9  1  0.304928  0.443483  0.500000  1
  Co  Co10  1  0.200812  0.061604  0.262415  1
  Co  Co11  1  0.799186  0.938397  0.737586  1
  Co  Co12  1  0.299187  0.561603  0.860790  1
  Co  Co13  1  0.700811  0.438396  0.139209  1
  Co  Co14  1  0.438398  0.299187  0.737586  1
  Co  Co15  1  0.561603  0.700811  0.262415  1
  Co  Co16  1  0.938397  0.200812  0.139211  1
  Co  Co17  1  0.061604  0.799187  0.860791  1
  Co  Co18  1  0.499999  -0.000000  0.499999  1
  Co  Co19  1  -0.000000  0.499999  0.499999  1
  Co  Co20  1  0.288650  0.788649  0.726669  1
  Co  Co21  1  0.061980  0.561981  0.273332  1
  Co  Co22  1  0.211351  0.938020  0.499999  1
  Co  Co23  1  0.438021  0.711352  0.500002  1
  Co  Co24  1  0.711352  0.211351  0.273332  1
  Co  Co25  1  0.938020  0.438021  0.726669  1
  Co  Co26  1  0.561981  0.288650  0.500002  1
  Co  Co27  1  0.788649  0.061980  0.499999  1
