# generated using pymatgen
data_Cs2WS4
_symmetry_space_group_name_H-M   'P 1'
_cell_length_a   7.39510547
_cell_length_b   10.39569018
_cell_length_c   13.20640241
_cell_angle_alpha   90.00000000
_cell_angle_beta   90.00000000
_cell_angle_gamma   90.00000000
_symmetry_Int_Tables_number   1
_chemical_formula_structural   Cs2WS4
_chemical_formula_sum   'Cs8 W4 S16'
_cell_volume   1015.27157367
_cell_formula_units_Z   4
loop_
 _symmetry_equiv_pos_site_id
 _symmetry_equiv_pos_as_xyz
  1  'x, y, z'
loop_
 _atom_site_type_symbol
 _atom_site_label
 _atom_site_symmetry_multiplicity
 _atom_site_fract_x
 _atom_site_fract_y
 _atom_site_fract_z
 _atom_site_occupancy
  S  S0  1  0.993097  0.832204  0.144507  1
  S  S1  1  0.493097  0.167796  0.855493  1
  S  S2  1  0.506903  0.332204  0.355493  1
  S  S3  1  0.006903  0.667796  0.644507  1
  S  S4  1  0.006903  0.167796  0.855493  1
  S  S5  1  0.506903  0.832204  0.144507  1
  S  S6  1  0.493097  0.667796  0.644507  1
  S  S7  1  0.993097  0.332204  0.355493  1
  S  S8  1  0.250000  0.464194  0.897372  1
  S  S9  1  0.750000  0.535806  0.102628  1
  S  S10  1  0.250000  0.964194  0.602628  1
  S  S11  1  0.750000  0.035806  0.397372  1
  S  S12  1  0.750000  0.287143  0.588610  1
  S  S13  1  0.250000  0.712857  0.411390  1
  S  S14  1  0.750000  0.787143  0.911390  1
  S  S15  1  0.250000  0.212857  0.088610  1
  Cs  Cs16  1  0.250000  0.346836  0.601066  1
  Cs  Cs17  1  0.750000  0.653164  0.398934  1
  Cs  Cs18  1  0.250000  0.846836  0.898934  1
  Cs  Cs19  1  0.750000  0.153164  0.101066  1
  Cs  Cs20  1  0.250000  0.034025  0.329437  1
  Cs  Cs21  1  0.750000  0.965975  0.670563  1
  Cs  Cs22  1  0.250000  0.534025  0.170563  1
  Cs  Cs23  1  0.750000  0.465975  0.829437  1
  W  W24  1  0.250000  0.254155  0.924370  1
  W  W25  1  0.750000  0.745845  0.075630  1
  W  W26  1  0.250000  0.754155  0.575630  1
  W  W27  1  0.750000  0.245845  0.424370  1
