# generated using pymatgen
data_Ba4SiP4
_symmetry_space_group_name_H-M   'P 1'
_cell_length_a   13.13525901
_cell_length_b   13.13525901
_cell_length_c   13.13525901
_cell_angle_alpha   90.00000000
_cell_angle_beta   90.00000000
_cell_angle_gamma   90.00000000
_symmetry_Int_Tables_number   1
_chemical_formula_structural   Ba4SiP4
_chemical_formula_sum   'Ba32 Si8 P32'
_cell_volume   2266.29229763
_cell_formula_units_Z   8
loop_
 _symmetry_equiv_pos_site_id
 _symmetry_equiv_pos_as_xyz
  1  'x, y, z'
loop_
 _atom_site_type_symbol
 _atom_site_label
 _atom_site_symmetry_multiplicity
 _atom_site_fract_x
 _atom_site_fract_y
 _atom_site_fract_z
 _atom_site_occupancy
  Si  Si0  1  0.500000  0.750000  0.000000  1
  Si  Si1  1  0.500000  0.250000  0.000000  1
  Si  Si2  1  0.000000  0.500000  0.250000  1
  Si  Si3  1  0.000000  0.500000  0.750000  1
  Si  Si4  1  0.250000  0.000000  0.500000  1
  Si  Si5  1  0.500000  0.500000  0.500000  1
  Si  Si6  1  0.000000  0.000000  0.000000  1
  Si  Si7  1  0.750000  0.000000  0.500000  1
  P  P8  1  0.899226  0.391363  0.346049  1
  P  P9  1  0.108637  0.600774  0.846049  1
  P  P10  1  0.600774  0.153951  0.891363  1
  P  P11  1  0.600774  0.846049  0.108637  1
  P  P12  1  0.891363  0.399226  0.846049  1
  P  P13  1  0.399226  0.846049  0.891363  1
  P  P14  1  0.891363  0.600774  0.153951  1
  P  P15  1  0.108637  0.399226  0.153951  1
  P  P16  1  0.399226  0.153951  0.108637  1
  P  P17  1  0.846049  0.108637  0.600774  1
  P  P18  1  0.608637  0.346049  0.100774  1
  P  P19  1  0.153951  0.891363  0.600774  1
  P  P20  1  0.100774  0.391363  0.653951  1
  P  P21  1  0.346049  0.100774  0.608637  1
  P  P22  1  0.346049  0.899226  0.391363  1
  P  P23  1  0.153951  0.108637  0.399226  1
  P  P24  1  0.898523  0.898523  0.898523  1
  P  P25  1  0.601477  0.398523  0.601477  1
  P  P26  1  0.398523  0.601477  0.601477  1
  P  P27  1  0.601477  0.601477  0.398523  1
  P  P28  1  0.898523  0.101477  0.101477  1
  P  P29  1  0.101477  0.101477  0.898523  1
  P  P30  1  0.101477  0.898523  0.101477  1
  P  P31  1  0.398523  0.398523  0.398523  1
  P  P32  1  0.846049  0.891363  0.399226  1
  P  P33  1  0.391363  0.346049  0.899226  1
  P  P34  1  0.608637  0.653951  0.899226  1
  P  P35  1  0.100774  0.608637  0.346049  1
  P  P36  1  0.899226  0.608637  0.653951  1
  P  P37  1  0.653951  0.100774  0.391363  1
  P  P38  1  0.653951  0.899226  0.608637  1
  P  P39  1  0.391363  0.653951  0.100774  1
  Ba  Ba40  1  0.906626  0.867200  0.645847  1
  Ba  Ba41  1  0.906626  0.132800  0.354153  1
  Ba  Ba42  1  0.867200  0.645847  0.906626  1
  Ba  Ba43  1  0.132800  0.645847  0.093374  1
  Ba  Ba44  1  0.645847  0.906626  0.867200  1
  Ba  Ba45  1  0.354153  0.093374  0.867200  1
  Ba  Ba46  1  0.593374  0.854153  0.367200  1
  Ba  Ba47  1  0.593374  0.145847  0.632800  1
  Ba  Ba48  1  0.406626  0.854153  0.632800  1
  Ba  Ba49  1  0.145847  0.632800  0.593374  1
  Ba  Ba50  1  0.632800  0.406626  0.854153  1
  Ba  Ba51  1  0.632800  0.593374  0.145847  1
  Ba  Ba52  1  0.854153  0.367200  0.593374  1
  Ba  Ba53  1  0.367200  0.593374  0.854153  1
  Ba  Ba54  1  0.854153  0.632800  0.406626  1
  Ba  Ba55  1  0.145847  0.367200  0.406626  1
  Ba  Ba56  1  0.367200  0.406626  0.145847  1
  Ba  Ba57  1  0.354153  0.906626  0.132800  1
  Ba  Ba58  1  0.645847  0.093374  0.132800  1
  Ba  Ba59  1  0.867200  0.354153  0.093374  1
  Ba  Ba60  1  0.132800  0.354153  0.906626  1
  Ba  Ba61  1  0.093374  0.132800  0.645847  1
  Ba  Ba62  1  0.093374  0.867200  0.354153  1
  Ba  Ba63  1  0.406626  0.145847  0.367200  1
  Ba  Ba64  1  0.145931  0.145931  0.145931  1
  Ba  Ba65  1  0.354069  0.645931  0.354069  1
  Ba  Ba66  1  0.645931  0.354069  0.354069  1
  Ba  Ba67  1  0.354069  0.354069  0.645931  1
  Ba  Ba68  1  0.145931  0.854069  0.854069  1
  Ba  Ba69  1  0.854069  0.854069  0.145931  1
  Ba  Ba70  1  0.854069  0.145931  0.854069  1
  Ba  Ba71  1  0.645931  0.645931  0.645931  1
