# generated using pymatgen
data_Tm8S11
_symmetry_space_group_name_H-M   'P 1'
_cell_length_a   3.75284507
_cell_length_b   6.61402469
_cell_length_c   35.08501251
_cell_angle_alpha   90.00000000
_cell_angle_beta   90.00000000
_cell_angle_gamma   106.48137133
_symmetry_Int_Tables_number   1
_chemical_formula_structural   Tm8S11
_chemical_formula_sum   'Tm16 S22'
_cell_volume   835.07762761
_cell_formula_units_Z   2
loop_
 _symmetry_equiv_pos_site_id
 _symmetry_equiv_pos_as_xyz
  1  'x, y, z'
loop_
 _atom_site_type_symbol
 _atom_site_label
 _atom_site_symmetry_multiplicity
 _atom_site_fract_x
 _atom_site_fract_y
 _atom_site_fract_z
 _atom_site_occupancy
  S  S0  1  0.396889  0.793778  0.837109  1
  S  S1  1  0.603111  0.206222  0.162891  1
  S  S2  1  0.603111  0.206222  0.337109  1
  S  S3  1  0.396889  0.793778  0.662891  1
  S  S4  1  0.335009  0.670018  0.111629  1
  S  S5  1  0.664991  0.329982  0.888371  1
  S  S6  1  0.664991  0.329982  0.611629  1
  S  S7  1  0.335009  0.670018  0.388371  1
  S  S8  1  0.353105  0.706210  0.016047  1
  S  S9  1  0.646895  0.293790  0.983953  1
  S  S10  1  0.646895  0.293790  0.516047  1
  S  S11  1  0.353105  0.706210  0.483953  1
  S  S12  1  0.114613  0.229227  0.796664  1
  S  S13  1  0.885387  0.770773  0.203336  1
  S  S14  1  0.885387  0.770773  0.296664  1
  S  S15  1  0.114613  0.229227  0.703336  1
  S  S16  1  0.857461  0.714922  0.750000  1
  S  S17  1  0.142539  0.285078  0.250000  1
  S  S18  1  0.090180  0.180360  0.431576  1
  S  S19  1  0.909820  0.819640  0.568424  1
  S  S20  1  0.909820  0.819640  0.931576  1
  S  S21  1  0.090180  0.180360  0.068424  1
  Tm  Tm22  1  0.019026  0.038053  0.632834  1
  Tm  Tm23  1  0.980974  0.961947  0.367166  1
  Tm  Tm24  1  0.980974  0.961947  0.132834  1
  Tm  Tm25  1  0.019026  0.038053  0.867166  1
  Tm  Tm26  1  0.240174  0.480347  0.182954  1
  Tm  Tm27  1  0.759826  0.519653  0.817046  1
  Tm  Tm28  1  0.759826  0.519653  0.682954  1
  Tm  Tm29  1  0.240174  0.480347  0.317046  1
  Tm  Tm30  1  0.257053  0.514107  0.557968  1
  Tm  Tm31  1  0.742947  0.485893  0.442032  1
  Tm  Tm32  1  0.742947  0.485893  0.057968  1
  Tm  Tm33  1  0.257053  0.514107  0.942032  1
  Tm  Tm34  1  0.489422  0.978845  0.250000  1
  Tm  Tm35  1  0.510578  0.021155  0.750000  1
  Tm  Tm36  1  0.000000  0.000000  0.500000  1
  Tm  Tm37  1  0.000000  0.000000  0.000000  1
