# generated using pymatgen
data_CsB(CN)4
_symmetry_space_group_name_H-M   'P 1'
_cell_length_a   7.48570986
_cell_length_b   7.48570986
_cell_length_c   9.50941715
_cell_angle_alpha   113.17834968
_cell_angle_beta   113.17834967
_cell_angle_gamma   89.99999993
_symmetry_Int_Tables_number   1
_chemical_formula_structural   CsB(CN)4
_chemical_formula_sum   'Cs2 B2 C8 N8'
_cell_volume   442.68709176
_cell_formula_units_Z   2
loop_
 _symmetry_equiv_pos_site_id
 _symmetry_equiv_pos_as_xyz
  1  'x, y, z'
loop_
 _atom_site_type_symbol
 _atom_site_label
 _atom_site_symmetry_multiplicity
 _atom_site_fract_x
 _atom_site_fract_y
 _atom_site_fract_z
 _atom_site_occupancy
  B  B0  1  0.125000  0.375000  0.250000  1
  B  B1  1  0.875000  0.625000  0.750000  1
  C  C2  1  0.213284  0.415559  0.136127  1
  C  C3  1  0.720568  0.713284  0.636127  1
  C  C4  1  0.915559  0.422843  0.636127  1
  C  C5  1  0.922843  0.220568  0.136127  1
  C  C6  1  0.786716  0.584441  0.863873  1
  C  C7  1  0.279432  0.286716  0.363873  1
  C  C8  1  0.084441  0.577157  0.363873  1
  C  C9  1  0.077157  0.779432  0.863873  1
  N  N10  1  0.282239  0.448679  0.056338  1
  N  N11  1  0.607660  0.782239  0.556338  1
  N  N12  1  0.948679  0.274100  0.556338  1
  N  N13  1  0.774100  0.107660  0.056338  1
  N  N14  1  0.717761  0.551321  0.943662  1
  N  N15  1  0.392340  0.217761  0.443662  1
  N  N16  1  0.051321  0.725900  0.443662  1
  N  N17  1  0.225900  0.892340  0.943662  1
  Cs  Cs18  1  0.625000  0.875000  0.250000  1
  Cs  Cs19  1  0.375000  0.125000  0.750000  1
