# generated using pymatgen
data_Dy2Si5Rh3
_symmetry_space_group_name_H-M   'P 1'
_cell_length_a   5.74546559
_cell_length_b   8.16437517
_cell_length_c   8.16437517
_cell_angle_alpha   74.59458056
_cell_angle_beta   69.39875868
_cell_angle_gamma   69.39875864
_symmetry_Int_Tables_number   1
_chemical_formula_structural   Dy2Si5Rh3
_chemical_formula_sum   'Dy4 Si10 Rh6'
_cell_volume   331.13459224
_cell_formula_units_Z   2
loop_
 _symmetry_equiv_pos_site_id
 _symmetry_equiv_pos_as_xyz
  1  'x, y, z'
loop_
 _atom_site_type_symbol
 _atom_site_label
 _atom_site_symmetry_multiplicity
 _atom_site_fract_x
 _atom_site_fract_y
 _atom_site_fract_z
 _atom_site_occupancy
  Si  Si0  1  0.105262  0.736751  0.052726  1
  Si  Si1  1  0.894738  0.263249  0.947274  1
  Si  Si2  1  0.394738  0.947274  0.263249  1
  Si  Si3  1  0.605262  0.052726  0.736751  1
  Si  Si4  1  0.028895  0.221105  0.221105  1
  Si  Si5  1  0.471105  0.778895  0.778895  1
  Si  Si6  1  0.971105  0.778895  0.778895  1
  Si  Si7  1  0.750000  0.500000  0.500000  1
  Si  Si8  1  0.250000  0.500000  0.500000  1
  Si  Si9  1  0.528895  0.221105  0.221105  1
  Rh  Rh10  1  0.750000  0.000000  0.000000  1
  Rh  Rh11  1  0.859669  0.531486  0.749176  1
  Rh  Rh12  1  0.359669  0.749176  0.531486  1
  Rh  Rh13  1  0.640331  0.250824  0.468514  1
  Rh  Rh14  1  0.250000  0.000000  0.000000  1
  Rh  Rh15  1  0.140331  0.468514  0.250824  1
  Dy  Dy16  1  0.368379  0.400328  0.862914  1
  Dy  Dy17  1  0.631621  0.599672  0.137086  1
  Dy  Dy18  1  0.131621  0.137086  0.599672  1
  Dy  Dy19  1  0.868379  0.862914  0.400328  1
