# generated using pymatgen
data_V2Cd(PO5)2
_symmetry_space_group_name_H-M   'P 1'
_cell_length_a   5.24631762
_cell_length_b   8.10607491
_cell_length_c   17.48949582
_cell_angle_alpha   90.00000000
_cell_angle_beta   92.97839462
_cell_angle_gamma   90.00000000
_symmetry_Int_Tables_number   1
_chemical_formula_structural   V2Cd(PO5)2
_chemical_formula_sum   'V8 Cd4 P8 O40'
_cell_volume   742.77185708
_cell_formula_units_Z   4
loop_
 _symmetry_equiv_pos_site_id
 _symmetry_equiv_pos_as_xyz
  1  'x, y, z'
loop_
 _atom_site_type_symbol
 _atom_site_label
 _atom_site_symmetry_multiplicity
 _atom_site_fract_x
 _atom_site_fract_y
 _atom_site_fract_z
 _atom_site_occupancy
  O  O0  1  0.323250  0.392065  0.950251  1
  O  O1  1  0.676750  0.892065  0.549749  1
  O  O2  1  0.676752  0.607935  0.049749  1
  O  O3  1  0.323249  0.107935  0.450251  1
  O  O4  1  0.671310  0.647061  0.905497  1
  O  O5  1  0.328690  0.147061  0.594503  1
  O  O6  1  0.328689  0.352939  0.094503  1
  O  O7  1  0.671310  0.852939  0.405497  1
  O  O8  1  0.695199  0.483636  0.764622  1
  O  O9  1  0.304801  0.983636  0.735378  1
  O  O10  1  0.304800  0.516365  0.235379  1
  O  O11  1  0.695199  0.016364  0.264622  1
  O  O12  1  0.319391  0.257238  0.799634  1
  O  O13  1  0.680609  0.757238  0.700366  1
  O  O14  1  0.419026  0.513365  0.641409  1
  O  O15  1  0.319390  0.242762  0.299633  1
  O  O16  1  0.228924  0.593435  0.819352  1
  O  O17  1  0.771076  0.093435  0.680647  1
  O  O18  1  0.771076  0.406566  0.180647  1
  O  O19  1  0.228924  0.906566  0.319353  1
  O  O20  1  0.211984  0.690491  0.110389  1
  O  O21  1  0.788015  0.190491  0.389611  1
  O  O22  1  0.788015  0.309509  0.889612  1
  O  O23  1  0.211985  0.809509  0.610389  1
  O  O24  1  0.863948  0.864096  0.989269  1
  O  O25  1  0.136051  0.364096  0.510731  1
  O  O26  1  0.136051  0.135903  0.010731  1
  O  O27  1  0.863948  0.635903  0.489269  1
  O  O28  1  0.908529  0.985096  0.142296  1
  O  O29  1  0.091472  0.485096  0.357704  1
  O  O30  1  0.091471  0.014903  0.857704  1
  O  O31  1  0.908529  0.514903  0.642295  1
  O  O32  1  0.383706  0.822679  0.985230  1
  O  O33  1  0.616295  0.322678  0.514770  1
  O  O34  1  0.616295  0.177322  0.014770  1
  O  O35  1  0.383706  0.677322  0.485231  1
  O  O36  1  0.419025  0.986634  0.141409  1
  O  O37  1  0.580974  0.486634  0.358591  1
  O  O38  1  0.580974  0.013366  0.858591  1
  O  O39  1  0.680611  0.742762  0.200367  1
  P  P40  1  0.332813  0.067001  0.814458  1
  P  P41  1  0.667187  0.567001  0.685542  1
  P  P42  1  0.667186  0.933000  0.185542  1
  P  P43  1  0.332813  0.433000  0.314458  1
  P  P44  1  0.358760  0.233675  0.515092  1
  P  P45  1  0.641240  0.733675  0.984908  1
  P  P46  1  0.641239  0.766325  0.484909  1
  P  P47  1  0.358762  0.266325  0.015091  1
  V  V48  1  0.459787  0.466053  0.852980  1
  V  V49  1  0.540212  0.966053  0.647019  1
  V  V50  1  0.160819  0.872792  0.069309  1
  V  V51  1  0.459789  0.033946  0.352981  1
  V  V52  1  0.160818  0.627207  0.569308  1
  V  V53  1  0.839182  0.127208  0.930691  1
  V  V54  1  0.839182  0.372792  0.430691  1
  V  V55  1  0.540212  0.533946  0.147019  1
  Cd  Cd56  1  0.090899  0.276263  0.681768  1
  Cd  Cd57  1  0.909101  0.776262  0.818231  1
  Cd  Cd58  1  0.909101  0.723738  0.318232  1
  Cd  Cd59  1  0.090899  0.223737  0.181768  1
