# generated using pymatgen
data_RbAlF4
_symmetry_space_group_name_H-M   'P 1'
_cell_length_a   10.55471696
_cell_length_b   10.55471697
_cell_length_c   10.55471696
_cell_angle_alpha   105.44138375
_cell_angle_beta   111.52294524
_cell_angle_gamma   111.52294521
_symmetry_Int_Tables_number   1
_chemical_formula_structural   RbAlF4
_chemical_formula_sum   'Rb10 Al10 F40'
_cell_volume   901.81697387
_cell_formula_units_Z   10
loop_
 _symmetry_equiv_pos_site_id
 _symmetry_equiv_pos_as_xyz
  1  'x, y, z'
loop_
 _atom_site_type_symbol
 _atom_site_label
 _atom_site_symmetry_multiplicity
 _atom_site_fract_x
 _atom_site_fract_y
 _atom_site_fract_z
 _atom_site_occupancy
  F  F0  1  0.500000  0.138453  0.638453  1
  F  F1  1  0.500000  0.361547  0.861547  1
  F  F2  1  0.500000  0.861547  0.361547  1
  F  F3  1  0.500000  0.638453  0.138453  1
  F  F4  1  0.062857  0.781429  0.281429  1
  F  F5  1  0.500000  0.718571  0.781429  1
  F  F6  1  0.500000  0.281429  0.218571  1
  F  F7  1  0.937143  0.218571  0.718571  1
  F  F8  1  0.870747  0.152212  0.440344  1
  F  F9  1  0.129253  0.569597  0.281465  1
  F  F10  1  0.711868  0.559656  0.430403  1
  F  F11  1  0.288132  0.718535  0.847788  1
  F  F12  1  0.288132  0.069597  0.940344  1
  F  F13  1  0.129253  0.059656  0.347788  1
  F  F14  1  0.711913  0.930163  0.059891  1
  F  F15  1  0.870747  0.218535  0.930403  1
  F  F16  1  0.129728  0.847978  0.559891  1
  F  F17  1  0.870272  0.430163  0.718251  1
  F  F18  1  0.288087  0.440109  0.569837  1
  F  F19  1  0.711913  0.281749  0.152022  1
  F  F20  1  0.345575  0.001367  0.344414  1
  F  F21  1  0.656952  0.655586  0.001161  1
  F  F22  1  0.343048  0.344209  0.998633  1
  F  F23  1  0.654425  0.998839  0.655791  1
  F  F24  1  0.654425  0.155586  0.498633  1
  F  F25  1  0.345575  0.844209  0.501161  1
  F  F26  1  0.343048  0.498839  0.844414  1
  F  F27  1  0.656952  0.501367  0.155791  1
  F  F28  1  0.209069  0.066878  0.142485  1
  F  F29  1  0.924394  0.857515  0.066585  1
  F  F30  1  0.075606  0.142191  0.933122  1
  F  F31  1  0.790931  0.933415  0.857809  1
  F  F32  1  0.790931  0.357515  0.433122  1
  F  F33  1  0.209069  0.642191  0.566585  1
  F  F34  1  0.075606  0.433415  0.642485  1
  F  F35  1  0.924394  0.566878  0.357809  1
  F  F36  1  0.288087  0.347978  0.218251  1
  F  F37  1  0.129728  0.781749  0.069837  1
  F  F38  1  0.870272  0.940109  0.652022  1
  F  F39  1  0.711868  0.652212  0.781465  1
  Al  Al40  1  0.284131  0.576579  0.707582  1
  Al  Al41  1  0.715869  0.423451  0.292448  1
  Al  Al42  1  0.868997  0.292418  0.576549  1
  Al  Al43  1  0.131003  0.707552  0.423421  1
  Al  Al44  1  0.131003  0.923451  0.207582  1
  Al  Al45  1  0.715869  0.792418  0.923421  1
  Al  Al46  1  0.284131  0.207552  0.076549  1
  Al  Al47  1  0.868997  0.076579  0.792448  1
  Al  Al48  1  0.500000  0.500000  0.000000  1
  Al  Al49  1  0.500000  0.000000  0.500000  1
  Rb  Rb50  1  0.499806  0.029660  0.846464  1
  Rb  Rb51  1  0.500194  0.346658  0.529854  1
  Rb  Rb52  1  0.183196  0.153536  0.653342  1
  Rb  Rb53  1  0.816804  0.470146  0.970340  1
  Rb  Rb54  1  0.816804  0.846658  0.346464  1
  Rb  Rb55  1  0.500194  0.653536  0.470340  1
  Rb  Rb56  1  0.499806  0.970146  0.153342  1
  Rb  Rb57  1  0.183196  0.529660  0.029854  1
  Rb  Rb58  1  0.000000  0.750000  0.750000  1
  Rb  Rb59  1  0.000000  0.250000  0.250000  1
