# generated using pymatgen
data_HoVO4
_symmetry_space_group_name_H-M   'P 1'
_cell_length_a   5.98610189
_cell_length_b   5.98610190
_cell_length_c   5.98610189
_cell_angle_alpha   106.27063729
_cell_angle_beta   106.27063727
_cell_angle_gamma   116.08157805
_symmetry_Int_Tables_number   1
_chemical_formula_structural   HoVO4
_chemical_formula_sum   'Ho2 V2 O8'
_cell_volume   163.45713870
_cell_formula_units_Z   2
loop_
 _symmetry_equiv_pos_site_id
 _symmetry_equiv_pos_as_xyz
  1  'x, y, z'
loop_
 _atom_site_type_symbol
 _atom_site_label
 _atom_site_symmetry_multiplicity
 _atom_site_fract_x
 _atom_site_fract_y
 _atom_site_fract_z
 _atom_site_occupancy
  O  O0  1  0.801535  0.736960  0.435425  1
  O  O1  1  0.366109  0.801535  0.564575  1
  O  O2  1  0.736961  0.801535  0.935426  1
  O  O3  1  0.801535  0.366109  0.064575  1
  O  O4  1  0.633892  0.198466  0.435426  1
  O  O5  1  0.198465  0.263041  0.564574  1
  O  O6  1  0.263040  0.198466  0.064574  1
  O  O7  1  0.198466  0.633892  0.935426  1
  V  V8  1  0.374999  0.624999  0.749999  1
  V  V9  1  0.625000  0.374999  0.249999  1
  Ho  Ho10  1  0.125000  0.875001  0.250000  1
  Ho  Ho11  1  0.875000  0.125000  0.750000  1
