# generated using pymatgen
data_NaSiAu3
_symmetry_space_group_name_H-M   'P 1'
_cell_length_a   9.07797554
_cell_length_b   9.07797554
_cell_length_c   9.07797554
_cell_angle_alpha   90.00000000
_cell_angle_beta   90.00000000
_cell_angle_gamma   90.00000000
_symmetry_Int_Tables_number   1
_chemical_formula_structural   NaSiAu3
_chemical_formula_sum   'Na8 Si8 Au24'
_cell_volume   748.11269532
_cell_formula_units_Z   8
loop_
 _symmetry_equiv_pos_site_id
 _symmetry_equiv_pos_as_xyz
  1  'x, y, z'
loop_
 _atom_site_type_symbol
 _atom_site_label
 _atom_site_symmetry_multiplicity
 _atom_site_fract_x
 _atom_site_fract_y
 _atom_site_fract_z
 _atom_site_occupancy
  Na  Na0  1  0.096742  0.096742  0.096742  1
  Na  Na1  1  0.403258  0.903258  0.596742  1
  Na  Na2  1  0.596742  0.403258  0.903258  1
  Na  Na3  1  0.903258  0.596742  0.403258  1
  Na  Na4  1  0.903258  0.903258  0.903258  1
  Na  Na5  1  0.596742  0.096742  0.403258  1
  Na  Na6  1  0.403258  0.596742  0.096742  1
  Na  Na7  1  0.096742  0.403258  0.596742  1
  Si  Si8  1  0.124104  0.875896  0.375896  1
  Si  Si9  1  0.875896  0.375896  0.124104  1
  Si  Si10  1  0.624104  0.624104  0.624104  1
  Si  Si11  1  0.624104  0.875896  0.124104  1
  Si  Si12  1  0.875896  0.124104  0.624104  1
  Si  Si13  1  0.124104  0.624104  0.875896  1
  Si  Si14  1  0.375896  0.375896  0.375896  1
  Si  Si15  1  0.375896  0.124104  0.875896  1
  Au  Au16  1  0.595118  0.726545  0.371618  1
  Au  Au17  1  0.726545  0.371618  0.595118  1
  Au  Au18  1  0.773455  0.628382  0.095118  1
  Au  Au19  1  0.273455  0.871618  0.904882  1
  Au  Au20  1  0.628382  0.095118  0.773455  1
  Au  Au21  1  0.595118  0.773455  0.871618  1
  Au  Au22  1  0.871618  0.595118  0.773455  1
  Au  Au23  1  0.628382  0.404882  0.273455  1
  Au  Au24  1  0.095118  0.726545  0.128382  1
  Au  Au25  1  0.128382  0.095118  0.726545  1
  Au  Au26  1  0.904882  0.226545  0.371618  1
  Au  Au27  1  0.404882  0.273455  0.628382  1
  Au  Au28  1  0.371618  0.904882  0.226545  1
  Au  Au29  1  0.273455  0.628382  0.404882  1
  Au  Au30  1  0.226545  0.371618  0.904882  1
  Au  Au31  1  0.726545  0.128382  0.095118  1
  Au  Au32  1  0.095118  0.773455  0.628382  1
  Au  Au33  1  0.871618  0.904882  0.273455  1
  Au  Au34  1  0.904882  0.273455  0.871618  1
  Au  Au35  1  0.371618  0.595118  0.726545  1
  Au  Au36  1  0.128382  0.404882  0.226545  1
  Au  Au37  1  0.404882  0.226545  0.128382  1
  Au  Au38  1  0.226545  0.128382  0.404882  1
  Au  Au39  1  0.773455  0.871618  0.595118  1
