# generated using pymatgen
data_ThTe3
_symmetry_space_group_name_H-M   'P 1'
_cell_length_a   4.43831469
_cell_length_b   6.26531241
_cell_length_c   10.82628772
_cell_angle_alpha   97.69336462
_cell_angle_beta   90.00000000
_cell_angle_gamma   90.00000000
_symmetry_Int_Tables_number   1
_chemical_formula_structural   ThTe3
_chemical_formula_sum   'Th2 Te6'
_cell_volume   298.34136818
_cell_formula_units_Z   2
loop_
 _symmetry_equiv_pos_site_id
 _symmetry_equiv_pos_as_xyz
  1  'x, y, z'
loop_
 _atom_site_type_symbol
 _atom_site_label
 _atom_site_symmetry_multiplicity
 _atom_site_fract_x
 _atom_site_fract_y
 _atom_site_fract_z
 _atom_site_occupancy
  Th  Th0  1  0.750000  0.715176  0.845790  1
  Th  Th1  1  0.250000  0.284824  0.154210  1
  Te  Te2  1  0.750000  0.550340  0.324179  1
  Te  Te3  1  0.250000  0.449660  0.675821  1
  Te  Te4  1  0.750000  0.235891  0.938380  1
  Te  Te5  1  0.250000  0.764109  0.061620  1
  Te  Te6  1  0.750000  0.105987  0.329729  1
  Te  Te7  1  0.250000  0.894013  0.670271  1
