# generated using pymatgen
data_Te2MoWSeS
_symmetry_space_group_name_H-M   'P 1'
_cell_length_a   3.39800446
_cell_length_b   3.39805928
_cell_length_c   40.80267935
_cell_angle_alpha   90.00000800
_cell_angle_beta   90.00000000
_cell_angle_gamma   119.99946629
_symmetry_Int_Tables_number   1
_chemical_formula_structural   Te2MoWSeS
_chemical_formula_sum   'Te4 Mo2 W2 Se2 S2'
_cell_volume   408.01539111
_cell_formula_units_Z   2
loop_
 _symmetry_equiv_pos_site_id
 _symmetry_equiv_pos_as_xyz
  1  'x, y, z'
loop_
 _atom_site_type_symbol
 _atom_site_label
 _atom_site_symmetry_multiplicity
 _atom_site_fract_x
 _atom_site_fract_y
 _atom_site_fract_z
 _atom_site_occupancy
  Te  Te0  1  0.333341  0.666684  0.705663  1
  Te  Te1  1  0.666607  0.333214  0.421897  1
  Te  Te2  1  0.666581  0.333161  0.513714  1
  Te  Te3  1  0.333374  0.666750  0.613324  1
  Mo  Mo4  1  0.333362  0.666724  0.093829  1
  Mo  Mo5  1  0.333258  0.666517  0.467805  1
  W  W6  1  0.666681  0.333362  0.281776  1
  W  W7  1  0.666696  0.333391  0.659498  1
  Se  Se8  1  0.666697  0.333394  0.053415  1
  Se  Se9  1  0.666705  0.333408  0.134225  1
  S  S10  1  0.333340  0.666680  0.318724  1
  S  S11  1  0.333357  0.666715  0.244877  1
