# generated using pymatgen
data_CeSi2Ru
_symmetry_space_group_name_H-M   'P 1'
_cell_length_a   4.08695241
_cell_length_b   4.45205440
_cell_length_c   8.24391185
_cell_angle_alpha   102.73032340
_cell_angle_beta   90.00000000
_cell_angle_gamma   90.00000000
_symmetry_Int_Tables_number   1
_chemical_formula_structural   CeSi2Ru
_chemical_formula_sum   'Ce2 Si4 Ru2'
_cell_volume   146.31342360
_cell_formula_units_Z   2
loop_
 _symmetry_equiv_pos_site_id
 _symmetry_equiv_pos_as_xyz
  1  'x, y, z'
loop_
 _atom_site_type_symbol
 _atom_site_label
 _atom_site_symmetry_multiplicity
 _atom_site_fract_x
 _atom_site_fract_y
 _atom_site_fract_z
 _atom_site_occupancy
  Ce  Ce0  1  0.750000  0.589175  0.199206  1
  Ce  Ce1  1  0.250000  0.410825  0.800794  1
  Si  Si2  1  0.750000  0.961849  0.911568  1
  Si  Si3  1  0.250000  0.038151  0.088432  1
  Si  Si4  1  0.750000  0.334771  0.507869  1
  Si  Si5  1  0.250000  0.665229  0.492131  1
  Ru  Ru6  1  0.750000  0.885974  0.614194  1
  Ru  Ru7  1  0.250000  0.114026  0.385806  1
