# generated using pymatgen
data_Ba(NiO2)4
_symmetry_space_group_name_H-M   'P 1'
_cell_length_a   7.19753084
_cell_length_b   7.19753084
_cell_length_c   7.19753084
_cell_angle_alpha   46.90347765
_cell_angle_beta   46.90347761
_cell_angle_gamma   46.90347762
_symmetry_Int_Tables_number   1
_chemical_formula_structural   Ba(NiO2)4
_chemical_formula_sum   'Ba1 Ni4 O8'
_cell_volume   181.69579598
_cell_formula_units_Z   1
loop_
 _symmetry_equiv_pos_site_id
 _symmetry_equiv_pos_as_xyz
  1  'x, y, z'
loop_
 _atom_site_type_symbol
 _atom_site_label
 _atom_site_symmetry_multiplicity
 _atom_site_fract_x
 _atom_site_fract_y
 _atom_site_fract_z
 _atom_site_occupancy
  O  O0  1  0.771201  0.302014  0.771201  1
  O  O1  1  0.228798  0.228800  0.697986  1
  O  O2  1  0.228799  0.697986  0.228800  1
  O  O3  1  0.697986  0.228800  0.228799  1
  O  O4  1  0.283113  0.283112  0.283113  1
  O  O5  1  0.716887  0.716888  0.716889  1
  O  O6  1  0.302015  0.771200  0.771201  1
  O  O7  1  0.771201  0.771200  0.302015  1
  Ni  Ni8  1  0.000000  0.000000  0.000000  1
  Ni  Ni9  1  0.500000  0.999999  0.500000  1
  Ni  Ni10  1  0.999999  0.500001  0.500000  1
  Ni  Ni11  1  0.500000  0.500001  0.999999  1
  Ba  Ba12  1  0.500000  0.500000  0.500000  1
