# generated using pymatgen
data_Te4MoW3(SeS)2
_symmetry_space_group_name_H-M   'P 1'
_cell_length_a   3.39530331
_cell_length_b   3.39530522
_cell_length_c   38.74318043
_cell_angle_alpha   90.00001314
_cell_angle_beta   90.00000000
_cell_angle_gamma   119.99998128
_symmetry_Int_Tables_number   1
_chemical_formula_structural   Te4MoW3(SeS)2
_chemical_formula_sum   'Te4 Mo1 W3 Se2 S2'
_cell_volume   386.79725282
_cell_formula_units_Z   1
loop_
 _symmetry_equiv_pos_site_id
 _symmetry_equiv_pos_as_xyz
  1  'x, y, z'
loop_
 _atom_site_type_symbol
 _atom_site_label
 _atom_site_symmetry_multiplicity
 _atom_site_fract_x
 _atom_site_fract_y
 _atom_site_fract_z
 _atom_site_occupancy
  Te  Te0  1  0.333366  0.666733  0.330087  1
  Te  Te1  1  0.333369  0.666740  0.706196  1
  Te  Te2  1  0.333349  0.666698  0.233449  1
  Te  Te3  1  0.333360  0.666721  0.608885  1
  Mo  Mo4  1  0.666687  0.333373  0.281802  1
  W  W5  1  0.333308  0.666616  0.093935  1
  W  W6  1  0.333307  0.666615  0.469667  1
  W  W7  1  0.666688  0.333377  0.657554  1
  Se  Se8  1  0.666641  0.333281  0.426936  1
  Se  Se9  1  0.666640  0.333280  0.512370  1
  S  S10  1  0.666644  0.333287  0.055012  1
  S  S11  1  0.666641  0.333281  0.132853  1
