# generated using pymatgen
data_Te4MoW3(SeS)2
_symmetry_space_group_name_H-M   'P 1'
_cell_length_a   3.39847609
_cell_length_b   3.39845415
_cell_length_c   38.66280595
_cell_angle_alpha   90.00054132
_cell_angle_beta   89.99999530
_cell_angle_gamma   120.00019662
_symmetry_Int_Tables_number   1
_chemical_formula_structural   Te4MoW3(SeS)2
_chemical_formula_sum   'Te4 Mo1 W3 Se2 S2'
_cell_volume   386.71300310
_cell_formula_units_Z   1
loop_
 _symmetry_equiv_pos_site_id
 _symmetry_equiv_pos_as_xyz
  1  'x, y, z'
loop_
 _atom_site_type_symbol
 _atom_site_label
 _atom_site_symmetry_multiplicity
 _atom_site_fract_x
 _atom_site_fract_y
 _atom_site_fract_z
 _atom_site_occupancy
  Te  Te0  1  0.333355  0.666711  0.330479  1
  Te  Te1  1  0.333358  0.666716  0.706202  1
  Te  Te2  1  0.333359  0.666719  0.233136  1
  Te  Te3  1  0.333355  0.666711  0.608842  1
  Mo  Mo4  1  0.333308  0.666615  0.093916  1
  W  W5  1  0.333310  0.666620  0.469658  1
  W  W6  1  0.666690  0.333380  0.281815  1
  W  W7  1  0.666690  0.333380  0.657539  1
  Se  Se8  1  0.666636  0.333271  0.051311  1
  Se  Se9  1  0.666650  0.333299  0.136535  1
  S  S10  1  0.666644  0.333288  0.430673  1
  S  S11  1  0.666646  0.333292  0.508641  1
