# generated using pymatgen
data_La5S4NO2
_symmetry_space_group_name_H-M   'P 1'
_cell_length_a   4.09704958
_cell_length_b   8.13279491
_cell_length_c   16.83536056
_cell_angle_alpha   100.72472964
_cell_angle_beta   90.00000000
_cell_angle_gamma   104.58905386
_symmetry_Int_Tables_number   1
_chemical_formula_structural   La5S4NO2
_chemical_formula_sum   'La10 S8 N2 O4'
_cell_volume   532.74397254
_cell_formula_units_Z   2
loop_
 _symmetry_equiv_pos_site_id
 _symmetry_equiv_pos_as_xyz
  1  'x, y, z'
loop_
 _atom_site_type_symbol
 _atom_site_label
 _atom_site_symmetry_multiplicity
 _atom_site_fract_x
 _atom_site_fract_y
 _atom_site_fract_z
 _atom_site_occupancy
  La  La0  1  0.124475  0.248950  0.024133  1
  La  La1  1  0.875525  0.751050  0.975866  1
  La  La2  1  0.482019  0.964038  0.831707  1
  La  La3  1  0.517981  0.035962  0.168293  1
  La  La4  1  0.232119  0.464238  0.794330  1
  La  La5  1  0.767881  0.535762  0.205670  1
  La  La6  1  0.421493  0.842986  0.407297  1
  La  La7  1  0.578507  0.157014  0.592703  1
  La  La8  1  0.140584  0.281167  0.414325  1
  La  La9  1  0.859416  0.718833  0.585675  1
  S  S10  1  0.322509  0.645019  0.099181  1
  S  S11  1  0.677491  0.354981  0.900819  1
  S  S12  1  0.159566  0.319131  0.244200  1
  S  S13  1  0.840434  0.680869  0.755800  1
  S  S14  1  0.045822  0.091643  0.715567  1
  S  S15  1  0.954178  0.908357  0.284433  1
  S  S16  1  0.212966  0.425931  0.592998  1
  S  S17  1  0.787034  0.574069  0.407002  1
  N  N18  1  0.427347  0.854694  0.549687  1
  N  N19  1  0.572653  0.145306  0.450313  1
  O  O20  1  0.002481  0.004962  0.913819  1
  O  O21  1  0.997519  0.995038  0.086181  1
  O  O22  1  0.360599  0.721198  0.903533  1
  O  O23  1  0.639401  0.278802  0.096467  1
