# generated using pymatgen
data_Te2MoWSe2
_symmetry_space_group_name_H-M   'P 1'
_cell_length_a   3.43901360
_cell_length_b   3.43899578
_cell_length_c   39.10782392
_cell_angle_alpha   89.99977636
_cell_angle_beta   90.00000000
_cell_angle_gamma   120.00017137
_symmetry_Int_Tables_number   1
_chemical_formula_structural   Te2MoWSe2
_chemical_formula_sum   'Te4 Mo2 W2 Se4'
_cell_volume   400.55215227
_cell_formula_units_Z   2
loop_
 _symmetry_equiv_pos_site_id
 _symmetry_equiv_pos_as_xyz
  1  'x, y, z'
loop_
 _atom_site_type_symbol
 _atom_site_label
 _atom_site_symmetry_multiplicity
 _atom_site_fract_x
 _atom_site_fract_y
 _atom_site_fract_z
 _atom_site_occupancy
  Te  Te0  1  0.333353  0.666707  0.705237  1
  Te  Te1  1  0.666634  0.333267  0.046514  1
  Te  Te2  1  0.666632  0.333262  0.141351  1
  Te  Te3  1  0.333363  0.666726  0.609823  1
  Mo  Mo4  1  0.333308  0.666616  0.093906  1
  Mo  Mo5  1  0.666693  0.333387  0.281783  1
  W  W6  1  0.333311  0.666622  0.469637  1
  W  W7  1  0.666696  0.333391  0.657558  1
  Se  Se8  1  0.333368  0.666738  0.323670  1
  Se  Se9  1  0.666639  0.333276  0.427687  1
  Se  Se10  1  0.666649  0.333297  0.511603  1
  Se  Se11  1  0.333355  0.666711  0.239980  1
