# generated using pymatgen
data_Rb3Ge4Au
_symmetry_space_group_name_H-M   'P 1'
_cell_length_a   6.22931223
_cell_length_b   6.99908666
_cell_length_c   12.72092709
_cell_angle_alpha   90.00000000
_cell_angle_beta   90.00000000
_cell_angle_gamma   90.00000000
_symmetry_Int_Tables_number   1
_chemical_formula_structural   Rb3Ge4Au
_chemical_formula_sum   'Rb6 Ge8 Au2'
_cell_volume   554.62601143
_cell_formula_units_Z   2
loop_
 _symmetry_equiv_pos_site_id
 _symmetry_equiv_pos_as_xyz
  1  'x, y, z'
loop_
 _atom_site_type_symbol
 _atom_site_label
 _atom_site_symmetry_multiplicity
 _atom_site_fract_x
 _atom_site_fract_y
 _atom_site_fract_z
 _atom_site_occupancy
  Ge  Ge0  1  0.329640  0.750000  0.359253  1
  Ge  Ge1  1  0.329640  0.750000  0.140747  1
  Ge  Ge2  1  0.059848  0.552206  0.250000  1
  Ge  Ge3  1  0.059848  0.947794  0.250000  1
  Ge  Ge4  1  0.940152  0.052206  0.750000  1
  Ge  Ge5  1  0.940152  0.447794  0.750000  1
  Ge  Ge6  1  0.670360  0.250000  0.640747  1
  Ge  Ge7  1  0.670360  0.250000  0.859253  1
  Rb  Rb8  1  0.424247  0.750000  0.750000  1
  Rb  Rb9  1  0.575753  0.250000  0.250000  1
  Rb  Rb10  1  0.166531  0.250000  0.014085  1
  Rb  Rb11  1  0.166531  0.250000  0.485915  1
  Rb  Rb12  1  0.833469  0.750000  0.985915  1
  Rb  Rb13  1  0.833469  0.750000  0.514085  1
  Au  Au14  1  0.693119  0.750000  0.250000  1
  Au  Au15  1  0.306881  0.250000  0.750000  1
