# generated using pymatgen
data_Ba4Ir3O10
_symmetry_space_group_name_H-M   'P 1'
_cell_length_a   5.82780159
_cell_length_b   7.36315099
_cell_length_c   13.36581203
_cell_angle_alpha   90.00000000
_cell_angle_beta   90.00000000
_cell_angle_gamma   112.41388697
_symmetry_Int_Tables_number   1
_chemical_formula_structural   Ba4Ir3O10
_chemical_formula_sum   'Ba8 Ir6 O20'
_cell_volume   530.21126646
_cell_formula_units_Z   2
loop_
 _symmetry_equiv_pos_site_id
 _symmetry_equiv_pos_as_xyz
  1  'x, y, z'
loop_
 _atom_site_type_symbol
 _atom_site_label
 _atom_site_symmetry_multiplicity
 _atom_site_fract_x
 _atom_site_fract_y
 _atom_site_fract_z
 _atom_site_occupancy
  O  O0  1  0.067709  0.770820  0.725386  1
  O  O1  1  0.432291  0.229180  0.225386  1
  O  O2  1  0.932291  0.229180  0.274614  1
  O  O3  1  0.567709  0.770820  0.774614  1
  O  O4  1  0.230083  0.469782  0.654369  1
  O  O5  1  0.269917  0.530218  0.154369  1
  O  O6  1  0.769917  0.530218  0.345631  1
  O  O7  1  0.730083  0.469782  0.845631  1
  O  O8  1  0.634507  0.789756  0.542442  1
  O  O9  1  0.865493  0.210244  0.042442  1
  O  O10  1  0.365493  0.210244  0.457558  1
  O  O11  1  0.134507  0.789756  0.957558  1
  O  O12  1  0.164066  0.773859  0.525180  1
  O  O13  1  0.335934  0.226141  0.025180  1
  O  O14  1  0.025710  0.075173  0.850026  1
  O  O15  1  0.474290  0.924827  0.350026  1
  O  O16  1  0.974290  0.924827  0.149974  1
  O  O17  1  0.525710  0.075173  0.649974  1
  O  O18  1  0.664066  0.773859  0.974820  1
  O  O19  1  0.835934  0.226141  0.474820  1
  Ba  Ba20  1  0.963428  0.913797  0.362909  1
  Ba  Ba21  1  0.536572  0.086203  0.862909  1
  Ba  Ba22  1  0.036572  0.086203  0.637091  1
  Ba  Ba23  1  0.463428  0.913797  0.137091  1
  Ba  Ba24  1  0.260583  0.514571  0.386815  1
  Ba  Ba25  1  0.239417  0.485429  0.886815  1
  Ba  Ba26  1  0.760583  0.514571  0.113185  1
  Ba  Ba27  1  0.739417  0.485429  0.613185  1
  Ir  Ir28  1  0.000000  0.000000  0.000000  1
  Ir  Ir29  1  0.500000  0.000000  0.500000  1
  Ir  Ir30  1  0.131124  0.240110  0.150949  1
  Ir  Ir31  1  0.368876  0.759890  0.650949  1
  Ir  Ir32  1  0.868876  0.759890  0.849051  1
  Ir  Ir33  1  0.631124  0.240110  0.349051  1
