# generated using pymatgen
data_K2GaAs2
_symmetry_space_group_name_H-M   'P 1'
_cell_length_a   9.05262748
_cell_length_b   10.65292457
_cell_length_c   14.57339556
_cell_angle_alpha   90.00000000
_cell_angle_beta   90.00000000
_cell_angle_gamma   110.33419688
_symmetry_Int_Tables_number   1
_chemical_formula_structural   K2GaAs2
_chemical_formula_sum   'K16 Ga8 As16'
_cell_volume   1317.83092405
_cell_formula_units_Z   8
loop_
 _symmetry_equiv_pos_site_id
 _symmetry_equiv_pos_as_xyz
  1  'x, y, z'
loop_
 _atom_site_type_symbol
 _atom_site_label
 _atom_site_symmetry_multiplicity
 _atom_site_fract_x
 _atom_site_fract_y
 _atom_site_fract_z
 _atom_site_occupancy
  K  K0  1  0.538403  0.531765  0.371771  1
  K  K1  1  0.961597  0.968235  0.871771  1
  K  K2  1  0.461597  0.468235  0.628229  1
  K  K3  1  0.038403  0.031765  0.128229  1
  K  K4  1  0.322458  0.912177  0.370997  1
  K  K5  1  0.177542  0.587823  0.870997  1
  K  K6  1  0.677542  0.087823  0.629003  1
  K  K7  1  0.822458  0.412177  0.129003  1
  K  K8  1  0.322446  0.522189  0.115119  1
  K  K9  1  0.177554  0.977811  0.615119  1
  K  K10  1  0.677554  0.477811  0.884881  1
  K  K11  1  0.822446  0.022190  0.384881  1
  K  K12  1  0.463584  0.941247  0.121892  1
  K  K13  1  0.036416  0.558753  0.621892  1
  K  K14  1  0.536416  0.058753  0.878108  1
  K  K15  1  0.963584  0.441247  0.378108  1
  Ga  Ga16  1  0.899209  0.745057  0.282741  1
  Ga  Ga17  1  0.600791  0.754943  0.782741  1
  Ga  Ga18  1  0.100791  0.254943  0.717259  1
  Ga  Ga19  1  0.399209  0.245057  0.217259  1
  Ga  Ga20  1  0.738427  0.743034  0.057453  1
  Ga  Ga21  1  0.761573  0.756966  0.557453  1
  Ga  Ga22  1  0.261573  0.256966  0.942547  1
  Ga  Ga23  1  0.238427  0.243034  0.442547  1
  As  As24  1  0.668521  0.772386  0.215361  1
  As  As25  1  0.831479  0.727614  0.715361  1
  As  As26  1  0.331479  0.227614  0.784639  1
  As  As27  1  0.168521  0.272386  0.284639  1
  As  As28  1  0.099111  0.718199  0.182877  1
  As  As29  1  0.400889  0.781801  0.682877  1
  As  As30  1  0.900889  0.281801  0.817123  1
  As  As31  1  0.599111  0.218199  0.317123  1
  As  As32  1  0.957973  0.742374  0.446905  1
  As  As33  1  0.542027  0.757626  0.946905  1
  As  As34  1  0.042027  0.257626  0.553095  1
  As  As35  1  0.457973  0.242374  0.053095  1
  As  As36  1  0.991370  0.724311  0.026413  1
  As  As37  1  0.508630  0.775689  0.526413  1
  As  As38  1  0.008630  0.275689  0.973587  1
  As  As39  1  0.491370  0.224311  0.473587  1
