# generated using pymatgen
data_K3NbO8
_symmetry_space_group_name_H-M   'P 1'
_cell_length_a   6.34663374
_cell_length_b   6.34663374
_cell_length_c   6.34663374
_cell_angle_alpha   101.20454001
_cell_angle_beta   113.75608900
_cell_angle_gamma   113.75608897
_symmetry_Int_Tables_number   1
_chemical_formula_structural   K3NbO8
_chemical_formula_sum   'K3 Nb1 O8'
_cell_volume   193.78339597
_cell_formula_units_Z   1
loop_
 _symmetry_equiv_pos_site_id
 _symmetry_equiv_pos_as_xyz
  1  'x, y, z'
loop_
 _atom_site_type_symbol
 _atom_site_label
 _atom_site_symmetry_multiplicity
 _atom_site_fract_x
 _atom_site_fract_y
 _atom_site_fract_z
 _atom_site_occupancy
  O  O0  1  0.573428  0.808423  0.808423  1
  O  O1  1  0.000001  0.191577  0.765007  1
  O  O2  1  1.000000  0.765006  0.191577  1
  O  O3  1  0.426571  0.234993  0.234994  1
  O  O4  1  0.283786  0.328941  0.328940  1
  O  O5  1  0.999999  0.671059  0.954844  1
  O  O6  1  0.716215  0.045156  0.045155  1
  O  O7  1  0.000000  0.954846  0.671059  1
  K  K8  1  0.499999  0.250000  0.749999  1
  K  K9  1  0.500000  0.750000  0.250001  1
  K  K10  1  1.000000  0.499999  0.500000  1
  Nb  Nb11  1  0.000000  0.000000  0.000000  1
