# generated using pymatgen
data_Ba3Ta5O15
_symmetry_space_group_name_H-M   'P 1'
_cell_length_a   4.01748713
_cell_length_b   12.76609361
_cell_length_c   12.76609361
_cell_angle_alpha   90.00000000
_cell_angle_beta   90.00000000
_cell_angle_gamma   90.00000000
_symmetry_Int_Tables_number   1
_chemical_formula_structural   Ba3Ta5O15
_chemical_formula_sum   'Ba6 Ta10 O30'
_cell_volume   654.74251683
_cell_formula_units_Z   2
loop_
 _symmetry_equiv_pos_site_id
 _symmetry_equiv_pos_as_xyz
  1  'x, y, z'
loop_
 _atom_site_type_symbol
 _atom_site_label
 _atom_site_symmetry_multiplicity
 _atom_site_fract_x
 _atom_site_fract_y
 _atom_site_fract_z
 _atom_site_occupancy
  O  O0  1  0.500000  0.431529  0.359292  1
  O  O1  1  0.500000  0.568471  0.640708  1
  O  O2  1  0.500000  0.359292  0.568471  1
  O  O3  1  0.500000  0.640708  0.431529  1
  O  O4  1  0.500000  0.859292  0.931529  1
  O  O5  1  0.500000  0.068471  0.859292  1
  O  O6  1  0.500000  0.931529  0.140708  1
  O  O7  1  0.500000  0.140708  0.068471  1
  O  O8  1  0.500000  0.493707  0.156242  1
  O  O9  1  0.500000  0.506293  0.843758  1
  O  O10  1  0.500000  0.156242  0.506293  1
  O  O11  1  0.500000  0.843758  0.493707  1
  O  O12  1  0.500000  0.656242  0.993707  1
  O  O13  1  0.500000  0.006293  0.656242  1
  O  O14  1  0.500000  0.993707  0.343758  1
  O  O15  1  0.500000  0.343758  0.006293  1
  O  O16  1  0.000000  0.000000  0.500000  1
  O  O17  1  0.000000  0.500000  0.000000  1
  O  O18  1  0.500000  0.281928  0.781928  1
  O  O19  1  0.500000  0.218072  0.281928  1
  O  O20  1  0.500000  0.781928  0.718072  1
  O  O21  1  0.500000  0.718072  0.218072  1
  O  O22  1  0.000000  0.077681  0.208245  1
  O  O23  1  0.000000  0.791755  0.077681  1
  O  O24  1  0.000000  0.208245  0.922319  1
  O  O25  1  0.000000  0.922319  0.791755  1
  O  O26  1  0.000000  0.577681  0.291755  1
  O  O27  1  0.000000  0.422319  0.708245  1
  O  O28  1  0.000000  0.708245  0.577681  1
  O  O29  1  0.000000  0.291755  0.422319  1
  Ba  Ba30  1  0.000000  0.000000  0.000000  1
  Ba  Ba31  1  0.000000  0.500000  0.500000  1
  Ba  Ba32  1  0.000000  0.168767  0.668767  1
  Ba  Ba33  1  0.000000  0.331233  0.168767  1
  Ba  Ba34  1  0.000000  0.668767  0.831233  1
  Ba  Ba35  1  0.000000  0.831233  0.331233  1
  Ta  Ta36  1  0.500000  0.787175  0.076656  1
  Ta  Ta37  1  0.500000  0.076656  0.212825  1
  Ta  Ta38  1  0.500000  0.500000  0.000000  1
  Ta  Ta39  1  0.500000  0.000000  0.500000  1
  Ta  Ta40  1  0.500000  0.212825  0.923344  1
  Ta  Ta41  1  0.500000  0.923344  0.787175  1
  Ta  Ta42  1  0.500000  0.576656  0.287175  1
  Ta  Ta43  1  0.500000  0.423344  0.712825  1
  Ta  Ta44  1  0.500000  0.712825  0.576656  1
  Ta  Ta45  1  0.500000  0.287175  0.423344  1
