# generated using pymatgen
data_LiCo3P3O13
_symmetry_space_group_name_H-M   'P 1'
_cell_length_a   6.10371996
_cell_length_b   7.21767365
_cell_length_c   10.55787351
_cell_angle_alpha   100.45987733
_cell_angle_beta   90.00000000
_cell_angle_gamma   90.00000000
_symmetry_Int_Tables_number   1
_chemical_formula_structural   LiCo3P3O13
_chemical_formula_sum   'Li2 Co6 P6 O26'
_cell_volume   457.39422282
_cell_formula_units_Z   2
loop_
 _symmetry_equiv_pos_site_id
 _symmetry_equiv_pos_as_xyz
  1  'x, y, z'
loop_
 _atom_site_type_symbol
 _atom_site_label
 _atom_site_symmetry_multiplicity
 _atom_site_fract_x
 _atom_site_fract_y
 _atom_site_fract_z
 _atom_site_occupancy
  Li  Li0  1  0.750000  0.638976  0.135102  1
  Li  Li1  1  0.250000  0.361024  0.864898  1
  Co  Co2  1  0.250000  0.367159  0.190820  1
  Co  Co3  1  0.750000  0.632841  0.809180  1
  Co  Co4  1  0.250000  0.767573  0.454148  1
  Co  Co5  1  0.500000  -0.000000  -0.000000  1
  Co  Co6  1  0.750000  0.232427  0.545852  1
  Co  Co7  1  0.000000  -0.000000  -0.000000  1
  P  P8  1  0.250000  0.219382  0.464648  1
  P  P9  1  0.750000  0.780618  0.535352  1
  P  P10  1  0.250000  0.734636  0.776998  1
  P  P11  1  0.750000  0.265364  0.223002  1
  P  P12  1  0.750000  0.299282  0.878100  1
  P  P13  1  0.250000  0.700718  0.121900  1
  O  O14  1  0.750000  0.352455  0.741533  1
  O  O15  1  0.548864  0.723658  0.447032  1
  O  O16  1  0.250000  0.803424  0.650242  1
  O  O17  1  0.536891  0.195490  0.900752  1
  O  O18  1  0.750000  0.654067  0.638209  1
  O  O19  1  0.750000  0.865850  0.903415  1
  O  O20  1  0.250000  0.345933  0.361791  1
  O  O21  1  0.036891  0.804510  0.099248  1
  O  O22  1  0.250000  0.011052  0.402334  1
  O  O23  1  0.750000  0.988948  0.597666  1
  O  O24  1  0.057833  0.608539  0.805716  1
  O  O25  1  0.250000  0.134150  0.096585  1
  O  O26  1  0.557833  0.391461  0.194284  1
  O  O27  1  0.750000  0.506608  0.955778  1
  O  O28  1  0.750000  0.196576  0.349758  1
  O  O29  1  0.463109  0.804510  0.099248  1
  O  O30  1  0.951136  0.723658  0.447032  1
  O  O31  1  0.451136  0.276342  0.552968  1
  O  O32  1  0.442167  0.608539  0.805716  1
  O  O33  1  0.250000  0.647545  0.258467  1
  O  O34  1  0.750000  0.083497  0.109858  1
  O  O35  1  0.250000  0.916503  0.890142  1
  O  O36  1  0.942167  0.391461  0.194284  1
  O  O37  1  0.963109  0.195490  0.900752  1
  O  O38  1  0.048864  0.276342  0.552968  1
  O  O39  1  0.250000  0.493392  0.044222  1
