# generated using pymatgen
data_Ti6Ge5
_symmetry_space_group_name_H-M   'P 1'
_cell_length_a   5.23098381
_cell_length_b   7.97429743
_cell_length_c   9.74279298
_cell_angle_alpha   114.15841124
_cell_angle_beta   105.57229247
_cell_angle_gamma   90.00000001
_symmetry_Int_Tables_number   1
_chemical_formula_structural   Ti6Ge5
_chemical_formula_sum   'Ti12 Ge10'
_cell_volume   354.39793657
_cell_formula_units_Z   2
loop_
 _symmetry_equiv_pos_site_id
 _symmetry_equiv_pos_as_xyz
  1  'x, y, z'
loop_
 _atom_site_type_symbol
 _atom_site_label
 _atom_site_symmetry_multiplicity
 _atom_site_fract_x
 _atom_site_fract_y
 _atom_site_fract_z
 _atom_site_occupancy
  Ti  Ti0  1  0.142060  0.254973  0.284121  1
  Ti  Ti1  1  0.857940  0.745027  0.715879  1
  Ti  Ti2  1  0.357939  0.970869  0.715878  1
  Ti  Ti3  1  0.642061  0.029131  0.284122  1
  Ti  Ti4  1  0.436912  0.678817  0.873825  1
  Ti  Ti5  1  0.563088  0.321183  0.126175  1
  Ti  Ti6  1  0.063088  0.804993  0.126175  1
  Ti  Ti7  1  0.936912  0.195007  0.873825  1
  Ti  Ti8  1  0.058530  0.308532  0.617054  1
  Ti  Ti9  1  0.441476  0.691468  0.382946  1
  Ti  Ti10  1  0.941470  0.691468  0.382946  1
  Ti  Ti11  1  0.558524  0.308532  0.617054  1
  Ge  Ge12  1  0.289025  0.588303  0.578050  1
  Ge  Ge13  1  0.710975  0.411697  0.421950  1
  Ge  Ge14  1  0.210980  0.010227  0.421961  1
  Ge  Ge15  1  0.789020  0.989773  0.578039  1
  Ge  Ge16  1  0.067906  0.469908  0.135813  1
  Ge  Ge17  1  0.932094  0.530092  0.864187  1
  Ge  Ge18  1  0.432098  0.334111  0.864195  1
  Ge  Ge19  1  0.567902  0.665889  0.135805  1
  Ge  Ge20  1  0.749998  0.000000  0.000000  1
  Ge  Ge21  1  0.250002  0.000000  0.000000  1
