# generated using pymatgen
data_Nb2O5
_symmetry_space_group_name_H-M   'P 1'
_cell_length_a   3.91555978
_cell_length_b   4.02144010
_cell_length_c   6.85944828
_cell_angle_alpha   90.59289475
_cell_angle_beta   106.58252321
_cell_angle_gamma   90.00013670
_symmetry_Int_Tables_number   1
_chemical_formula_structural   Nb2O5
_chemical_formula_sum   'Nb2 O5'
_cell_volume   103.51195681
_cell_formula_units_Z   1
loop_
 _symmetry_equiv_pos_site_id
 _symmetry_equiv_pos_as_xyz
  1  'x, y, z'
loop_
 _atom_site_type_symbol
 _atom_site_label
 _atom_site_symmetry_multiplicity
 _atom_site_fract_x
 _atom_site_fract_y
 _atom_site_fract_z
 _atom_site_occupancy
  O  O0  1  0.148233  0.512656  0.296396  1
  O  O1  1  0.851767  0.487344  0.703604  1
  O  O2  1  0.000000  1.000000  0.000000  1
  O  O3  1  0.685201  0.004580  0.370385  1
  O  O4  1  0.314799  0.995420  0.629615  1
  Nb  Nb5  1  0.146694  0.057885  0.293365  1
  Nb  Nb6  1  0.853305  0.942115  0.706636  1
