# generated using pymatgen
data_RbMn4(AsO4)3
_symmetry_space_group_name_H-M   'P 1'
_cell_length_a   6.65884986
_cell_length_b   10.33637424
_cell_length_c   17.68711410
_cell_angle_alpha   90.00000000
_cell_angle_beta   90.00000000
_cell_angle_gamma   90.00000000
_symmetry_Int_Tables_number   1
_chemical_formula_structural   RbMn4(AsO4)3
_chemical_formula_sum   'Rb4 Mn16 As12 O48'
_cell_volume   1217.37513023
_cell_formula_units_Z   4
loop_
 _symmetry_equiv_pos_site_id
 _symmetry_equiv_pos_as_xyz
  1  'x, y, z'
loop_
 _atom_site_type_symbol
 _atom_site_label
 _atom_site_symmetry_multiplicity
 _atom_site_fract_x
 _atom_site_fract_y
 _atom_site_fract_z
 _atom_site_occupancy
  O  O0  1  0.500000  0.129147  0.519510  1
  O  O1  1  0.500000  0.870853  0.480490  1
  O  O2  1  0.000000  0.629147  0.980490  1
  O  O3  1  0.000000  0.370853  0.019510  1
  O  O4  1  0.715072  0.892153  0.183271  1
  O  O5  1  0.715072  0.107847  0.816729  1
  O  O6  1  0.784929  0.392153  0.316729  1
  O  O7  1  0.784929  0.607847  0.683271  1
  O  O8  1  0.284929  0.107847  0.816729  1
  O  O9  1  0.284929  0.892153  0.183271  1
  O  O10  1  0.215071  0.607847  0.683271  1
  O  O11  1  0.215071  0.392153  0.316729  1
  O  O12  1  0.702251  0.656682  0.408154  1
  O  O13  1  0.702251  0.343318  0.591846  1
  O  O14  1  0.797748  0.156682  0.091846  1
  O  O15  1  0.797748  0.843318  0.908154  1
  O  O16  1  0.297749  0.343318  0.591846  1
  O  O17  1  0.297749  0.656682  0.408154  1
  O  O18  1  0.202251  0.843318  0.908154  1
  O  O19  1  0.708072  0.591958  0.118758  1
  O  O20  1  0.500000  0.635523  0.549471  1
  O  O21  1  0.500000  0.364477  0.450529  1
  O  O22  1  0.000000  0.135523  0.950529  1
  O  O23  1  0.000000  0.864477  0.049471  1
  O  O24  1  0.500000  0.386062  0.743173  1
  O  O25  1  0.500000  0.613938  0.256827  1
  O  O26  1  0.000000  0.886062  0.756827  1
  O  O27  1  0.000000  0.113938  0.243173  1
  O  O28  1  0.500000  0.113337  0.686823  1
  O  O29  1  0.500000  0.886663  0.313177  1
  O  O30  1  0.000000  0.613337  0.813177  1
  O  O31  1  0.000000  0.386663  0.186824  1
  O  O32  1  0.000000  0.125676  0.678479  1
  O  O33  1  0.000000  0.874324  0.321522  1
  O  O34  1  0.500000  0.625676  0.821521  1
  O  O35  1  0.500000  0.374324  0.178479  1
  O  O36  1  0.000000  0.621032  0.271096  1
  O  O37  1  0.000000  0.378969  0.728905  1
  O  O38  1  0.500000  0.121031  0.228905  1
  O  O39  1  0.500000  0.878969  0.771095  1
  O  O40  1  0.208073  0.091958  0.381242  1
  O  O41  1  0.208073  0.908042  0.618759  1
  O  O42  1  0.291927  0.591958  0.118758  1
  O  O43  1  0.291927  0.408042  0.881241  1
  O  O44  1  0.791927  0.908042  0.618759  1
  O  O45  1  0.791927  0.091958  0.381242  1
  O  O46  1  0.708072  0.408042  0.881241  1
  O  O47  1  0.202251  0.156682  0.091846  1
  Mn  Mn48  1  0.752381  0.745896  0.298488  1
  Mn  Mn49  1  0.752381  0.254104  0.701512  1
  Mn  Mn50  1  0.747619  0.245896  0.201512  1
  Mn  Mn51  1  0.747619  0.754104  0.798488  1
  Mn  Mn52  1  0.247618  0.254104  0.701512  1
  Mn  Mn53  1  0.247618  0.745896  0.298488  1
  Mn  Mn54  1  0.252382  0.754104  0.798488  1
  Mn  Mn55  1  0.252382  0.245896  0.201512  1
  Mn  Mn56  1  0.500000  0.522117  0.644483  1
  Mn  Mn57  1  0.500000  0.477883  0.355516  1
  Mn  Mn58  1  0.000000  0.022117  0.855517  1
  Mn  Mn59  1  0.000000  0.977883  0.144483  1
  Mn  Mn60  1  0.500000  0.964659  0.592275  1
  Mn  Mn61  1  0.500000  0.035341  0.407725  1
  Mn  Mn62  1  0.000000  0.464659  0.907725  1
  Mn  Mn63  1  0.000000  0.535341  0.092275  1
  As  As64  1  0.500000  0.293666  0.536692  1
  As  As65  1  0.500000  0.706334  0.463307  1
  As  As66  1  0.000000  0.793666  0.963308  1
  As  As67  1  0.000000  0.206334  0.036693  1
  As  As68  1  0.500000  0.045282  0.778126  1
  As  As69  1  0.500000  0.954718  0.221873  1
  As  As70  1  0.000000  0.545282  0.721874  1
  As  As71  1  0.000000  0.454718  0.278126  1
  As  As72  1  0.500000  0.458878  0.834444  1
  As  As73  1  0.500000  0.541122  0.165555  1
  As  As74  1  0.000000  0.958878  0.665556  1
  As  As75  1  0.000000  0.041122  0.334445  1
  Rb  Rb76  1  0.500000  0.199982  0.964705  1
  Rb  Rb77  1  0.500000  0.800018  0.035295  1
  Rb  Rb78  1  0.000000  0.699982  0.535295  1
  Rb  Rb79  1  0.000000  0.300018  0.464705  1
