# generated using pymatgen
data_MgSiO3
_symmetry_space_group_name_H-M   'P 1'
_cell_length_a   18.64036904
_cell_length_b   8.93309765
_cell_length_c   5.27152614
_cell_angle_alpha   90.00000000
_cell_angle_beta   95.25269435
_cell_angle_gamma   90.00000000
_symmetry_Int_Tables_number   1
_chemical_formula_structural   MgSiO3
_chemical_formula_sum   'Mg16 Si16 O48'
_cell_volume   874.10850599
_cell_formula_units_Z   16
loop_
 _symmetry_equiv_pos_site_id
 _symmetry_equiv_pos_as_xyz
  1  'x, y, z'
loop_
 _atom_site_type_symbol
 _atom_site_label
 _atom_site_symmetry_multiplicity
 _atom_site_fract_x
 _atom_site_fract_y
 _atom_site_fract_z
 _atom_site_occupancy
  Mg  Mg0  1  0.812925  0.902295  0.433424  1
  Mg  Mg1  1  0.812925  0.097705  0.933424  1
  Mg  Mg2  1  0.816268  0.260259  0.438555  1
  Mg  Mg3  1  0.816268  0.739741  0.938555  1
  Mg  Mg4  1  0.563563  0.599213  0.813159  1
  Mg  Mg5  1  0.563563  0.400787  0.313159  1
  Mg  Mg6  1  0.564093  0.243788  0.814649  1
  Mg  Mg7  1  0.564093  0.756212  0.314649  1
  Mg  Mg8  1  0.312380  0.900901  0.180342  1
  Mg  Mg9  1  0.312380  0.099099  0.680342  1
  Mg  Mg10  1  0.310814  0.259428  0.182048  1
  Mg  Mg11  1  0.310814  0.740572  0.682048  1
  Mg  Mg12  1  0.060543  0.597943  0.241242  1
  Mg  Mg13  1  0.060543  0.402057  0.741242  1
  Mg  Mg14  1  0.058417  0.762225  0.734692  1
  Mg  Mg15  1  0.058417  0.237775  0.234692  1
  Si  Si16  1  0.963194  0.086521  0.645448  1
  Si  Si17  1  0.963194  0.913479  0.145448  1
  Si  Si18  1  0.911042  0.586793  0.530052  1
  Si  Si19  1  0.911042  0.413207  0.030052  1
  Si  Si20  1  0.711169  0.589425  0.195540  1
  Si  Si21  1  0.711169  0.410575  0.695540  1
  Si  Si22  1  0.666859  0.908908  0.721960  1
  Si  Si23  1  0.666859  0.091092  0.221960  1
  Si  Si24  1  0.416127  0.411043  0.926759  1
  Si  Si25  1  0.416127  0.588957  0.426759  1
  Si  Si26  1  0.460806  0.910039  0.892572  1
  Si  Si27  1  0.460806  0.089961  0.392572  1
  Si  Si28  1  0.163878  0.909825  0.471581  1
  Si  Si29  1  0.163878  0.090175  0.971581  1
  Si  Si30  1  0.206458  0.590323  0.947462  1
  Si  Si31  1  0.206458  0.409677  0.447462  1
  O  O32  1  0.875016  0.089254  0.620107  1
  O  O33  1  0.875016  0.910746  0.120107  1
  O  O34  1  0.003675  0.231625  0.548268  1
  O  O35  1  0.003675  0.768375  0.048268  1
  O  O36  1  0.988831  0.945347  0.458156  1
  O  O37  1  0.988831  0.054653  0.958156  1
  O  O38  1  0.999212  0.589901  0.555528  1
  O  O39  1  0.999212  0.410099  0.055528  1
  O  O40  1  0.885495  0.445767  0.717538  1
  O  O41  1  0.885495  0.554233  0.217538  1
  O  O42  1  0.870365  0.267955  0.125547  1
  O  O43  1  0.870365  0.732045  0.625547  1
  O  O44  1  0.623295  0.588537  0.165767  1
  O  O45  1  0.623295  0.411463  0.665767  1
  O  O46  1  0.750885  0.748204  0.230447  1
  O  O47  1  0.750885  0.251796  0.730447  1
  O  O48  1  0.741233  0.532893  0.919489  1
  O  O49  1  0.741233  0.467107  0.419489  1
  O  O50  1  0.755019  0.908050  0.748499  1
  O  O51  1  0.755019  0.091950  0.248499  1
  O  O52  1  0.626290  0.753359  0.645691  1
  O  O53  1  0.626290  0.246641  0.145691  1
  O  O54  1  0.637703  0.026342  0.488362  1
  O  O55  1  0.637703  0.973658  -0.011638  1
  O  O56  1  0.504039  0.590793  0.458398  1
  O  O57  1  0.504039  0.409207  0.958398  1
  O  O58  1  0.372089  0.257801  0.881008  1
  O  O59  1  0.372089  0.742199  0.381008  1
  O  O60  1  0.388547  0.537791  0.708372  1
  O  O61  1  0.388547  0.462209  0.208372  1
  O  O62  1  0.372534  0.907265  0.868397  1
  O  O63  1  0.372534  0.092735  0.368397  1
  O  O64  1  0.502660  0.242055  0.482436  1
  O  O65  1  0.502660  0.757945  0.982436  1
  O  O66  1  0.488389  0.963144  0.614612  1
  O  O67  1  0.488389  0.036856  0.114612  1
  O  O68  1  0.251701  0.910436  0.491933  1
  O  O69  1  0.251701  0.089564  0.991933  1
  O  O70  1  0.123527  0.248756  0.941076  1
  O  O71  1  0.123527  0.751244  0.441076  1
  O  O72  1  0.133376  0.969488  0.745006  1
  O  O73  1  0.133376  0.030512  0.245006  1
  O  O74  1  0.118618  0.592188  0.926930  1
  O  O75  1  0.118618  0.407812  0.426930  1
  O  O76  1  0.249521  0.745890  0.981963  1
  O  O77  1  0.249521  0.254110  0.481963  1
  O  O78  1  0.235445  0.531285  0.672984  1
  O  O79  1  0.235445  0.468715  0.172984  1
