# generated using pymatgen
data_NaAl(SiO3)2
_symmetry_space_group_name_H-M   'P 1'
_cell_length_a   11.95374495
_cell_length_b   11.95374495
_cell_length_c   12.00080168
_cell_angle_alpha   108.67911780
_cell_angle_beta   109.19135186
_cell_angle_gamma   110.39274445
_symmetry_Int_Tables_number   1
_chemical_formula_structural   NaAl(SiO3)2
_chemical_formula_sum   'Na8 Al8 Si16 O48'
_cell_volume   1322.27889867
_cell_formula_units_Z   8
loop_
 _symmetry_equiv_pos_site_id
 _symmetry_equiv_pos_as_xyz
  1  'x, y, z'
loop_
 _atom_site_type_symbol
 _atom_site_label
 _atom_site_symmetry_multiplicity
 _atom_site_fract_x
 _atom_site_fract_y
 _atom_site_fract_z
 _atom_site_occupancy
  Na  Na0  1  0.333267  0.249287  0.613104  1
  Na  Na1  1  0.136182  0.720163  0.886896  1
  Na  Na2  1  0.666733  0.750713  0.386896  1
  Na  Na3  1  0.863818  0.279837  0.113104  1
  Na  Na4  1  0.742073  0.353150  0.602881  1
  Na  Na5  1  0.250269  0.139192  0.897119  1
  Na  Na6  1  0.257927  0.646850  0.397120  1
  Na  Na7  1  0.749731  0.860808  0.102880  1
  Al  Al8  1  0.749847  0.537419  0.467097  1
  Al  Al9  1  0.570321  0.282750  0.032903  1
  Al  Al10  1  0.250153  0.462581  0.532903  1
  Al  Al11  1  0.429679  0.717250  0.967097  1
  Al  Al12  1  0.748139  0.215415  0.784371  1
  Al  Al13  1  0.931044  0.963768  0.715629  1
  Al  Al14  1  0.251861  0.784585  0.215629  1
  Al  Al15  1  0.068956  0.036232  0.284371  1
  Si  Si16  1  0.539150  0.567577  0.791062  1
  Si  Si17  1  0.276515  0.748088  0.708938  1
  Si  Si18  1  0.460850  0.432423  0.208938  1
  Si  Si19  1  0.723485  0.251912  0.291062  1
  Si  Si20  1  0.961460  0.748458  0.028871  1
  Si  Si21  1  0.219587  0.932589  0.471129  1
  Si  Si22  1  0.038540  0.251542  0.971129  1
  Si  Si23  1  0.780413  0.067411  0.528871  1
  Si  Si24  1  0.209825  0.299338  0.252760  1
  Si  Si25  1  0.546577  0.957064  0.247240  1
  Si  Si26  1  0.790175  0.700662  0.747240  1
  Si  Si27  1  0.453423  0.042936  0.752760  1
  Si  Si28  1  0.289385  0.544673  0.088527  1
  Si  Si29  1  0.956146  0.200858  0.411473  1
  Si  Si30  1  0.710615  0.455327  0.911473  1
  Si  Si31  1  0.043854  0.799142  0.588527  1
  O  O32  1  0.753633  0.562244  0.621984  1
  O  O33  1  0.440260  0.131649  0.878016  1
  O  O34  1  0.246367  0.437756  0.378016  1
  O  O35  1  0.559740  0.868351  0.121984  1
  O  O36  1  0.744972  0.368026  0.805831  1
  O  O37  1  0.062196  0.939141  0.694169  1
  O  O38  1  0.255028  0.631974  0.194169  1
  O  O39  1  0.937805  0.060859  0.305831  1
  O  O40  1  0.247277  0.616010  0.583833  1
  O  O41  1  0.532177  0.663445  0.916167  1
  O  O42  1  0.752723  0.383990  0.416167  1
  O  O43  1  0.467823  0.336555  0.083833  1
  O  O44  1  0.251381  0.838255  0.369825  1
  O  O45  1  0.968430  0.881557  0.130175  1
  O  O46  1  0.748619  0.161745  0.630175  1
  O  O47  1  0.031570  0.118443  0.869825  1
  O  O48  1  0.396360  0.475558  0.648376  1
  O  O49  1  0.327182  0.747984  0.851624  1
  O  O50  1  0.603640  0.524442  0.351624  1
  O  O51  1  0.672818  0.252016  0.148376  1
  O  O52  1  0.103762  0.746291  0.078591  1
  O  O53  1  0.167700  0.025171  0.421409  1
  O  O54  1  0.896238  0.253709  0.921409  1
  O  O55  1  0.832300  0.974829  0.578591  1
  O  O56  1  0.817364  0.826114  0.716850  1
  O  O57  1  0.609264  0.100513  0.783150  1
  O  O58  1  0.182636  0.173886  0.283150  1
  O  O59  1  0.390736  0.899487  0.216850  1
  O  O60  1  0.688609  0.394241  0.009192  1
  O  O61  1  0.885048  0.679417  0.490808  1
  O  O62  1  0.311391  0.605759  0.990808  1
  O  O63  1  0.114952  0.320583  0.509192  1
  O  O64  1  0.333118  0.329233  0.214781  1
  O  O65  1  0.614452  0.118337  0.285219  1
  O  O66  1  0.666882  0.670767  0.785219  1
  O  O67  1  0.385548  0.881663  0.714781  1
  O  O68  1  0.166407  0.383829  0.993594  1
  O  O69  1  0.890235  0.172813  0.506406  1
  O  O70  1  0.833593  0.616171  0.006406  1
  O  O71  1  0.109765  0.827187  0.493594  1
  O  O72  1  0.431412  0.549783  0.181749  1
  O  O73  1  0.868034  0.249663  0.318251  1
  O  O74  1  0.568588  0.450217  0.818251  1
  O  O75  1  0.131966  0.750337  0.681749  1
  O  O76  1  0.069903  0.259501  0.119710  1
  O  O77  1  0.639791  0.950193  0.380290  1
  O  O78  1  0.930097  0.740499  0.880290  1
  O  O79  1  0.360209  0.049807  0.619710  1
