# generated using pymatgen
data_Te2Mo3W(Se2S)2
_symmetry_space_group_name_H-M   'P 1'
_cell_length_a   3.34146257
_cell_length_b   3.34147641
_cell_length_c   38.12548645
_cell_angle_alpha   89.99963919
_cell_angle_beta   90.00000000
_cell_angle_gamma   119.99986293
_symmetry_Int_Tables_number   1
_chemical_formula_structural   Te2Mo3W(Se2S)2
_chemical_formula_sum   'Te2 Mo3 W1 Se4 S2'
_cell_volume   368.65627001
_cell_formula_units_Z   1
loop_
 _symmetry_equiv_pos_site_id
 _symmetry_equiv_pos_as_xyz
  1  'x, y, z'
loop_
 _atom_site_type_symbol
 _atom_site_label
 _atom_site_symmetry_multiplicity
 _atom_site_fract_x
 _atom_site_fract_y
 _atom_site_fract_z
 _atom_site_occupancy
  Te  Te0  1  0.666651  0.333300  0.419899  1
  Te  Te1  1  0.666642  0.333283  0.519467  1
  Mo  Mo2  1  0.333315  0.666629  0.093923  1
  Mo  Mo3  1  0.333313  0.666626  0.469703  1
  Mo  Mo4  1  0.666688  0.333377  0.281762  1
  W  W5  1  0.666689  0.333379  0.657562  1
  Se  Se6  1  0.333353  0.666706  0.325538  1
  Se  Se7  1  0.666649  0.333297  0.050116  1
  Se  Se8  1  0.666650  0.333299  0.137707  1
  Se  Se9  1  0.333348  0.666698  0.237964  1
  S  S10  1  0.333352  0.666704  0.697449  1
  S  S11  1  0.333351  0.666703  0.617657  1
