# generated using pymatgen
data_Te2MoWSe2
_symmetry_space_group_name_H-M   'P 1'
_cell_length_a   3.43622189
_cell_length_b   3.43618156
_cell_length_c   39.11747997
_cell_angle_alpha   90.00030394
_cell_angle_beta   90.00000000
_cell_angle_gamma   120.00038833
_symmetry_Int_Tables_number   1
_chemical_formula_structural   Te2MoWSe2
_chemical_formula_sum   'Te4 Mo2 W2 Se4'
_cell_volume   399.99734103
_cell_formula_units_Z   2
loop_
 _symmetry_equiv_pos_site_id
 _symmetry_equiv_pos_as_xyz
  1  'x, y, z'
loop_
 _atom_site_type_symbol
 _atom_site_label
 _atom_site_symmetry_multiplicity
 _atom_site_fract_x
 _atom_site_fract_y
 _atom_site_fract_z
 _atom_site_occupancy
  Te  Te0  1  0.666644  0.333288  0.046451  1
  Te  Te1  1  0.666649  0.333297  0.422192  1
  Te  Te2  1  0.666650  0.333299  0.141402  1
  Te  Te3  1  0.666648  0.333295  0.517125  1
  Mo  Mo4  1  0.333310  0.666620  0.093917  1
  Mo  Mo5  1  0.333310  0.666620  0.469655  1
  W  W6  1  0.666687  0.333373  0.281801  1
  W  W7  1  0.666688  0.333377  0.657544  1
  Se  Se8  1  0.333356  0.666713  0.323833  1
  Se  Se9  1  0.333353  0.666708  0.699549  1
  Se  Se10  1  0.333351  0.666703  0.239773  1
  Se  Se11  1  0.333353  0.666708  0.615506  1
