# generated using pymatgen
data_Mn4Nb2Si5
_symmetry_space_group_name_H-M   'P 1'
_cell_length_a   5.16270483
_cell_length_b   7.29063163
_cell_length_c   9.43910613
_cell_angle_alpha   112.71781722
_cell_angle_beta   105.87110973
_cell_angle_gamma   90.00000002
_symmetry_Int_Tables_number   1
_chemical_formula_structural   Mn4Nb2Si5
_chemical_formula_sum   'Mn8 Nb4 Si10'
_cell_volume   312.98454584
_cell_formula_units_Z   2
loop_
 _symmetry_equiv_pos_site_id
 _symmetry_equiv_pos_as_xyz
  1  'x, y, z'
loop_
 _atom_site_type_symbol
 _atom_site_label
 _atom_site_symmetry_multiplicity
 _atom_site_fract_x
 _atom_site_fract_y
 _atom_site_fract_z
 _atom_site_occupancy
  Si  Si0  1  0.558383  0.657688  0.116766  1
  Si  Si1  1  0.204827  0.014779  0.409654  1
  Si  Si2  1  0.704827  0.394875  0.409654  1
  Si  Si3  1  0.295173  0.605125  0.590346  1
  Si  Si4  1  0.250000  0.000000  0.000000  1
  Si  Si5  1  0.750000  0.000000  0.000000  1
  Si  Si6  1  0.795173  0.985221  0.590346  1
  Si  Si7  1  0.058383  0.459078  0.116766  1
  Si  Si8  1  0.441617  0.342312  0.883234  1
  Si  Si9  1  0.941617  0.540922  0.883234  1
  Mn  Mn10  1  0.647104  0.026156  0.294208  1
  Mn  Mn11  1  0.436038  0.685552  0.872077  1
  Mn  Mn12  1  0.852896  0.731948  0.705792  1
  Mn  Mn13  1  0.147104  0.268052  0.294208  1
  Mn  Mn14  1  0.936038  0.186525  0.872077  1
  Mn  Mn15  1  0.063962  0.813475  0.127923  1
  Mn  Mn16  1  0.563962  0.314448  0.127923  1
  Mn  Mn17  1  0.352896  0.973844  0.705792  1
  Nb  Nb18  1  0.936832  0.686832  0.373665  1
  Nb  Nb19  1  0.436832  0.686832  0.373665  1
  Nb  Nb20  1  0.063168  0.313168  0.626335  1
  Nb  Nb21  1  0.563168  0.313168  0.626335  1
