# generated using pymatgen
data_CaMnO3
_symmetry_space_group_name_H-M   'P 1'
_cell_length_a   5.32579863
_cell_length_b   5.40497032
_cell_length_c   7.55999188
_cell_angle_alpha   90.00000000
_cell_angle_beta   90.00000000
_cell_angle_gamma   90.00000000
_symmetry_Int_Tables_number   1
_chemical_formula_structural   CaMnO3
_chemical_formula_sum   'Ca4 Mn4 O12'
_cell_volume   217.62028971
_cell_formula_units_Z   4
loop_
 _symmetry_equiv_pos_site_id
 _symmetry_equiv_pos_as_xyz
  1  'x, y, z'
loop_
 _atom_site_type_symbol
 _atom_site_label
 _atom_site_symmetry_multiplicity
 _atom_site_fract_x
 _atom_site_fract_y
 _atom_site_fract_z
 _atom_site_occupancy
  Ca  Ca0  1  0.990778  0.045151  0.249999  1
  Ca  Ca1  1  0.490778  0.454849  0.750000  1
  Ca  Ca2  1  0.509222  0.545152  0.249999  1
  Ca  Ca3  1  0.009222  0.954850  0.750000  1
  Mn  Mn4  1  0.500000  0.000000  0.000000  1
  Mn  Mn5  1  0.000000  0.499999  0.000000  1
  Mn  Mn6  1  0.000000  0.499999  0.500000  1
  Mn  Mn7  1  0.500000  0.000000  0.500000  1
  O  O8  1  0.922793  0.517859  0.750000  1
  O  O9  1  0.422793  0.982143  0.249999  1
  O  O10  1  0.577207  0.017858  0.750000  1
  O  O11  1  0.077207  0.482142  0.249999  1
  O  O12  1  0.707116  0.291231  0.460000  1
  O  O13  1  0.207116  0.208770  0.540001  1
  O  O14  1  0.792884  0.791230  0.040001  1
  O  O15  1  0.292884  0.708769  0.959999  1
  O  O16  1  0.707116  0.291231  0.040001  1
  O  O17  1  0.207116  0.208770  0.959999  1
  O  O18  1  0.292884  0.708769  0.540001  1
  O  O19  1  0.792884  0.791230  0.460000  1
