# generated using pymatgen
data_Te2MoWSeS
_symmetry_space_group_name_H-M   'P 1'
_cell_length_a   3.39559909
_cell_length_b   3.39556350
_cell_length_c   42.14960149
_cell_angle_alpha   90.00143968
_cell_angle_beta   90.00030320
_cell_angle_gamma   120.00032668
_symmetry_Int_Tables_number   1
_chemical_formula_structural   Te2MoWSeS
_chemical_formula_sum   'Te4 Mo2 W2 Se2 S2'
_cell_volume   420.87287865
_cell_formula_units_Z   2
loop_
 _symmetry_equiv_pos_site_id
 _symmetry_equiv_pos_as_xyz
  1  'x, y, z'
loop_
 _atom_site_type_symbol
 _atom_site_label
 _atom_site_symmetry_multiplicity
 _atom_site_fract_x
 _atom_site_fract_y
 _atom_site_fract_z
 _atom_site_occupancy
  Te  Te0  1  0.333296  0.666581  0.329176  1
  Te  Te1  1  0.666599  0.333206  0.046000  1
  Te  Te2  1  0.666626  0.333249  0.134851  1
  Te  Te3  1  0.333291  0.666580  0.239809  1
  Mo  Mo4  1  0.333256  0.666514  0.090398  1
  Mo  Mo5  1  0.333434  0.666857  0.470516  1
  W  W6  1  0.666634  0.333265  0.284497  1
  W  W7  1  0.666682  0.333375  0.657491  1
  Se  Se8  1  0.666748  0.333495  0.431407  1
  Se  Se9  1  0.666779  0.333549  0.509629  1
  S  S10  1  0.333333  0.666669  0.693240  1
  S  S11  1  0.333322  0.666659  0.621735  1
