# generated using pymatgen
data_Te2Mo3WS6
_symmetry_space_group_name_H-M   'P 1'
_cell_length_a   3.27746619
_cell_length_b   3.27772532
_cell_length_c   36.41468311
_cell_angle_alpha   90.00811670
_cell_angle_beta   90.00000000
_cell_angle_gamma   119.99738471
_symmetry_Int_Tables_number   1
_chemical_formula_structural   Te2Mo3WS6
_chemical_formula_sum   'Te2 Mo3 W1 S6'
_cell_volume   338.78906294
_cell_formula_units_Z   1
loop_
 _symmetry_equiv_pos_site_id
 _symmetry_equiv_pos_as_xyz
  1  'x, y, z'
loop_
 _atom_site_type_symbol
 _atom_site_label
 _atom_site_symmetry_multiplicity
 _atom_site_fract_x
 _atom_site_fract_y
 _atom_site_fract_z
 _atom_site_occupancy
  Te  Te0  1  0.333444  0.666889  0.710793  1
  Te  Te1  1  0.333297  0.666595  0.604410  1
  Mo  Mo2  1  0.333319  0.666637  0.093938  1
  Mo  Mo3  1  0.333341  0.666681  0.469570  1
  Mo  Mo4  1  0.666629  0.333257  0.281822  1
  W  W5  1  0.666693  0.333387  0.657630  1
  S  S6  1  0.333388  0.666777  0.323992  1
  S  S7  1  0.666606  0.333212  0.051700  1
  S  S8  1  0.666595  0.333189  0.427428  1
  S  S9  1  0.666678  0.333356  0.136149  1
  S  S10  1  0.666669  0.333336  0.511748  1
  S  S11  1  0.333342  0.666684  0.239566  1
