# generated using pymatgen
data_Te2MoWSeS
_symmetry_space_group_name_H-M   'P 1'
_cell_length_a   3.40116096
_cell_length_b   3.40132433
_cell_length_c   38.69715659
_cell_angle_alpha   89.99959993
_cell_angle_beta   90.00000000
_cell_angle_gamma   119.99841120
_symmetry_Int_Tables_number   1
_chemical_formula_structural   Te2MoWSeS
_chemical_formula_sum   'Te4 Mo2 W2 Se2 S2'
_cell_volume   387.69649053
_cell_formula_units_Z   2
loop_
 _symmetry_equiv_pos_site_id
 _symmetry_equiv_pos_as_xyz
  1  'x, y, z'
loop_
 _atom_site_type_symbol
 _atom_site_label
 _atom_site_symmetry_multiplicity
 _atom_site_fract_x
 _atom_site_fract_y
 _atom_site_fract_z
 _atom_site_occupancy
  Te  Te0  1  0.333354  0.666710  0.706152  1
  Te  Te1  1  0.666636  0.333271  0.045328  1
  Te  Te2  1  0.666645  0.333288  0.142550  1
  Te  Te3  1  0.333357  0.666714  0.608913  1
  Mo  Mo4  1  0.333314  0.666627  0.469645  1
  Mo  Mo5  1  0.666708  0.333416  0.281786  1
  W  W6  1  0.333310  0.666619  0.093909  1
  W  W7  1  0.666691  0.333382  0.657560  1
  Se  Se8  1  0.666649  0.333297  0.427150  1
  Se  Se9  1  0.666648  0.333294  0.512161  1
  S  S10  1  0.333344  0.666689  0.320622  1
  S  S11  1  0.333346  0.666693  0.242972  1
