# generated using pymatgen
data_Te2MoW2(SeS)2
_symmetry_space_group_name_H-M   'P 1'
_cell_length_a   3.34516538
_cell_length_b   3.34517455
_cell_length_c   31.00815135
_cell_angle_alpha   89.99990886
_cell_angle_beta   90.00000131
_cell_angle_gamma   119.99989667
_symmetry_Int_Tables_number   1
_chemical_formula_structural   Te2MoW2(SeS)2
_chemical_formula_sum   'Te2 Mo1 W2 Se2 S2'
_cell_volume   300.49921118
_cell_formula_units_Z   1
loop_
 _symmetry_equiv_pos_site_id
 _symmetry_equiv_pos_as_xyz
  1  'x, y, z'
loop_
 _atom_site_type_symbol
 _atom_site_label
 _atom_site_symmetry_multiplicity
 _atom_site_fract_x
 _atom_site_fract_y
 _atom_site_fract_z
 _atom_site_occupancy
  Te  Te0  1  0.333359  0.666718  0.408018  1
  Te  Te1  1  0.333349  0.666698  0.285864  1
  Mo  Mo2  1  0.666688  0.333376  0.346986  1
  W  W3  1  0.333311  0.666622  0.115647  1
  W  W4  1  0.333308  0.666615  0.578368  1
  Se  Se5  1  0.666647  0.333293  0.524387  1
  Se  Se6  1  0.666648  0.333295  0.632294  1
  S  S7  1  0.666644  0.333286  0.066556  1
  S  S8  1  0.666649  0.333297  0.164722  1
