# generated using pymatgen
data_MoWSeS3
_symmetry_space_group_name_H-M   'P 1'
_cell_length_a   3.21987231
_cell_length_b   3.21983031
_cell_length_c   36.38393514
_cell_angle_alpha   89.99990233
_cell_angle_beta   90.00000000
_cell_angle_gamma   120.00043157
_symmetry_Int_Tables_number   1
_chemical_formula_structural   MoWSeS3
_chemical_formula_sum   'Mo2 W2 Se2 S6'
_cell_volume   326.67059666
_cell_formula_units_Z   2
loop_
 _symmetry_equiv_pos_site_id
 _symmetry_equiv_pos_as_xyz
  1  'x, y, z'
loop_
 _atom_site_type_symbol
 _atom_site_label
 _atom_site_symmetry_multiplicity
 _atom_site_fract_x
 _atom_site_fract_y
 _atom_site_fract_z
 _atom_site_occupancy
  Mo  Mo0  1  0.333311  0.666623  0.093918  1
  Mo  Mo1  1  0.666691  0.333383  0.657549  1
  W  W2  1  0.333309  0.666617  0.469647  1
  W  W3  1  0.666687  0.333374  0.281796  1
  Se  Se4  1  0.333359  0.666718  0.704604  1
  Se  Se5  1  0.333358  0.666717  0.610502  1
  S  S6  1  0.333355  0.666711  0.324745  1
  S  S7  1  0.666646  0.333291  0.051104  1
  S  S8  1  0.666644  0.333286  0.426706  1
  S  S9  1  0.666645  0.333290  0.136732  1
  S  S10  1  0.666642  0.333283  0.512602  1
  S  S11  1  0.333353  0.666707  0.238845  1
