# generated using pymatgen
data_TeMoWSeS2
_symmetry_space_group_name_H-M   'P 1'
_cell_length_a   3.30599816
_cell_length_b   3.30592542
_cell_length_c   37.65785584
_cell_angle_alpha   89.99993619
_cell_angle_beta   90.00000000
_cell_angle_gamma   120.00072784
_symmetry_Int_Tables_number   1
_chemical_formula_structural   TeMoWSeS2
_chemical_formula_sum   'Te2 Mo2 W2 Se2 S4'
_cell_volume   356.43364728
_cell_formula_units_Z   2
loop_
 _symmetry_equiv_pos_site_id
 _symmetry_equiv_pos_as_xyz
  1  'x, y, z'
loop_
 _atom_site_type_symbol
 _atom_site_label
 _atom_site_symmetry_multiplicity
 _atom_site_fract_x
 _atom_site_fract_y
 _atom_site_fract_z
 _atom_site_occupancy
  Te  Te0  1  0.333359  0.666719  0.332640  1
  Te  Te1  1  0.333353  0.666706  0.230981  1
  Mo  Mo2  1  0.333341  0.666681  0.469688  1
  Mo  Mo3  1  0.666696  0.333391  0.281797  1
  W  W4  1  0.333310  0.666620  0.093885  1
  W  W5  1  0.666697  0.333393  0.657541  1
  Se  Se6  1  0.333352  0.666705  0.702449  1
  Se  Se7  1  0.333353  0.666706  0.612626  1
  S  S8  1  0.666643  0.333285  0.053143  1
  S  S9  1  0.666627  0.333254  0.429127  1
  S  S10  1  0.666647  0.333292  0.134639  1
  S  S11  1  0.666624  0.333247  0.510233  1
