# generated using pymatgen
data_H2CO3
_symmetry_space_group_name_H-M   'P 1'
_cell_length_a   4.75012547
_cell_length_b   4.75012547
_cell_length_c   6.58336481
_cell_angle_alpha   90.00000000
_cell_angle_beta   90.00000000
_cell_angle_gamma   89.90526657
_symmetry_Int_Tables_number   1
_chemical_formula_structural   H2CO3
_chemical_formula_sum   'H4 C2 O6'
_cell_volume   148.54481286
_cell_formula_units_Z   2
loop_
 _symmetry_equiv_pos_site_id
 _symmetry_equiv_pos_as_xyz
  1  'x, y, z'
loop_
 _atom_site_type_symbol
 _atom_site_label
 _atom_site_symmetry_multiplicity
 _atom_site_fract_x
 _atom_site_fract_y
 _atom_site_fract_z
 _atom_site_occupancy
  H  H0  1  0.416698  0.583302  0.208291  1
  H  H1  1  0.416698  0.583302  0.791709  1
  H  H2  1  0.083302  0.916698  0.708291  1
  H  H3  1  0.083302  0.916698  0.291709  1
  C  C4  1  0.397571  0.602429  0.500000  1
  C  C5  1  0.102429  0.897571  0.000000  1
  O  O6  1  0.209049  0.790951  0.500000  1
  O  O7  1  0.290951  0.709049  0.000000  1
  O  O8  1  0.505466  0.494534  0.333839  1
  O  O9  1  0.505466  0.494534  0.666161  1
  O  O10  1  0.994534  0.005466  0.833839  1
  O  O11  1  0.994534  0.005466  0.166161  1
