# generated using pymatgen
data_LiB(SO4)2
_symmetry_space_group_name_H-M   'P 1'
_cell_length_a   7.78209398
_cell_length_b   9.52755156
_cell_length_c   8.58319963
_cell_angle_alpha   90.00000000
_cell_angle_beta   92.40213879
_cell_angle_gamma   90.00000000
_symmetry_Int_Tables_number   1
_chemical_formula_structural   LiB(SO4)2
_chemical_formula_sum   'Li4 B4 S8 O32'
_cell_volume   635.83612030
_cell_formula_units_Z   4
loop_
 _symmetry_equiv_pos_site_id
 _symmetry_equiv_pos_as_xyz
  1  'x, y, z'
loop_
 _atom_site_type_symbol
 _atom_site_label
 _atom_site_symmetry_multiplicity
 _atom_site_fract_x
 _atom_site_fract_y
 _atom_site_fract_z
 _atom_site_occupancy
  Li  Li0  1  0.237591  0.123688  0.534119  1
  Li  Li1  1  0.237591  0.876312  0.034119  1
  Li  Li2  1  0.721548  0.668700  0.868494  1
  Li  Li3  1  0.721548  0.331300  0.368494  1
  B  B4  1  0.218509  0.397764  0.017770  1
  B  B5  1  0.218509  0.602236  0.517770  1
  B  B6  1  0.733252  0.853107  0.396759  1
  B  B7  1  0.733252  0.146893  0.896759  1
  S  S8  1  0.572494  0.376859  0.014362  1
  S  S9  1  0.572494  0.623141  0.514362  1
  S  S10  1  0.120742  0.387623  0.321411  1
  S  S11  1  0.120742  0.612377  0.821411  1
  S  S12  1  0.645536  0.058177  0.597456  1
  S  S13  1  0.645536  0.941823  0.097456  1
  S  S14  1  0.084674  0.838520  0.378519  1
  S  S15  1  0.084674  0.161480  0.878519  1
  O  O16  1  0.574603  0.323615  0.171923  1
  O  O17  1  0.574603  0.676385  0.671923  1
  O  O18  1  0.688701  0.489716  0.982461  1
  O  O19  1  0.688701  0.510284  0.482461  1
  O  O20  1  0.234702  0.291066  0.403856  1
  O  O21  1  0.234702  0.708934  0.903856  1
  O  O22  1  0.951192  0.337589  0.275972  1
  O  O23  1  0.951192  0.662411  0.775972  1
  O  O24  1  0.464843  0.033851  0.563418  1
  O  O25  1  0.464843  0.966149  0.063418  1
  O  O26  1  0.716955  0.186891  0.539464  1
  O  O27  1  0.716955  0.813109  0.039464  1
  O  O28  1  0.089045  0.983205  0.427057  1
  O  O29  1  0.089045  0.016795  0.927057  1
  O  O30  1  0.161388  0.803683  0.233650  1
  O  O31  1  0.161388  0.196317  0.733650  1
  O  O32  1  0.391384  0.426456  0.960206  1
  O  O33  1  0.391384  0.573544  0.460206  1
  O  O34  1  0.596347  0.254509  0.896746  1
  O  O35  1  0.596347  0.745491  0.396746  1
  O  O36  1  0.213664  0.447360  0.180258  1
  O  O37  1  0.213664  0.552640  0.680258  1
  O  O38  1  0.094267  0.522368  0.417666  1
  O  O39  1  0.094267  0.477632  0.917666  1
  O  O40  1  0.684037  0.957039  0.274639  1
  O  O41  1  0.684037  0.042961  0.774639  1
  O  O42  1  0.751559  0.930233  0.545649  1
  O  O43  1  0.751559  0.069767  0.045649  1
  O  O44  1  0.171920  0.246938  0.013689  1
  O  O45  1  0.171920  0.753062  0.513689  1
  O  O46  1  0.897905  0.781609  0.369387  1
  O  O47  1  0.897905  0.218391  0.869387  1
