# generated using pymatgen
data_Rb2WS4
_symmetry_space_group_name_H-M   'P 1'
_cell_length_a   7.18286451
_cell_length_b   9.95350187
_cell_length_c   12.79735313
_cell_angle_alpha   90.00000000
_cell_angle_beta   90.00000000
_cell_angle_gamma   90.00000000
_symmetry_Int_Tables_number   1
_chemical_formula_structural   Rb2WS4
_chemical_formula_sum   'Rb8 W4 S16'
_cell_volume   914.94235119
_cell_formula_units_Z   4
loop_
 _symmetry_equiv_pos_site_id
 _symmetry_equiv_pos_as_xyz
  1  'x, y, z'
loop_
 _atom_site_type_symbol
 _atom_site_label
 _atom_site_symmetry_multiplicity
 _atom_site_fract_x
 _atom_site_fract_y
 _atom_site_fract_z
 _atom_site_occupancy
  S  S0  1  0.250000  0.527591  0.895157  1
  S  S1  1  0.750000  0.472409  0.104843  1
  S  S2  1  0.250000  0.027591  0.604843  1
  S  S3  1  0.750000  0.972409  0.395157  1
  S  S4  1  0.998977  0.160326  0.140316  1
  S  S5  1  0.498977  0.839674  0.859684  1
  S  S6  1  0.501023  0.660326  0.359684  1
  S  S7  1  0.001023  0.339674  0.640316  1
  S  S8  1  0.001023  0.839674  0.859684  1
  S  S9  1  0.501023  0.160326  0.140316  1
  S  S10  1  0.498977  0.339674  0.640316  1
  S  S11  1  0.998977  0.660326  0.359684  1
  S  S12  1  0.750000  0.716923  0.599279  1
  S  S13  1  0.250000  0.283077  0.400721  1
  S  S14  1  0.750000  0.216923  0.900721  1
  S  S15  1  0.250000  0.783077  0.099279  1
  Rb  Rb16  1  0.250000  0.154674  0.894343  1
  Rb  Rb17  1  0.750000  0.845326  0.105657  1
  Rb  Rb18  1  0.250000  0.654674  0.605657  1
  Rb  Rb19  1  0.750000  0.345326  0.394343  1
  Rb  Rb20  1  0.250000  0.960480  0.332031  1
  Rb  Rb21  1  0.750000  0.039520  0.667969  1
  Rb  Rb22  1  0.250000  0.460480  0.167969  1
  Rb  Rb23  1  0.750000  0.539520  0.832031  1
  W  W24  1  0.250000  0.745878  0.928949  1
  W  W25  1  0.750000  0.254122  0.071051  1
  W  W26  1  0.250000  0.245878  0.571051  1
  W  W27  1  0.750000  0.754122  0.428949  1
