# generated using pymatgen
data_RbSc5Te8
_symmetry_space_group_name_H-M   'P 1'
_cell_length_a   4.17808805
_cell_length_b   10.35527473
_cell_length_c   10.98042956
_cell_angle_alpha   104.19271308
_cell_angle_beta   100.96746619
_cell_angle_gamma   90.00000001
_symmetry_Int_Tables_number   1
_chemical_formula_structural   RbSc5Te8
_chemical_formula_sum   'Rb1 Sc5 Te8'
_cell_volume   451.61469639
_cell_formula_units_Z   1
loop_
 _symmetry_equiv_pos_site_id
 _symmetry_equiv_pos_as_xyz
  1  'x, y, z'
loop_
 _atom_site_type_symbol
 _atom_site_label
 _atom_site_symmetry_multiplicity
 _atom_site_fract_x
 _atom_site_fract_y
 _atom_site_fract_z
 _atom_site_occupancy
  Sc  Sc0  1  0.205549  0.844058  0.411097  1
  Sc  Sc1  1  0.500000  0.500000  0.000000  1
  Sc  Sc2  1  0.844196  0.521701  0.688391  1
  Sc  Sc3  1  0.155804  0.478299  0.311609  1
  Sc  Sc4  1  0.794451  0.155942  0.588903  1
  Rb  Rb5  1  0.000000  0.000000  0.000000  1
  Te  Te6  1  0.924932  0.334646  0.849864  1
  Te  Te7  1  0.075068  0.665354  0.150136  1
  Te  Te8  1  0.584516  0.316044  0.169031  1
  Te  Te9  1  0.415484  0.683956  0.830969  1
  Te  Te10  1  0.664718  0.996688  0.329435  1
  Te  Te11  1  0.335282  0.003312  0.670565  1
  Te  Te12  1  0.738223  0.658325  0.476446  1
  Te  Te13  1  0.261777  0.341675  0.523554  1
