# generated using pymatgen
data_Ba2NdMoO6
_symmetry_space_group_name_H-M   'P 1'
_cell_length_a   6.07366728
_cell_length_b   6.07366728
_cell_length_c   6.13368499
_cell_angle_alpha   119.67684150
_cell_angle_beta   119.67684133
_cell_angle_gamma   90.00000003
_symmetry_Int_Tables_number   1
_chemical_formula_structural   Ba2NdMoO6
_chemical_formula_sum   'Ba2 Nd1 Mo1 O6'
_cell_volume   161.54613347
_cell_formula_units_Z   1
loop_
 _symmetry_equiv_pos_site_id
 _symmetry_equiv_pos_as_xyz
  1  'x, y, z'
loop_
 _atom_site_type_symbol
 _atom_site_label
 _atom_site_symmetry_multiplicity
 _atom_site_fract_x
 _atom_site_fract_y
 _atom_site_fract_z
 _atom_site_occupancy
  O  O0  1  0.770281  0.688488  0.000000  1
  O  O1  1  0.311512  0.770281  0.000000  1
  O  O2  1  0.688488  0.229719  0.000000  1
  O  O3  1  0.229719  0.311512  0.000000  1
  O  O4  1  0.266845  0.266845  0.533691  1
  O  O5  1  0.733155  0.733155  0.466309  1
  Mo  Mo6  1  0.500000  0.500000  0.000000  1
  Ba  Ba7  1  0.250000  0.750000  0.500000  1
  Ba  Ba8  1  0.750000  0.250000  0.500000  1
  Nd  Nd9  1  0.000000  0.000000  0.000000  1
