# generated using pymatgen
data_Al2Se3
_symmetry_space_group_name_H-M   'P 1'
_cell_length_a   6.84680495
_cell_length_b   6.89017971
_cell_length_c   7.43510619
_cell_angle_alpha   116.56580225
_cell_angle_beta   90.00000000
_cell_angle_gamma   119.79197552
_symmetry_Int_Tables_number   1
_chemical_formula_structural   Al2Se3
_chemical_formula_sum   'Al4 Se6'
_cell_volume   260.86642231
_cell_formula_units_Z   2
loop_
 _symmetry_equiv_pos_site_id
 _symmetry_equiv_pos_as_xyz
  1  'x, y, z'
loop_
 _atom_site_type_symbol
 _atom_site_label
 _atom_site_symmetry_multiplicity
 _atom_site_fract_x
 _atom_site_fract_y
 _atom_site_fract_z
 _atom_site_occupancy
  Al  Al0  1  0.637738  0.082478  0.129410  1
  Al  Al1  1  0.444740  0.082478  0.629410  1
  Al  Al2  1  0.264797  0.400778  0.116548  1
  Al  Al3  1  0.135980  0.400778  0.616548  1
  Se  Se4  1  0.908975  0.996951  0.986712  1
  Se  Se5  1  0.087976  0.996951  0.486712  1
  Se  Se6  1  0.585178  0.343338  0.014903  1
  Se  Se7  1  0.758160  0.343338  0.514903  1
  Se  Se8  1  0.248118  0.676255  0.002427  1
  Se  Se9  1  0.428138  0.676255  0.502427  1
