# generated using pymatgen
data_KLi3GeO4
_symmetry_space_group_name_H-M   'P 1'
_cell_length_a   5.92982226
_cell_length_b   7.57792657
_cell_length_c   10.05124973
_cell_angle_alpha   83.60458781
_cell_angle_beta   76.53801007
_cell_angle_gamma   79.76267956
_symmetry_Int_Tables_number   1
_chemical_formula_structural   KLi3GeO4
_chemical_formula_sum   'K4 Li12 Ge4 O16'
_cell_volume   431.09982723
_cell_formula_units_Z   4
loop_
 _symmetry_equiv_pos_site_id
 _symmetry_equiv_pos_as_xyz
  1  'x, y, z'
loop_
 _atom_site_type_symbol
 _atom_site_label
 _atom_site_symmetry_multiplicity
 _atom_site_fract_x
 _atom_site_fract_y
 _atom_site_fract_z
 _atom_site_occupancy
  Li  Li0  1  0.977815  0.823317  0.113183  1
  Li  Li1  1  0.022185  0.176683  0.886817  1
  Li  Li2  1  0.305173  0.324474  0.353857  1
  Li  Li3  1  0.694827  0.675526  0.646143  1
  Li  Li4  1  0.929298  0.547651  0.876093  1
  Li  Li5  1  0.070702  0.452348  0.123907  1
  Li  Li6  1  0.036521  0.927099  0.627837  1
  Li  Li7  1  0.313177  0.050483  0.103352  1
  Li  Li8  1  0.693108  0.443182  0.395607  1
  Li  Li9  1  0.306892  0.556818  0.604393  1
  Li  Li10  1  0.963479  0.072901  0.372163  1
  Li  Li11  1  0.686823  0.949517  0.896648  1
  O  O12  1  0.678622  0.211230  0.323755  1
  O  O13  1  0.321378  0.788770  0.676245  1
  O  O14  1  0.862877  0.337659  0.035278  1
  O  O15  1  0.137123  0.662341  0.964722  1
  O  O16  1  0.638202  0.704381  0.849767  1
  O  O17  1  0.361798  0.295619  0.150233  1
  O  O18  1  0.689843  0.433835  0.593393  1
  O  O19  1  0.310157  0.566164  0.406607  1
  O  O20  1  0.154007  0.890019  0.243466  1
  O  O21  1  0.845993  0.109981  0.756534  1
  O  O22  1  0.882379  0.825876  0.508272  1
  O  O23  1  0.117621  0.174124  0.491728  1
  O  O24  1  0.895493  0.604614  0.277531  1
  O  O25  1  0.104507  0.395386  0.722469  1
  O  O26  1  0.693773  0.987361  0.090021  1
  O  O27  1  0.306227  0.012639  0.909979  1
  K  K28  1  0.496094  0.117103  0.616827  1
  K  K29  1  0.503906  0.882897  0.383173  1
  K  K30  1  0.458170  0.359895  0.872229  1
  K  K31  1  0.541830  0.640105  0.127771  1
  Ge  Ge32  1  0.941270  0.290507  0.634508  1
  Ge  Ge33  1  0.058730  0.709493  0.365492  1
  Ge  Ge34  1  0.333948  0.793501  0.851819  1
  Ge  Ge35  1  0.666052  0.206499  0.148181  1
