# generated using pymatgen
data_Sr3YbRhO6
_symmetry_space_group_name_H-M   'P 1'
_cell_length_a   6.82492454
_cell_length_b   6.82492454
_cell_length_c   6.82492454
_cell_angle_alpha   91.91760428
_cell_angle_beta   91.91760427
_cell_angle_gamma   91.91760424
_symmetry_Int_Tables_number   1
_chemical_formula_structural   Sr3YbRhO6
_chemical_formula_sum   'Sr6 Yb2 Rh2 O12'
_cell_volume   317.35589674
_cell_formula_units_Z   2
loop_
 _symmetry_equiv_pos_site_id
 _symmetry_equiv_pos_as_xyz
  1  'x, y, z'
loop_
 _atom_site_type_symbol
 _atom_site_label
 _atom_site_symmetry_multiplicity
 _atom_site_fract_x
 _atom_site_fract_y
 _atom_site_fract_z
 _atom_site_occupancy
  O  O0  1  0.786440  0.583485  0.451522  1
  O  O1  1  0.583485  0.451522  0.786440  1
  O  O2  1  0.451522  0.786440  0.583485  1
  O  O3  1  0.048478  0.916515  0.713560  1
  O  O4  1  0.916515  0.713560  0.048478  1
  O  O5  1  0.713560  0.048478  0.916515  1
  O  O6  1  0.213560  0.416515  0.548478  1
  O  O7  1  0.416515  0.548478  0.213560  1
  O  O8  1  0.548478  0.213560  0.416515  1
  O  O9  1  0.951522  0.083485  0.286440  1
  O  O10  1  0.286440  0.951522  0.083485  1
  O  O11  1  0.083485  0.286440  0.951522  1
  Sr  Sr12  1  0.614842  0.885158  0.250000  1
  Sr  Sr13  1  0.250000  0.614842  0.885158  1
  Sr  Sr14  1  0.885158  0.250000  0.614842  1
  Sr  Sr15  1  0.385158  0.114842  0.750000  1
  Sr  Sr16  1  0.114842  0.750000  0.385158  1
  Sr  Sr17  1  0.750000  0.385158  0.114842  1
  Rh  Rh18  1  0.500000  0.500000  0.500000  1
  Rh  Rh19  1  0.000000  0.000000  0.000000  1
  Yb  Yb20  1  0.750000  0.750000  0.750000  1
  Yb  Yb21  1  0.250000  0.250000  0.250000  1
