# generated using pymatgen
data_KYbP2O7
_symmetry_space_group_name_H-M   'P 1'
_cell_length_a   7.60098438
_cell_length_b   8.72351073
_cell_length_c   11.23027314
_cell_angle_alpha   90.00000000
_cell_angle_beta   90.00000000
_cell_angle_gamma   105.13623858
_symmetry_Int_Tables_number   1
_chemical_formula_structural   KYbP2O7
_chemical_formula_sum   'K4 Yb4 P8 O28'
_cell_volume   718.81514237
_cell_formula_units_Z   4
loop_
 _symmetry_equiv_pos_site_id
 _symmetry_equiv_pos_as_xyz
  1  'x, y, z'
loop_
 _atom_site_type_symbol
 _atom_site_label
 _atom_site_symmetry_multiplicity
 _atom_site_fract_x
 _atom_site_fract_y
 _atom_site_fract_z
 _atom_site_occupancy
  O  O0  1  0.540356  0.785023  0.718120  1
  O  O1  1  0.459644  0.714977  0.218120  1
  O  O2  1  0.459644  0.214976  0.281880  1
  O  O3  1  0.540356  0.285023  0.781880  1
  O  O4  1  0.369322  0.780220  0.911432  1
  O  O5  1  0.630678  0.719780  0.411432  1
  O  O6  1  0.630678  0.219780  0.088568  1
  O  O7  1  0.369322  0.280220  0.588568  1
  O  O8  1  0.666893  0.989013  0.879893  1
  O  O9  1  0.333107  0.510987  0.379893  1
  O  O10  1  0.333107  0.010987  0.120107  1
  O  O11  1  0.666893  0.489013  0.620107  1
  O  O12  1  0.662012  0.698538  0.911993  1
  O  O13  1  0.337988  0.801462  0.411993  1
  O  O14  1  0.337988  0.301462  0.088007  1
  O  O15  1  0.662012  0.198538  0.588007  1
  O  O16  1  0.884092  0.027197  0.593989  1
  O  O17  1  0.115908  0.472803  0.093989  1
  O  O18  1  0.115908  0.972803  0.406011  1
  O  O19  1  0.884092  0.527197  0.906011  1
  O  O20  1  0.936306  0.264479  0.730034  1
  O  O21  1  0.063694  0.235521  0.230034  1
  O  O22  1  0.063694  0.735521  0.269966  1
  O  O23  1  0.936306  0.764479  0.769966  1
  O  O24  1  0.981455  0.301177  0.505556  1
  O  O25  1  0.018545  0.198823  0.005556  1
  O  O26  1  0.018545  0.698823  0.494443  1
  O  O27  1  0.981455  0.801177  0.994444  1
  P  P28  1  0.555970  0.820380  0.851477  1
  P  P29  1  0.444030  0.679620  0.351477  1
  P  P30  1  0.444030  0.179620  0.148523  1
  P  P31  1  0.555970  0.320380  0.648523  1
  P  P32  1  0.874851  0.699386  0.894226  1
  P  P33  1  0.125149  0.800614  0.394226  1
  P  P34  1  0.125149  0.300614  0.105774  1
  P  P35  1  0.874851  0.199386  0.605774  1
  K  K36  1  0.184140  0.067145  0.826876  1
  K  K37  1  0.815860  0.432855  0.326876  1
  K  K38  1  0.815860  0.932855  0.173124  1
  K  K39  1  0.184140  0.567145  0.673124  1
  Yb  Yb40  1  0.773831  0.757426  0.592599  1
  Yb  Yb41  1  0.226169  0.742574  0.092599  1
  Yb  Yb42  1  0.226169  0.242574  0.407401  1
  Yb  Yb43  1  0.773831  0.257426  0.907401  1
