# generated using pymatgen
data_CN2
_symmetry_space_group_name_H-M   'P 1'
_cell_length_a   2.36300000
_cell_length_b   2.36299997
_cell_length_c   10.68600000
_cell_angle_alpha   90.00000000
_cell_angle_beta   90.00000000
_cell_angle_gamma   120.00000035
_symmetry_Int_Tables_number   1
_chemical_formula_structural   CN2
_chemical_formula_sum   'C2 N4'
_cell_volume   51.67413775
_cell_formula_units_Z   2
loop_
 _symmetry_equiv_pos_site_id
 _symmetry_equiv_pos_as_xyz
  1  'x, y, z'
loop_
 _atom_site_type_symbol
 _atom_site_label
 _atom_site_symmetry_multiplicity
 _atom_site_fract_x
 _atom_site_fract_y
 _atom_site_fract_z
 _atom_site_occupancy
  C  C0  1  0.000000  0.000000  0.926170  1
  C  C1  1  0.000000  0.000000  0.073830  1
  N  N2  1  0.666670  0.333340  0.466860  1
  N  N3  1  0.333330  0.666660  0.533140  1
  N  N4  1  0.666670  0.333340  0.878270  1
  N  N5  1  0.333330  0.666660  0.121730  1
