# generated using pymatgen
data_Ba2Mg(BO2)6
_symmetry_space_group_name_H-M   'P 1'
_cell_length_a   7.02747189
_cell_length_b   7.02753623
_cell_length_c   7.02754443
_cell_angle_alpha   61.15098619
_cell_angle_beta   61.15130824
_cell_angle_gamma   61.15129254
_symmetry_Int_Tables_number   1
_chemical_formula_structural   Ba2Mg(BO2)6
_chemical_formula_sum   'Ba2 Mg1 B6 O12'
_cell_volume   251.76623358
_cell_formula_units_Z   1
loop_
 _symmetry_equiv_pos_site_id
 _symmetry_equiv_pos_as_xyz
  1  'x, y, z'
loop_
 _atom_site_type_symbol
 _atom_site_label
 _atom_site_symmetry_multiplicity
 _atom_site_fract_x
 _atom_site_fract_y
 _atom_site_fract_z
 _atom_site_occupancy
  Ba  Ba0  1  0.209036  0.209047  0.209046  1
  Ba  Ba1  1  0.790964  0.790953  0.790954  1
  Mg  Mg2  1  -0.000000  -0.000000  0.000000  1
  B  B3  1  0.364576  0.645009  0.755802  1
  B  B4  1  0.645013  0.755800  0.364572  1
  B  B5  1  0.755804  0.364572  0.645008  1
  B  B6  1  0.635424  0.354991  0.244198  1
  B  B7  1  0.354987  0.244200  0.635428  1
  B  B8  1  0.244196  0.635428  0.354992  1
  O  O9  1  0.913841  0.159182  0.689564  1
  O  O10  1  0.159186  0.689566  0.913836  1
  O  O11  1  0.689569  0.913836  0.159184  1
  O  O12  1  0.086159  0.840818  0.310436  1
  O  O13  1  0.840814  0.310434  0.086164  1
  O  O14  1  0.310431  0.086164  0.840816  1
  O  O15  1  0.534477  0.427136  0.803500  1
  O  O16  1  0.427138  0.803498  0.534478  1
  O  O17  1  0.803498  0.534475  0.427138  1
  O  O18  1  0.465523  0.572864  0.196500  1
  O  O19  1  0.572862  0.196502  0.465522  1
  O  O20  1  0.196502  0.465525  0.572862  1
