# generated using pymatgen
data_Te2Mo3WS6
_symmetry_space_group_name_H-M   'P 1'
_cell_length_a   3.27533621
_cell_length_b   3.27483902
_cell_length_c   37.78481742
_cell_angle_alpha   89.99768533
_cell_angle_beta   90.00000000
_cell_angle_gamma   120.00502219
_symmetry_Int_Tables_number   1
_chemical_formula_structural   Te2Mo3WS6
_chemical_formula_sum   'Te2 Mo3 W1 S6'
_cell_volume   350.97147598
_cell_formula_units_Z   1
loop_
 _symmetry_equiv_pos_site_id
 _symmetry_equiv_pos_as_xyz
  1  'x, y, z'
loop_
 _atom_site_type_symbol
 _atom_site_label
 _atom_site_symmetry_multiplicity
 _atom_site_fract_x
 _atom_site_fract_y
 _atom_site_fract_z
 _atom_site_occupancy
  Te  Te0  1  0.333317  0.666635  0.332788  1
  Te  Te1  1  0.333355  0.666712  0.230861  1
  Mo  Mo2  1  0.333317  0.666635  0.093584  1
  Mo  Mo3  1  0.333212  0.666424  0.469908  1
  Mo  Mo4  1  0.666718  0.333436  0.281840  1
  W  W5  1  0.666734  0.333467  0.657589  1
  S  S6  1  0.333348  0.666697  0.698383  1
  S  S7  1  0.666657  0.333314  0.052837  1
  S  S8  1  0.666662  0.333323  0.429261  1
  S  S9  1  0.666656  0.333310  0.134322  1
  S  S10  1  0.666659  0.333318  0.510602  1
  S  S11  1  0.333364  0.666729  0.616773  1
