# generated using pymatgen
data_Sr5Si3
_symmetry_space_group_name_H-M   'P 1'
_cell_length_a   6.50281318
_cell_length_b   9.46103824
_cell_length_c   9.46103823
_cell_angle_alpha   83.21730272
_cell_angle_beta   69.89981253
_cell_angle_gamma   69.89981251
_symmetry_Int_Tables_number   1
_chemical_formula_structural   Sr5Si3
_chemical_formula_sum   'Sr10 Si6'
_cell_volume   513.32946967
_cell_formula_units_Z   2
loop_
 _symmetry_equiv_pos_site_id
 _symmetry_equiv_pos_as_xyz
  1  'x, y, z'
loop_
 _atom_site_type_symbol
 _atom_site_label
 _atom_site_symmetry_multiplicity
 _atom_site_fract_x
 _atom_site_fract_y
 _atom_site_fract_z
 _atom_site_occupancy
  Si  Si0  1  0.845746  0.500000  0.808508  1
  Si  Si1  1  0.654254  0.191492  0.500000  1
  Si  Si2  1  0.345746  0.808508  0.500000  1
  Si  Si3  1  0.154254  0.500000  0.191492  1
  Si  Si4  1  0.750000  0.000000  0.000000  1
  Si  Si5  1  0.250000  0.000000  0.000000  1
  Sr  Sr6  1  0.293568  0.122042  0.290822  1
  Sr  Sr7  1  0.706432  0.877958  0.709178  1
  Sr  Sr8  1  0.415610  0.290822  0.877958  1
  Sr  Sr9  1  0.584390  0.709178  0.122042  1
  Sr  Sr10  1  0.915610  0.877958  0.290822  1
  Sr  Sr11  1  0.206432  0.709178  0.877958  1
  Sr  Sr12  1  0.793568  0.290822  0.122042  1
  Sr  Sr13  1  0.084390  0.122042  0.709178  1
  Sr  Sr14  1  0.750000  0.500000  0.500000  1
  Sr  Sr15  1  0.250000  0.500000  0.500000  1
