# generated using pymatgen
data_Sb9Se4F39
_symmetry_space_group_name_H-M   'P 1'
_cell_length_a   13.73916703
_cell_length_b   15.98224477
_cell_length_c   17.44368972
_cell_angle_alpha   92.15453738
_cell_angle_beta   90.00000000
_cell_angle_gamma   90.00000000
_symmetry_Int_Tables_number   1
_chemical_formula_structural   Sb9Se4F39
_chemical_formula_sum   'Sb36 Se16 F156'
_cell_volume   3827.62520726
_cell_formula_units_Z   4
loop_
 _symmetry_equiv_pos_site_id
 _symmetry_equiv_pos_as_xyz
  1  'x, y, z'
loop_
 _atom_site_type_symbol
 _atom_site_label
 _atom_site_symmetry_multiplicity
 _atom_site_fract_x
 _atom_site_fract_y
 _atom_site_fract_z
 _atom_site_occupancy
  F  F0  1  0.478813  0.932883  0.969387  1
  F  F1  1  0.978813  0.067117  0.530613  1
  F  F2  1  0.521187  0.067117  0.030613  1
  F  F3  1  0.021187  0.932883  0.469387  1
  F  F4  1  0.671385  0.991386  0.949386  1
  F  F5  1  0.171385  0.008614  0.550614  1
  F  F6  1  0.328615  0.008614  0.050614  1
  F  F7  1  0.828615  0.991386  0.449386  1
  F  F8  1  0.517931  0.565532  0.969859  1
  F  F9  1  0.017931  0.434468  0.530141  1
  F  F10  1  0.482069  0.434468  0.030141  1
  F  F11  1  0.982069  0.565532  0.469859  1
  F  F12  1  0.321866  0.505618  0.966079  1
  F  F13  1  0.821866  0.494382  0.533921  1
  F  F14  1  0.678134  0.494382  0.033921  1
  F  F15  1  0.178134  0.505618  0.466079  1
  F  F16  1  0.564156  0.909872  0.832937  1
  F  F17  1  0.064156  0.090128  0.667063  1
  F  F18  1  0.435844  0.090128  0.167063  1
  F  F19  1  0.935844  0.909872  0.332937  1
  F  F20  1  0.555936  0.823842  0.693328  1
  F  F21  1  0.055936  0.176158  0.806672  1
  F  F22  1  0.444064  0.176158  0.306672  1
  F  F23  1  0.944064  0.823842  0.193328  1
  F  F24  1  0.490651  0.748734  0.822713  1
  F  F25  1  0.990651  0.251266  0.677287  1
  F  F26  1  0.509349  0.251266  0.177287  1
  F  F27  1  0.009349  0.748734  0.322713  1
  F  F28  1  0.409036  0.589190  0.844449  1
  F  F29  1  0.909036  0.410810  0.655551  1
  F  F30  1  0.590964  0.410810  0.155551  1
  F  F31  1  0.090964  0.589190  0.344449  1
  F  F32  1  0.416702  0.653459  0.699946  1
  F  F33  1  0.916702  0.346541  0.800054  1
  F  F34  1  0.583298  0.346541  0.300054  1
  F  F35  1  0.083298  0.653459  0.199946  1
  F  F36  1  0.240854  0.581549  0.756732  1
  F  F37  1  0.740854  0.418451  0.743268  1
  F  F38  1  0.759146  0.418451  0.243268  1
  F  F39  1  0.259146  0.581549  0.256732  1
  F  F40  1  0.134057  0.354949  0.753830  1
  F  F41  1  0.634057  0.645051  0.746170  1
  F  F42  1  0.865943  0.645051  0.246170  1
  F  F43  1  0.365943  0.354949  0.253830  1
  F  F44  1  0.301244  0.432195  0.808670  1
  F  F45  1  0.801244  0.567805  0.691330  1
  F  F46  1  0.698756  0.567805  0.191330  1
  F  F47  1  0.198756  0.432195  0.308670  1
  F  F48  1  0.075763  0.507980  0.702281  1
  F  F49  1  0.575763  0.492020  0.797719  1
  F  F50  1  0.924237  0.492020  0.297719  1
  F  F51  1  0.424237  0.507980  0.202281  1
  F  F52  1  0.249789  0.443756  0.660075  1
  F  F53  1  0.749789  0.556244  0.839925  1
  F  F54  1  0.750211  0.556244  0.339925  1
  F  F55  1  0.250211  0.443756  0.160075  1
  F  F56  1  0.125232  0.492681  0.851225  1
  F  F57  1  0.625232  0.507319  0.648775  1
  F  F58  1  0.874768  0.507319  0.148775  1
  F  F59  1  0.374768  0.492681  0.351225  1
  F  F60  1  0.733954  0.916119  0.748273  1
  F  F61  1  0.233954  0.083881  0.751727  1
  F  F62  1  0.266046  0.083881  0.251727  1
  F  F63  1  0.766046  0.916119  0.248273  1
  F  F64  1  0.816658  0.143605  0.715082  1
  F  F65  1  0.316658  0.856395  0.784918  1
  F  F66  1  0.183342  0.856395  0.284918  1
  F  F67  1  0.683342  0.143605  0.215082  1
  F  F68  1  0.856930  0.028389  0.820594  1
  F  F69  1  0.356930  0.971611  0.679406  1
  F  F70  1  0.143070  0.971611  0.179406  1
  F  F71  1  0.643070  0.028389  0.320594  1
  F  F72  1  0.691195  0.032468  0.644521  1
  F  F73  1  0.191195  0.967532  0.855479  1
  F  F74  1  0.308805  0.967532  0.355479  1
  F  F75  1  0.808805  0.032468  0.144521  1
  F  F76  1  0.670081  0.067614  0.797980  1
  F  F77  1  0.170081  0.932386  0.702020  1
  F  F78  1  0.329919  0.932386  0.202020  1
  F  F79  1  0.829919  0.067614  0.297980  1
  F  F80  1  0.879685  0.989200  0.669126  1
  F  F81  1  0.379685  0.010800  0.830874  1
  F  F82  1  0.120315  0.010800  0.330874  1
  F  F83  1  0.620315  0.989200  0.169126  1
  F  F84  1  0.684149  0.276597  0.048010  1
  F  F85  1  0.184149  0.723403  0.451990  1
  F  F86  1  0.315851  0.723403  0.951990  1
  F  F87  1  0.815851  0.276597  0.548010  1
  F  F88  1  0.734552  0.257012  0.831297  1
  F  F89  1  0.234552  0.742988  0.668703  1
  F  F90  1  0.265448  0.742988  0.168703  1
  F  F91  1  0.765448  0.257012  0.331297  1
  F  F92  1  0.796372  0.361976  0.948133  1
  F  F93  1  0.296372  0.638024  0.551867  1
  F  F94  1  0.203628  0.638024  0.051867  1
  F  F95  1  0.703628  0.361976  0.448133  1
  F  F96  1  0.621757  0.171187  0.932354  1
  F  F97  1  0.121757  0.828813  0.567646  1
  F  F98  1  0.378243  0.828813  0.067646  1
  F  F99  1  0.878243  0.171187  0.432354  1
  F  F100  1  0.815565  0.193201  0.957470  1
  F  F101  1  0.315565  0.806799  0.542530  1
  F  F102  1  0.184435  0.806799  0.042530  1
  F  F103  1  0.684435  0.193201  0.457470  1
  F  F104  1  0.602707  0.339867  0.920540  1
  F  F105  1  0.102707  0.660133  0.579460  1
  F  F106  1  0.397293  0.660133  0.079460  1
  F  F107  1  0.897293  0.339867  0.420540  1
  F  F108  1  0.184386  0.310127  0.981115  1
  F  F109  1  0.684386  0.689873  0.518885  1
  F  F110  1  0.815614  0.689873  0.018885  1
  F  F111  1  0.315614  0.310127  0.481115  1
  F  F112  1  0.393090  0.162790  0.925719  1
  F  F113  1  0.893090  0.837210  0.574281  1
  F  F114  1  0.606910  0.837210  0.074281  1
  F  F115  1  0.106910  0.162790  0.425719  1
  F  F116  1  0.373406  0.331208  0.941112  1
  F  F117  1  0.873406  0.668792  0.558888  1
  F  F118  1  0.626594  0.668792  0.058888  1
  F  F119  1  0.126594  0.331208  0.441112  1
  F  F120  1  0.201601  0.140301  0.962737  1
  F  F121  1  0.701601  0.859699  0.537263  1
  F  F122  1  0.798399  0.859699  0.037263  1
  F  F123  1  0.298399  0.140301  0.462737  1
  F  F124  1  0.250730  0.240900  0.847128  1
  F  F125  1  0.750730  0.759100  0.652872  1
  F  F126  1  0.749270  0.759100  0.152872  1
  F  F127  1  0.249270  0.240900  0.347128  1
  F  F128  1  0.326023  0.230414  0.058415  1
  F  F129  1  0.826023  0.769586  0.441585  1
  F  F130  1  0.673977  0.769586  0.941585  1
  F  F131  1  0.173977  0.230414  0.558415  1
  F  F132  1  0.990335  0.827785  0.901177  1
  F  F133  1  0.490335  0.172215  0.598823  1
  F  F134  1  0.009665  0.172215  0.098823  1
  F  F135  1  0.509665  0.827785  0.401177  1
  F  F136  1  0.966002  0.684811  0.720970  1
  F  F137  1  0.466002  0.315189  0.779030  1
  F  F138  1  0.033998  0.315189  0.279030  1
  F  F139  1  0.533998  0.684811  0.220970  1
  F  F140  1  0.113944  0.731746  0.817308  1
  F  F141  1  0.613944  0.268254  0.682692  1
  F  F142  1  0.886056  0.268254  0.182692  1
  F  F143  1  0.386056  0.731746  0.317308  1
  F  F144  1  0.840205  0.779627  0.810275  1
  F  F145  1  0.340205  0.220373  0.689725  1
  F  F146  1  0.159795  0.220373  0.189725  1
  F  F147  1  0.659795  0.779627  0.310275  1
  F  F148  1  0.950011  0.663728  0.873836  1
  F  F149  1  0.450011  0.336272  0.626164  1
  F  F150  1  0.049989  0.336272  0.126164  1
  F  F151  1  0.549989  0.663728  0.373836  1
  F  F152  1  0.000763  0.851840  0.746986  1
  F  F153  1  0.500763  0.148160  0.753014  1
  F  F154  1  0.999237  0.148160  0.253014  1
  F  F155  1  0.499237  0.851840  0.246986  1
  Se  Se156  1  0.613569  0.987866  0.473511  1
  Se  Se157  1  0.113569  0.012134  0.026489  1
  Se  Se158  1  0.386431  0.012134  0.526489  1
  Se  Se159  1  0.886431  0.987866  0.973511  1
  Se  Se160  1  0.515537  0.930519  0.565574  1
  Se  Se161  1  0.015537  0.069481  0.934426  1
  Se  Se162  1  0.484463  0.069481  0.434426  1
  Se  Se163  1  0.984463  0.930519  0.065574  1
  Se  Se164  1  0.595515  0.514263  0.445106  1
  Se  Se165  1  0.095515  0.485737  0.054894  1
  Se  Se166  1  0.404485  0.485737  0.554894  1
  Se  Se167  1  0.904485  0.514263  0.945106  1
  Se  Se168  1  0.467764  0.596968  0.489268  1
  Se  Se169  1  0.967764  0.403032  0.010732  1
  Se  Se170  1  0.532236  0.403032  0.510732  1
  Se  Se171  1  0.032236  0.596968  0.989268  1
  Sb  Sb172  1  0.548409  0.030831  0.910898  1
  Sb  Sb173  1  0.048409  0.969169  0.589102  1
  Sb  Sb174  1  0.451591  0.969169  0.089102  1
  Sb  Sb175  1  0.951591  0.030831  0.410898  1
  Sb  Sb176  1  0.437751  0.465012  0.915855  1
  Sb  Sb177  1  0.937751  0.534988  0.584145  1
  Sb  Sb178  1  0.562249  0.534988  0.084145  1
  Sb  Sb179  1  0.062249  0.465012  0.415855  1
  Sb  Sb180  1  0.623801  0.802787  0.787468  1
  Sb  Sb181  1  0.123801  0.197213  0.712532  1
  Sb  Sb182  1  0.376199  0.197213  0.212532  1
  Sb  Sb183  1  0.876199  0.802787  0.287468  1
  Sb  Sb184  1  0.352372  0.688002  0.793628  1
  Sb  Sb185  1  0.852372  0.311998  0.706372  1
  Sb  Sb186  1  0.647628  0.311998  0.206372  1
  Sb  Sb187  1  0.147628  0.688002  0.293628  1
  Sb  Sb188  1  0.186473  0.467297  0.755480  1
  Sb  Sb189  1  0.686473  0.532703  0.744520  1
  Sb  Sb190  1  0.813527  0.532703  0.244520  1
  Sb  Sb191  1  0.313527  0.467297  0.255480  1
  Sb  Sb192  1  0.774652  0.031163  0.731496  1
  Sb  Sb193  1  0.274652  0.968837  0.768504  1
  Sb  Sb194  1  0.225348  0.968837  0.268504  1
  Sb  Sb195  1  0.725348  0.031163  0.231496  1
  Sb  Sb196  1  0.709393  0.267114  0.939422  1
  Sb  Sb197  1  0.209393  0.732886  0.560578  1
  Sb  Sb198  1  0.290607  0.732886  0.060578  1
  Sb  Sb199  1  0.790607  0.267114  0.439422  1
  Sb  Sb200  1  0.287097  0.235157  0.952535  1
  Sb  Sb201  1  0.787097  0.764843  0.547465  1
  Sb  Sb202  1  0.712903  0.764843  0.047465  1
  Sb  Sb203  1  0.212903  0.235157  0.452535  1
  Sb  Sb204  1  0.978113  0.758256  0.809343  1
  Sb  Sb205  1  0.478113  0.241744  0.690657  1
  Sb  Sb206  1  0.021887  0.241744  0.190657  1
  Sb  Sb207  1  0.521887  0.758256  0.309343  1
