# generated using pymatgen
data_PSN9
_symmetry_space_group_name_H-M   'P 1'
_cell_length_a   6.34624925
_cell_length_b   16.36793547
_cell_length_c   8.05601030
_cell_angle_alpha   90.00000000
_cell_angle_beta   98.05487973
_cell_angle_gamma   90.00000000
_symmetry_Int_Tables_number   1
_chemical_formula_structural   PSN9
_chemical_formula_sum   'P4 S4 N36'
_cell_volume   828.56226752
_cell_formula_units_Z   4
loop_
 _symmetry_equiv_pos_site_id
 _symmetry_equiv_pos_as_xyz
  1  'x, y, z'
loop_
 _atom_site_type_symbol
 _atom_site_label
 _atom_site_symmetry_multiplicity
 _atom_site_fract_x
 _atom_site_fract_y
 _atom_site_fract_z
 _atom_site_occupancy
  P  P0  1  0.080821  0.149993  0.879186  1
  P  P1  1  0.919179  0.649993  0.620814  1
  P  P2  1  0.919179  0.850007  0.120814  1
  P  P3  1  0.080821  0.350007  0.379186  1
  S  S4  1  0.280612  0.077094  0.002611  1
  S  S5  1  0.719388  0.577094  0.497389  1
  S  S6  1  0.719388  0.922906  0.997389  1
  S  S7  1  0.280612  0.422906  0.502611  1
  N  N8  1  0.980604  0.131151  0.676509  1
  N  N9  1  0.019396  0.631151  0.823491  1
  N  N10  1  0.019396  0.868849  0.323491  1
  N  N11  1  0.980604  0.368849  0.176509  1
  N  N12  1  0.871970  0.069364  0.639271  1
  N  N13  1  0.128030  0.569364  0.860729  1
  N  N14  1  0.128030  0.930636  0.360729  1
  N  N15  1  0.871970  0.430636  0.139271  1
  N  N16  1  0.770736  0.014596  0.589366  1
  N  N17  1  0.229264  0.514596  0.910634  1
  N  N18  1  0.229264  0.985404  0.410634  1
  N  N19  1  0.770736  0.485404  0.089366  1
  N  N20  1  0.167001  0.244965  0.834992  1
  N  N21  1  0.832999  0.744965  0.665008  1
  N  N22  1  0.832999  0.755035  0.165008  1
  N  N23  1  0.167001  0.255035  0.334992  1
  N  N24  1  0.313154  0.277302  0.929923  1
  N  N25  1  0.686846  0.777302  0.570077  1
  N  N26  1  0.686846  0.722698  0.070077  1
  N  N27  1  0.313154  0.222698  0.429923  1
  N  N28  1  0.447863  0.312570  0.007566  1
  N  N29  1  0.552137  0.812570  0.492434  1
  N  N30  1  0.552137  0.687430  0.992434  1
  N  N31  1  0.447863  0.187430  0.507566  1
  N  N32  1  0.851560  0.168733  0.961732  1
  N  N33  1  0.148440  0.668732  0.538268  1
  N  N34  1  0.148440  0.831268  0.038268  1
  N  N35  1  0.851560  0.331267  0.461732  1
  N  N36  1  0.828178  0.142841  0.101847  1
  N  N37  1  0.171822  0.642841  0.398153  1
  N  N38  1  0.171822  0.857159  0.898153  1
  N  N39  1  0.828178  0.357159  0.601847  1
  N  N40  1  0.788365  0.121287  0.228756  1
  N  N41  1  0.211635  0.621287  0.271244  1
  N  N42  1  0.211635  0.878713  0.771244  1
  N  N43  1  0.788365  0.378713  0.728756  1
