# generated using pymatgen
data_Ca4Si3Pd4
_symmetry_space_group_name_H-M   'P 1'
_cell_length_a   5.70510065
_cell_length_b   7.87657126
_cell_length_c   10.88275752
_cell_angle_alpha   108.45079321
_cell_angle_beta   105.19568497
_cell_angle_gamma   90.00000002
_symmetry_Int_Tables_number   1
_chemical_formula_structural   Ca4Si3Pd4
_chemical_formula_sum   'Ca8 Si6 Pd8'
_cell_volume   445.83450411
_cell_formula_units_Z   2
loop_
 _symmetry_equiv_pos_site_id
 _symmetry_equiv_pos_as_xyz
  1  'x, y, z'
loop_
 _atom_site_type_symbol
 _atom_site_label
 _atom_site_symmetry_multiplicity
 _atom_site_fract_x
 _atom_site_fract_y
 _atom_site_fract_z
 _atom_site_occupancy
  Si  Si0  1  0.039389  0.564917  0.343630  1
  Si  Si1  1  0.615309  0.750000  0.000000  1
  Si  Si2  1  0.304241  0.064917  0.343630  1
  Si  Si3  1  0.960611  0.435083  0.656370  1
  Si  Si4  1  0.695759  0.935083  0.656370  1
  Si  Si5  1  0.384691  0.250000  0.000000  1
  Ca  Ca6  1  0.200515  0.673305  0.135673  1
  Ca  Ca7  1  0.799485  0.326695  0.864327  1
  Ca  Ca8  1  0.064842  0.826695  0.864327  1
  Ca  Ca9  1  0.205362  0.094530  0.661550  1
  Ca  Ca10  1  0.543811  0.405470  0.338450  1
  Ca  Ca11  1  0.456189  0.594530  0.661550  1
  Ca  Ca12  1  0.935158  0.173305  0.135673  1
  Ca  Ca13  1  0.794638  0.905470  0.338450  1
  Pd  Pd14  1  0.301927  0.475820  0.876367  1
  Pd  Pd15  1  0.425561  0.024180  0.123633  1
  Pd  Pd16  1  0.574439  0.975820  0.876367  1
  Pd  Pd17  1  0.698073  0.524180  0.123633  1
  Pd  Pd18  1  0.914267  0.681107  0.556108  1
  Pd  Pd19  1  0.641841  0.181107  0.556108  1
  Pd  Pd20  1  0.085733  0.318893  0.443892  1
  Pd  Pd21  1  0.358159  0.818893  0.443892  1
