# generated using pymatgen
data_LaSi4Ni9
_symmetry_space_group_name_H-M   'P 1'
_cell_length_a   7.85205135
_cell_length_b   7.85205135
_cell_length_c   7.97384890
_cell_angle_alpha   119.49599281
_cell_angle_beta   119.49599278
_cell_angle_gamma   90.00000000
_symmetry_Int_Tables_number   1
_chemical_formula_structural   LaSi4Ni9
_chemical_formula_sum   'La2 Si8 Ni18'
_cell_volume   352.86166173
_cell_formula_units_Z   2
loop_
 _symmetry_equiv_pos_site_id
 _symmetry_equiv_pos_as_xyz
  1  'x, y, z'
loop_
 _atom_site_type_symbol
 _atom_site_label
 _atom_site_symmetry_multiplicity
 _atom_site_fract_x
 _atom_site_fract_y
 _atom_site_fract_z
 _atom_site_occupancy
  Si  Si0  1  0.947024  0.447024  0.234558  1
  Si  Si1  1  0.712466  0.212466  0.765442  1
  Si  Si2  1  0.552976  0.712466  0.765442  1
  Si  Si3  1  0.787534  0.947024  0.234558  1
  Si  Si4  1  0.447024  0.287534  0.234558  1
  Si  Si5  1  0.287534  0.787534  0.234558  1
  Si  Si6  1  0.052976  0.552976  0.765442  1
  Si  Si7  1  0.212466  0.052976  0.765442  1
  Ni  Ni8  1  0.704294  0.568853  0.000000  1
  Ni  Ni9  1  0.931147  0.795706  0.000000  1
  Ni  Ni10  1  0.815704  0.315704  0.369590  1
  Ni  Ni11  1  0.053886  0.815704  0.369590  1
  Ni  Ni12  1  0.295706  0.431147  0.000000  1
  Ni  Ni13  1  0.946114  0.184296  0.630410  1
  Ni  Ni14  1  0.684296  0.446114  0.630410  1
  Ni  Ni15  1  0.446114  0.946114  0.630410  1
  Ni  Ni16  1  0.184296  0.684296  0.630410  1
  Ni  Ni17  1  0.553886  0.053886  0.369590  1
  Ni  Ni18  1  0.000000  0.500000  0.000000  1
  Ni  Ni19  1  0.500000  0.000000  0.000000  1
  Ni  Ni20  1  0.568853  0.295706  0.000000  1
  Ni  Ni21  1  0.204294  0.931147  0.000000  1
  Ni  Ni22  1  0.795706  0.068853  0.000000  1
  Ni  Ni23  1  0.068853  0.204294  0.000000  1
  Ni  Ni24  1  0.315704  0.553886  0.369590  1
  Ni  Ni25  1  0.431147  0.704294  0.000000  1
  La  La26  1  0.750000  0.750000  0.500000  1
  La  La27  1  0.250000  0.250000  0.500000  1
