# generated using pymatgen
data_Mn3Fe2(SiO4)3
_symmetry_space_group_name_H-M   'P 1'
_cell_length_a   10.25329140
_cell_length_b   10.25329140
_cell_length_c   10.25329140
_cell_angle_alpha   109.47122064
_cell_angle_beta   109.47122063
_cell_angle_gamma   109.47122064
_symmetry_Int_Tables_number   1
_chemical_formula_structural   Mn3Fe2(SiO4)3
_chemical_formula_sum   'Mn12 Fe8 Si12 O48'
_cell_volume   829.78964331
_cell_formula_units_Z   4
loop_
 _symmetry_equiv_pos_site_id
 _symmetry_equiv_pos_as_xyz
  1  'x, y, z'
loop_
 _atom_site_type_symbol
 _atom_site_label
 _atom_site_symmetry_multiplicity
 _atom_site_fract_x
 _atom_site_fract_y
 _atom_site_fract_z
 _atom_site_occupancy
  O  O0  1  0.704804  0.689966  0.085036  1
  O  O1  1  0.689966  0.104929  0.985161  1
  O  O2  1  0.619768  0.704804  0.514839  1
  O  O3  1  0.514839  0.619768  0.704804  1
  O  O4  1  0.085036  0.880232  0.395071  1
  O  O5  1  0.395071  0.085036  0.880232  1
  O  O6  1  0.104929  0.985161  0.689966  1
  O  O7  1  0.619768  0.414964  0.104929  1
  O  O8  1  0.514839  0.395071  0.810034  1
  O  O9  1  0.880232  0.985161  0.795196  1
  O  O10  1  0.414964  0.104929  0.619768  1
  O  O11  1  0.810034  0.514839  0.395071  1
  O  O12  1  0.985161  0.795196  0.880232  1
  O  O13  1  0.085036  0.704804  0.689966  1
  O  O14  1  0.689966  0.085036  0.704804  1
  O  O15  1  0.104929  0.619768  0.414964  1
  O  O16  1  0.810034  0.795196  0.414964  1
  O  O17  1  0.395071  0.810034  0.514839  1
  O  O18  1  0.414964  0.810034  0.795196  1
  O  O19  1  0.795196  0.880232  0.985161  1
  O  O20  1  0.795196  0.414964  0.810034  1
  O  O21  1  0.880232  0.395071  0.085036  1
  O  O22  1  0.985161  0.689966  0.104929  1
  O  O23  1  0.704804  0.514839  0.619768  1
  O  O24  1  0.295196  0.310034  0.914964  1
  O  O25  1  0.310034  0.895071  0.014839  1
  O  O26  1  0.380232  0.295196  0.485161  1
  O  O27  1  0.485161  0.380232  0.295196  1
  O  O28  1  0.914964  0.119768  0.604929  1
  O  O29  1  0.604929  0.914964  0.119768  1
  O  O30  1  0.895071  0.014839  0.310034  1
  O  O31  1  0.380232  0.585036  0.895071  1
  O  O32  1  0.485161  0.604929  0.189966  1
  O  O33  1  0.119768  0.014839  0.204804  1
  O  O34  1  0.585036  0.895071  0.380232  1
  O  O35  1  0.189966  0.485161  0.604929  1
  O  O36  1  0.014839  0.204804  0.119768  1
  O  O37  1  0.914964  0.295196  0.310034  1
  O  O38  1  0.310034  0.914964  0.295196  1
  O  O39  1  0.895071  0.380232  0.585036  1
  O  O40  1  0.189966  0.204804  0.585036  1
  O  O41  1  0.604929  0.189966  0.485161  1
  O  O42  1  0.585036  0.189966  0.204804  1
  O  O43  1  0.204804  0.119768  0.014839  1
  O  O44  1  0.204804  0.585036  0.189966  1
  O  O45  1  0.119768  0.604929  0.914964  1
  O  O46  1  0.014839  0.310034  0.895071  1
  O  O47  1  0.295196  0.485161  0.380232  1
  Si  Si48  1  0.250000  0.125000  0.875000  1
  Si  Si49  1  0.625000  0.750000  0.375000  1
  Si  Si50  1  0.250000  0.625000  0.375000  1
  Si  Si51  1  0.375000  0.625000  0.750000  1
  Si  Si52  1  0.750000  0.375000  0.625000  1
  Si  Si53  1  0.875000  0.125000  0.750000  1
  Si  Si54  1  0.125000  0.875000  0.250000  1
  Si  Si55  1  0.125000  0.750000  0.875000  1
  Si  Si56  1  0.625000  0.375000  0.250000  1
  Si  Si57  1  0.375000  0.250000  0.625000  1
  Si  Si58  1  0.750000  0.875000  0.125000  1
  Si  Si59  1  0.875000  0.250000  0.125000  1
  Mn  Mn60  1  0.875000  0.625000  0.250000  1
  Mn  Mn61  1  0.625000  0.875000  0.750000  1
  Mn  Mn62  1  0.875000  0.750000  0.625000  1
  Mn  Mn63  1  0.625000  0.250000  0.875000  1
  Mn  Mn64  1  0.750000  0.625000  0.875000  1
  Mn  Mn65  1  0.750000  0.125000  0.375000  1
  Mn  Mn66  1  0.125000  0.375000  0.750000  1
  Mn  Mn67  1  0.375000  0.125000  0.250000  1
  Mn  Mn68  1  0.125000  0.250000  0.375000  1
  Mn  Mn69  1  0.375000  0.750000  0.125000  1
  Mn  Mn70  1  0.250000  0.875000  0.625000  1
  Mn  Mn71  1  0.250000  0.375000  0.125000  1
  Fe  Fe72  1  0.500000  0.500000  0.500000  1
  Fe  Fe73  1  0.500000  0.500000  0.000000  1
  Fe  Fe74  1  0.500000  0.000000  0.500000  1
  Fe  Fe75  1  0.500000  0.000000  0.000000  1
  Fe  Fe76  1  0.000000  0.000000  0.500000  1
  Fe  Fe77  1  0.000000  0.500000  0.000000  1
  Fe  Fe78  1  0.000000  0.000000  0.000000  1
  Fe  Fe79  1  0.000000  0.500000  0.500000  1
