# generated using pymatgen
data_NdVO4
_symmetry_space_group_name_H-M   'P 1'
_cell_length_a   6.18476012
_cell_length_b   6.18476012
_cell_length_c   6.18476011
_cell_angle_alpha   106.05556991
_cell_angle_beta   106.05556983
_cell_angle_gamma   116.54246261
_symmetry_Int_Tables_number   1
_chemical_formula_structural   NdVO4
_chemical_formula_sum   'Nd2 V2 O8'
_cell_volume   180.01037526
_cell_formula_units_Z   2
loop_
 _symmetry_equiv_pos_site_id
 _symmetry_equiv_pos_as_xyz
  1  'x, y, z'
loop_
 _atom_site_type_symbol
 _atom_site_label
 _atom_site_symmetry_multiplicity
 _atom_site_fract_x
 _atom_site_fract_y
 _atom_site_fract_z
 _atom_site_occupancy
  O  O0  1  0.796188  0.365941  0.069752  1
  O  O1  1  0.796189  0.726435  0.430247  1
  O  O2  1  0.634058  0.203811  0.430248  1
  O  O3  1  0.203811  0.273563  0.569753  1
  O  O4  1  0.203811  0.634059  0.930248  1
  O  O5  1  0.273564  0.203811  0.069753  1
  O  O6  1  0.365941  0.796189  0.569752  1
  O  O7  1  0.726436  0.796189  0.930247  1
  V  V8  1  0.625001  0.375000  0.249999  1
  V  V9  1  0.375001  0.625000  0.750000  1
  Nd  Nd10  1  0.874999  0.125000  0.749999  1
  Nd  Nd11  1  0.125000  0.875000  0.249999  1
