# generated using pymatgen
data_Nd2Si2O7
_symmetry_space_group_name_H-M   'P 1'
_cell_length_a   6.73739559
_cell_length_b   6.82261164
_cell_length_c   12.51637409
_cell_angle_alpha   90.00000000
_cell_angle_beta   101.72940491
_cell_angle_gamma   90.00000000
_symmetry_Int_Tables_number   1
_chemical_formula_structural   Nd2Si2O7
_chemical_formula_sum   'Nd8 Si8 O28'
_cell_volume   563.32177384
_cell_formula_units_Z   4
loop_
 _symmetry_equiv_pos_site_id
 _symmetry_equiv_pos_as_xyz
  1  'x, y, z'
loop_
 _atom_site_type_symbol
 _atom_site_label
 _atom_site_symmetry_multiplicity
 _atom_site_fract_x
 _atom_site_fract_y
 _atom_site_fract_z
 _atom_site_occupancy
  O  O0  1  0.298150  0.104912  0.961042  1
  O  O1  1  0.201850  0.604912  0.538958  1
  O  O2  1  0.701850  0.895088  0.038958  1
  O  O3  1  0.798150  0.395088  0.461042  1
  O  O4  1  0.354737  0.826294  0.153715  1
  O  O5  1  0.145263  0.326294  0.346285  1
  O  O6  1  0.645263  0.173706  0.846285  1
  O  O7  1  0.854737  0.673706  0.653715  1
  O  O8  1  0.035329  0.587855  0.158395  1
  O  O9  1  0.464671  0.087855  0.341605  1
  O  O10  1  0.964671  0.412145  0.841605  1
  O  O11  1  0.535329  0.912145  0.658395  1
  O  O12  1  0.000764  0.987469  0.792436  1
  O  O13  1  0.499236  0.487469  0.707564  1
  O  O14  1  0.999236  0.012531  0.207564  1
  O  O15  1  0.500764  0.512531  0.292436  1
  O  O16  1  0.569483  0.718537  0.470993  1
  O  O17  1  0.930517  0.218537  0.029007  1
  O  O18  1  0.430517  0.281463  0.529007  1
  O  O19  1  0.069483  0.781463  0.970993  1
  O  O20  1  0.825812  0.010297  0.550346  1
  O  O21  1  0.674188  0.510297  0.949654  1
  O  O22  1  0.174188  0.989703  0.449654  1
  O  O23  1  0.325812  0.489703  0.050346  1
  O  O24  1  0.834257  0.719910  0.334818  1
  O  O25  1  0.665743  0.219910  0.165182  1
  O  O26  1  0.165743  0.280090  0.665182  1
  O  O27  1  0.334257  0.780090  0.834818  1
  Si  Si28  1  0.185707  0.921293  0.892140  1
  Si  Si29  1  0.314293  0.421293  0.607860  1
  Si  Si30  1  0.814293  0.078707  0.107860  1
  Si  Si31  1  0.685707  0.578707  0.392140  1
  Si  Si32  1  0.190066  0.672481  0.085672  1
  Si  Si33  1  0.309934  0.172481  0.414328  1
  Si  Si34  1  0.809934  0.327519  0.914328  1
  Si  Si35  1  0.690066  0.827519  0.585672  1
  Nd  Nd36  1  0.701132  0.821967  0.844899  1
  Nd  Nd37  1  0.798868  0.321967  0.655101  1
  Nd  Nd38  1  0.298868  0.178033  0.155101  1
  Nd  Nd39  1  0.201132  0.678033  0.344899  1
  Nd  Nd40  1  0.667960  0.608249  0.138718  1
  Nd  Nd41  1  0.832040  0.108249  0.361282  1
  Nd  Nd42  1  0.332040  0.391751  0.861282  1
  Nd  Nd43  1  0.167960  0.891751  0.638718  1
