# generated using pymatgen
data_NaBe(BO2)3
_symmetry_space_group_name_H-M   'P 1'
_cell_length_a   9.24166219
_cell_length_b   12.03962409
_cell_length_c   4.45233846
_cell_angle_alpha   90.00000000
_cell_angle_beta   90.00000000
_cell_angle_gamma   90.00000000
_symmetry_Int_Tables_number   1
_chemical_formula_structural   NaBe(BO2)3
_chemical_formula_sum   'Na4 Be4 B12 O24'
_cell_volume   495.39450878
_cell_formula_units_Z   4
loop_
 _symmetry_equiv_pos_site_id
 _symmetry_equiv_pos_as_xyz
  1  'x, y, z'
loop_
 _atom_site_type_symbol
 _atom_site_label
 _atom_site_symmetry_multiplicity
 _atom_site_fract_x
 _atom_site_fract_y
 _atom_site_fract_z
 _atom_site_occupancy
  Na  Na0  1  0.175958  0.113234  0.280049  1
  Na  Na1  1  0.824042  0.886766  0.780049  1
  Na  Na2  1  0.324042  0.613234  0.780049  1
  Na  Na3  1  0.675958  0.386766  0.280049  1
  Be  Be4  1  0.408077  0.042025  0.826524  1
  Be  Be5  1  0.591923  0.957975  0.326524  1
  Be  Be6  1  0.091923  0.542025  0.326524  1
  Be  Be7  1  0.908077  0.457975  0.826524  1
  B  B8  1  0.430483  0.254402  0.880867  1
  B  B9  1  0.569517  0.745598  0.380867  1
  B  B10  1  0.069517  0.754402  0.380867  1
  B  B11  1  0.930483  0.245598  0.880867  1
  B  B12  1  0.083216  0.336238  0.502763  1
  B  B13  1  0.916784  0.663762  0.002763  1
  B  B14  1  0.416784  0.836238  0.002763  1
  B  B15  1  0.583216  0.163762  0.502763  1
  B  B16  1  0.277482  0.394780  0.158779  1
  B  B17  1  0.722518  0.605220  0.658779  1
  B  B18  1  0.222518  0.894780  0.658779  1
  B  B19  1  0.777482  0.105220  0.158779  1
  O  O20  1  0.382606  0.158233  0.992777  1
  O  O21  1  0.617394  0.841767  0.492777  1
  O  O22  1  0.117394  0.658233  0.492777  1
  O  O23  1  0.882606  0.341767  0.992777  1
  O  O24  1  0.029688  0.241206  0.640457  1
  O  O25  1  0.970312  0.758794  0.140457  1
  O  O26  1  0.470312  0.741206  0.140457  1
  O  O27  1  0.529688  0.258794  0.640457  1
  O  O28  1  0.036713  0.441224  0.562286  1
  O  O29  1  0.963287  0.558776  0.062286  1
  O  O30  1  0.463287  0.941224  0.062286  1
  O  O31  1  0.536713  0.058776  0.562286  1
  O  O32  1  0.195173  0.312328  0.303697  1
  O  O33  1  0.804827  0.687672  0.803697  1
  O  O34  1  0.304827  0.812328  0.803697  1
  O  O35  1  0.695173  0.187672  0.303697  1
  O  O36  1  0.256471  0.002595  0.679409  1
  O  O37  1  0.743529  0.997405  0.179409  1
  O  O38  1  0.243529  0.502595  0.179409  1
  O  O39  1  0.756471  0.497405  0.679409  1
  O  O40  1  0.895594  0.139198  0.986191  1
  O  O41  1  0.104406  0.860802  0.486191  1
  O  O42  1  0.604406  0.639198  0.486191  1
  O  O43  1  0.395594  0.360802  0.986191  1
