# generated using pymatgen
data_SmTl(MoO4)2
_symmetry_space_group_name_H-M   'P 1'
_cell_length_a   6.37213612
_cell_length_b   6.37213612
_cell_length_c   9.63692178
_cell_angle_alpha   90.00000000
_cell_angle_beta   90.00000000
_cell_angle_gamma   90.00000000
_symmetry_Int_Tables_number   1
_chemical_formula_structural   SmTl(MoO4)2
_chemical_formula_sum   'Sm2 Tl2 Mo4 O16'
_cell_volume   391.29871616
_cell_formula_units_Z   2
loop_
 _symmetry_equiv_pos_site_id
 _symmetry_equiv_pos_as_xyz
  1  'x, y, z'
loop_
 _atom_site_type_symbol
 _atom_site_label
 _atom_site_symmetry_multiplicity
 _atom_site_fract_x
 _atom_site_fract_y
 _atom_site_fract_z
 _atom_site_occupancy
  O  O0  1  0.051711  0.640196  0.388472  1
  O  O1  1  0.448289  0.859804  0.388472  1
  O  O2  1  0.640196  0.051711  0.111528  1
  O  O3  1  0.640196  0.448289  0.388472  1
  O  O4  1  0.859804  0.051711  0.388472  1
  O  O5  1  0.448289  0.640196  0.111528  1
  O  O6  1  0.051711  0.859804  0.111528  1
  O  O7  1  0.859804  0.448289  0.111528  1
  O  O8  1  0.140196  0.551711  0.888472  1
  O  O9  1  0.948289  0.140196  0.888472  1
  O  O10  1  0.551711  0.359804  0.888472  1
  O  O11  1  0.140196  0.948289  0.611528  1
  O  O12  1  0.359804  0.551711  0.611528  1
  O  O13  1  0.359804  0.948289  0.888472  1
  O  O14  1  0.551711  0.140196  0.611528  1
  O  O15  1  0.948289  0.359804  0.611528  1
  Mo  Mo16  1  0.750000  0.250000  0.500000  1
  Mo  Mo17  1  0.250000  0.750000  0.500000  1
  Mo  Mo18  1  0.750000  0.250000  0.000000  1
  Mo  Mo19  1  0.250000  0.750000  0.000000  1
  Sm  Sm20  1  0.750000  0.750000  0.250000  1
  Sm  Sm21  1  0.250000  0.250000  0.750000  1
  Tl  Tl22  1  0.750000  0.750000  0.750000  1
  Tl  Tl23  1  0.250000  0.250000  0.250000  1
