# generated using pymatgen
data_Te2Mo(WSe2)3
_symmetry_space_group_name_H-M   'P 1'
_cell_length_a   3.38165711
_cell_length_b   3.38164997
_cell_length_c   38.48029768
_cell_angle_alpha   90.00089669
_cell_angle_beta   90.00000000
_cell_angle_gamma   120.00006991
_symmetry_Int_Tables_number   1
_chemical_formula_structural   Te2Mo(WSe2)3
_chemical_formula_sum   'Te2 Mo1 W3 Se6'
_cell_volume   381.08948928
_cell_formula_units_Z   1
loop_
 _symmetry_equiv_pos_site_id
 _symmetry_equiv_pos_as_xyz
  1  'x, y, z'
loop_
 _atom_site_type_symbol
 _atom_site_label
 _atom_site_symmetry_multiplicity
 _atom_site_fract_x
 _atom_site_fract_y
 _atom_site_fract_z
 _atom_site_occupancy
  Te  Te0  1  0.333353  0.666708  0.706622  1
  Te  Te1  1  0.333353  0.666708  0.608465  1
  Mo  Mo2  1  0.333308  0.666616  0.093912  1
  W  W3  1  0.333313  0.666627  0.469660  1
  W  W4  1  0.666691  0.333382  0.281797  1
  W  W5  1  0.666691  0.333381  0.657580  1
  Se  Se6  1  0.333370  0.666740  0.324927  1
  Se  Se7  1  0.666635  0.333269  0.050960  1
  Se  Se8  1  0.666635  0.333268  0.426523  1
  Se  Se9  1  0.666649  0.333297  0.136885  1
  Se  Se10  1  0.666651  0.333301  0.512765  1
  Se  Se11  1  0.333351  0.666703  0.238652  1
