# generated using pymatgen
data_Mo3P
_symmetry_space_group_name_H-M   'P 1'
_cell_length_a   4.84961872
_cell_length_b   7.37836490
_cell_length_c   7.37836490
_cell_angle_alpha   83.79980257
_cell_angle_beta   70.81388570
_cell_angle_gamma   70.81388570
_symmetry_Int_Tables_number   1
_chemical_formula_structural   Mo3P
_chemical_formula_sum   'Mo12 P4'
_cell_volume   235.50024016
_cell_formula_units_Z   4
loop_
 _symmetry_equiv_pos_site_id
 _symmetry_equiv_pos_as_xyz
  1  'x, y, z'
loop_
 _atom_site_type_symbol
 _atom_site_label
 _atom_site_symmetry_multiplicity
 _atom_site_fract_x
 _atom_site_fract_y
 _atom_site_fract_z
 _atom_site_occupancy
  P  P0  1  0.208392  0.291608  0.291608  1
  P  P1  1  0.500000  0.291608  0.708392  1
  P  P2  1  0.500000  0.708392  0.291608  1
  P  P3  1  0.791608  0.708392  0.708392  1
  Mo  Mo4  1  0.470349  0.000000  0.598029  1
  Mo  Mo5  1  0.931622  0.598029  0.000000  1
  Mo  Mo6  1  0.529651  0.401971  0.000000  1
  Mo  Mo7  1  0.068378  0.000000  0.401971  1
  Mo  Mo8  1  0.354763  0.645237  0.645237  1
  Mo  Mo9  1  0.000000  0.645237  0.354763  1
  Mo  Mo10  1  0.000000  0.354763  0.645237  1
  Mo  Mo11  1  0.645237  0.354763  0.354763  1
  Mo  Mo12  1  0.675326  0.000000  0.185415  1
  Mo  Mo13  1  0.139259  0.185415  0.000000  1
  Mo  Mo14  1  0.324674  0.814585  0.000000  1
  Mo  Mo15  1  0.860741  0.000000  0.814585  1
