# generated using pymatgen
data_LiAlSiO4
_symmetry_space_group_name_H-M   'P 1'
_cell_length_a   10.59727687
_cell_length_b   10.59727687
_cell_length_c   11.38671468
_cell_angle_alpha   90.00000000
_cell_angle_beta   90.00000000
_cell_angle_gamma   120.00000002
_symmetry_Int_Tables_number   1
_chemical_formula_structural   LiAlSiO4
_chemical_formula_sum   'Li12 Al12 Si12 O48'
_cell_volume   1107.43343771
_cell_formula_units_Z   12
loop_
 _symmetry_equiv_pos_site_id
 _symmetry_equiv_pos_as_xyz
  1  'x, y, z'
loop_
 _atom_site_type_symbol
 _atom_site_label
 _atom_site_symmetry_multiplicity
 _atom_site_fract_x
 _atom_site_fract_y
 _atom_site_fract_z
 _atom_site_occupancy
  Li  Li0  1  0.000000  0.500000  0.338849  1
  Li  Li1  1  0.500000  0.500000  0.005516  1
  Li  Li2  1  0.500000  0.000000  0.672183  1
  Li  Li3  1  0.000000  0.500000  0.994484  1
  Li  Li4  1  0.500000  0.500000  0.661151  1
  Li  Li5  1  0.500000  0.000000  0.327817  1
  Li  Li6  1  0.000000  0.500000  0.666667  1
  Li  Li7  1  0.500000  0.500000  0.333333  1
  Li  Li8  1  0.500000  0.000000  0.000000  1
  Li  Li9  1  0.000000  0.000000  0.166667  1
  Li  Li10  1  0.000000  0.000000  0.833333  1
  Li  Li11  1  0.000000  0.000000  0.500000  1
  O  O12  1  0.302747  0.903430  0.406279  1
  O  O13  1  0.399317  0.096570  0.593721  1
  O  O14  1  0.697253  0.600683  0.927055  1
  O  O15  1  0.302747  0.399317  0.927055  1
  O  O16  1  0.600683  0.903430  0.593721  1
  O  O17  1  0.399317  0.302747  0.739612  1
  O  O18  1  0.903430  0.600683  0.072945  1
  O  O19  1  0.903430  0.302747  0.260388  1
  O  O20  1  0.697253  0.096570  0.406279  1
  O  O21  1  0.096570  0.697253  0.260388  1
  O  O22  1  0.600683  0.697253  0.739612  1
  O  O23  1  0.096570  0.399317  0.072945  1
  O  O24  1  0.600465  0.706462  0.262787  1
  O  O25  1  0.894003  0.600465  0.596120  1
  O  O26  1  0.706462  0.105997  0.929453  1
  O  O27  1  0.293538  0.894003  0.929453  1
  O  O28  1  0.105997  0.399535  0.596120  1
  O  O29  1  0.894003  0.293538  0.737213  1
  O  O30  1  0.399535  0.105997  0.070547  1
  O  O31  1  0.399535  0.293538  0.262787  1
  O  O32  1  0.706462  0.600465  0.403880  1
  O  O33  1  0.293538  0.399535  0.403880  1
  O  O34  1  0.105997  0.706462  0.737213  1
  O  O35  1  0.600465  0.894003  0.070547  1
  O  O36  1  0.608576  0.200260  0.250766  1
  O  O37  1  0.408316  0.608576  0.584100  1
  O  O38  1  0.200260  0.591684  0.917433  1
  O  O39  1  0.799740  0.408316  0.917433  1
  O  O40  1  0.591684  0.391424  0.584100  1
  O  O41  1  0.408316  0.799740  0.749234  1
  O  O42  1  0.391424  0.591684  0.082567  1
  O  O43  1  0.391424  0.799740  0.250766  1
  O  O44  1  0.200260  0.608576  0.415900  1
  O  O45  1  0.799740  0.391424  0.415900  1
  O  O46  1  0.591684  0.200260  0.749234  1
  O  O47  1  0.608576  0.408316  0.082567  1
  O  O48  1  0.913033  0.111116  0.575836  1
  O  O49  1  0.198083  0.086967  0.909170  1
  O  O50  1  0.801917  0.913033  0.909170  1
  O  O51  1  0.086967  0.888884  0.575836  1
  O  O52  1  0.913033  0.801917  0.757497  1
  O  O53  1  0.888884  0.086967  0.090830  1
  O  O54  1  0.888884  0.801917  0.242503  1
  O  O55  1  0.198083  0.111116  0.424164  1
  O  O56  1  0.801917  0.888884  0.424164  1
  O  O57  1  0.086967  0.198083  0.757497  1
  O  O58  1  0.111116  0.913033  0.090830  1
  O  O59  1  0.111116  0.198083  0.242503  1
  Al  Al60  1  0.250863  0.000000  0.500000  1
  Al  Al61  1  0.250863  0.250863  0.833333  1
  Al  Al62  1  0.000000  0.749137  0.166667  1
  Al  Al63  1  0.000000  0.250863  0.166667  1
  Al  Al64  1  0.749137  0.749137  0.833333  1
  Al  Al65  1  0.748732  0.497464  0.500000  1
  Al  Al66  1  0.251268  0.502536  0.500000  1
  Al  Al67  1  0.748732  0.251268  0.833333  1
  Al  Al68  1  0.502536  0.251268  0.166667  1
  Al  Al69  1  0.497464  0.748732  0.166667  1
  Al  Al70  1  0.251268  0.748732  0.833333  1
  Al  Al71  1  0.749137  0.000000  0.500000  1
  Si  Si72  1  0.751825  0.503650  0.000000  1
  Si  Si73  1  0.503650  0.751825  0.666667  1
  Si  Si74  1  0.496350  0.248175  0.666667  1
  Si  Si75  1  0.751825  0.248175  0.333333  1
  Si  Si76  1  0.248175  0.496350  0.000000  1
  Si  Si77  1  0.752441  0.000000  0.000000  1
  Si  Si78  1  0.752441  0.752441  0.333333  1
  Si  Si79  1  0.000000  0.247559  0.666667  1
  Si  Si80  1  0.000000  0.752441  0.666667  1
  Si  Si81  1  0.247559  0.247559  0.333333  1
  Si  Si82  1  0.247559  0.000000  0.000000  1
  Si  Si83  1  0.248175  0.751825  0.333333  1
