# generated using pymatgen
data_CaNb2O6
_symmetry_space_group_name_H-M   'P 1'
_cell_length_a   5.30187378
_cell_length_b   5.92878361
_cell_length_c   15.21759659
_cell_angle_alpha   90.00000000
_cell_angle_beta   90.00000000
_cell_angle_gamma   90.00000000
_symmetry_Int_Tables_number   1
_chemical_formula_structural   CaNb2O6
_chemical_formula_sum   'Ca4 Nb8 O24'
_cell_volume   478.34479328
_cell_formula_units_Z   4
loop_
 _symmetry_equiv_pos_site_id
 _symmetry_equiv_pos_as_xyz
  1  'x, y, z'
loop_
 _atom_site_type_symbol
 _atom_site_label
 _atom_site_symmetry_multiplicity
 _atom_site_fract_x
 _atom_site_fract_y
 _atom_site_fract_z
 _atom_site_occupancy
  O  O0  1  0.883373  0.362191  0.756923  1
  O  O1  1  0.383374  0.137809  0.743078  1
  O  O2  1  0.616626  0.362191  0.243077  1
  O  O3  1  0.116627  0.137809  0.256923  1
  O  O4  1  0.116627  0.637810  0.243077  1
  O  O5  1  0.616626  0.862192  0.256923  1
  O  O6  1  0.383374  0.637810  0.756923  1
  O  O7  1  0.883373  0.862192  0.743078  1
  O  O8  1  0.008680  0.076367  0.600963  1
  O  O9  1  0.508681  0.423633  0.899037  1
  O  O10  1  0.491319  0.076367  0.399037  1
  O  O11  1  0.991320  0.423633  0.100963  1
  O  O12  1  0.599927  0.894449  0.912825  1
  O  O13  1  0.099926  0.605551  0.587175  1
  O  O14  1  0.900074  0.894449  0.087174  1
  O  O15  1  0.400073  0.605551  0.412826  1
  O  O16  1  0.400073  0.105551  0.087174  1
  O  O17  1  0.900074  0.394448  0.412826  1
  O  O18  1  0.991320  0.923634  0.399037  1
  O  O19  1  0.599927  0.394448  0.587175  1
  O  O20  1  0.008680  0.576366  0.899037  1
  O  O21  1  0.508681  0.923634  0.600963  1
  O  O22  1  0.491319  0.576366  0.100963  1
  O  O23  1  0.099926  0.105551  0.912825  1
  Ca  Ca24  1  0.250000  0.789026  0.000000  1
  Ca  Ca25  1  0.750000  0.710973  0.500000  1
  Ca  Ca26  1  0.750000  0.210973  0.000000  1
  Ca  Ca27  1  0.250000  0.289026  0.500000  1
  Nb  Nb28  1  0.208176  0.818454  0.665501  1
  Nb  Nb29  1  0.791824  0.681546  0.165501  1
  Nb  Nb30  1  0.291825  0.818454  0.334499  1
  Nb  Nb31  1  0.708175  0.681546  0.834499  1
  Nb  Nb32  1  0.291825  0.318454  0.165501  1
  Nb  Nb33  1  0.791824  0.181547  0.334499  1
  Nb  Nb34  1  0.208176  0.318454  0.834499  1
  Nb  Nb35  1  0.708175  0.181547  0.665501  1
