# generated using pymatgen
data_TlGaO2
_symmetry_space_group_name_H-M   'P 1'
_cell_length_a   5.94608675
_cell_length_b   5.94608675
_cell_length_c   5.94608674
_cell_angle_alpha   59.93054876
_cell_angle_beta   59.93054877
_cell_angle_gamma   59.93054874
_symmetry_Int_Tables_number   1
_chemical_formula_structural   TlGaO2
_chemical_formula_sum   'Tl2 Ga2 O4'
_cell_volume   148.42054854
_cell_formula_units_Z   2
loop_
 _symmetry_equiv_pos_site_id
 _symmetry_equiv_pos_as_xyz
  1  'x, y, z'
loop_
 _atom_site_type_symbol
 _atom_site_label
 _atom_site_symmetry_multiplicity
 _atom_site_fract_x
 _atom_site_fract_y
 _atom_site_fract_z
 _atom_site_occupancy
  O  O0  1  0.500000  0.000000  0.500000  1
  O  O1  1  0.000000  0.500000  0.500000  1
  O  O2  1  0.500000  0.500000  0.500000  1
  O  O3  1  0.500000  0.500000  0.000000  1
  Ga  Ga4  1  0.375084  0.375084  0.375084  1
  Ga  Ga5  1  0.624916  0.624916  0.624916  1
  Tl  Tl6  1  0.876689  0.876689  0.876689  1
  Tl  Tl7  1  0.123311  0.123311  0.123311  1
