# generated using pymatgen
data_Tb(BO2)3
_symmetry_space_group_name_H-M   'P 1'
_cell_length_a   6.14868195
_cell_length_b   6.50906829
_cell_length_c   6.50906830
_cell_angle_alpha   80.41937440
_cell_angle_beta   61.92405815
_cell_angle_gamma   61.92405815
_symmetry_Int_Tables_number   1
_chemical_formula_structural   Tb(BO2)3
_chemical_formula_sum   'Tb2 B6 O12'
_cell_volume   202.29594258
_cell_formula_units_Z   2
loop_
 _symmetry_equiv_pos_site_id
 _symmetry_equiv_pos_as_xyz
  1  'x, y, z'
loop_
 _atom_site_type_symbol
 _atom_site_label
 _atom_site_symmetry_multiplicity
 _atom_site_fract_x
 _atom_site_fract_y
 _atom_site_fract_z
 _atom_site_occupancy
  B  B0  1  0.750000  0.248368  0.751632  1
  B  B1  1  0.250000  0.751632  0.248368  1
  B  B2  1  0.117455  0.186215  0.316288  1
  B  B3  1  0.382545  0.683712  0.813785  1
  B  B4  1  0.882545  0.813785  0.683712  1
  B  B5  1  0.617455  0.316288  0.186215  1
  O  O6  1  0.695693  0.050092  0.753470  1
  O  O7  1  0.061474  0.342494  0.163059  1
  O  O8  1  0.438526  0.836941  0.657506  1
  O  O9  1  0.938526  0.657506  0.836941  1
  O  O10  1  0.499528  0.445964  0.750817  1
  O  O11  1  0.000472  0.249183  0.554036  1
  O  O12  1  0.500472  0.554036  0.249183  1
  O  O13  1  0.999528  0.750817  0.445964  1
  O  O14  1  0.304307  0.949908  0.246530  1
  O  O15  1  0.195693  0.753470  0.050092  1
  O  O16  1  0.561474  0.163059  0.342494  1
  O  O17  1  0.804307  0.246530  0.949908  1
  Tb  Tb18  1  0.750000  0.752345  0.247655  1
  Tb  Tb19  1  0.250000  0.247655  0.752345  1
