# generated using pymatgen
data_K2Zn2(MoO4)3
_symmetry_space_group_name_H-M   'P 1'
_cell_length_a   7.10452030
_cell_length_b   9.24257358
_cell_length_c   19.72435357
_cell_angle_alpha   90.00000000
_cell_angle_beta   91.15507936
_cell_angle_gamma   90.00000000
_symmetry_Int_Tables_number   1
_chemical_formula_structural   K2Zn2(MoO4)3
_chemical_formula_sum   'K8 Zn8 Mo12 O48'
_cell_volume   1294.91778369
_cell_formula_units_Z   4
loop_
 _symmetry_equiv_pos_site_id
 _symmetry_equiv_pos_as_xyz
  1  'x, y, z'
loop_
 _atom_site_type_symbol
 _atom_site_label
 _atom_site_symmetry_multiplicity
 _atom_site_fract_x
 _atom_site_fract_y
 _atom_site_fract_z
 _atom_site_occupancy
  O  O0  1  0.865667  0.225962  0.849365  1
  O  O1  1  0.634333  0.725962  0.650635  1
  O  O2  1  0.134333  0.774038  0.150635  1
  O  O3  1  0.365667  0.274037  0.349365  1
  O  O4  1  0.348762  0.252907  0.510822  1
  O  O5  1  0.151238  0.752906  0.989178  1
  O  O6  1  0.651238  0.747093  0.489178  1
  O  O7  1  0.848762  0.247093  0.010822  1
  O  O8  1  0.160419  0.073541  0.956411  1
  O  O9  1  0.339581  0.573541  0.543590  1
  O  O10  1  0.839581  0.926459  0.043590  1
  O  O11  1  0.660419  0.426459  0.456410  1
  O  O12  1  0.372359  0.317012  0.908283  1
  O  O13  1  0.127641  0.817013  0.591718  1
  O  O14  1  0.627641  0.682988  0.091718  1
  O  O15  1  0.872359  0.182988  0.408283  1
  O  O16  1  0.545743  0.319778  0.769010  1
  O  O17  1  0.954257  0.819778  0.730990  1
  O  O18  1  0.198575  0.347220  0.645281  1
  O  O19  1  0.045743  0.180222  0.269010  1
  O  O20  1  0.581658  0.054518  0.938114  1
  O  O21  1  0.918341  0.554517  0.561886  1
  O  O22  1  0.418341  0.945483  0.061886  1
  O  O23  1  0.081659  0.445482  0.438114  1
  O  O24  1  0.462004  0.111791  0.633593  1
  O  O25  1  0.037995  0.611791  0.866407  1
  O  O26  1  0.537996  0.888209  0.366407  1
  O  O27  1  0.962005  0.388209  0.133593  1
  O  O28  1  0.393212  0.989791  0.215501  1
  O  O29  1  0.106788  0.489791  0.284499  1
  O  O30  1  0.606788  0.010208  0.784498  1
  O  O31  1  0.893212  0.510208  0.715502  1
  O  O32  1  0.106837  0.098663  0.111865  1
  O  O33  1  0.393163  0.598663  0.388135  1
  O  O34  1  0.893163  0.901336  0.888135  1
  O  O35  1  0.606837  0.401337  0.611865  1
  O  O36  1  0.408350  0.253843  0.046503  1
  O  O37  1  0.091650  0.753843  0.453496  1
  O  O38  1  0.591650  0.746157  0.953497  1
  O  O39  1  0.908350  0.246157  0.546503  1
  O  O40  1  0.362970  0.309226  0.199620  1
  O  O41  1  0.137030  0.809227  0.300380  1
  O  O42  1  0.637030  0.690774  0.800380  1
  O  O43  1  0.862970  0.190774  0.699620  1
  O  O44  1  0.698575  0.152780  0.145281  1
  O  O45  1  0.801425  0.652779  0.354719  1
  O  O46  1  0.301425  0.847221  0.854718  1
  O  O47  1  0.454257  0.680222  0.230990  1
  K  K48  1  0.185778  0.388604  0.790434  1
  K  K49  1  0.314222  0.888603  0.709565  1
  K  K50  1  0.814222  0.611397  0.209565  1
  K  K51  1  0.685778  0.111396  0.290434  1
  K  K52  1  0.701091  0.481026  0.901626  1
  K  K53  1  0.798909  0.981025  0.598374  1
  K  K54  1  0.298909  0.518974  0.098374  1
  K  K55  1  0.201091  0.018974  0.401626  1
  Zn  Zn56  1  0.123790  0.898613  0.065100  1
  Zn  Zn57  1  0.376210  0.398613  0.434900  1
  Zn  Zn58  1  0.876210  0.101387  0.934900  1
  Zn  Zn59  1  0.623790  0.601388  0.565101  1
  Zn  Zn60  1  0.907114  0.365836  0.635665  1
  Zn  Zn61  1  0.592886  0.865836  0.864335  1
  Zn  Zn62  1  0.092886  0.634165  0.364335  1
  Zn  Zn63  1  0.407114  0.134164  0.135665  1
  Mo  Mo64  1  0.381984  0.169575  0.964304  1
  Mo  Mo65  1  0.118017  0.669575  0.535696  1
  Mo  Mo66  1  0.618016  0.830425  0.035696  1
  Mo  Mo67  1  0.881983  0.330425  0.464304  1
  Mo  Mo68  1  0.400285  0.282815  0.600304  1
  Mo  Mo69  1  0.099716  0.782815  0.899697  1
  Mo  Mo70  1  0.599715  0.717186  0.399696  1
  Mo  Mo71  1  0.900284  0.217185  0.100304  1
  Mo  Mo72  1  0.718588  0.184346  0.774478  1
  Mo  Mo73  1  0.781412  0.684346  0.725522  1
  Mo  Mo74  1  0.281412  0.815654  0.225522  1
  Mo  Mo75  1  0.218588  0.315655  0.274478  1
