# generated using pymatgen
data_CaSO4
_symmetry_space_group_name_H-M   'P 1'
_cell_length_a   6.43128326
_cell_length_b   6.79687892
_cell_length_c   6.98728764
_cell_angle_alpha   90.00000000
_cell_angle_beta   90.00000000
_cell_angle_gamma   103.56493322
_symmetry_Int_Tables_number   1
_chemical_formula_structural   CaSO4
_chemical_formula_sum   'Ca4 S4 O16'
_cell_volume   296.91275241
_cell_formula_units_Z   4
loop_
 _symmetry_equiv_pos_site_id
 _symmetry_equiv_pos_as_xyz
  1  'x, y, z'
loop_
 _atom_site_type_symbol
 _atom_site_label
 _atom_site_symmetry_multiplicity
 _atom_site_fract_x
 _atom_site_fract_y
 _atom_site_fract_z
 _atom_site_occupancy
  O  O0  1  0.200662  0.626486  0.291894  1
  O  O1  1  0.299338  0.873514  0.791894  1
  O  O2  1  0.799338  0.373514  0.708106  1
  O  O3  1  0.700662  0.126486  0.208106  1
  O  O4  1  0.298794  0.964645  0.401296  1
  O  O5  1  0.201206  0.535355  0.901296  1
  O  O6  1  0.701206  0.035355  0.598704  1
  O  O7  1  0.798794  0.464645  0.098704  1
  O  O8  1  0.443819  0.252419  0.010292  1
  O  O9  1  0.056181  0.247581  0.510292  1
  O  O10  1  0.556181  0.747581  0.989708  1
  O  O11  1  0.943819  0.752419  0.489708  1
  O  O12  1  0.510375  0.379404  0.330452  1
  O  O13  1  0.989625  0.120596  0.830452  1
  O  O14  1  0.489625  0.620596  0.669548  1
  O  O15  1  0.010375  0.879404  0.169548  1
  S  S16  1  0.111858  0.803211  0.339195  1
  S  S17  1  0.388142  0.696789  0.839195  1
  S  S18  1  0.888142  0.196789  0.660805  1
  S  S19  1  0.611858  0.303211  0.160805  1
  Ca  Ca20  1  0.593522  0.783618  0.345687  1
  Ca  Ca21  1  0.906478  0.716382  0.845687  1
  Ca  Ca22  1  0.406478  0.216382  0.654313  1
  Ca  Ca23  1  0.093522  0.283618  0.154313  1
