# generated using pymatgen
data_B13P2
_symmetry_space_group_name_H-M   'P 1'
_cell_length_a   8.53050243
_cell_length_b   8.53050244
_cell_length_c   8.53050244
_cell_angle_alpha   32.99886071
_cell_angle_beta   32.99886071
_cell_angle_gamma   32.99886068
_symmetry_Int_Tables_number   1
_chemical_formula_structural   B13P2
_chemical_formula_sum   'B13 P2'
_cell_volume   163.85582954
_cell_formula_units_Z   1
loop_
 _symmetry_equiv_pos_site_id
 _symmetry_equiv_pos_as_xyz
  1  'x, y, z'
loop_
 _atom_site_type_symbol
 _atom_site_label
 _atom_site_symmetry_multiplicity
 _atom_site_fract_x
 _atom_site_fract_y
 _atom_site_fract_z
 _atom_site_occupancy
  B  B0  1  0.500000  0.500000  0.500000  1
  B  B1  1  0.432138  0.817889  0.432138  1
  B  B2  1  0.432138  0.432138  0.817889  1
  B  B3  1  0.817889  0.432138  0.432138  1
  B  B4  1  0.182111  0.567862  0.567862  1
  B  B5  1  0.567862  0.182111  0.567862  1
  B  B6  1  0.567862  0.567862  0.182111  1
  B  B7  1  0.279767  0.902538  0.279767  1
  B  B8  1  0.279767  0.279767  0.902538  1
  B  B9  1  0.902538  0.279767  0.279767  1
  B  B10  1  0.097462  0.720233  0.720233  1
  B  B11  1  0.720233  0.097462  0.720233  1
  B  B12  1  0.720233  0.720233  0.097462  1
  P  P13  1  0.271844  0.271844  0.271844  1
  P  P14  1  0.728156  0.728156  0.728156  1
