# generated using pymatgen
data_Y4Si2S3O7
_symmetry_space_group_name_H-M   'P 1'
_cell_length_a   10.78870492
_cell_length_b   10.78870492
_cell_length_c   10.78870492
_cell_angle_alpha   79.06500293
_cell_angle_beta   66.09932240
_cell_angle_gamma   113.90067760
_symmetry_Int_Tables_number   1
_chemical_formula_structural   Y4Si2S3O7
_chemical_formula_sum   'Y16 Si8 S12 O28'
_cell_volume   950.93944383
_cell_formula_units_Z   4
loop_
 _symmetry_equiv_pos_site_id
 _symmetry_equiv_pos_as_xyz
  1  'x, y, z'
loop_
 _atom_site_type_symbol
 _atom_site_label
 _atom_site_symmetry_multiplicity
 _atom_site_fract_x
 _atom_site_fract_y
 _atom_site_fract_z
 _atom_site_occupancy
  Y  Y0  1  0.985119  0.643560  0.841559  1
  Y  Y1  1  0.485119  0.658441  0.856440  1
  Y  Y2  1  0.014881  0.658441  0.326678  1
  Y  Y3  1  0.514881  0.173322  0.841559  1
  Y  Y4  1  0.014881  0.356440  0.158441  1
  Y  Y5  1  0.514881  0.341559  0.143560  1
  Y  Y6  1  0.985119  0.341559  0.673322  1
  Y  Y7  1  0.485119  0.826678  0.158441  1
  Y  Y8  1  0.405834  0.702917  0.547083  1
  Y  Y9  1  0.750000  0.702917  0.202917  1
  Y  Y10  1  0.905834  0.952917  0.797083  1
  Y  Y11  1  0.250000  0.952917  0.452917  1
  Y  Y12  1  0.750000  0.047083  0.547083  1
  Y  Y13  1  0.094166  0.047083  0.202917  1
  Y  Y14  1  0.250000  0.297083  0.797083  1
  Y  Y15  1  0.594166  0.297083  0.452917  1
  Si  Si16  1  0.874762  0.779177  0.595586  1
  Si  Si17  1  0.374762  0.904414  0.720823  1
  Si  Si18  1  0.125238  0.904414  0.970348  1
  Si  Si19  1  0.625238  0.529652  0.595586  1
  Si  Si20  1  0.125238  0.220823  0.404414  1
  Si  Si21  1  0.625238  0.095586  0.279177  1
  Si  Si22  1  0.874762  0.095586  0.029652  1
  Si  Si23  1  0.374762  0.470348  0.404414  1
  S  S24  1  0.646012  -0.000000  0.853988  1
  S  S25  1  0.353988  -0.000000  0.146012  1
  S  S26  1  0.146012  0.646012  0.500000  1
  S  S27  1  0.646012  0.646012  0.000000  1
  S  S28  1  0.146012  0.500000  0.853988  1
  S  S29  1  0.853988  0.500000  0.146012  1
  S  S30  1  0.853988  0.353988  0.500000  1
  S  S31  1  0.353988  0.353988  0.000000  1
  S  S32  1  0.750000  0.375000  0.875000  1
  S  S33  1  0.250000  0.625000  0.125000  1
  S  S34  1  0.250000  0.125000  0.625000  1
  S  S35  1  0.750000  0.875000  0.375000  1
  O  O36  1  0.767931  0.849694  0.664441  1
  O  O37  1  0.014135  0.849694  0.418237  1
  O  O38  1  0.267931  0.835559  0.650306  1
  O  O39  1  0.985865  0.835559  0.932372  1
  O  O40  1  0.485865  0.567628  0.664441  1
  O  O41  1  0.732069  0.567628  0.418237  1
  O  O42  1  0.514135  0.081763  0.650306  1
  O  O43  1  0.232069  0.081763  0.932372  1
  O  O44  1  0.232069  0.150306  0.335559  1
  O  O45  1  0.985865  0.150306  0.581763  1
  O  O46  1  0.732069  0.164441  0.349694  1
  O  O47  1  0.014135  0.164441  0.067628  1
  O  O48  1  0.514135  0.432372  0.335559  1
  O  O49  1  0.267931  0.432372  0.581763  1
  O  O50  1  0.485865  0.918237  0.349694  1
  O  O51  1  0.767931  0.918237  0.067628  1
  O  O52  1  0.981852  0.808149  0.673703  1
  O  O53  1  0.481852  0.826297  0.691851  1
  O  O54  1  0.018148  0.826297  0.155556  1
  O  O55  1  0.518148  0.344444  0.673703  1
  O  O56  1  0.018148  0.191851  0.326297  1
  O  O57  1  0.518148  0.173703  0.308149  1
  O  O58  1  0.981852  0.173703  0.844444  1
  O  O59  1  0.481852  0.655556  0.326297  1
  O  O60  1  0.750000  0.601225  0.648775  1
  O  O61  1  0.250000  0.851225  0.898775  1
  O  O62  1  0.250000  0.398775  0.351225  1
  O  O63  1  0.750000  0.148775  0.101225  1
