# generated using pymatgen
data_Mn2MoP12
_symmetry_space_group_name_H-M   'P 1'
_cell_length_a   5.73658206
_cell_length_b   8.49902419
_cell_length_c   10.50564793
_cell_angle_alpha   66.74437236
_cell_angle_beta   74.15572496
_cell_angle_gamma   70.27629488
_symmetry_Int_Tables_number   1
_chemical_formula_structural   Mn2MoP12
_chemical_formula_sum   'Mn4 Mo2 P24'
_cell_volume   437.15836840
_cell_formula_units_Z   2
loop_
 _symmetry_equiv_pos_site_id
 _symmetry_equiv_pos_as_xyz
  1  'x, y, z'
loop_
 _atom_site_type_symbol
 _atom_site_label
 _atom_site_symmetry_multiplicity
 _atom_site_fract_x
 _atom_site_fract_y
 _atom_site_fract_z
 _atom_site_occupancy
  P  P0  1  0.051113  0.621229  0.924462  1
  P  P1  1  0.596804  0.878771  0.575538  1
  P  P2  1  0.948887  0.378771  0.075538  1
  P  P3  1  0.403196  0.121229  0.424462  1
  P  P4  1  0.700786  0.043985  0.833866  1
  P  P5  1  0.578636  0.456015  0.666134  1
  P  P6  1  0.671036  0.064478  0.239986  1
  P  P7  1  0.975499  0.435522  0.260014  1
  P  P8  1  0.328964  0.935522  0.760014  1
  P  P9  1  0.024501  0.564478  0.739986  1
  P  P10  1  0.077288  0.859206  0.073983  1
  P  P11  1  0.010477  0.640794  0.426017  1
  P  P12  1  0.922712  0.140794  0.926017  1
  P  P13  1  0.989523  0.359206  0.573983  1
  P  P14  1  0.564791  0.270423  0.497008  1
  P  P15  1  0.332221  0.229577  0.002992  1
  P  P16  1  0.435209  0.729577  0.502992  1
  P  P17  1  0.667779  0.770423  0.997008  1
  P  P18  1  0.352759  0.479578  0.164726  1
  P  P19  1  0.997063  0.020422  0.335274  1
  P  P20  1  0.647241  0.520422  0.835274  1
  P  P21  1  0.002937  0.979578  0.664726  1
  P  P22  1  0.421364  0.543985  0.333866  1
  P  P23  1  0.299214  0.956015  0.166134  1
  Mn  Mn24  1  0.011310  0.815300  0.545611  1
  Mn  Mn25  1  0.372221  0.684700  0.954389  1
  Mn  Mn26  1  0.988690  0.184700  0.454389  1
  Mn  Mn27  1  0.627779  0.315300  0.045611  1
  Mo  Mo28  1  0.304902  0.250000  0.750000  1
  Mo  Mo29  1  0.695098  0.750000  0.250000  1
