# generated using pymatgen
data_Te4Mo3W(SeS)2
_symmetry_space_group_name_H-M   'P 1'
_cell_length_a   3.39887309
_cell_length_b   3.39886466
_cell_length_c   39.95661499
_cell_angle_alpha   90.00586139
_cell_angle_beta   90.00000000
_cell_angle_gamma   120.00008213
_symmetry_Int_Tables_number   1
_chemical_formula_structural   Te4Mo3W(SeS)2
_chemical_formula_sum   'Te4 Mo3 W1 Se2 S2'
_cell_volume   399.74936166
_cell_formula_units_Z   1
loop_
 _symmetry_equiv_pos_site_id
 _symmetry_equiv_pos_as_xyz
  1  'x, y, z'
loop_
 _atom_site_type_symbol
 _atom_site_label
 _atom_site_symmetry_multiplicity
 _atom_site_fract_x
 _atom_site_fract_y
 _atom_site_fract_z
 _atom_site_occupancy
  Te  Te0  1  0.333377  0.666754  0.705847  1
  Te  Te1  1  0.666477  0.332952  0.421826  1
  Te  Te2  1  0.666574  0.333148  0.515613  1
  Te  Te3  1  0.333303  0.666607  0.611562  1
  Mo  Mo4  1  0.333325  0.666650  0.094013  1
  Mo  Mo5  1  0.333192  0.666384  0.468722  1
  Mo  Mo6  1  0.666777  0.333554  0.281472  1
  W  W7  1  0.666660  0.333320  0.658684  1
  Se  Se8  1  0.333499  0.666999  0.322774  1
  Se  Se9  1  0.333444  0.666889  0.240186  1
  S  S10  1  0.666664  0.333326  0.056440  1
  S  S11  1  0.666709  0.333417  0.131607  1
