# generated using pymatgen
data_Sm3Au
_symmetry_space_group_name_H-M   'P 1'
_cell_length_a   7.02809074
_cell_length_b   7.02804176
_cell_length_c   5.25986424
_cell_angle_alpha   89.99333638
_cell_angle_beta   90.00820700
_cell_angle_gamma   120.00353054
_symmetry_Int_Tables_number   1
_chemical_formula_structural   Sm3Au
_chemical_formula_sum   'Sm6 Au2'
_cell_volume   224.98906097
_cell_formula_units_Z   2
loop_
 _symmetry_equiv_pos_site_id
 _symmetry_equiv_pos_as_xyz
  1  'x, y, z'
loop_
 _atom_site_type_symbol
 _atom_site_label
 _atom_site_symmetry_multiplicity
 _atom_site_fract_x
 _atom_site_fract_y
 _atom_site_fract_z
 _atom_site_occupancy
  Sm  Sm0  1  0.177199  0.354504  0.250008  1
  Sm  Sm1  1  0.645509  0.822820  0.250016  1
  Sm  Sm2  1  0.177218  0.822803  0.249906  1
  Sm  Sm3  1  0.822914  0.645675  0.749991  1
  Sm  Sm4  1  0.354309  0.177065  0.749985  1
  Sm  Sm5  1  0.822839  0.177145  0.750096  1
  Au  Au6  1  0.333329  0.666673  0.750003  1
  Au  Au7  1  0.666685  0.333320  0.249999  1
