# generated using pymatgen
data_Te2MoWS2
_symmetry_space_group_name_H-M   'P 1'
_cell_length_a   3.36507052
_cell_length_b   3.36452494
_cell_length_c   39.78219171
_cell_angle_alpha   89.99979284
_cell_angle_beta   90.00000000
_cell_angle_gamma   120.00536422
_symmetry_Int_Tables_number   1
_chemical_formula_structural   Te2MoWS2
_chemical_formula_sum   'Te4 Mo2 W2 S4'
_cell_volume   390.04416214
_cell_formula_units_Z   2
loop_
 _symmetry_equiv_pos_site_id
 _symmetry_equiv_pos_as_xyz
  1  'x, y, z'
loop_
 _atom_site_type_symbol
 _atom_site_label
 _atom_site_symmetry_multiplicity
 _atom_site_fract_x
 _atom_site_fract_y
 _atom_site_fract_z
 _atom_site_occupancy
  Te  Te0  1  0.333328  0.666658  0.706992  1
  Te  Te1  1  0.666678  0.333355  0.420246  1
  Te  Te2  1  0.666685  0.333369  0.515666  1
  Te  Te3  1  0.333292  0.666586  0.611608  1
  Mo  Mo4  1  0.333300  0.666600  0.093978  1
  Mo  Mo5  1  0.666699  0.333398  0.281672  1
  W  W6  1  0.333327  0.666654  0.467928  1
  W  W7  1  0.666672  0.333344  0.659331  1
  S  S8  1  0.333382  0.666765  0.319738  1
  S  S9  1  0.666655  0.333310  0.055978  1
  S  S10  1  0.666612  0.333224  0.131987  1
  S  S11  1  0.333369  0.666739  0.243625  1
