# generated using pymatgen
data_Hf6Cr5Si7
_symmetry_space_group_name_H-M   'P 1'
_cell_length_a   5.09018740
_cell_length_b   13.20907003
_cell_length_c   16.29706312
_cell_angle_alpha   90.00000000
_cell_angle_beta   90.00000000
_cell_angle_gamma   90.00000000
_symmetry_Int_Tables_number   1
_chemical_formula_structural   Hf6Cr5Si7
_chemical_formula_sum   'Hf24 Cr20 Si28'
_cell_volume   1095.75979592
_cell_formula_units_Z   4
loop_
 _symmetry_equiv_pos_site_id
 _symmetry_equiv_pos_as_xyz
  1  'x, y, z'
loop_
 _atom_site_type_symbol
 _atom_site_label
 _atom_site_symmetry_multiplicity
 _atom_site_fract_x
 _atom_site_fract_y
 _atom_site_fract_z
 _atom_site_occupancy
  Si  Si0  1  0.495958  0.840999  0.561708  1
  Si  Si1  1  0.995958  0.159001  0.438292  1
  Si  Si2  1  0.504042  0.340999  0.938292  1
  Si  Si3  1  0.004042  0.659001  0.061708  1
  Si  Si4  1  0.504042  0.159001  0.438292  1
  Si  Si5  1  0.004042  0.840999  0.561708  1
  Si  Si6  1  0.495958  0.659001  0.061708  1
  Si  Si7  1  0.995958  0.340999  0.938292  1
  Si  Si8  1  0.250000  0.980083  0.258071  1
  Si  Si9  1  0.750000  0.019917  0.741929  1
  Si  Si10  1  0.750000  0.480083  0.241929  1
  Si  Si11  1  0.250000  0.519917  0.758071  1
  Si  Si12  1  0.250000  0.818957  0.785256  1
  Si  Si13  1  0.750000  0.181043  0.214744  1
  Si  Si14  1  0.750000  0.318957  0.714744  1
  Si  Si15  1  0.250000  0.681043  0.285256  1
  Si  Si16  1  0.250000  0.194092  0.125626  1
  Si  Si17  1  0.750000  0.805908  0.874374  1
  Si  Si18  1  0.750000  0.694092  0.374374  1
  Si  Si19  1  0.250000  0.305908  0.625626  1
  Si  Si20  1  0.250000  0.107072  0.804946  1
  Si  Si21  1  0.750000  0.892928  0.195054  1
  Si  Si22  1  0.750000  0.607072  0.695054  1
  Si  Si23  1  0.250000  0.392928  0.304946  1
  Si  Si24  1  0.250000  0.951778  0.015371  1
  Si  Si25  1  0.750000  0.048222  0.984629  1
  Si  Si26  1  0.750000  0.451778  0.484629  1
  Si  Si27  1  0.250000  0.548222  0.515371  1
  Cr  Cr28  1  0.250000  0.144262  0.563226  1
  Cr  Cr29  1  0.750000  0.855738  0.436774  1
  Cr  Cr30  1  0.750000  0.644262  0.936774  1
  Cr  Cr31  1  0.250000  0.355738  0.063226  1
  Cr  Cr32  1  0.501435  0.161217  0.685364  1
  Cr  Cr33  1  0.001435  0.838783  0.314636  1
  Cr  Cr34  1  0.498565  0.661217  0.814636  1
  Cr  Cr35  1  0.998565  0.338783  0.185364  1
  Cr  Cr36  1  0.498565  0.838783  0.314636  1
  Cr  Cr37  1  0.998565  0.161217  0.685364  1
  Cr  Cr38  1  0.501435  0.338783  0.185364  1
  Cr  Cr39  1  0.001435  0.661217  0.814636  1
  Cr  Cr40  1  0.511878  0.039484  0.129909  1
  Cr  Cr41  1  0.011878  0.960516  0.870091  1
  Cr  Cr42  1  0.488122  0.539484  0.370091  1
  Cr  Cr43  1  0.988122  0.460516  0.629909  1
  Cr  Cr44  1  0.488122  0.960516  0.870091  1
  Cr  Cr45  1  0.988122  0.039484  0.129909  1
  Cr  Cr46  1  0.511878  0.460516  0.629909  1
  Cr  Cr47  1  0.011878  0.539484  0.370091  1
  Hf  Hf48  1  0.250000  0.181810  0.290186  1
  Hf  Hf49  1  0.750000  0.818190  0.709814  1
  Hf  Hf50  1  0.750000  0.681810  0.209814  1
  Hf  Hf51  1  0.250000  0.318190  0.790186  1
  Hf  Hf52  1  0.250000  0.817551  0.149706  1
  Hf  Hf53  1  0.750000  0.182449  0.850294  1
  Hf  Hf54  1  0.750000  0.317551  0.350294  1
  Hf  Hf55  1  0.250000  0.682449  0.649706  1
  Hf  Hf56  1  0.250000  0.968393  0.676126  1
  Hf  Hf57  1  0.750000  0.031607  0.323874  1
  Hf  Hf58  1  0.750000  0.468393  0.823874  1
  Hf  Hf59  1  0.250000  0.531607  0.176126  1
  Hf  Hf60  1  0.250000  0.731287  0.443404  1
  Hf  Hf61  1  0.750000  0.268713  0.556596  1
  Hf  Hf62  1  0.750000  0.231287  0.056596  1
  Hf  Hf63  1  0.250000  0.768713  0.943404  1
  Hf  Hf64  1  0.250000  0.971805  0.436862  1
  Hf  Hf65  1  0.750000  0.028195  0.563138  1
  Hf  Hf66  1  0.750000  0.471805  0.063138  1
  Hf  Hf67  1  0.250000  0.528195  0.936862  1
  Hf  Hf68  1  0.250000  0.350442  0.465062  1
  Hf  Hf69  1  0.750000  0.649558  0.534938  1
  Hf  Hf70  1  0.750000  0.850442  0.034938  1
  Hf  Hf71  1  0.250000  0.149558  0.965062  1
