# generated using pymatgen
data_MgSiO3
_symmetry_space_group_name_H-M   'P 1'
_cell_length_a   18.69185288
_cell_length_b   8.90704139
_cell_length_c   5.32916387
_cell_angle_alpha   90.00000000
_cell_angle_beta   90.00000000
_cell_angle_gamma   90.00000000
_symmetry_Int_Tables_number   1
_chemical_formula_structural   MgSiO3
_chemical_formula_sum   'Mg16 Si16 O48'
_cell_volume   887.24773515
_cell_formula_units_Z   16
loop_
 _symmetry_equiv_pos_site_id
 _symmetry_equiv_pos_as_xyz
  1  'x, y, z'
loop_
 _atom_site_type_symbol
 _atom_site_label
 _atom_site_symmetry_multiplicity
 _atom_site_fract_x
 _atom_site_fract_y
 _atom_site_fract_z
 _atom_site_occupancy
  Mg  Mg0  1  0.313464  0.898976  0.902689  1
  Mg  Mg1  1  0.813464  0.101024  0.097311  1
  Mg  Mg2  1  0.813464  0.898976  0.597311  1
  Mg  Mg3  1  0.313464  0.101024  0.402689  1
  Mg  Mg4  1  0.311275  0.256878  0.904819  1
  Mg  Mg5  1  0.811275  0.743122  0.095181  1
  Mg  Mg6  1  0.811275  0.256878  0.595181  1
  Mg  Mg7  1  0.311275  0.743122  0.404819  1
  Mg  Mg8  1  0.061819  0.599422  0.034964  1
  Mg  Mg9  1  0.561819  0.400578  0.965036  1
  Mg  Mg10  1  0.561819  0.599422  0.465036  1
  Mg  Mg11  1  0.061819  0.400578  0.534964  1
  Mg  Mg12  1  0.063179  0.759477  0.533948  1
  Mg  Mg13  1  0.563179  0.240523  0.466052  1
  Mg  Mg14  1  0.563179  0.759477  0.966052  1
  Mg  Mg15  1  0.063179  0.240523  0.033948  1
  Si  Si16  1  0.960668  0.088725  0.430816  1
  Si  Si17  1  0.460668  0.911275  0.569184  1
  Si  Si18  1  0.460668  0.088725  0.069184  1
  Si  Si19  1  0.960668  0.911275  0.930816  1
  Si  Si20  1  0.916128  0.588040  0.376369  1
  Si  Si21  1  0.416128  0.411960  0.623631  1
  Si  Si22  1  0.416128  0.588040  0.123631  1
  Si  Si23  1  0.916128  0.411960  0.876369  1
  Si  Si24  1  0.164945  0.910764  0.231393  1
  Si  Si25  1  0.664945  0.089236  0.768607  1
  Si  Si26  1  0.664945  0.910764  0.268607  1
  Si  Si27  1  0.164945  0.089236  0.731393  1
  Si  Si28  1  0.208522  0.589031  0.700000  1
  Si  Si29  1  0.708522  0.410969  0.300000  1
  Si  Si30  1  0.708522  0.589031  0.800000  1
  Si  Si31  1  0.208522  0.410969  0.200000  1
  O  O32  1  0.872861  0.092058  0.426704  1
  O  O33  1  0.372861  0.907942  0.573296  1
  O  O34  1  0.372861  0.092058  0.073296  1
  O  O35  1  0.872861  0.907942  0.926704  1
  O  O36  1  0.002921  0.238934  0.347866  1
  O  O37  1  0.502921  0.761066  0.652134  1
  O  O38  1  0.502921  0.238934  0.152134  1
  O  O39  1  0.002921  0.761066  0.847866  1
  O  O40  1  0.987100  0.959189  0.220440  1
  O  O41  1  0.487100  0.040811  0.779560  1
  O  O42  1  0.487100  0.959189  0.279560  1
  O  O43  1  0.987100  0.040811  0.720440  1
  O  O44  1  0.003475  0.591066  0.372554  1
  O  O45  1  0.503475  0.408934  0.627446  1
  O  O46  1  0.503475  0.591066  0.127446  1
  O  O47  1  0.003475  0.408934  0.872554  1
  O  O48  1  0.889353  0.460789  0.585791  1
  O  O49  1  0.389353  0.539211  0.414209  1
  O  O50  1  0.389353  0.460789  0.914209  1
  O  O51  1  0.889353  0.539211  0.085791  1
  O  O52  1  0.871638  0.259277  0.911501  1
  O  O53  1  0.371638  0.740723  0.088499  1
  O  O54  1  0.371638  0.259277  0.588499  1
  O  O55  1  0.871638  0.740723  0.411501  1
  O  O56  1  0.252268  0.910847  0.228253  1
  O  O57  1  0.752268  0.089153  0.771747  1
  O  O58  1  0.752268  0.910847  0.271747  1
  O  O59  1  0.252268  0.089153  0.728253  1
  O  O60  1  0.124209  0.247625  0.714058  1
  O  O61  1  0.624209  0.752375  0.285942  1
  O  O62  1  0.624209  0.247625  0.785942  1
  O  O63  1  0.124209  0.752375  0.214058  1
  O  O64  1  0.134944  0.969705  0.513287  1
  O  O65  1  0.634944  0.030295  0.486713  1
  O  O66  1  0.634944  0.969705  0.986713  1
  O  O67  1  0.134944  0.030295  0.013287  1
  O  O68  1  0.121351  0.591630  0.706369  1
  O  O69  1  0.621351  0.408370  0.293631  1
  O  O70  1  0.621351  0.591630  0.793631  1
  O  O71  1  0.121351  0.408370  0.206369  1
  O  O72  1  0.251061  0.745552  0.721680  1
  O  O73  1  0.751061  0.254448  0.278320  1
  O  O74  1  0.751061  0.745552  0.778320  1
  O  O75  1  0.251061  0.254448  0.221680  1
  O  O76  1  0.236818  0.532213  0.416198  1
  O  O77  1  0.736818  0.467787  0.583802  1
  O  O78  1  0.736818  0.532213  0.083802  1
  O  O79  1  0.236818  0.467787  0.916198  1
