# generated using pymatgen
data_MgSiO3
_symmetry_space_group_name_H-M   'P 1'
_cell_length_a   18.74955861
_cell_length_b   8.90113205
_cell_length_c   5.33143000
_cell_angle_alpha   90.00000000
_cell_angle_beta   94.46846924
_cell_angle_gamma   90.00000000
_symmetry_Int_Tables_number   1
_chemical_formula_structural   MgSiO3
_chemical_formula_sum   'Mg16 Si16 O48'
_cell_volume   887.07000446
_cell_formula_units_Z   16
loop_
 _symmetry_equiv_pos_site_id
 _symmetry_equiv_pos_as_xyz
  1  'x, y, z'
loop_
 _atom_site_type_symbol
 _atom_site_label
 _atom_site_symmetry_multiplicity
 _atom_site_fract_x
 _atom_site_fract_y
 _atom_site_fract_z
 _atom_site_occupancy
  Mg  Mg0  1  0.813809  0.900492  0.750970  1
  Mg  Mg1  1  0.813809  0.099508  0.250970  1
  Mg  Mg2  1  0.813840  0.256355  0.747748  1
  Mg  Mg3  1  0.813840  0.743645  0.247748  1
  Mg  Mg4  1  0.564005  0.399361  0.631401  1
  Mg  Mg5  1  0.564005  0.600639  0.131401  1
  Mg  Mg6  1  0.562645  0.759282  0.632930  1
  Mg  Mg7  1  0.562645  0.240718  0.132930  1
  Mg  Mg8  1  0.311324  0.900513  0.189554  1
  Mg  Mg9  1  0.311324  0.099487  0.689554  1
  Mg  Mg10  1  0.311172  0.260436  0.188788  1
  Mg  Mg11  1  0.311172  0.739564  0.688788  1
  Mg  Mg12  1  0.061177  0.598621  0.260209  1
  Mg  Mg13  1  0.061177  0.401379  0.760209  1
  Mg  Mg14  1  0.062185  0.759057  0.758668  1
  Mg  Mg15  1  0.062185  0.240943  0.258668  1
  Si  Si16  1  0.961379  0.088207  0.628139  1
  Si  Si17  1  0.961379  0.911793  0.128139  1
  Si  Si18  1  0.914858  0.588056  0.567179  1
  Si  Si19  1  0.914858  0.411944  0.067179  1
  Si  Si20  1  0.710711  0.410276  0.338447  1
  Si  Si21  1  0.710711  0.589724  0.838447  1
  Si  Si22  1  0.667421  0.088315  0.873666  1
  Si  Si23  1  0.667421  0.911685  0.373666  1
  Si  Si24  1  0.416236  0.410314  0.920359  1
  Si  Si25  1  0.416236  0.589686  0.420359  1
  Si  Si26  1  0.458069  0.910594  0.897299  1
  Si  Si27  1  0.458069  0.089406  0.397299  1
  Si  Si28  1  0.163872  0.910290  0.482558  1
  Si  Si29  1  0.163872  0.089710  0.982558  1
  Si  Si30  1  0.207773  0.589428  0.962658  1
  Si  Si31  1  0.207773  0.410572  0.462658  1
  O  O32  1  0.873796  0.091015  0.598148  1
  O  O33  1  0.873796  0.908985  0.098148  1
  O  O34  1  0.002445  0.239996  0.557039  1
  O  O35  1  0.002445  0.760004  0.057039  1
  O  O36  1  0.988277  0.959443  0.424635  1
  O  O37  1  0.988277  0.040557  0.924635  1
  O  O38  1  0.002193  0.588419  0.583487  1
  O  O39  1  0.002193  0.411581  0.083487  1
  O  O40  1  0.886170  0.463512  0.771539  1
  O  O41  1  0.886170  0.536489  0.271539  1
  O  O42  1  0.873649  0.255312  0.084877  1
  O  O43  1  0.873649  0.744688  0.584877  1
  O  O44  1  0.622953  0.593105  0.818372  1
  O  O45  1  0.622953  0.406895  0.318372  1
  O  O46  1  0.753049  0.257829  0.421800  1
  O  O47  1  0.753049  0.742171  0.921800  1
  O  O48  1  0.737598  0.534340  0.562400  1
  O  O49  1  0.737598  0.465660  0.062400  1
  O  O50  1  0.754788  0.909958  0.399318  1
  O  O51  1  0.754788  0.090042  0.899318  1
  O  O52  1  0.623614  0.242324  0.831913  1
  O  O53  1  0.623614  0.757676  0.331913  1
  O  O54  1  0.639931  0.963222  0.654382  1
  O  O55  1  0.639931  0.036778  0.154382  1
  O  O56  1  0.503492  0.592812  0.440366  1
  O  O57  1  0.503492  0.407188  0.940366  1
  O  O58  1  0.371801  0.255901  0.886658  1
  O  O59  1  0.371801  0.744099  0.386658  1
  O  O60  1  0.388189  0.531942  0.696150  1
  O  O61  1  0.388189  0.468058  0.196150  1
  O  O62  1  0.370646  0.907840  0.877410  1
  O  O63  1  0.370646  0.092160  0.377410  1
  O  O64  1  0.501729  0.244263  0.433807  1
  O  O65  1  0.501729  0.755737  0.933807  1
  O  O66  1  0.486007  0.966870  0.620350  1
  O  O67  1  0.486007  0.033130  0.120350  1
  O  O68  1  0.251085  0.909454  0.500897  1
  O  O69  1  0.251085  0.090546  0.000897  1
  O  O70  1  0.123101  0.248269  0.955918  1
  O  O71  1  0.123101  0.751731  0.455918  1
  O  O72  1  0.134029  0.970302  0.755675  1
  O  O73  1  0.134029  0.029698  0.255675  1
  O  O74  1  0.120574  0.591385  0.946526  1
  O  O75  1  0.120574  0.408615  0.446526  1
  O  O76  1  0.250121  0.746099  0.991338  1
  O  O77  1  0.250121  0.253901  0.491338  1
  O  O78  1  0.236285  0.530448  0.688424  1
  O  O79  1  0.236285  0.469552  0.188424  1
