# generated using pymatgen
data_CsEu(PO3)4
_symmetry_space_group_name_H-M   'P 1'
_cell_length_a   10.64252213
_cell_length_b   9.13806441
_cell_length_c   11.44874832
_cell_angle_alpha   90.00000000
_cell_angle_beta   106.92793672
_cell_angle_gamma   90.00000000
_symmetry_Int_Tables_number   1
_chemical_formula_structural   CsEu(PO3)4
_chemical_formula_sum   'Cs4 Eu4 P16 O48'
_cell_volume   1065.17195777
_cell_formula_units_Z   4
loop_
 _symmetry_equiv_pos_site_id
 _symmetry_equiv_pos_as_xyz
  1  'x, y, z'
loop_
 _atom_site_type_symbol
 _atom_site_label
 _atom_site_symmetry_multiplicity
 _atom_site_fract_x
 _atom_site_fract_y
 _atom_site_fract_z
 _atom_site_occupancy
  Eu  Eu0  1  0.001813  0.725693  0.319326  1
  Eu  Eu1  1  0.501813  0.774307  0.819326  1
  Eu  Eu2  1  0.998187  0.274307  0.680674  1
  Eu  Eu3  1  0.498187  0.225693  0.180674  1
  Cs  Cs4  1  0.813691  0.435790  0.038904  1
  Cs  Cs5  1  0.313691  0.064210  0.538903  1
  Cs  Cs6  1  0.186309  0.564210  0.961097  1
  Cs  Cs7  1  0.686309  0.935790  0.461097  1
  P  P8  1  0.039875  0.324847  0.364893  1
  P  P9  1  0.539875  0.175153  0.864893  1
  P  P10  1  0.960125  0.675153  0.635107  1
  P  P11  1  0.460125  0.824847  0.135107  1
  P  P12  1  0.747684  0.530880  0.713185  1
  P  P13  1  0.247684  0.969120  0.213185  1
  P  P14  1  0.252316  0.469120  0.286815  1
  P  P15  1  0.752316  0.030880  0.786815  1
  P  P16  1  0.825636  0.896735  0.026446  1
  P  P17  1  0.325636  0.603265  0.526446  1
  P  P18  1  0.174364  0.103265  0.973554  1
  P  P19  1  0.674364  0.396735  0.473554  1
  P  P20  1  0.855931  0.092330  0.241967  1
  P  P21  1  0.355931  0.407670  0.741967  1
  P  P22  1  0.144069  0.907670  0.758033  1
  P  P23  1  0.644069  0.592330  0.258033  1
  O  O24  1  0.671744  0.597213  0.791287  1
  O  O25  1  0.171744  0.902787  0.291287  1
  O  O26  1  0.328256  0.402787  0.208713  1
  O  O27  1  0.828256  0.097213  0.708713  1
  O  O28  1  0.641476  0.462109  0.593109  1
  O  O29  1  0.141476  0.037891  0.093109  1
  O  O30  1  0.358524  0.537891  0.406891  1
  O  O31  1  0.858524  0.962109  0.906891  1
  O  O32  1  0.850846  0.419612  0.773142  1
  O  O33  1  0.350846  0.080388  0.273142  1
  O  O34  1  0.149154  0.580388  0.226858  1
  O  O35  1  0.649154  0.919612  0.726858  1
  O  O36  1  0.965049  0.465399  0.331677  1
  O  O37  1  0.465049  0.034601  0.831677  1
  O  O38  1  0.034951  0.534601  0.668323  1
  O  O39  1  0.534951  0.965399  0.168323  1
  O  O40  1  0.187434  0.660792  0.487479  1
  O  O41  1  0.687434  0.839208  0.987479  1
  O  O42  1  0.812566  0.339208  0.512521  1
  O  O43  1  0.312566  0.160792  0.012521  1
  O  O44  1  0.931025  0.792634  0.094427  1
  O  O45  1  0.431026  0.707366  0.594427  1
  O  O46  1  0.068974  0.207366  0.905573  1
  O  O47  1  0.568975  0.292634  0.405573  1
  O  O48  1  0.940483  0.744391  0.512745  1
  O  O49  1  0.440483  0.755609  0.012745  1
  O  O50  1  0.059517  0.255609  0.487255  1
  O  O51  1  0.559517  0.244391  0.987255  1
  O  O52  1  0.976840  0.206721  0.256729  1
  O  O53  1  0.476840  0.293279  0.756729  1
  O  O54  1  0.023160  0.793279  0.743271  1
  O  O55  1  0.523160  0.706721  0.243271  1
  O  O56  1  0.834172  0.049492  0.100715  1
  O  O57  1  0.334172  0.450508  0.600715  1
  O  O58  1  0.165828  0.950508  0.899285  1
  O  O59  1  0.665828  0.549492  0.399285  1
  O  O60  1  0.761956  0.674559  0.247458  1
  O  O61  1  0.261956  0.825441  0.747458  1
  O  O62  1  0.238044  0.325441  0.752542  1
  O  O63  1  0.738044  0.174559  0.252542  1
  O  O64  1  0.902208  0.962067  0.322896  1
  O  O65  1  0.402208  0.537933  0.822896  1
  O  O66  1  0.097792  0.037933  0.677104  1
  O  O67  1  0.597792  0.462067  0.177104  1
  O  O68  1  0.815064  0.661106  0.654881  1
  O  O69  1  0.315064  0.838894  0.154881  1
  O  O70  1  0.184936  0.338894  0.345119  1
  O  O71  1  0.684936  0.161106  0.845119  1
