# generated using pymatgen
data_Te2MoWS2
_symmetry_space_group_name_H-M   'P 1'
_cell_length_a   3.35859159
_cell_length_b   3.35867119
_cell_length_c   38.28926198
_cell_angle_alpha   90.00007062
_cell_angle_beta   90.00000000
_cell_angle_gamma   119.99921587
_symmetry_Int_Tables_number   1
_chemical_formula_structural   Te2MoWS2
_chemical_formula_sum   'Te4 Mo2 W2 S4'
_cell_volume   374.05524121
_cell_formula_units_Z   2
loop_
 _symmetry_equiv_pos_site_id
 _symmetry_equiv_pos_as_xyz
  1  'x, y, z'
loop_
 _atom_site_type_symbol
 _atom_site_label
 _atom_site_symmetry_multiplicity
 _atom_site_fract_x
 _atom_site_fract_y
 _atom_site_fract_z
 _atom_site_occupancy
  Te  Te0  1  0.333357  0.666715  0.707183  1
  Te  Te1  1  0.666626  0.333251  0.044541  1
  Te  Te2  1  0.666651  0.333301  0.143319  1
  Te  Te3  1  0.333354  0.666709  0.607893  1
  Mo  Mo4  1  0.333313  0.666626  0.093904  1
  Mo  Mo5  1  0.666700  0.333400  0.281799  1
  W  W6  1  0.333312  0.666623  0.469655  1
  W  W7  1  0.666688  0.333377  0.657566  1
  S  S8  1  0.333352  0.666706  0.321294  1
  S  S9  1  0.666648  0.333295  0.429984  1
  S  S10  1  0.666647  0.333292  0.509312  1
  S  S11  1  0.333353  0.666707  0.242297  1
