# generated using pymatgen
data_Te2MoWSeS
_symmetry_space_group_name_H-M   'P 1'
_cell_length_a   3.39551644
_cell_length_b   3.39556001
_cell_length_c   39.86020570
_cell_angle_alpha   89.99912748
_cell_angle_beta   90.00000000
_cell_angle_gamma   119.99957551
_symmetry_Int_Tables_number   1
_chemical_formula_structural   Te2MoWSeS
_chemical_formula_sum   'Te4 Mo2 W2 Se2 S2'
_cell_volume   398.00568277
_cell_formula_units_Z   2
loop_
 _symmetry_equiv_pos_site_id
 _symmetry_equiv_pos_as_xyz
  1  'x, y, z'
loop_
 _atom_site_type_symbol
 _atom_site_label
 _atom_site_symmetry_multiplicity
 _atom_site_fract_x
 _atom_site_fract_y
 _atom_site_fract_z
 _atom_site_occupancy
  Te  Te0  1  0.333367  0.666734  0.328014  1
  Te  Te1  1  0.666638  0.333276  0.423224  1
  Te  Te2  1  0.666636  0.333272  0.517298  1
  Te  Te3  1  0.333348  0.666697  0.233929  1
  Mo  Mo4  1  0.333308  0.666616  0.470265  1
  Mo  Mo5  1  0.666685  0.333370  0.280949  1
  W  W6  1  0.333288  0.666576  0.093879  1
  W  W7  1  0.666722  0.333444  0.657816  1
  Se  Se8  1  0.333372  0.666744  0.699379  1
  Se  Se9  1  0.333399  0.666798  0.616237  1
  S  S10  1  0.666617  0.333232  0.056063  1
  S  S11  1  0.666621  0.333241  0.131695  1
