# generated using pymatgen
data_Te2Mo3WSe6
_symmetry_space_group_name_H-M   'P 1'
_cell_length_a   3.38316274
_cell_length_b   3.38313121
_cell_length_c   38.45646542
_cell_angle_alpha   89.99979576
_cell_angle_beta   90.00000000
_cell_angle_gamma   120.00030830
_symmetry_Int_Tables_number   1
_chemical_formula_structural   Te2Mo3WSe6
_chemical_formula_sum   'Te2 Mo3 W1 Se6'
_cell_volume   381.18901645
_cell_formula_units_Z   1
loop_
 _symmetry_equiv_pos_site_id
 _symmetry_equiv_pos_as_xyz
  1  'x, y, z'
loop_
 _atom_site_type_symbol
 _atom_site_label
 _atom_site_symmetry_multiplicity
 _atom_site_fract_x
 _atom_site_fract_y
 _atom_site_fract_z
 _atom_site_occupancy
  Te  Te0  1  0.333356  0.666713  0.330668  1
  Te  Te1  1  0.333353  0.666708  0.232951  1
  Mo  Mo2  1  0.333305  0.666611  0.093895  1
  Mo  Mo3  1  0.333312  0.666624  0.469672  1
  Mo  Mo4  1  0.666696  0.333392  0.281788  1
  W  W5  1  0.666695  0.333390  0.657527  1
  Se  Se6  1  0.333357  0.666715  0.700729  1
  Se  Se7  1  0.666629  0.333256  0.050885  1
  Se  Se8  1  0.666641  0.333282  0.426651  1
  Se  Se9  1  0.666648  0.333296  0.136947  1
  Se  Se10  1  0.666654  0.333306  0.512696  1
  Se  Se11  1  0.333353  0.666707  0.614338  1
