# generated using pymatgen
data_Rb2Li5(BO2)7
_symmetry_space_group_name_H-M   'P 1'
_cell_length_a   4.45340556
_cell_length_b   7.17719564
_cell_length_c   20.85006731
_cell_angle_alpha   90.00000000
_cell_angle_beta   90.00000000
_cell_angle_gamma   108.07411114
_symmetry_Int_Tables_number   1
_chemical_formula_structural   Rb2Li5(BO2)7
_chemical_formula_sum   'Rb4 Li10 B14 O28'
_cell_volume   633.54561940
_cell_formula_units_Z   2
loop_
 _symmetry_equiv_pos_site_id
 _symmetry_equiv_pos_as_xyz
  1  'x, y, z'
loop_
 _atom_site_type_symbol
 _atom_site_label
 _atom_site_symmetry_multiplicity
 _atom_site_fract_x
 _atom_site_fract_y
 _atom_site_fract_z
 _atom_site_occupancy
  Rb  Rb0  1  0.280170  0.625712  0.155797  1
  Rb  Rb1  1  0.654458  0.374288  0.844203  1
  Rb  Rb2  1  0.280170  0.625712  0.344203  1
  Rb  Rb3  1  0.654458  0.374288  0.655797  1
  Li  Li4  1  0.635681  0.341337  0.250000  1
  Li  Li5  1  0.294343  0.658663  0.750000  1
  Li  Li6  1  0.003144  0.033739  0.064371  1
  Li  Li7  1  0.969404  0.966261  0.935629  1
  Li  Li8  1  0.003144  0.033739  0.435629  1
  Li  Li9  1  0.969404  0.966261  0.564371  1
  Li  Li10  1  0.566404  0.168236  0.988212  1
  Li  Li11  1  0.398168  0.831764  0.011788  1
  Li  Li12  1  0.566404  0.168236  0.511788  1
  Li  Li13  1  0.398168  0.831764  0.488212  1
  B  B14  1  0.876521  0.819533  0.250000  1
  B  B15  1  0.056988  0.180467  0.750000  1
  B  B16  1  0.032068  0.140861  0.189450  1
  B  B17  1  0.891207  0.859139  0.810550  1
  B  B18  1  0.032068  0.140861  0.310550  1
  B  B19  1  0.891207  0.859139  0.689450  1
  B  B20  1  0.159769  0.400105  0.993069  1
  B  B21  1  0.759664  0.599895  0.006931  1
  B  B22  1  0.159769  0.400105  0.506931  1
  B  B23  1  0.759664  0.599895  0.493069  1
  B  B24  1  0.532821  0.148657  0.126450  1
  B  B25  1  0.384164  0.851343  0.873550  1
  B  B26  1  0.532821  0.148657  0.373550  1
  B  B27  1  0.384164  0.851343  0.626450  1
  O  O28  1  0.780475  0.621950  0.250000  1
  O  O29  1  0.158525  0.378050  0.750000  1
  O  O30  1  0.927548  0.923309  0.191980  1
  O  O31  1  0.004239  0.076691  0.808020  1
  O  O32  1  0.927548  0.923309  0.308020  1
  O  O33  1  0.004239  0.076691  0.691980  1
  O  O34  1  0.424689  0.561933  0.008369  1
  O  O35  1  0.862757  0.438067  0.991631  1
  O  O36  1  0.424689  0.561933  0.491631  1
  O  O37  1  0.862757  0.438067  0.508369  1
  O  O38  1  0.172859  0.230529  0.250000  1
  O  O39  1  0.942330  0.769471  0.750000  1
  O  O40  1  0.756214  0.212377  0.174701  1
  O  O41  1  0.543838  0.787623  0.825299  1
  O  O42  1  0.756214  0.212377  0.325299  1
  O  O43  1  0.543838  0.787623  0.674701  1
  O  O44  1  0.254220  0.201133  0.133962  1
  O  O45  1  0.053087  0.798867  0.866038  1
  O  O46  1  0.254220  0.201133  0.366038  1
  O  O47  1  0.053087  0.798867  0.633962  1
  O  O48  1  0.567984  0.047856  0.073122  1
  O  O49  1  0.520128  0.952144  0.926878  1
  O  O50  1  0.567984  0.047856  0.426878  1
  O  O51  1  0.520128  0.952144  0.573122  1
  O  O52  1  0.163057  0.220041  0.980242  1
  O  O53  1  0.943016  0.779959  0.019758  1
  O  O54  1  0.163057  0.220041  0.519758  1
  O  O55  1  0.943016  0.779959  0.480242  1
