# generated using pymatgen
data_TeMoWSe2S
_symmetry_space_group_name_H-M   'P 1'
_cell_length_a   3.34041719
_cell_length_b   3.34049384
_cell_length_c   39.74569833
_cell_angle_alpha   90.00464814
_cell_angle_beta   90.00000996
_cell_angle_gamma   119.99923002
_symmetry_Int_Tables_number   1
_chemical_formula_structural   TeMoWSe2S
_chemical_formula_sum   'Te2 Mo2 W2 Se4 S2'
_cell_volume   384.09222541
_cell_formula_units_Z   2
loop_
 _symmetry_equiv_pos_site_id
 _symmetry_equiv_pos_as_xyz
  1  'x, y, z'
loop_
 _atom_site_type_symbol
 _atom_site_label
 _atom_site_symmetry_multiplicity
 _atom_site_fract_x
 _atom_site_fract_y
 _atom_site_fract_z
 _atom_site_occupancy
  Te  Te0  1  0.333426  0.666851  0.329390  1
  Te  Te1  1  0.333324  0.666649  0.233873  1
  Mo  Mo2  1  0.333275  0.666549  0.093186  1
  Mo  Mo3  1  0.666706  0.333413  0.281627  1
  W  W4  1  0.333343  0.666685  0.470559  1
  W  W5  1  0.666678  0.333356  0.657537  1
  Se  Se6  1  0.666573  0.333145  0.051223  1
  Se  Se7  1  0.666681  0.333361  0.428406  1
  Se  Se8  1  0.666633  0.333265  0.135160  1
  Se  Se9  1  0.666682  0.333363  0.512722  1
  S  S10  1  0.333352  0.666705  0.695852  1
  S  S11  1  0.333329  0.666658  0.619213  1
