# generated using pymatgen
data_MoW(SeS)2
_symmetry_space_group_name_H-M   'P 1'
_cell_length_a   3.25717225
_cell_length_b   3.25718549
_cell_length_c   36.87161875
_cell_angle_alpha   89.99997078
_cell_angle_beta   90.00000000
_cell_angle_gamma   119.99986547
_symmetry_Int_Tables_number   1
_chemical_formula_structural   MoW(SeS)2
_chemical_formula_sum   'Mo2 W2 Se4 S4'
_cell_volume   338.77132447
_cell_formula_units_Z   2
loop_
 _symmetry_equiv_pos_site_id
 _symmetry_equiv_pos_as_xyz
  1  'x, y, z'
loop_
 _atom_site_type_symbol
 _atom_site_label
 _atom_site_symmetry_multiplicity
 _atom_site_fract_x
 _atom_site_fract_y
 _atom_site_fract_z
 _atom_site_occupancy
  Mo  Mo0  1  0.333307  0.666615  0.469652  1
  Mo  Mo1  1  0.666693  0.333385  0.281806  1
  W  W2  1  0.333309  0.666618  0.093908  1
  W  W3  1  0.666691  0.333382  0.657550  1
  Se  Se4  1  0.333350  0.666702  0.703823  1
  Se  Se5  1  0.666650  0.333298  0.047635  1
  Se  Se6  1  0.666650  0.333299  0.140199  1
  Se  Se7  1  0.333350  0.666701  0.611259  1
  S  S8  1  0.333352  0.666706  0.323631  1
  S  S9  1  0.666647  0.333294  0.427827  1
  S  S10  1  0.666648  0.333294  0.511482  1
  S  S11  1  0.333352  0.666706  0.239976  1
