# generated using pymatgen
data_Sm10S19
_symmetry_space_group_name_H-M   'P 1'
_cell_length_a   8.84848352
_cell_length_b   8.84848352
_cell_length_c   16.07612035
_cell_angle_alpha   90.00000000
_cell_angle_beta   90.00000000
_cell_angle_gamma   90.00000000
_symmetry_Int_Tables_number   1
_chemical_formula_structural   Sm10S19
_chemical_formula_sum   'Sm20 S38'
_cell_volume   1258.69046275
_cell_formula_units_Z   2
loop_
 _symmetry_equiv_pos_site_id
 _symmetry_equiv_pos_as_xyz
  1  'x, y, z'
loop_
 _atom_site_type_symbol
 _atom_site_label
 _atom_site_symmetry_multiplicity
 _atom_site_fract_x
 _atom_site_fract_y
 _atom_site_fract_z
 _atom_site_occupancy
  S  S0  1  0.750000  0.750000  0.250000  1
  S  S1  1  0.250000  0.250000  0.750000  1
  S  S2  1  0.805666  0.469652  0.750772  1
  S  S3  1  0.530348  0.305666  0.250772  1
  S  S4  1  0.969652  0.194334  0.250772  1
  S  S5  1  0.694334  0.030348  0.750772  1
  S  S6  1  0.194334  0.530348  0.249228  1
  S  S7  1  0.469652  0.694334  0.749228  1
  S  S8  1  0.030348  0.805666  0.749228  1
  S  S9  1  0.305666  0.969652  0.249228  1
  S  S10  1  0.887881  0.425351  0.249848  1
  S  S11  1  0.574649  0.387881  0.749848  1
  S  S12  1  0.925351  0.112119  0.749848  1
  S  S13  1  0.612119  0.074649  0.249848  1
  S  S14  1  0.112119  0.574649  0.750152  1
  S  S15  1  0.425351  0.612119  0.250152  1
  S  S16  1  0.074649  0.887881  0.250152  1
  S  S17  1  0.387881  0.925351  0.750152  1
  S  S18  1  0.250000  0.750000  0.434873  1
  S  S19  1  0.250000  0.750000  0.934873  1
  S  S20  1  0.553196  0.851621  0.562184  1
  S  S21  1  0.148379  0.053196  0.062184  1
  S  S22  1  0.351621  0.446804  0.062184  1
  S  S23  1  0.946804  0.648379  0.562184  1
  S  S24  1  0.446804  0.148379  0.437816  1
  S  S25  1  0.851621  0.946804  0.937816  1
  S  S26  1  0.648379  0.553196  0.937816  1
  S  S27  1  0.053196  0.351621  0.437816  1
  S  S28  1  0.548925  0.848088  0.072983  1
  S  S29  1  0.151912  0.048925  0.572983  1
  S  S30  1  0.348088  0.451075  0.572983  1
  S  S31  1  0.951075  0.651912  0.072983  1
  S  S32  1  0.451075  0.151912  0.927017  1
  S  S33  1  0.848088  0.951075  0.427017  1
  S  S34  1  0.651912  0.548925  0.427017  1
  S  S35  1  0.048925  0.348088  0.927017  1
  S  S36  1  0.750000  0.250000  0.065127  1
  S  S37  1  0.750000  0.250000  0.565127  1
  Sm  Sm38  1  0.054928  0.354264  0.103330  1
  Sm  Sm39  1  0.645736  0.554928  0.603330  1
  Sm  Sm40  1  0.854264  0.945072  0.603330  1
  Sm  Sm41  1  0.445072  0.145736  0.103330  1
  Sm  Sm42  1  0.945072  0.645736  0.896670  1
  Sm  Sm43  1  0.354264  0.445072  0.396670  1
  Sm  Sm44  1  0.145736  0.054928  0.396670  1
  Sm  Sm45  1  0.554928  0.854264  0.896670  1
  Sm  Sm46  1  0.041093  0.347986  0.621781  1
  Sm  Sm47  1  0.652014  0.541093  0.121781  1
  Sm  Sm48  1  0.847986  0.958907  0.121781  1
  Sm  Sm49  1  0.458907  0.152014  0.621781  1
  Sm  Sm50  1  0.958907  0.652014  0.378219  1
  Sm  Sm51  1  0.347986  0.458907  0.878219  1
  Sm  Sm52  1  0.152014  0.041093  0.878219  1
  Sm  Sm53  1  0.541093  0.847986  0.378219  1
  Sm  Sm54  1  0.750000  0.250000  0.384913  1
  Sm  Sm55  1  0.750000  0.250000  0.884913  1
  Sm  Sm56  1  0.250000  0.750000  0.615087  1
  Sm  Sm57  1  0.250000  0.750000  0.115087  1
