# generated using pymatgen
data_CsSmZnTe3
_symmetry_space_group_name_H-M   'P 1'
_cell_length_a   4.49403113
_cell_length_b   8.95908781
_cell_length_c   11.92241400
_cell_angle_alpha   90.00000000
_cell_angle_beta   90.00000000
_cell_angle_gamma   104.52536149
_symmetry_Int_Tables_number   1
_chemical_formula_structural   CsSmZnTe3
_chemical_formula_sum   'Cs2 Sm2 Zn2 Te6'
_cell_volume   464.68205164
_cell_formula_units_Z   2
loop_
 _symmetry_equiv_pos_site_id
 _symmetry_equiv_pos_as_xyz
  1  'x, y, z'
loop_
 _atom_site_type_symbol
 _atom_site_label
 _atom_site_symmetry_multiplicity
 _atom_site_fract_x
 _atom_site_fract_y
 _atom_site_fract_z
 _atom_site_occupancy
  Zn  Zn0  1  0.464863  0.929725  0.750000  1
  Zn  Zn1  1  0.535137  0.070275  0.250000  1
  Te  Te2  1  0.380164  0.760328  0.563020  1
  Te  Te3  1  0.619836  0.239672  0.436980  1
  Te  Te4  1  0.939383  0.878766  0.250000  1
  Te  Te5  1  0.060617  0.121234  0.750000  1
  Te  Te6  1  0.380164  0.760328  0.936980  1
  Te  Te7  1  0.619836  0.239672  0.063020  1
  Cs  Cs8  1  0.747056  0.494112  0.750000  1
  Cs  Cs9  1  0.252944  0.505888  0.250000  1
  Sm  Sm10  1  0.000000  0.000000  0.000000  1
  Sm  Sm11  1  0.000000  0.000000  0.500000  1
