# generated using pymatgen
data_Gd2Si2O7
_symmetry_space_group_name_H-M   'P 1'
_cell_length_a   6.62296879
_cell_length_b   6.74854081
_cell_length_c   12.38321069
_cell_angle_alpha   90.00000000
_cell_angle_beta   102.38801780
_cell_angle_gamma   90.00000000
_symmetry_Int_Tables_number   1
_chemical_formula_structural   Gd2Si2O7
_chemical_formula_sum   'Gd8 Si8 O28'
_cell_volume   540.58584368
_cell_formula_units_Z   4
loop_
 _symmetry_equiv_pos_site_id
 _symmetry_equiv_pos_as_xyz
  1  'x, y, z'
loop_
 _atom_site_type_symbol
 _atom_site_label
 _atom_site_symmetry_multiplicity
 _atom_site_fract_x
 _atom_site_fract_y
 _atom_site_fract_z
 _atom_site_occupancy
  O  O0  1  0.293723  0.105029  0.957352  1
  O  O1  1  0.206277  0.605029  0.542648  1
  O  O2  1  0.706277  0.894971  0.042648  1
  O  O3  1  0.793723  0.394971  0.457352  1
  O  O4  1  0.362609  0.830700  0.145975  1
  O  O5  1  0.137391  0.330700  0.354025  1
  O  O6  1  0.637391  0.169300  0.854025  1
  O  O7  1  0.862609  0.669300  0.645975  1
  O  O8  1  0.033122  0.594878  0.161331  1
  O  O9  1  0.466878  0.094878  0.338669  1
  O  O10  1  0.966878  0.405122  0.838669  1
  O  O11  1  0.533122  0.905122  0.661331  1
  O  O12  1  0.986166  0.981311  0.787615  1
  O  O13  1  0.513834  0.481311  0.712385  1
  O  O14  1  0.013834  0.018689  0.212385  1
  O  O15  1  0.486166  0.518689  0.287615  1
  O  O16  1  0.560900  0.722245  0.468496  1
  O  O17  1  0.939100  0.222245  0.031504  1
  O  O18  1  0.439100  0.277755  0.531504  1
  O  O19  1  0.060900  0.777755  0.968496  1
  O  O20  1  0.824917  0.015096  0.549707  1
  O  O21  1  0.675083  0.515096  0.950293  1
  O  O22  1  0.175083  0.984904  0.450293  1
  O  O23  1  0.324917  0.484904  0.049707  1
  O  O24  1  0.829627  0.723658  0.331767  1
  O  O25  1  0.670373  0.223658  0.168233  1
  O  O26  1  0.170373  0.276342  0.668233  1
  O  O27  1  0.329627  0.776342  0.831767  1
  Si  Si28  1  0.177101  0.918308  0.888599  1
  Si  Si29  1  0.322899  0.418309  0.611401  1
  Si  Si30  1  0.822899  0.081692  0.111401  1
  Si  Si31  1  0.677101  0.581692  0.388599  1
  Si  Si32  1  0.188934  0.671342  0.085467  1
  Si  Si33  1  0.311066  0.171342  0.414533  1
  Si  Si34  1  0.811066  0.328658  0.914533  1
  Si  Si35  1  0.688934  0.828658  0.585467  1
  Gd  Gd36  1  0.691127  0.829919  0.848684  1
  Gd  Gd37  1  0.808873  0.329919  0.651316  1
  Gd  Gd38  1  0.308873  0.170081  0.151316  1
  Gd  Gd39  1  0.191127  0.670081  0.348684  1
  Gd  Gd40  1  0.665003  0.611151  0.137060  1
  Gd  Gd41  1  0.834997  0.111151  0.362940  1
  Gd  Gd42  1  0.334997  0.388849  0.862940  1
  Gd  Gd43  1  0.165003  0.888849  0.637060  1
