# generated using pymatgen
data_Mo2W(SeS2)2
_symmetry_space_group_name_H-M   'P 1'
_cell_length_a   3.23420294
_cell_length_b   3.23417507
_cell_length_c   29.69324268
_cell_angle_alpha   90.00000000
_cell_angle_beta   90.00000000
_cell_angle_gamma   120.00028502
_symmetry_Int_Tables_number   1
_chemical_formula_structural   Mo2W(SeS2)2
_chemical_formula_sum   'Mo2 W1 Se2 S4'
_cell_volume   268.97864739
_cell_formula_units_Z   1
loop_
 _symmetry_equiv_pos_site_id
 _symmetry_equiv_pos_as_xyz
  1  'x, y, z'
loop_
 _atom_site_type_symbol
 _atom_site_label
 _atom_site_symmetry_multiplicity
 _atom_site_fract_x
 _atom_site_fract_y
 _atom_site_fract_z
 _atom_site_occupancy
  Mo  Mo0  1  0.333311  0.666621  0.115630  1
  Mo  Mo1  1  0.333311  0.666621  0.578335  1
  W  W2  1  0.666692  0.333385  0.346982  1
  Se  Se3  1  0.333353  0.666706  0.404776  1
  Se  Se4  1  0.333353  0.666706  0.289189  1
  S  S5  1  0.666644  0.333287  0.063408  1
  S  S6  1  0.666647  0.333294  0.526106  1
  S  S7  1  0.666647  0.333294  0.167859  1
  S  S8  1  0.666644  0.333287  0.630556  1
