# generated using pymatgen
data_TbZn(BO2)5
_symmetry_space_group_name_H-M   'P 1'
_cell_length_a   7.68610333
_cell_length_b   8.65764258
_cell_length_c   9.43197682
_cell_angle_alpha   93.33539841
_cell_angle_beta   90.00000000
_cell_angle_gamma   90.00000000
_symmetry_Int_Tables_number   1
_chemical_formula_structural   TbZn(BO2)5
_chemical_formula_sum   'Tb4 Zn4 B20 O40'
_cell_volume   626.57390569
_cell_formula_units_Z   4
loop_
 _symmetry_equiv_pos_site_id
 _symmetry_equiv_pos_as_xyz
  1  'x, y, z'
loop_
 _atom_site_type_symbol
 _atom_site_label
 _atom_site_symmetry_multiplicity
 _atom_site_fract_x
 _atom_site_fract_y
 _atom_site_fract_z
 _atom_site_occupancy
  B  B0  1  0.426302  0.082564  0.745577  1
  B  B1  1  0.813317  0.565231  0.087734  1
  B  B2  1  0.313317  0.934769  0.412266  1
  B  B3  1  0.186683  0.434769  0.912266  1
  B  B4  1  0.686683  0.065231  0.587734  1
  B  B5  1  0.102941  0.659024  0.508976  1
  B  B6  1  0.602941  0.840976  0.991024  1
  B  B7  1  0.897059  0.340976  0.491024  1
  B  B8  1  0.397059  0.159024  0.008976  1
  B  B9  1  0.926302  0.417436  0.754423  1
  B  B10  1  0.573698  0.917436  0.254423  1
  B  B11  1  0.073698  0.582564  0.245577  1
  B  B12  1  0.675336  0.517312  0.603087  1
  B  B13  1  0.175336  0.982688  0.896913  1
  B  B14  1  0.324664  0.482688  0.396913  1
  B  B15  1  0.824664  0.017312  0.103087  1
  B  B16  1  0.469233  0.277675  0.557185  1
  B  B17  1  0.969233  0.222325  0.942815  1
  B  B18  1  0.530767  0.722325  0.442815  1
  B  B19  1  0.030767  0.777675  0.057185  1
  O  O20  1  0.797093  0.537392  0.724870  1
  O  O21  1  0.346178  0.507783  0.930065  1
  O  O22  1  0.846178  0.992217  0.569935  1
  O  O23  1  0.653822  0.492217  0.069935  1
  O  O24  1  0.153822  0.007783  0.430065  1
  O  O25  1  0.555410  0.757393  0.872069  1
  O  O26  1  0.055410  0.742607  0.627931  1
  O  O27  1  0.444590  0.242607  0.127931  1
  O  O28  1  0.297093  0.962608  0.775130  1
  O  O29  1  0.944590  0.257393  0.372069  1
  O  O30  1  0.702907  0.037392  0.224870  1
  O  O31  1  0.202907  0.462608  0.275130  1
  O  O32  1  0.467894  0.181781  0.877748  1
  O  O33  1  0.967894  0.318219  0.622252  1
  O  O34  1  0.532106  0.818219  0.122252  1
  O  O35  1  0.032106  0.681781  0.377748  1
  O  O36  1  0.591513  0.010865  0.698296  1
  O  O37  1  0.091513  0.489135  0.801704  1
  O  O38  1  0.408487  0.989135  0.301704  1
  O  O39  1  0.908487  0.510865  0.198296  1
  O  O40  1  0.352808  0.182395  0.639376  1
  O  O41  1  0.852808  0.317605  0.860624  1
  O  O42  1  0.647192  0.817605  0.360624  1
  O  O43  1  0.147192  0.682395  0.139376  1
  O  O44  1  0.531594  0.414511  0.650097  1
  O  O45  1  0.031594  0.085489  0.849903  1
  O  O46  1  0.468406  0.585489  0.349903  1
  O  O47  1  0.968406  0.914511  0.150097  1
  O  O48  1  0.607712  0.673991  0.578825  1
  O  O49  1  0.107713  0.826009  0.921175  1
  O  O50  1  0.392288  0.326009  0.421175  1
  O  O51  1  0.875135  0.681489  0.009302  1
  O  O52  1  0.767384  0.451987  0.476857  1
  O  O53  1  0.267384  0.048013  0.023143  1
  O  O54  1  0.232616  0.548013  0.523143  1
  O  O55  1  0.732616  0.951987  0.976857  1
  O  O56  1  0.624865  0.181489  0.509302  1
  O  O57  1  0.124865  0.318511  0.990698  1
  O  O58  1  0.375135  0.818511  0.490698  1
  O  O59  1  0.892288  0.173991  0.078825  1
  Zn  Zn60  1  0.590471  0.391947  0.873155  1
  Zn  Zn61  1  0.090471  0.108053  0.626845  1
  Zn  Zn62  1  0.409529  0.608053  0.126845  1
  Zn  Zn63  1  0.909529  0.891947  0.373155  1
  Tb  Tb64  1  0.816408  0.813837  0.758823  1
  Tb  Tb65  1  0.316408  0.686163  0.741177  1
  Tb  Tb66  1  0.183592  0.186163  0.241177  1
  Tb  Tb67  1  0.683592  0.313837  0.258823  1
