# generated using pymatgen
data_Ca2Nb2O7
_symmetry_space_group_name_H-M   'P 1'
_cell_length_a   5.54692402
_cell_length_b   7.80704035
_cell_length_c   13.69997790
_cell_angle_alpha   98.29131739
_cell_angle_beta   90.00000000
_cell_angle_gamma   90.00000000
_symmetry_Int_Tables_number   1
_chemical_formula_structural   Ca2Nb2O7
_chemical_formula_sum   'Ca8 Nb8 O28'
_cell_volume   587.07720921
_cell_formula_units_Z   4
loop_
 _symmetry_equiv_pos_site_id
 _symmetry_equiv_pos_as_xyz
  1  'x, y, z'
loop_
 _atom_site_type_symbol
 _atom_site_label
 _atom_site_symmetry_multiplicity
 _atom_site_fract_x
 _atom_site_fract_y
 _atom_site_fract_z
 _atom_site_occupancy
  O  O0  1  0.550796  0.073515  0.405853  1
  O  O1  1  0.050795  0.926485  0.594147  1
  O  O2  1  0.444414  0.013433  0.180934  1
  O  O3  1  0.944413  0.986568  0.819066  1
  O  O4  1  0.355255  0.326811  0.301610  1
  O  O5  1  0.855256  0.673189  0.698390  1
  O  O6  1  0.658102  0.271449  0.086591  1
  O  O7  1  0.158101  0.728552  0.913409  1
  O  O8  1  0.058221  0.138731  0.427161  1
  O  O9  1  0.558220  0.861268  0.572839  1
  O  O10  1  0.960409  0.116445  0.222984  1
  O  O11  1  0.460408  0.883554  0.777015  1
  O  O12  1  0.037281  0.052869  0.019158  1
  O  O13  1  0.537281  0.947131  0.980842  1
  O  O14  1  0.580271  0.633958  0.384726  1
  O  O15  1  0.080270  0.366043  0.615274  1
  O  O16  1  0.535602  0.542426  0.979473  1
  O  O17  1  0.035602  0.457573  0.020528  1
  O  O18  1  0.456802  0.503877  0.773977  1
  O  O19  1  0.956802  0.496124  0.226023  1
  O  O20  1  0.581800  0.414859  0.561661  1
  O  O21  1  0.081799  0.585141  0.438339  1
  O  O22  1  0.439775  0.574962  0.178300  1
  O  O23  1  0.837092  0.777537  0.110661  1
  O  O24  1  0.675550  0.171799  0.691138  1
  O  O25  1  0.175549  0.828200  0.308863  1
  O  O26  1  0.939775  0.425038  0.821700  1
  O  O27  1  0.337091  0.222464  0.889339  1
  Ca  Ca28  1  0.767286  0.229898  0.915308  1
  Ca  Ca29  1  0.267285  0.770102  0.084692  1
  Ca  Ca30  1  0.343264  0.139130  0.564788  1
  Ca  Ca31  1  0.843265  0.860870  0.435212  1
  Ca  Ca32  1  0.747981  0.716616  0.874839  1
  Ca  Ca33  1  0.247983  0.283384  0.125161  1
  Ca  Ca34  1  0.270434  0.639409  0.597718  1
  Ca  Ca35  1  0.770433  0.360590  0.402282  1
  Nb  Nb36  1  0.262466  0.473755  0.883578  1
  Nb  Nb37  1  0.762465  0.526246  0.116422  1
  Nb  Nb38  1  0.785118  0.412246  0.675258  1
  Nb  Nb39  1  0.285119  0.587753  0.324741  1
  Nb  Nb40  1  0.262575  0.968824  0.885392  1
  Nb  Nb41  1  0.762574  0.031176  0.114609  1
  Nb  Nb42  1  0.779907  0.920976  0.677284  1
  Nb  Nb43  1  0.279908  0.079024  0.322716  1
