# generated using pymatgen
data_Ca5Ge3
_symmetry_space_group_name_H-M   'P 1'
_cell_length_a   7.73186722
_cell_length_b   7.73179814
_cell_length_c   9.23212812
_cell_angle_alpha   114.75701134
_cell_angle_beta   114.75627819
_cell_angle_gamma   90.00006824
_symmetry_Int_Tables_number   1
_chemical_formula_structural   Ca5Ge3
_chemical_formula_sum   'Ca10 Ge6'
_cell_volume   444.71297406
_cell_formula_units_Z   2
loop_
 _symmetry_equiv_pos_site_id
 _symmetry_equiv_pos_as_xyz
  1  'x, y, z'
loop_
 _atom_site_type_symbol
 _atom_site_label
 _atom_site_symmetry_multiplicity
 _atom_site_fract_x
 _atom_site_fract_y
 _atom_site_fract_z
 _atom_site_occupancy
  Ca  Ca0  1  0.000000  0.000000  0.000000  1
  Ca  Ca1  1  0.500000  0.500000  0.000000  1
  Ca  Ca2  1  0.318155  0.818160  0.279948  1
  Ca  Ca3  1  0.461788  0.318164  0.279946  1
  Ca  Ca4  1  0.818162  0.961788  0.279947  1
  Ca  Ca5  1  0.538212  0.681836  0.720054  1
  Ca  Ca6  1  0.181838  0.038212  0.720053  1
  Ca  Ca7  1  0.038207  0.538206  0.720048  1
  Ca  Ca8  1  0.681845  0.181840  0.720052  1
  Ca  Ca9  1  0.961793  0.461794  0.279952  1
  Ge  Ge10  1  0.249999  0.250000  0.500000  1
  Ge  Ge11  1  0.750001  0.750000  0.500000  1
  Ge  Ge12  1  0.381566  0.881572  0.000028  1
  Ge  Ge13  1  0.118462  0.381550  0.000006  1
  Ge  Ge14  1  0.881538  0.618450  0.999994  1
  Ge  Ge15  1  0.618434  0.118428  0.999972  1
