# generated using pymatgen
data_TeMoWSeS2
_symmetry_space_group_name_H-M   'P 1'
_cell_length_a   3.30430996
_cell_length_b   3.30430524
_cell_length_c   37.61401877
_cell_angle_alpha   89.99994185
_cell_angle_beta   90.00000000
_cell_angle_gamma   120.00004723
_symmetry_Int_Tables_number   1
_chemical_formula_structural   TeMoWSeS2
_chemical_formula_sum   'Te2 Mo2 W2 Se2 S4'
_cell_volume   355.66497644
_cell_formula_units_Z   2
loop_
 _symmetry_equiv_pos_site_id
 _symmetry_equiv_pos_as_xyz
  1  'x, y, z'
loop_
 _atom_site_type_symbol
 _atom_site_label
 _atom_site_symmetry_multiplicity
 _atom_site_fract_x
 _atom_site_fract_y
 _atom_site_fract_z
 _atom_site_occupancy
  Te  Te0  1  0.666642  0.333284  0.043092  1
  Te  Te1  1  0.666644  0.333287  0.144676  1
  Mo  Mo2  1  0.333308  0.666616  0.093873  1
  Mo  Mo3  1  0.666689  0.333378  0.281852  1
  W  W4  1  0.333310  0.666620  0.469658  1
  W  W5  1  0.666695  0.333389  0.657533  1
  Se  Se6  1  0.333352  0.666704  0.326458  1
  Se  Se7  1  0.333351  0.666704  0.237214  1
  S  S8  1  0.333357  0.666716  0.698335  1
  S  S9  1  0.666648  0.333295  0.428868  1
  S  S10  1  0.666648  0.333294  0.510462  1
  S  S11  1  0.333356  0.666713  0.616728  1
