# generated using pymatgen
data_BaLi2Mg(PO4)2
_symmetry_space_group_name_H-M   'P 1'
_cell_length_a   5.10157044
_cell_length_b   5.09998086
_cell_length_c   7.19634507
_cell_angle_alpha   90.00153624
_cell_angle_beta   90.02420370
_cell_angle_gamma   120.02229858
_symmetry_Int_Tables_number   1
_chemical_formula_structural   BaLi2Mg(PO4)2
_chemical_formula_sum   'Ba1 Li2 Mg1 P2 O8'
_cell_volume   162.11282094
_cell_formula_units_Z   1
loop_
 _symmetry_equiv_pos_site_id
 _symmetry_equiv_pos_as_xyz
  1  'x, y, z'
loop_
 _atom_site_type_symbol
 _atom_site_label
 _atom_site_symmetry_multiplicity
 _atom_site_fract_x
 _atom_site_fract_y
 _atom_site_fract_z
 _atom_site_occupancy
  Ba  Ba0  1  0.000000  -0.000000  0.500000  1
  Li  Li1  1  0.666692  0.333364  0.231045  1
  Li  Li2  1  0.333308  0.666636  0.768955  1
  Mg  Mg3  1  0.000000  -0.000000  0.000000  1
  P  P4  1  0.666730  0.333375  0.751189  1
  P  P5  1  0.333270  0.666625  0.248811  1
  O  O6  1  0.666573  0.333319  0.535941  1
  O  O7  1  0.333427  0.666681  0.464059  1
  O  O8  1  0.359801  0.295568  0.821288  1
  O  O9  1  0.935959  0.640414  0.821373  1
  O  O10  1  0.704353  0.064091  0.821313  1
  O  O11  1  0.640199  0.704432  0.178712  1
  O  O12  1  0.064041  0.359586  0.178627  1
  O  O13  1  0.295647  0.935909  0.178687  1
