# generated using pymatgen
data_CsDy2Cu3Se5
_symmetry_space_group_name_H-M   'P 1'
_cell_length_a   4.13959568
_cell_length_b   7.63432875
_cell_length_c   17.43124532
_cell_angle_alpha   90.00000000
_cell_angle_beta   90.00000000
_cell_angle_gamma   105.73075762
_symmetry_Int_Tables_number   1
_chemical_formula_structural   CsDy2Cu3Se5
_chemical_formula_sum   'Cs2 Dy4 Cu6 Se10'
_cell_volume   530.24776429
_cell_formula_units_Z   2
loop_
 _symmetry_equiv_pos_site_id
 _symmetry_equiv_pos_as_xyz
  1  'x, y, z'
loop_
 _atom_site_type_symbol
 _atom_site_label
 _atom_site_symmetry_multiplicity
 _atom_site_fract_x
 _atom_site_fract_y
 _atom_site_fract_z
 _atom_site_occupancy
  Cu  Cu0  1  0.415662  0.831323  0.530203  1
  Cu  Cu1  1  0.584338  0.168677  0.469797  1
  Cu  Cu2  1  0.658295  0.316590  0.750000  1
  Cu  Cu3  1  0.341705  0.683410  0.250000  1
  Cu  Cu4  1  0.415662  0.831323  0.969797  1
  Cu  Cu5  1  0.584338  0.168677  0.030203  1
  Se  Se6  1  0.560681  0.121362  0.887955  1
  Se  Se7  1  0.167690  0.335380  0.070104  1
  Se  Se8  1  0.560681  0.121362  0.612045  1
  Se  Se9  1  0.832310  0.664620  0.570104  1
  Se  Se10  1  0.167690  0.335380  0.429896  1
  Se  Se11  1  0.832310  0.664620  0.929896  1
  Se  Se12  1  0.237885  0.475770  0.750000  1
  Se  Se13  1  0.762115  0.524230  0.250000  1
  Se  Se14  1  0.439319  0.878638  0.387955  1
  Se  Se15  1  0.439319  0.878638  0.112045  1
  Cs  Cs16  1  0.060770  0.121539  0.250000  1
  Cs  Cs17  1  0.939230  0.878461  0.750000  1
  Dy  Dy18  1  0.807886  0.615773  0.408856  1
  Dy  Dy19  1  0.807886  0.615773  0.091144  1
  Dy  Dy20  1  0.192114  0.384227  0.591144  1
  Dy  Dy21  1  0.192114  0.384227  0.908856  1
