# generated using pymatgen
data_BaAl4O7
_symmetry_space_group_name_H-M   'P 1'
_cell_length_a   12.94816471
_cell_length_b   9.28368724
_cell_length_c   5.62871867
_cell_angle_alpha   90.00000000
_cell_angle_beta   90.00000000
_cell_angle_gamma   90.00000000
_symmetry_Int_Tables_number   1
_chemical_formula_structural   BaAl4O7
_chemical_formula_sum   'Ba4 Al16 O28'
_cell_volume   676.60976128
_cell_formula_units_Z   4
loop_
 _symmetry_equiv_pos_site_id
 _symmetry_equiv_pos_as_xyz
  1  'x, y, z'
loop_
 _atom_site_type_symbol
 _atom_site_label
 _atom_site_symmetry_multiplicity
 _atom_site_fract_x
 _atom_site_fract_y
 _atom_site_fract_z
 _atom_site_occupancy
  Ba  Ba0  1  0.000000  0.188433  0.875490  1
  Ba  Ba1  1  0.500000  0.688433  0.124510  1
  Ba  Ba2  1  0.000000  0.786617  0.373662  1
  Ba  Ba3  1  0.500000  0.286617  0.626338  1
  Al  Al4  1  0.824503  0.074001  0.428300  1
  Al  Al5  1  0.175497  0.074001  0.428300  1
  Al  Al6  1  0.675497  0.574001  0.571700  1
  Al  Al7  1  0.324503  0.574001  0.571700  1
  Al  Al8  1  0.824720  0.899924  0.927949  1
  Al  Al9  1  0.175280  0.899924  0.927949  1
  Al  Al10  1  0.675280  0.399924  0.072051  1
  Al  Al11  1  0.324720  0.399924  0.072051  1
  Al  Al12  1  0.623013  0.921722  0.620456  1
  Al  Al13  1  0.376987  0.921722  0.620456  1
  Al  Al14  1  0.876987  0.421722  0.379544  1
  Al  Al15  1  0.123013  0.421722  0.379544  1
  Al  Al16  1  0.622981  0.051994  0.120525  1
  Al  Al17  1  0.377019  0.051994  0.120525  1
  Al  Al18  1  0.877019  0.551994  0.879475  1
  Al  Al19  1  0.122981  0.551994  0.879475  1
  O  O20  1  0.685673  0.928886  0.913198  1
  O  O21  1  0.314327  0.928886  0.913198  1
  O  O22  1  0.814327  0.428886  0.086802  1
  O  O23  1  0.185673  0.428886  0.086802  1
  O  O24  1  0.685507  0.044960  0.413322  1
  O  O25  1  0.314493  0.044960  0.413322  1
  O  O26  1  0.814493  0.544960  0.586678  1
  O  O27  1  0.185507  0.544960  0.586678  1
  O  O28  1  0.865749  0.248532  0.491173  1
  O  O29  1  0.134251  0.248532  0.491173  1
  O  O30  1  0.634251  0.748532  0.508827  1
  O  O31  1  0.365749  0.748532  0.508827  1
  O  O32  1  0.873854  0.963719  0.656257  1
  O  O33  1  0.126146  0.963719  0.656257  1
  O  O34  1  0.626146  0.463720  0.343743  1
  O  O35  1  0.373854  0.463720  0.343743  1
  O  O36  1  0.873684  0.010471  0.156269  1
  O  O37  1  0.126316  0.010471  0.156269  1
  O  O38  1  0.626316  0.510471  0.843731  1
  O  O39  1  0.373684  0.510471  0.843731  1
  O  O40  1  0.633471  0.225504  0.009767  1
  O  O41  1  0.366529  0.225504  0.009767  1
  O  O42  1  0.866529  0.725504  0.990233  1
  O  O43  1  0.133471  0.725504  0.990233  1
  O  O44  1  0.500000  0.986080  0.189281  1
  O  O45  1  0.000000  0.486080  0.810719  1
  O  O46  1  0.500000  0.986991  0.690051  1
  O  O47  1  0.000000  0.486991  0.309949  1
