# generated using pymatgen
data_LiCeSn
_symmetry_space_group_name_H-M   'P 1'
_cell_length_a   9.55322179
_cell_length_b   9.55322272
_cell_length_c   7.52898218
_cell_angle_alpha   90.00000000
_cell_angle_beta   90.00000000
_cell_angle_gamma   120.00681662
_symmetry_Int_Tables_number   1
_chemical_formula_structural   LiCeSn
_chemical_formula_sum   'Li8 Ce8 Sn8'
_cell_volume   595.02721367
_cell_formula_units_Z   8
loop_
 _symmetry_equiv_pos_site_id
 _symmetry_equiv_pos_as_xyz
  1  'x, y, z'
loop_
 _atom_site_type_symbol
 _atom_site_label
 _atom_site_symmetry_multiplicity
 _atom_site_fract_x
 _atom_site_fract_y
 _atom_site_fract_z
 _atom_site_occupancy
  Li  Li0  1  0.333353  0.166498  0.712937  1
  Li  Li1  1  0.833300  0.166699  0.712910  1
  Li  Li2  1  0.166700  0.833301  0.212911  1
  Li  Li3  1  0.666647  0.833502  0.212937  1
  Li  Li4  1  0.833503  0.666648  0.712937  1
  Li  Li5  1  0.166497  0.333352  0.212937  1
  Li  Li6  1  0.666795  0.333204  0.329893  1
  Li  Li7  1  0.333205  0.666796  0.829893  1
  Ce  Ce8  1  0.999982  0.000019  0.502632  1
  Ce  Ce9  1  0.000019  0.999981  0.002632  1
  Ce  Ce10  1  0.023537  0.511804  0.504764  1
  Ce  Ce11  1  0.488252  0.511749  0.504728  1
  Ce  Ce12  1  0.511749  0.488251  0.004728  1
  Ce  Ce13  1  0.976463  0.488195  0.004763  1
  Ce  Ce14  1  0.488195  0.976462  0.504764  1
  Ce  Ce15  1  0.511804  0.023537  0.004763  1
  Sn  Sn16  1  0.333159  0.166407  0.271216  1
  Sn  Sn17  1  0.833330  0.166668  0.271276  1
  Sn  Sn18  1  0.166669  0.833331  0.771275  1
  Sn  Sn19  1  0.666839  0.833592  0.771216  1
  Sn  Sn20  1  0.833593  0.666840  0.271216  1
  Sn  Sn21  1  0.166408  0.333160  0.771216  1
  Sn  Sn22  1  0.666818  0.333181  0.729733  1
  Sn  Sn23  1  0.333181  0.666819  0.229733  1
