# generated using pymatgen
data_Cs2Ba3(P2O7)2
_symmetry_space_group_name_H-M   'P 1'
_cell_length_a   9.12952244
_cell_length_b   9.78993168
_cell_length_c   19.05096303
_cell_angle_alpha   90.00000000
_cell_angle_beta   90.00000000
_cell_angle_gamma   90.00000000
_symmetry_Int_Tables_number   1
_chemical_formula_structural   Cs2Ba3(P2O7)2
_chemical_formula_sum   'Cs8 Ba12 P16 O56'
_cell_volume   1702.72556138
_cell_formula_units_Z   4
loop_
 _symmetry_equiv_pos_site_id
 _symmetry_equiv_pos_as_xyz
  1  'x, y, z'
loop_
 _atom_site_type_symbol
 _atom_site_label
 _atom_site_symmetry_multiplicity
 _atom_site_fract_x
 _atom_site_fract_y
 _atom_site_fract_z
 _atom_site_occupancy
  Cs  Cs0  1  0.731396  0.166943  0.329387  1
  Cs  Cs1  1  0.768604  0.833057  0.829387  1
  Cs  Cs2  1  0.231396  0.333057  0.670613  1
  Cs  Cs3  1  0.268604  0.666943  0.170613  1
  Cs  Cs4  1  0.918004  0.308347  0.128523  1
  Cs  Cs5  1  0.581996  0.691653  0.628523  1
  Cs  Cs6  1  0.418004  0.191653  0.871477  1
  Cs  Cs7  1  0.081996  0.808347  0.371477  1
  Ba  Ba8  1  0.435395  0.030544  0.492986  1
  Ba  Ba9  1  0.064605  0.969456  0.992986  1
  Ba  Ba10  1  0.935395  0.469456  0.507014  1
  Ba  Ba11  1  0.564605  0.530544  0.007014  1
  Ba  Ba12  1  0.584222  0.649538  0.384558  1
  Ba  Ba13  1  0.915778  0.350462  0.884558  1
  Ba  Ba14  1  0.084222  0.850462  0.615442  1
  Ba  Ba15  1  0.415778  0.149538  0.115442  1
  Ba  Ba16  1  0.249068  0.331125  0.337809  1
  Ba  Ba17  1  0.250932  0.668875  0.837809  1
  Ba  Ba18  1  0.749068  0.168875  0.662191  1
  Ba  Ba19  1  0.750932  0.831125  0.162191  1
  P  P20  1  0.786793  0.909653  0.495103  1
  P  P21  1  0.713207  0.090347  0.995103  1
  P  P22  1  0.286793  0.590347  0.504897  1
  P  P23  1  0.213207  0.409653  0.004897  1
  P  P24  1  0.519068  0.372205  0.509961  1
  P  P25  1  0.980932  0.627795  0.009961  1
  P  P26  1  0.019068  0.127795  0.490039  1
  P  P27  1  0.480932  0.872205  0.990039  1
  P  P28  1  0.879106  0.544642  0.294998  1
  P  P29  1  0.620894  0.455358  0.794998  1
  P  P30  1  0.379106  0.955358  0.705002  1
  P  P31  1  0.120894  0.044642  0.205002  1
  P  P32  1  0.603610  0.458745  0.214433  1
  P  P33  1  0.896390  0.541255  0.714433  1
  P  P34  1  0.103610  0.041255  0.785567  1
  P  P35  1  0.396390  0.958745  0.285567  1
  O  O36  1  0.144427  0.025718  0.500719  1
  O  O37  1  0.355573  0.974282  0.000719  1
  O  O38  1  0.644427  0.474282  0.499281  1
  O  O39  1  0.855573  0.525718  0.999281  1
  O  O40  1  0.667445  0.889601  0.439259  1
  O  O41  1  0.832555  0.110399  0.939259  1
  O  O42  1  0.167445  0.610399  0.560741  1
  O  O43  1  0.332555  0.389601  0.060741  1
  O  O44  1  0.723953  0.964136  0.564322  1
  O  O45  1  0.776047  0.035864  0.064322  1
  O  O46  1  0.223953  0.535864  0.435678  1
  O  O47  1  0.276047  0.464136  0.935678  1
  O  O48  1  0.545401  0.265952  0.567638  1
  O  O49  1  0.954599  0.734048  0.067638  1
  O  O50  1  0.045401  0.234048  0.432362  1
  O  O51  1  0.454599  0.765952  0.932362  1
  O  O52  1  0.383063  0.465462  0.541046  1
  O  O53  1  0.116937  0.534538  0.041046  1
  O  O54  1  0.883063  0.034538  0.458954  1
  O  O55  1  0.616937  0.965462  0.958954  1
  O  O56  1  0.466239  0.304809  0.441689  1
  O  O57  1  0.033761  0.695191  0.941689  1
  O  O58  1  0.966239  0.195191  0.558311  1
  O  O59  1  0.533761  0.804809  0.058311  1
  O  O60  1  0.493486  0.485183  0.274253  1
  O  O61  1  0.006514  0.514817  0.774253  1
  O  O62  1  0.993486  0.014817  0.725747  1
  O  O63  1  0.506514  0.985183  0.225747  1
  O  O64  1  0.587249  0.318324  0.180862  1
  O  O65  1  0.912751  0.681676  0.680862  1
  O  O66  1  0.087249  0.181676  0.819138  1
  O  O67  1  0.412751  0.818324  0.319138  1
  O  O68  1  0.613247  0.575277  0.160622  1
  O  O69  1  0.886753  0.424723  0.660622  1
  O  O70  1  0.113248  0.924723  0.839378  1
  O  O71  1  0.386752  0.075277  0.339378  1
  O  O72  1  0.768136  0.442179  0.251136  1
  O  O73  1  0.731864  0.557821  0.751136  1
  O  O74  1  0.268136  0.057821  0.748864  1
  O  O75  1  0.231864  0.942179  0.248864  1
  O  O76  1  0.851871  0.509802  0.372760  1
  O  O77  1  0.648129  0.490198  0.872760  1
  O  O78  1  0.351871  0.990198  0.627240  1
  O  O79  1  0.148129  0.009802  0.127240  1
  O  O80  1  0.825026  0.690407  0.279366  1
  O  O81  1  0.674974  0.309593  0.779366  1
  O  O82  1  0.325026  0.809593  0.720634  1
  O  O83  1  0.174974  0.190407  0.220634  1
  O  O84  1  0.032972  0.509645  0.269626  1
  O  O85  1  0.467028  0.490355  0.769626  1
  O  O86  1  0.532972  0.990355  0.730374  1
  O  O87  1  0.967028  0.009645  0.230374  1
  O  O88  1  0.887040  0.785799  0.504836  1
  O  O89  1  0.612960  0.214201  0.004836  1
  O  O90  1  0.387040  0.714201  0.495164  1
  O  O91  1  0.112960  0.285799  0.995164  1
