# generated using pymatgen
data_Te2MoWS2
_symmetry_space_group_name_H-M   'P 1'
_cell_length_a   3.36462459
_cell_length_b   3.36439967
_cell_length_c   38.31536487
_cell_angle_alpha   90.00007803
_cell_angle_beta   90.00000000
_cell_angle_gamma   120.00221144
_symmetry_Int_Tables_number   1
_chemical_formula_structural   Te2MoWS2
_chemical_formula_sum   'Te4 Mo2 W2 S4'
_cell_volume   375.61083793
_cell_formula_units_Z   2
loop_
 _symmetry_equiv_pos_site_id
 _symmetry_equiv_pos_as_xyz
  1  'x, y, z'
loop_
 _atom_site_type_symbol
 _atom_site_label
 _atom_site_symmetry_multiplicity
 _atom_site_fract_x
 _atom_site_fract_y
 _atom_site_fract_z
 _atom_site_occupancy
  Te  Te0  1  0.333356  0.666713  0.331380  1
  Te  Te1  1  0.333353  0.666706  0.707045  1
  Te  Te2  1  0.333353  0.666706  0.232198  1
  Te  Te3  1  0.333354  0.666709  0.607984  1
  Mo  Mo4  1  0.333327  0.666655  0.093923  1
  Mo  Mo5  1  0.333310  0.666619  0.469675  1
  W  W6  1  0.666693  0.333386  0.281796  1
  W  W7  1  0.666693  0.333386  0.657545  1
  S  S8  1  0.666637  0.333273  0.054449  1
  S  S9  1  0.666649  0.333296  0.430234  1
  S  S10  1  0.666635  0.333270  0.133410  1
  S  S11  1  0.666641  0.333281  0.509109  1
