# generated using pymatgen
data_Cr3N4
_symmetry_space_group_name_H-M   'P 1'
_cell_length_a   2.73714385
_cell_length_b   7.68147060
_cell_length_c   7.66234618
_cell_angle_alpha   120.18181317
_cell_angle_beta   90.00000000
_cell_angle_gamma   90.00000000
_symmetry_Int_Tables_number   1
_chemical_formula_structural   Cr3N4
_chemical_formula_sum   'Cr6 N8'
_cell_volume   139.26302335
_cell_formula_units_Z   2
loop_
 _symmetry_equiv_pos_site_id
 _symmetry_equiv_pos_as_xyz
  1  'x, y, z'
loop_
 _atom_site_type_symbol
 _atom_site_label
 _atom_site_symmetry_multiplicity
 _atom_site_fract_x
 _atom_site_fract_y
 _atom_site_fract_z
 _atom_site_occupancy
  Cr  Cr0  1  0.260795  0.472055  0.139397  1
  Cr  Cr1  1  0.260828  0.861334  0.333340  1
  Cr  Cr2  1  0.260866  0.668484  0.529350  1
  Cr  Cr3  1  0.760795  0.527945  0.860603  1
  Cr  Cr4  1  0.760828  0.138666  0.666660  1
  Cr  Cr5  1  0.760866  0.331516  0.470650  1
  N  N6  1  0.260781  0.360262  0.312981  1
  N  N7  1  0.260835  0.686733  0.047363  1
  N  N8  1  0.260806  0.953631  0.640550  1
  N  N9  1  0.760781  0.639738  0.687019  1
  N  N10  1  0.760835  0.313267  0.952637  1
  N  N11  1  0.760806  0.046369  0.359450  1
  N  N12  1  0.260889  0.333271  0.666311  1
  N  N13  1  0.760889  0.666729  0.333689  1
