# generated using pymatgen
data_Te2MoW3(Se2S)2
_symmetry_space_group_name_H-M   'P 1'
_cell_length_a   3.34364919
_cell_length_b   3.34358214
_cell_length_c   38.05478206
_cell_angle_alpha   89.99986048
_cell_angle_beta   90.00000000
_cell_angle_gamma   120.00066350
_symmetry_Int_Tables_number   1
_chemical_formula_structural   Te2MoW3(Se2S)2
_chemical_formula_sum   'Te2 Mo1 W3 Se4 S2'
_cell_volume   368.44245644
_cell_formula_units_Z   1
loop_
 _symmetry_equiv_pos_site_id
 _symmetry_equiv_pos_as_xyz
  1  'x, y, z'
loop_
 _atom_site_type_symbol
 _atom_site_label
 _atom_site_symmetry_multiplicity
 _atom_site_fract_x
 _atom_site_fract_y
 _atom_site_fract_z
 _atom_site_occupancy
  Te  Te0  1  0.333352  0.666705  0.707626  1
  Te  Te1  1  0.333354  0.666709  0.607469  1
  Mo  Mo2  1  0.333314  0.666628  0.093893  1
  W  W3  1  0.333310  0.666621  0.469646  1
  W  W4  1  0.666690  0.333380  0.281786  1
  W  W5  1  0.666690  0.333379  0.657570  1
  Se  Se6  1  0.333351  0.666702  0.325791  1
  Se  Se7  1  0.666647  0.333293  0.050144  1
  Se  Se8  1  0.666645  0.333289  0.137683  1
  Se  Se9  1  0.333350  0.666701  0.237826  1
  S  S10  1  0.666649  0.333297  0.429691  1
  S  S11  1  0.666648  0.333294  0.509623  1
