# generated using pymatgen
data_Mo3W(Se3S)2
_symmetry_space_group_name_H-M   'P 1'
_cell_length_a   3.29129813
_cell_length_b   3.29128892
_cell_length_c   37.07434577
_cell_angle_alpha   89.99988986
_cell_angle_beta   90.00000000
_cell_angle_gamma   120.00009271
_symmetry_Int_Tables_number   1
_chemical_formula_structural   Mo3W(Se3S)2
_chemical_formula_sum   'Mo3 W1 Se6 S2'
_cell_volume   347.80590594
_cell_formula_units_Z   1
loop_
 _symmetry_equiv_pos_site_id
 _symmetry_equiv_pos_as_xyz
  1  'x, y, z'
loop_
 _atom_site_type_symbol
 _atom_site_label
 _atom_site_symmetry_multiplicity
 _atom_site_fract_x
 _atom_site_fract_y
 _atom_site_fract_z
 _atom_site_occupancy
  Mo  Mo0  1  0.333312  0.666624  0.093912  1
  Mo  Mo1  1  0.666691  0.333383  0.281779  1
  Mo  Mo2  1  0.666693  0.333386  0.657548  1
  W  W3  1  0.333311  0.666622  0.469663  1
  Se  Se4  1  0.333353  0.666707  0.327254  1
  Se  Se5  1  0.333356  0.666714  0.703009  1
  Se  Se6  1  0.666625  0.333250  0.423968  1
  Se  Se7  1  0.666652  0.333303  0.515362  1
  Se  Se8  1  0.333353  0.666706  0.236342  1
  Se  Se9  1  0.333355  0.666711  0.612076  1
  S  S10  1  0.666648  0.333296  0.052522  1
  S  S11  1  0.666650  0.333299  0.135313  1
