# generated using pymatgen
data_Mg(C2N3)2
_symmetry_space_group_name_H-M   'P 1'
_cell_length_a   6.74886915
_cell_length_b   7.21005922
_cell_length_c   7.46480907
_cell_angle_alpha   90.00000000
_cell_angle_beta   90.00000000
_cell_angle_gamma   90.00000000
_symmetry_Int_Tables_number   1
_chemical_formula_structural   Mg(C2N3)2
_chemical_formula_sum   'Mg2 C8 N12'
_cell_volume   363.23571507
_cell_formula_units_Z   2
loop_
 _symmetry_equiv_pos_site_id
 _symmetry_equiv_pos_as_xyz
  1  'x, y, z'
loop_
 _atom_site_type_symbol
 _atom_site_label
 _atom_site_symmetry_multiplicity
 _atom_site_fract_x
 _atom_site_fract_y
 _atom_site_fract_z
 _atom_site_occupancy
  C  C0  1  0.776936  0.179267  0.651390  1
  C  C1  1  0.276936  0.320733  0.848610  1
  C  C2  1  0.776936  0.179267  0.348610  1
  C  C3  1  0.276936  0.320733  0.151390  1
  C  C4  1  0.723064  0.679267  0.151390  1
  C  C5  1  0.223064  0.820733  0.348610  1
  C  C6  1  0.223064  0.820733  0.651390  1
  C  C7  1  0.723064  0.679267  0.848610  1
  N  N8  1  0.789757  0.746609  0.000000  1
  N  N9  1  0.289757  0.753391  0.500000  1
  N  N10  1  0.830293  0.125915  0.208192  1
  N  N11  1  0.330293  0.374085  0.291808  1
  N  N12  1  0.669707  0.625915  0.291808  1
  N  N13  1  0.169707  0.874085  0.208192  1
  N  N14  1  0.169707  0.874085  0.791808  1
  N  N15  1  0.669707  0.625915  0.708192  1
  N  N16  1  0.330293  0.374085  0.708192  1
  N  N17  1  0.830293  0.125915  0.791808  1
  N  N18  1  0.710243  0.246609  0.500000  1
  N  N19  1  0.210243  0.253391  0.000000  1
  Mg  Mg20  1  0.500000  0.500000  0.500000  1
  Mg  Mg21  1  0.000000  0.000000  0.000000  1
