# generated using pymatgen
data_K2MnV2O7
_symmetry_space_group_name_H-M   'P 1'
_cell_length_a   5.67585482
_cell_length_b   8.76127263
_cell_length_c   8.76127263
_cell_angle_alpha   90.00000000
_cell_angle_beta   90.00000000
_cell_angle_gamma   90.00000000
_symmetry_Int_Tables_number   1
_chemical_formula_structural   K2MnV2O7
_chemical_formula_sum   'K4 Mn2 V4 O14'
_cell_volume   435.67803760
_cell_formula_units_Z   2
loop_
 _symmetry_equiv_pos_site_id
 _symmetry_equiv_pos_as_xyz
  1  'x, y, z'
loop_
 _atom_site_type_symbol
 _atom_site_label
 _atom_site_symmetry_multiplicity
 _atom_site_fract_x
 _atom_site_fract_y
 _atom_site_fract_z
 _atom_site_occupancy
  O  O0  1  0.760369  0.855530  0.644470  1
  O  O1  1  0.239631  0.644470  0.144470  1
  O  O2  1  0.239631  0.355530  0.855530  1
  O  O3  1  0.760369  0.144470  0.355530  1
  O  O4  1  0.838582  0.500000  0.000000  1
  O  O5  1  0.161418  0.000000  0.500000  1
  O  O6  1  0.176784  0.684654  0.587892  1
  O  O7  1  0.176784  0.315346  0.412108  1
  O  O8  1  0.823216  0.412108  0.684654  1
  O  O9  1  0.823216  0.587892  0.315346  1
  O  O10  1  0.176784  0.087892  0.184654  1
  O  O11  1  0.823216  0.184654  0.912108  1
  O  O12  1  0.823216  0.815346  0.087892  1
  O  O13  1  0.176784  0.912108  0.815346  1
  K  K14  1  0.510173  0.837149  0.337149  1
  K  K15  1  0.489827  0.662851  0.837149  1
  K  K16  1  0.489827  0.337149  0.162851  1
  K  K17  1  0.510173  0.162851  0.662851  1
  V  V18  1  0.943187  0.360028  0.860028  1
  V  V19  1  0.056813  0.860028  0.639972  1
  V  V20  1  0.056813  0.139972  0.360028  1
  V  V21  1  0.943187  0.639972  0.139972  1
  Mn  Mn22  1  0.000000  0.500000  0.500000  1
  Mn  Mn23  1  0.000000  0.000000  0.000000  1
