# generated using pymatgen
data_AsPO5
_symmetry_space_group_name_H-M   'P 1'
_cell_length_a   4.61144725
_cell_length_b   8.35200492
_cell_length_c   8.56061789
_cell_angle_alpha   90.00000000
_cell_angle_beta   90.00000000
_cell_angle_gamma   90.00000000
_symmetry_Int_Tables_number   1
_chemical_formula_structural   AsPO5
_chemical_formula_sum   'As4 P4 O20'
_cell_volume   329.71074376
_cell_formula_units_Z   4
loop_
 _symmetry_equiv_pos_site_id
 _symmetry_equiv_pos_as_xyz
  1  'x, y, z'
loop_
 _atom_site_type_symbol
 _atom_site_label
 _atom_site_symmetry_multiplicity
 _atom_site_fract_x
 _atom_site_fract_y
 _atom_site_fract_z
 _atom_site_occupancy
  O  O0  1  0.295452  0.753252  0.210681  1
  O  O1  1  0.795452  0.246748  0.289319  1
  O  O2  1  0.204548  0.253252  0.789319  1
  O  O3  1  0.704548  0.746748  0.710681  1
  O  O4  1  0.460139  0.960255  0.001920  1
  O  O5  1  0.960139  0.039745  0.498080  1
  O  O6  1  0.039861  0.460255  0.998080  1
  O  O7  1  0.539861  0.539745  0.501920  1
  O  O8  1  0.155173  0.569779  0.705353  1
  O  O9  1  0.655173  0.430221  0.794647  1
  O  O10  1  0.344827  0.069779  0.294647  1
  O  O11  1  0.844827  0.930221  0.205353  1
  O  O12  1  0.400499  0.844137  0.501535  1
  O  O13  1  0.900499  0.155863  0.998465  1
  O  O14  1  0.099501  0.344137  0.498465  1
  O  O15  1  0.599501  0.655863  0.001535  1
  O  O16  1  0.905682  0.731369  0.427411  1
  O  O17  1  0.405682  0.268631  0.072589  1
  O  O18  1  0.594318  0.231369  0.572589  1
  O  O19  1  0.094318  0.768631  0.927411  1
  P  P20  1  0.865298  0.216409  0.465889  1
  P  P21  1  0.365298  0.783591  0.034111  1
  P  P22  1  0.634702  0.716409  0.534111  1
  P  P23  1  0.134702  0.283591  0.965889  1
  As  As24  1  0.873539  0.599302  0.848841  1
  As  As25  1  0.373539  0.400698  0.651159  1
  As  As26  1  0.626461  0.099302  0.151159  1
  As  As27  1  0.126461  0.900698  0.348841  1
