# generated using pymatgen
data_MoW(SeS)2
_symmetry_space_group_name_H-M   'P 1'
_cell_length_a   3.25146258
_cell_length_b   3.25141778
_cell_length_c   36.89223119
_cell_angle_alpha   89.99969280
_cell_angle_beta   90.00000000
_cell_angle_gamma   120.00045582
_symmetry_Int_Tables_number   1
_chemical_formula_structural   MoW(SeS)2
_chemical_formula_sum   'Mo2 W2 Se4 S4'
_cell_volume   337.76534970
_cell_formula_units_Z   2
loop_
 _symmetry_equiv_pos_site_id
 _symmetry_equiv_pos_as_xyz
  1  'x, y, z'
loop_
 _atom_site_type_symbol
 _atom_site_label
 _atom_site_symmetry_multiplicity
 _atom_site_fract_x
 _atom_site_fract_y
 _atom_site_fract_z
 _atom_site_occupancy
  Mo  Mo0  1  0.333310  0.666620  0.093898  1
  Mo  Mo1  1  0.666686  0.333372  0.281803  1
  W  W2  1  0.333312  0.666623  0.469664  1
  W  W3  1  0.666688  0.333376  0.657540  1
  Se  Se4  1  0.333361  0.666723  0.327869  1
  Se  Se5  1  0.666646  0.333291  0.047809  1
  Se  Se6  1  0.666647  0.333292  0.140003  1
  Se  Se7  1  0.333351  0.666704  0.235738  1
  S  S8  1  0.333355  0.666710  0.699605  1
  S  S9  1  0.666645  0.333289  0.427615  1
  S  S10  1  0.666645  0.333289  0.511730  1
  S  S11  1  0.333355  0.666711  0.615472  1
