# generated using pymatgen
data_YCo(BO2)5
_symmetry_space_group_name_H-M   'P 1'
_cell_length_a   7.66340852
_cell_length_b   8.64072391
_cell_length_c   9.44536935
_cell_angle_alpha   93.58564517
_cell_angle_beta   90.00000000
_cell_angle_gamma   90.00000000
_symmetry_Int_Tables_number   1
_chemical_formula_structural   YCo(BO2)5
_chemical_formula_sum   'Y4 Co4 B20 O40'
_cell_volume   624.22341567
_cell_formula_units_Z   4
loop_
 _symmetry_equiv_pos_site_id
 _symmetry_equiv_pos_as_xyz
  1  'x, y, z'
loop_
 _atom_site_type_symbol
 _atom_site_label
 _atom_site_symmetry_multiplicity
 _atom_site_fract_x
 _atom_site_fract_y
 _atom_site_fract_z
 _atom_site_occupancy
  B  B0  1  0.812831  0.566625  0.089091  1
  B  B1  1  0.312831  0.933375  0.410909  1
  B  B2  1  0.187169  0.433375  0.910909  1
  B  B3  1  0.687169  0.066625  0.589091  1
  B  B4  1  0.101933  0.660666  0.509234  1
  B  B5  1  0.601933  0.839334  0.990766  1
  B  B6  1  0.898067  0.339334  0.490766  1
  B  B7  1  0.398067  0.160666  0.009234  1
  B  B8  1  0.032100  0.778096  0.057065  1
  B  B9  1  0.532100  0.721904  0.442935  1
  B  B10  1  0.967900  0.221904  0.942935  1
  B  B11  1  0.467900  0.278096  0.557065  1
  B  B12  1  0.824741  0.017252  0.102462  1
  B  B13  1  0.324741  0.482748  0.397538  1
  B  B14  1  0.175259  0.982748  0.897538  1
  B  B15  1  0.675259  0.517252  0.602462  1
  B  B16  1  0.073285  0.584912  0.247018  1
  B  B17  1  0.573285  0.915088  0.252982  1
  B  B18  1  0.926715  0.415088  0.752982  1
  B  B19  1  0.426715  0.084912  0.747018  1
  O  O20  1  0.945040  0.257033  0.370387  1
  O  O21  1  0.445040  0.242967  0.129613  1
  O  O22  1  0.054960  0.742967  0.629613  1
  O  O23  1  0.554960  0.757033  0.870387  1
  O  O24  1  0.152966  0.006625  0.428984  1
  O  O25  1  0.652966  0.493375  0.071016  1
  O  O26  1  0.847034  0.993375  0.571016  1
  O  O27  1  0.347034  0.506625  0.928984  1
  O  O28  1  0.876044  0.681328  0.009769  1
  O  O29  1  0.376044  0.818672  0.490231  1
  O  O30  1  0.123956  0.318672  0.990231  1
  O  O31  1  0.623956  0.181328  0.509769  1
  O  O32  1  0.731500  0.951344  0.977132  1
  O  O33  1  0.231500  0.548656  0.522868  1
  O  O34  1  0.268500  0.048656  0.022868  1
  O  O35  1  0.768500  0.451344  0.477132  1
  O  O36  1  0.889826  0.174978  0.078558  1
  O  O37  1  0.389826  0.325022  0.421442  1
  O  O38  1  0.110174  0.825022  0.921442  1
  O  O39  1  0.610174  0.674978  0.578558  1
  O  O40  1  0.970260  0.915956  0.148781  1
  O  O41  1  0.470260  0.584044  0.351219  1
  O  O42  1  0.029740  0.084044  0.851219  1
  O  O43  1  0.529740  0.415956  0.648781  1
  O  O44  1  0.148038  0.683731  0.140649  1
  O  O45  1  0.648038  0.816269  0.359351  1
  O  O46  1  0.851962  0.316269  0.859351  1
  O  O47  1  0.351962  0.183731  0.640649  1
  O  O48  1  0.907898  0.512782  0.199754  1
  O  O49  1  0.407898  0.987218  0.300246  1
  O  O50  1  0.092102  0.487218  0.800246  1
  O  O51  1  0.592102  0.012782  0.699754  1
  O  O52  1  0.031981  0.684604  0.378566  1
  O  O53  1  0.531981  0.815396  0.121434  1
  O  O54  1  0.968019  0.315395  0.621434  1
  O  O55  1  0.468019  0.184605  0.878566  1
  O  O56  1  0.204593  0.464272  0.273772  1
  O  O57  1  0.704593  0.035728  0.226228  1
  O  O58  1  0.795407  0.535728  0.726228  1
  O  O59  1  0.295407  0.964272  0.773772  1
  Co  Co60  1  0.903065  0.898560  0.370427  1
  Co  Co61  1  0.403065  0.601440  0.129573  1
  Co  Co62  1  0.096935  0.101440  0.629573  1
  Co  Co63  1  0.596935  0.398560  0.870427  1
  Y  Y64  1  0.684766  0.315348  0.257780  1
  Y  Y65  1  0.184766  0.184652  0.242220  1
  Y  Y66  1  0.315234  0.684652  0.742220  1
  Y  Y67  1  0.815234  0.815348  0.757780  1
