# generated using pymatgen
data_P3RhO9
_symmetry_space_group_name_H-M   'P 1'
_cell_length_a   9.49826485
_cell_length_b   10.68434246
_cell_length_c   11.73971744
_cell_angle_alpha   113.46439264
_cell_angle_beta   109.91109901
_cell_angle_gamma   98.08175601
_symmetry_Int_Tables_number   1
_chemical_formula_structural   P3RhO9
_chemical_formula_sum   'P18 Rh6 O54'
_cell_volume   973.42143712
_cell_formula_units_Z   6
loop_
 _symmetry_equiv_pos_site_id
 _symmetry_equiv_pos_as_xyz
  1  'x, y, z'
loop_
 _atom_site_type_symbol
 _atom_site_label
 _atom_site_symmetry_multiplicity
 _atom_site_fract_x
 _atom_site_fract_y
 _atom_site_fract_z
 _atom_site_occupancy
  O  O0  1  0.123337  0.237785  0.644855  1
  O  O1  1  0.978482  0.592930  0.355145  1
  O  O2  1  0.745218  0.451212  0.419323  1
  O  O3  1  0.825895  0.031889  0.580677  1
  O  O4  1  0.142759  0.998846  0.415030  1
  O  O5  1  0.227729  0.583816  0.584970  1
  O  O6  1  0.865817  0.082183  0.373985  1
  O  O7  1  0.991832  0.708197  0.626015  1
  O  O8  1  0.671721  0.281188  0.732644  1
  O  O9  1  0.439077  0.548544  0.267356  1
  O  O10  1  0.309099  0.960081  0.855359  1
  O  O11  1  0.953740  0.104722  0.144641  1
  O  O12  1  0.130006  0.989492  0.663814  1
  O  O13  1  0.966192  0.325678  0.336186  1
  O  O14  1  0.312610  0.843987  0.625509  1
  O  O15  1  0.187101  0.218478  0.374491  1
  O  O16  1  0.644768  0.179431  0.292818  1
  O  O17  1  0.851950  0.886614  0.707182  1
  O  O18  1  0.404874  0.186301  0.536416  1
  O  O19  1  0.368458  0.649884  0.463584  1
  O  O20  1  0.622828  0.985752  0.666368  1
  O  O21  1  0.456460  0.319383  0.333632  1
  O  O22  1  0.685209  0.983167  0.123908  1
  O  O23  1  0.061301  0.859259  0.876092  1
  O  O24  1  0.958659  0.693613  0.195541  1
  O  O25  1  0.263118  0.498073  0.804459  1
  O  O26  1  0.200306  0.345657  0.990981  1
  O  O27  1  0.709325  0.354675  0.009019  1
  O  O28  1  0.017489  0.491168  0.043499  1
  O  O29  1  0.473990  0.447669  0.956501  1
  O  O30  1  0.702338  0.572735  0.190824  1
  O  O31  1  0.011514  0.381911  0.809176  1
  O  O32  1  0.907537  0.218567  0.897282  1
  O  O33  1  0.510256  0.321285  0.102718  1
  O  O34  1  0.683586  0.070571  0.958932  1
  O  O35  1  0.224654  0.111639  0.041068  1
  O  O36  1  0.154020  0.343815  0.225926  1
  O  O37  1  0.428094  0.117889  0.774074  1
  O  O38  1  0.625223  0.775801  0.472933  1
  O  O39  1  0.652290  0.302868  0.527067  1
  O  O40  1  0.803992  0.865085  0.964186  1
  O  O41  1  0.339806  0.900899  0.035814  1
  O  O42  1  0.352647  0.778396  0.325965  1
  O  O43  1  0.526682  0.452431  0.674035  1
  O  O44  1  0.536666  0.677083  0.936803  1
  O  O45  1  0.099863  0.740279  0.063197  1
  O  O46  1  0.579364  0.931182  0.278895  1
  O  O47  1  0.800469  0.652287  0.721105  1
  O  O48  1  0.374916  0.649390  0.065417  1
  O  O49  1  0.809499  0.583973  0.934583  1
  O  O50  1  0.518781  0.742568  0.721182  1
  O  O51  1  0.297599  0.021386  0.278818  1
  O  O52  1  0.990485  0.430266  0.619950  1
  O  O53  1  0.870535  0.810316  0.380050  1
  P  P54  1  0.567372  0.314349  0.627673  1
  P  P55  1  0.439699  0.686675  0.372327  1
  P  P56  1  0.598082  0.414811  0.064209  1
  P  P57  1  0.033873  0.350602  0.935791  1
  P  P58  1  0.695480  0.039000  0.274897  1
  P  P59  1  0.920583  0.764103  0.725103  1
  P  P60  1  0.358420  0.701225  0.607102  1
  P  P61  1  0.251319  0.094123  0.392898  1
  P  P62  1  0.066970  0.258858  0.271533  1
  P  P63  1  0.295437  0.987324  0.728467  1
  P  P64  1  0.775578  0.004534  0.036929  1
  P  P65  1  0.238649  0.967604  0.963071  1
  P  P66  1  0.093023  0.378398  0.708303  1
  P  P67  1  0.884720  0.670096  0.291697  1
  P  P68  1  0.732519  0.928882  0.606802  1
  P  P69  1  0.625717  0.322080  0.393198  1
  P  P70  1  0.417749  0.579913  0.948291  1
  P  P71  1  0.969458  0.631622  0.051709  1
  Rh  Rh72  1  0.995181  0.024535  0.509946  1
  Rh  Rh73  1  0.985236  0.514589  0.490054  1
  Rh  Rh74  1  0.663937  0.660371  0.824433  1
  Rh  Rh75  1  0.339503  0.835937  0.175567  1
  Rh  Rh76  1  0.330531  0.330906  0.161116  1
  Rh  Rh77  1  0.669415  0.169789  0.838884  1
