# generated using pymatgen
data_Te2MoW3(SeS2)2
_symmetry_space_group_name_H-M   'P 1'
_cell_length_a   3.30868886
_cell_length_b   3.30858292
_cell_length_c   37.65607234
_cell_angle_alpha   90.00029573
_cell_angle_beta   90.00000000
_cell_angle_gamma   120.00105918
_symmetry_Int_Tables_number   1
_chemical_formula_structural   Te2MoW3(SeS2)2
_chemical_formula_sum   'Te2 Mo1 W3 Se2 S4'
_cell_volume   356.99239879
_cell_formula_units_Z   1
loop_
 _symmetry_equiv_pos_site_id
 _symmetry_equiv_pos_as_xyz
  1  'x, y, z'
loop_
 _atom_site_type_symbol
 _atom_site_label
 _atom_site_symmetry_multiplicity
 _atom_site_fract_x
 _atom_site_fract_y
 _atom_site_fract_z
 _atom_site_occupancy
  Te  Te0  1  0.333352  0.666705  0.708635  1
  Te  Te1  1  0.333352  0.666706  0.606460  1
  Mo  Mo2  1  0.666672  0.333345  0.281792  1
  W  W3  1  0.333308  0.666617  0.093927  1
  W  W4  1  0.333312  0.666625  0.469630  1
  W  W5  1  0.666687  0.333374  0.657585  1
  Se  Se6  1  0.666638  0.333275  0.049123  1
  Se  Se7  1  0.666645  0.333289  0.138740  1
  S  S8  1  0.333369  0.666739  0.322369  1
  S  S9  1  0.666648  0.333294  0.428914  1
  S  S10  1  0.666647  0.333293  0.510353  1
  S  S11  1  0.333369  0.666739  0.241220  1
