# generated using pymatgen
data_MgAgSb
_symmetry_space_group_name_H-M   'P 1'
_cell_length_a   4.45721147
_cell_length_b   4.45721147
_cell_length_c   6.87363382
_cell_angle_alpha   90.00000000
_cell_angle_beta   90.00000000
_cell_angle_gamma   90.00000000
_symmetry_Int_Tables_number   1
_chemical_formula_structural   MgAgSb
_chemical_formula_sum   'Mg2 Ag2 Sb2'
_cell_volume   136.55665532
_cell_formula_units_Z   2
loop_
 _symmetry_equiv_pos_site_id
 _symmetry_equiv_pos_as_xyz
  1  'x, y, z'
loop_
 _atom_site_type_symbol
 _atom_site_label
 _atom_site_symmetry_multiplicity
 _atom_site_fract_x
 _atom_site_fract_y
 _atom_site_fract_z
 _atom_site_occupancy
  Mg  Mg0  1  0.750000  0.750000  0.700312  1
  Mg  Mg1  1  0.250000  0.250000  0.299688  1
  Ag  Ag2  1  0.750000  0.250000  -0.000000  1
  Ag  Ag3  1  0.250000  0.750000  0.000000  1
  Sb  Sb4  1  0.750000  0.750000  0.280164  1
  Sb  Sb5  1  0.250000  0.250000  0.719836  1
