# generated using pymatgen
data_Ba2NbFeO6
_symmetry_space_group_name_H-M   'P 1'
_cell_length_a   5.85268098
_cell_length_b   5.85268098
_cell_length_c   19.23891083
_cell_angle_alpha   90.00000000
_cell_angle_beta   90.00000000
_cell_angle_gamma   119.99974562
_symmetry_Int_Tables_number   1
_chemical_formula_structural   Ba2NbFeO6
_chemical_formula_sum   'Ba8 Nb4 Fe4 O24'
_cell_volume   570.71847344
_cell_formula_units_Z   4
loop_
 _symmetry_equiv_pos_site_id
 _symmetry_equiv_pos_as_xyz
  1  'x, y, z'
loop_
 _atom_site_type_symbol
 _atom_site_label
 _atom_site_symmetry_multiplicity
 _atom_site_fract_x
 _atom_site_fract_y
 _atom_site_fract_z
 _atom_site_occupancy
  Ba  Ba0  1  -0.000000  -0.000000  0.500000  1
  Ba  Ba1  1  -0.000000  -0.000000  -0.000000  1
  Ba  Ba2  1  0.666671  0.333329  0.250000  1
  Ba  Ba3  1  0.333329  0.666671  0.750000  1
  Ba  Ba4  1  0.666677  0.333323  0.641760  1
  Ba  Ba5  1  0.333323  0.666677  0.358240  1
  Ba  Ba6  1  0.333323  0.666677  0.141760  1
  Ba  Ba7  1  0.666677  0.333323  0.858240  1
  Nb  Nb8  1  0.666661  0.333339  0.063682  1
  Nb  Nb9  1  0.333339  0.666661  0.936318  1
  Nb  Nb10  1  0.333339  0.666661  0.563682  1
  Nb  Nb11  1  0.666661  0.333339  0.436318  1
  Fe  Fe12  1  0.000014  -0.000014  0.682415  1
  Fe  Fe13  1  -0.000014  0.000014  0.317585  1
  Fe  Fe14  1  -0.000014  0.000014  0.182415  1
  Fe  Fe15  1  0.000014  -0.000014  0.817585  1
  O  O16  1  0.500000  -0.000000  0.500000  1
  O  O17  1  0.500000  0.500000  0.500000  1
  O  O18  1  -0.000000  0.500000  0.500000  1
  O  O19  1  0.500000  0.000000  0.000000  1
  O  O20  1  0.500000  0.500000  -0.000000  1
  O  O21  1  0.000000  0.500000  -0.000000  1
  O  O22  1  0.846237  0.692440  0.750000  1
  O  O23  1  0.846235  0.153765  0.750000  1
  O  O24  1  0.307560  0.153763  0.750000  1
  O  O25  1  0.153763  0.307560  0.250000  1
  O  O26  1  0.153765  0.846235  0.250000  1
  O  O27  1  0.692440  0.846237  0.250000  1
  O  O28  1  0.829736  0.659489  0.120381  1
  O  O29  1  0.829734  0.170266  0.120384  1
  O  O30  1  0.340511  0.170264  0.120381  1
  O  O31  1  0.170264  0.340511  0.879619  1
  O  O32  1  0.170266  0.829734  0.879616  1
  O  O33  1  0.659489  0.829736  0.879619  1
  O  O34  1  0.170264  0.340511  0.620381  1
  O  O35  1  0.170266  0.829734  0.620384  1
  O  O36  1  0.659489  0.829736  0.620381  1
  O  O37  1  0.829736  0.659489  0.379619  1
  O  O38  1  0.829734  0.170266  0.379616  1
  O  O39  1  0.340511  0.170264  0.379619  1
