# generated using pymatgen
data_Te4Mo(WS)2
_symmetry_space_group_name_H-M   'P 1'
_cell_length_a   3.42019968
_cell_length_b   3.42018500
_cell_length_c   31.67362777
_cell_angle_alpha   90.00012362
_cell_angle_beta   89.99999802
_cell_angle_gamma   120.00011591
_symmetry_Int_Tables_number   1
_chemical_formula_structural   Te4Mo(WS)2
_chemical_formula_sum   'Te4 Mo1 W2 S2'
_cell_volume   320.86991081
_cell_formula_units_Z   1
loop_
 _symmetry_equiv_pos_site_id
 _symmetry_equiv_pos_as_xyz
  1  'x, y, z'
loop_
 _atom_site_type_symbol
 _atom_site_label
 _atom_site_symmetry_multiplicity
 _atom_site_fract_x
 _atom_site_fract_y
 _atom_site_fract_z
 _atom_site_occupancy
  Te  Te0  1  0.666643  0.333285  0.056837  1
  Te  Te1  1  0.666642  0.333283  0.519157  1
  Te  Te2  1  0.666650  0.333300  0.174500  1
  Te  Te3  1  0.666649  0.333297  0.637465  1
  Mo  Mo4  1  0.333311  0.666621  0.115634  1
  W  W5  1  0.333308  0.666616  0.578325  1
  W  W6  1  0.666689  0.333380  0.346965  1
  S  S7  1  0.333356  0.666712  0.394330  1
  S  S8  1  0.333353  0.666706  0.299628  1
