# generated using pymatgen
data_Ca(BIr)2
_symmetry_space_group_name_H-M   'P 1'
_cell_length_a   5.52560437
_cell_length_b   5.52560437
_cell_length_c   6.15789422
_cell_angle_alpha   105.12531804
_cell_angle_beta   105.12531803
_cell_angle_gamma   114.73497449
_symmetry_Int_Tables_number   1
_chemical_formula_structural   Ca(BIr)2
_chemical_formula_sum   'Ca2 B4 Ir4'
_cell_volume   149.44233169
_cell_formula_units_Z   2
loop_
 _symmetry_equiv_pos_site_id
 _symmetry_equiv_pos_as_xyz
  1  'x, y, z'
loop_
 _atom_site_type_symbol
 _atom_site_label
 _atom_site_symmetry_multiplicity
 _atom_site_fract_x
 _atom_site_fract_y
 _atom_site_fract_z
 _atom_site_occupancy
  B  B0  1  0.552399  0.447601  0.250000  1
  B  B1  1  0.802399  0.197601  0.750000  1
  B  B2  1  0.197601  0.802399  0.250000  1
  B  B3  1  0.447601  0.552399  0.750000  1
  Ca  Ca4  1  0.875000  0.125000  0.250000  1
  Ca  Ca5  1  0.125000  0.875000  0.750000  1
  Ir  Ir6  1  0.504824  0.754824  0.509648  1
  Ir  Ir7  1  0.754824  0.504824  0.009648  1
  Ir  Ir8  1  0.495176  0.245176  0.490352  1
  Ir  Ir9  1  0.245176  0.495176  0.990352  1
