# generated using pymatgen
data_Na4Mn2O5
_symmetry_space_group_name_H-M   'P 1'
_cell_length_a   5.63490430
_cell_length_b   5.63490430
_cell_length_c   10.36493890
_cell_angle_alpha   98.40968659
_cell_angle_beta   98.40968659
_cell_angle_gamma   117.51426951
_symmetry_Int_Tables_number   1
_chemical_formula_structural   Na4Mn2O5
_chemical_formula_sum   'Na8 Mn4 O10'
_cell_volume   280.04137565
_cell_formula_units_Z   2
loop_
 _symmetry_equiv_pos_site_id
 _symmetry_equiv_pos_as_xyz
  1  'x, y, z'
loop_
 _atom_site_type_symbol
 _atom_site_label
 _atom_site_symmetry_multiplicity
 _atom_site_fract_x
 _atom_site_fract_y
 _atom_site_fract_z
 _atom_site_occupancy
  O  O0  1  0.125000  0.875000  0.750000  1
  O  O1  1  0.690468  0.940468  0.880937  1
  O  O2  1  0.441861  0.191861  0.383722  1
  O  O3  1  0.808139  0.558139  0.116278  1
  O  O4  1  0.558139  0.808139  0.616278  1
  O  O5  1  0.191861  0.441861  0.883722  1
  O  O6  1  0.059532  0.309532  0.619063  1
  O  O7  1  0.309532  0.059532  0.119063  1
  O  O8  1  0.875000  0.125000  0.250000  1
  O  O9  1  0.940468  0.690468  0.380937  1
  Na  Na10  1  0.541029  0.789286  0.069810  1
  Na  Na11  1  0.971219  0.719476  0.930190  1
  Na  Na12  1  0.210714  0.458971  0.430190  1
  Na  Na13  1  0.028781  0.280524  0.069810  1
  Na  Na14  1  0.458971  0.210714  0.930190  1
  Na  Na15  1  0.280524  0.028781  0.569810  1
  Na  Na16  1  0.789286  0.541029  0.569810  1
  Na  Na17  1  0.719476  0.971219  0.430190  1
  Mn  Mn18  1  0.905269  0.094731  0.750000  1
  Mn  Mn19  1  0.655269  0.344731  0.250000  1
  Mn  Mn20  1  0.094731  0.905269  0.250000  1
  Mn  Mn21  1  0.344731  0.655269  0.750000  1
