# generated using pymatgen
data_SmAl2Ni
_symmetry_space_group_name_H-M   'P 1'
_cell_length_a   4.08899583
_cell_length_b   5.74539145
_cell_length_c   6.92258555
_cell_angle_alpha   90.00000000
_cell_angle_beta   90.00000000
_cell_angle_gamma   110.84555178
_symmetry_Int_Tables_number   1
_chemical_formula_structural   SmAl2Ni
_chemical_formula_sum   'Sm2 Al4 Ni2'
_cell_volume   151.98612411
_cell_formula_units_Z   2
loop_
 _symmetry_equiv_pos_site_id
 _symmetry_equiv_pos_as_xyz
  1  'x, y, z'
loop_
 _atom_site_type_symbol
 _atom_site_label
 _atom_site_symmetry_multiplicity
 _atom_site_fract_x
 _atom_site_fract_y
 _atom_site_fract_z
 _atom_site_occupancy
  Sm  Sm0  1  0.443456  0.886912  0.250000  1
  Sm  Sm1  1  0.556544  0.113088  0.750000  1
  Al  Al2  1  0.166048  0.332096  0.056163  1
  Al  Al3  1  0.833952  0.667904  0.943837  1
  Al  Al4  1  0.833952  0.667904  0.556163  1
  Al  Al5  1  0.166048  0.332096  0.443837  1
  Ni  Ni6  1  0.716209  0.432417  0.250000  1
  Ni  Ni7  1  0.283791  0.567583  0.750000  1
