# generated using pymatgen
data_Ba3CrO5
_symmetry_space_group_name_H-M   'P 1'
_cell_length_a   7.39904285
_cell_length_b   7.90031069
_cell_length_c   7.39904272
_cell_angle_alpha   117.92240859
_cell_angle_beta   90.00000256
_cell_angle_gamma   117.92240363
_symmetry_Int_Tables_number   1
_chemical_formula_structural   Ba3CrO5
_chemical_formula_sum   'Ba6 Cr2 O10'
_cell_volume   324.07497478
_cell_formula_units_Z   2
loop_
 _symmetry_equiv_pos_site_id
 _symmetry_equiv_pos_as_xyz
  1  'x, y, z'
loop_
 _atom_site_type_symbol
 _atom_site_label
 _atom_site_symmetry_multiplicity
 _atom_site_fract_x
 _atom_site_fract_y
 _atom_site_fract_z
 _atom_site_occupancy
  Ba  Ba0  1  0.750000  0.500000  0.750001  1
  Ba  Ba1  1  0.250000  0.500000  0.250001  1
  Ba  Ba2  1  0.319197  -0.000005  0.180799  1
  Ba  Ba3  1  0.680798  -0.000005  0.819197  1
  Ba  Ba4  1  0.180803  0.000005  0.680802  1
  Ba  Ba5  1  0.819202  0.000005  0.319203  1
  Cr  Cr6  1  0.250000  0.500000  0.749999  1
  Cr  Cr7  1  0.750000  0.500000  0.250000  1
  O  O8  1  0.000000  0.000000  0.000000  1
  O  O9  1  0.500000  0.000000  0.500000  1
  O  O10  1  0.520946  0.313534  0.020945  1
  O  O11  1  0.207406  0.686464  0.707406  1
  O  O12  1  0.479057  0.686464  0.979058  1
  O  O13  1  0.979053  0.686465  0.207411  1
  O  O14  1  0.707412  0.686466  0.479054  1
  O  O15  1  0.020942  0.313537  0.792594  1
  O  O16  1  0.292594  0.313537  0.520942  1
  O  O17  1  0.792588  0.313534  0.292588  1
