# generated using pymatgen
data_Li6Ca12W4N16O3
_symmetry_space_group_name_H-M   'P 1'
_cell_length_a   11.40762092
_cell_length_b   11.40762092
_cell_length_c   11.40762092
_cell_angle_alpha   109.47122065
_cell_angle_beta   109.47122064
_cell_angle_gamma   109.47122061
_symmetry_Int_Tables_number   1
_chemical_formula_structural   Li6Ca12W4N16O3
_chemical_formula_sum   'Li12 Ca24 W8 N32 O6'
_cell_volume   1142.78189793
_cell_formula_units_Z   2
loop_
 _symmetry_equiv_pos_site_id
 _symmetry_equiv_pos_as_xyz
  1  'x, y, z'
loop_
 _atom_site_type_symbol
 _atom_site_label
 _atom_site_symmetry_multiplicity
 _atom_site_fract_x
 _atom_site_fract_y
 _atom_site_fract_z
 _atom_site_occupancy
  Li  Li0  1  0.250001  0.273974  0.023974  1
  Li  Li1  1  0.250000  0.976026  0.726027  1
  Li  Li2  1  0.773974  0.750000  0.523973  1
  Li  Li3  1  0.523974  0.773974  0.750000  1
  Li  Li4  1  0.726026  0.249999  0.976026  1
  Li  Li5  1  0.976026  0.726026  0.250000  1
  Li  Li6  1  0.749999  0.226026  0.476026  1
  Li  Li7  1  0.226027  0.476026  0.750000  1
  Li  Li8  1  0.273973  0.023974  0.250000  1
  Li  Li9  1  0.023974  0.249999  0.273974  1
  Li  Li10  1  0.476026  0.750000  0.226026  1
  Li  Li11  1  0.750000  0.523974  0.773974  1
  N  N12  1  0.109222  0.109223  0.109222  1
  N  N13  1  0.890778  0.500000  1.000000  1
  N  N14  1  0.500000  0.000000  0.890777  1
  N  N15  1  1.000000  0.890778  0.500000  1
  N  N16  1  0.500000  0.000000  0.390778  1
  N  N17  1  1.000000  0.390777  0.500000  1
  N  N18  1  0.390778  0.500000  1.000000  1
  N  N19  1  0.609222  0.609223  0.609222  1
  N  N20  1  0.418589  0.366743  0.234078  1
  N  N21  1  0.133257  0.551846  0.867336  1
  N  N22  1  0.265921  0.632665  0.184510  1
  N  N23  1  0.081410  0.315489  0.948154  1
  N  N24  1  0.315489  0.948154  0.081411  1
  N  N25  1  0.948154  0.081411  0.315489  1
  N  N26  1  0.918589  0.734078  0.866743  1
  N  N27  1  0.367335  0.051846  0.633257  1
  N  N28  1  0.132665  0.765922  0.684511  1
  N  N29  1  0.448154  0.815489  0.581410  1
  N  N30  1  0.815490  0.581411  0.448154  1
  N  N31  1  0.866743  0.918589  0.734078  1
  N  N32  1  0.051846  0.633257  0.367335  1
  N  N33  1  0.684511  0.132665  0.765922  1
  N  N34  1  0.734078  0.866743  0.918589  1
  N  N35  1  0.633256  0.367335  0.051845  1
  N  N36  1  0.765921  0.684511  0.132665  1
  N  N37  1  0.867336  0.133257  0.551846  1
  N  N38  1  0.632665  0.184511  0.265922  1
  N  N39  1  0.184511  0.265922  0.632665  1
  N  N40  1  0.366743  0.234078  0.418589  1
  N  N41  1  0.234079  0.418589  0.366743  1
  N  N42  1  0.551846  0.867335  0.133257  1
  N  N43  1  0.581411  0.448154  0.815490  1
  O  O44  1  0.125000  0.875000  0.250000  1
  O  O45  1  0.625000  0.750000  0.375000  1
  O  O46  1  0.875000  0.249999  0.125000  1
  O  O47  1  0.250000  0.125000  0.875000  1
  O  O48  1  0.750000  0.375000  0.625000  1
  O  O49  1  0.375000  0.625000  0.750000  1
  Ca  Ca50  1  0.593370  0.537481  0.208055  1
  Ca  Ca51  1  0.962518  0.555889  0.670573  1
  Ca  Ca52  1  0.291944  0.829426  0.385315  1
  Ca  Ca53  1  0.906630  0.114686  0.944112  1
  Ca  Ca54  1  0.114685  0.944112  0.906631  1
  Ca  Ca55  1  0.944112  0.906630  0.114686  1
  Ca  Ca56  1  0.093370  0.708056  0.037481  1
  Ca  Ca57  1  0.170574  0.055889  0.462519  1
  Ca  Ca58  1  0.329427  0.791945  0.885314  1
  Ca  Ca59  1  0.444112  0.614686  0.406630  1
  Ca  Ca60  1  0.614685  0.406630  0.444112  1
  Ca  Ca61  1  0.037482  0.093370  0.708055  1
  Ca  Ca62  1  0.055888  0.462519  0.170573  1
  Ca  Ca63  1  0.885315  0.329426  0.791945  1
  Ca  Ca64  1  0.708055  0.037481  0.093370  1
  Ca  Ca65  1  0.462519  0.170574  0.055889  1
  Ca  Ca66  1  0.791944  0.885314  0.329426  1
  Ca  Ca67  1  0.670574  0.962519  0.555889  1
  Ca  Ca68  1  0.829426  0.385314  0.291945  1
  Ca  Ca69  1  0.385314  0.291945  0.829426  1
  Ca  Ca70  1  0.537482  0.208056  0.593370  1
  Ca  Ca71  1  0.208055  0.593370  0.537482  1
  Ca  Ca72  1  0.555888  0.670573  0.962519  1
  Ca  Ca73  1  0.406630  0.444111  0.614685  1
  W  W74  1  0.275601  0.275601  0.275601  1
  W  W75  1  0.724399  0.500000  1.000000  1
  W  W76  1  0.500000  0.000000  0.724399  1
  W  W77  1  1.000000  0.724399  0.500000  1
  W  W78  1  0.500000  0.000000  0.224399  1
  W  W79  1  1.000000  0.224399  0.500000  1
  W  W80  1  0.224399  0.500000  1.000000  1
  W  W81  1  0.775601  0.775601  0.775601  1
