# generated using pymatgen
data_Ba4Tb2Cd3S10
_symmetry_space_group_name_H-M   'P 1'
_cell_length_a   4.19091323
_cell_length_b   9.37230764
_cell_length_c   26.94282492
_cell_angle_alpha   90.00000000
_cell_angle_beta   90.00000000
_cell_angle_gamma   102.91936650
_symmetry_Int_Tables_number   1
_chemical_formula_structural   Ba4Tb2Cd3S10
_chemical_formula_sum   'Ba8 Tb4 Cd6 S20'
_cell_volume   1031.48500409
_cell_formula_units_Z   2
loop_
 _symmetry_equiv_pos_site_id
 _symmetry_equiv_pos_as_xyz
  1  'x, y, z'
loop_
 _atom_site_type_symbol
 _atom_site_label
 _atom_site_symmetry_multiplicity
 _atom_site_fract_x
 _atom_site_fract_y
 _atom_site_fract_z
 _atom_site_occupancy
  S  S0  1  0.576340  0.152681  0.320519  1
  S  S1  1  0.423660  0.847319  0.820519  1
  S  S2  1  0.589402  0.178804  0.184323  1
  S  S3  1  0.410598  0.821196  0.684323  1
  S  S4  1  0.650146  0.300292  0.489201  1
  S  S5  1  0.349854  0.699708  0.989201  1
  S  S6  1  0.653036  0.306072  0.018794  1
  S  S7  1  0.346964  0.693928  0.518794  1
  S  S8  1  0.769953  0.539905  0.765999  1
  S  S9  1  0.230047  0.460095  0.265999  1
  S  S10  1  0.788915  0.577830  0.378000  1
  S  S11  1  0.211085  0.422170  0.878000  1
  S  S12  1  0.792570  0.585140  0.131146  1
  S  S13  1  0.207430  0.414860  0.631146  1
  S  S14  1  0.926666  0.853332  0.247171  1
  S  S15  1  0.073334  0.146668  0.747171  1
  S  S16  1  0.984208  0.968415  0.433337  1
  S  S17  1  0.015792  0.031585  0.933337  1
  S  S18  1  0.011277  0.022554  0.570648  1
  S  S19  1  0.988723  0.977446  0.070648  1
  Cd  Cd20  1  0.782684  0.565368  0.231738  1
  Cd  Cd21  1  0.217316  0.434632  0.731738  1
  Cd  Cd22  1  0.840999  0.681998  0.462004  1
  Cd  Cd23  1  0.159001  0.318002  0.962004  1
  Cd  Cd24  1  0.846296  0.692591  0.043972  1
  Cd  Cd25  1  0.153704  0.307409  0.543972  1
  Ba  Ba26  1  0.405233  0.810467  0.339326  1
  Ba  Ba27  1  0.594767  0.189533  0.839326  1
  Ba  Ba28  1  0.424382  0.848763  0.156201  1
  Ba  Ba29  1  0.575618  0.151237  0.656201  1
  Ba  Ba30  1  0.837386  0.674772  0.611224  1
  Ba  Ba31  1  0.162614  0.325228  0.111224  1
  Ba  Ba32  1  0.838113  0.676226  0.890109  1
  Ba  Ba33  1  0.161887  0.323774  0.390109  1
  Tb  Tb34  1  0.497179  0.994357  0.499905  1
  Tb  Tb35  1  0.502821  0.005643  0.999905  1
  Tb  Tb36  1  0.921234  0.842468  0.753302  1
  Tb  Tb37  1  0.078766  0.157532  0.253302  1
