# generated using pymatgen
data_Cd3TeO6
_symmetry_space_group_name_H-M   'P 1'
_cell_length_a   5.59132426
_cell_length_b   5.73240452
_cell_length_c   8.22130878
_cell_angle_alpha   90.00000000
_cell_angle_beta   89.84781865
_cell_angle_gamma   90.00000000
_symmetry_Int_Tables_number   1
_chemical_formula_structural   Cd3TeO6
_chemical_formula_sum   'Cd6 Te2 O12'
_cell_volume   263.50626019
_cell_formula_units_Z   2
loop_
 _symmetry_equiv_pos_site_id
 _symmetry_equiv_pos_as_xyz
  1  'x, y, z'
loop_
 _atom_site_type_symbol
 _atom_site_label
 _atom_site_symmetry_multiplicity
 _atom_site_fract_x
 _atom_site_fract_y
 _atom_site_fract_z
 _atom_site_occupancy
  O  O0  1  0.667086  0.221992  0.416994  1
  O  O1  1  0.832914  0.721992  0.083006  1
  O  O2  1  0.332914  0.778008  0.583006  1
  O  O3  1  0.167086  0.278008  0.916994  1
  O  O4  1  0.211095  0.322844  0.550084  1
  O  O5  1  0.288905  0.822844  0.949916  1
  O  O6  1  0.788905  0.677156  0.449916  1
  O  O7  1  0.711095  0.177156  0.050084  1
  O  O8  1  0.120179  0.075555  0.220380  1
  O  O9  1  0.379821  0.575555  0.279620  1
  O  O10  1  0.879821  0.924445  0.779620  1
  O  O11  1  0.620179  0.424445  0.720380  1
  Cd  Cd12  1  0.012057  0.544963  0.740538  1
  Cd  Cd13  1  0.487943  0.044963  0.759462  1
  Cd  Cd14  1  0.987943  0.455037  0.259462  1
  Cd  Cd15  1  0.512057  0.955037  0.240538  1
  Cd  Cd16  1  0.500000  0.500000  0.000000  1
  Cd  Cd17  1  0.000000  0.000000  0.500000  1
  Te  Te18  1  0.500000  0.500000  0.500000  1
  Te  Te19  1  0.000000  0.000000  0.000000  1
