# generated using pymatgen
data_IrO3
_symmetry_space_group_name_H-M   'P 1'
_cell_length_a   3.76325117
_cell_length_b   5.20718433
_cell_length_c   5.20564866
_cell_angle_alpha   89.85201986
_cell_angle_beta   90.00000000
_cell_angle_gamma   90.00000000
_symmetry_Int_Tables_number   1
_chemical_formula_structural   IrO3
_chemical_formula_sum   'Ir2 O6'
_cell_volume   102.00925175
_cell_formula_units_Z   2
loop_
 _symmetry_equiv_pos_site_id
 _symmetry_equiv_pos_as_xyz
  1  'x, y, z'
loop_
 _atom_site_type_symbol
 _atom_site_label
 _atom_site_symmetry_multiplicity
 _atom_site_fract_x
 _atom_site_fract_y
 _atom_site_fract_z
 _atom_site_occupancy
  Ir  Ir0  1  0.500000  0.496631  0.492754  1
  Ir  Ir1  1  0.500000  0.992759  0.996817  1
  O  O2  1  0.500000  0.175791  0.675954  1
  O  O3  1  0.500000  0.667925  0.830554  1
  O  O4  1  0.500000  0.330800  0.167372  1
  O  O5  1  0.500000  0.837636  0.337647  1
  O  O6  1  0.000000  0.501163  0.497127  1
  O  O7  1  0.000000  0.997296  0.001776  1
