# generated using pymatgen
data_Te2MoWSeS
_symmetry_space_group_name_H-M   'P 1'
_cell_length_a   3.39929076
_cell_length_b   3.39927214
_cell_length_c   39.43005308
_cell_angle_alpha   89.99906016
_cell_angle_beta   90.00000000
_cell_angle_gamma   120.00018122
_symmetry_Int_Tables_number   1
_chemical_formula_structural   Te2MoWSeS
_chemical_formula_sum   'Te4 Mo2 W2 Se2 S2'
_cell_volume   394.57671121
_cell_formula_units_Z   2
loop_
 _symmetry_equiv_pos_site_id
 _symmetry_equiv_pos_as_xyz
  1  'x, y, z'
loop_
 _atom_site_type_symbol
 _atom_site_label
 _atom_site_symmetry_multiplicity
 _atom_site_fract_x
 _atom_site_fract_y
 _atom_site_fract_z
 _atom_site_occupancy
  Te  Te0  1  0.333336  0.666672  0.328738  1
  Te  Te1  1  0.666661  0.333321  0.422280  1
  Te  Te2  1  0.666634  0.333268  0.517776  1
  Te  Te3  1  0.333464  0.666929  0.233740  1
  Mo  Mo4  1  0.333290  0.666579  0.093918  1
  Mo  Mo5  1  0.666729  0.333457  0.281274  1
  W  W6  1  0.333307  0.666613  0.470061  1
  W  W7  1  0.666660  0.333321  0.657699  1
  Se  Se8  1  0.333319  0.666639  0.699633  1
  Se  Se9  1  0.333335  0.666671  0.615715  1
  S  S10  1  0.666639  0.333276  0.055826  1
  S  S11  1  0.666627  0.333253  0.132088  1
