# generated using pymatgen
data_Pr3CuSnSe7
_symmetry_space_group_name_H-M   'P 1'
_cell_length_a   10.70830192
_cell_length_b   10.70830192
_cell_length_c   6.36492702
_cell_angle_alpha   90.00000000
_cell_angle_beta   90.00000000
_cell_angle_gamma   120.00000002
_symmetry_Int_Tables_number   1
_chemical_formula_structural   Pr3CuSnSe7
_chemical_formula_sum   'Pr6 Cu2 Sn2 Se14'
_cell_volume   632.07014155
_cell_formula_units_Z   2
loop_
 _symmetry_equiv_pos_site_id
 _symmetry_equiv_pos_as_xyz
  1  'x, y, z'
loop_
 _atom_site_type_symbol
 _atom_site_label
 _atom_site_symmetry_multiplicity
 _atom_site_fract_x
 _atom_site_fract_y
 _atom_site_fract_z
 _atom_site_occupancy
  Cu  Cu0  1  0.000000  0.000000  0.508746  1
  Cu  Cu1  1  0.000000  0.000000  0.008746  1
  Se  Se2  1  0.486952  0.572296  0.212974  1
  Se  Se3  1  0.914656  0.486952  0.712974  1
  Se  Se4  1  0.572296  0.085344  0.712974  1
  Se  Se5  1  0.427704  0.914656  0.212974  1
  Se  Se6  1  0.333333  0.666667  0.782910  1
  Se  Se7  1  0.666667  0.333333  0.282910  1
  Se  Se8  1  0.085344  0.513048  0.212974  1
  Se  Se9  1  0.513048  0.427704  0.712974  1
  Se  Se10  1  0.256228  0.099825  0.996008  1
  Se  Se11  1  0.156403  0.256228  0.496008  1
  Se  Se12  1  0.099825  0.843597  0.496008  1
  Se  Se13  1  0.900175  0.156403  0.996008  1
  Se  Se14  1  0.843597  0.743772  0.996008  1
  Se  Se15  1  0.743772  0.900175  0.496008  1
  Sn  Sn16  1  0.666667  0.333333  0.886439  1
  Sn  Sn17  1  0.333333  0.666667  0.386439  1
  Pr  Pr18  1  0.644834  0.864372  0.963986  1
  Pr  Pr19  1  0.780461  0.644834  0.463986  1
  Pr  Pr20  1  0.864372  0.219539  0.463986  1
  Pr  Pr21  1  0.135628  0.780461  0.963986  1
  Pr  Pr22  1  0.219539  0.355166  0.963986  1
  Pr  Pr23  1  0.355166  0.135628  0.463986  1
