# generated using pymatgen
data_Cr3N2
_symmetry_space_group_name_H-M   'P 1'
_cell_length_a   4.77598883
_cell_length_b   5.17852221
_cell_length_c   7.41674214
_cell_angle_alpha   90.00000000
_cell_angle_beta   90.00000000
_cell_angle_gamma   90.00000000
_symmetry_Int_Tables_number   1
_chemical_formula_structural   Cr3N2
_chemical_formula_sum   'Cr12 N8'
_cell_volume   183.43505136
_cell_formula_units_Z   4
loop_
 _symmetry_equiv_pos_site_id
 _symmetry_equiv_pos_as_xyz
  1  'x, y, z'
loop_
 _atom_site_type_symbol
 _atom_site_label
 _atom_site_symmetry_multiplicity
 _atom_site_fract_x
 _atom_site_fract_y
 _atom_site_fract_z
 _atom_site_occupancy
  Cr  Cr0  1  0.388055  0.602681  0.835477  1
  Cr  Cr1  1  0.111945  0.102681  0.664523  1
  Cr  Cr2  1  0.111945  0.397319  0.335477  1
  Cr  Cr3  1  0.388055  0.897319  0.164523  1
  Cr  Cr4  1  0.611945  0.397319  0.164523  1
  Cr  Cr5  1  0.888055  0.897319  0.335477  1
  Cr  Cr6  1  0.888055  0.602681  0.664523  1
  Cr  Cr7  1  0.611945  0.102681  0.835477  1
  Cr  Cr8  1  0.930826  0.750000  0.000000  1
  Cr  Cr9  1  0.569174  0.250000  0.500000  1
  Cr  Cr10  1  0.069174  0.250000  0.000000  1
  Cr  Cr11  1  0.430826  0.750000  0.500000  1
  N  N12  1  0.251154  0.547002  0.107752  1
  N  N13  1  0.248846  0.047002  0.392248  1
  N  N14  1  0.248846  0.452998  0.607752  1
  N  N15  1  0.251154  0.952998  0.892248  1
  N  N16  1  0.748846  0.452998  0.892248  1
  N  N17  1  0.751154  0.952998  0.607752  1
  N  N18  1  0.751154  0.547002  0.392248  1
  N  N19  1  0.748846  0.047002  0.107752  1
