# generated using pymatgen
data_AgO
_symmetry_space_group_name_H-M   'P 1'
_cell_length_a   6.80213705
_cell_length_b   6.80213704
_cell_length_c   6.80213704
_cell_angle_alpha   92.57854219
_cell_angle_beta   118.52261321
_cell_angle_gamma   118.52261319
_symmetry_Int_Tables_number   1
_chemical_formula_structural   AgO
_chemical_formula_sum   'Ag8 O8'
_cell_volume   227.26733221
_cell_formula_units_Z   8
loop_
 _symmetry_equiv_pos_site_id
 _symmetry_equiv_pos_as_xyz
  1  'x, y, z'
loop_
 _atom_site_type_symbol
 _atom_site_label
 _atom_site_symmetry_multiplicity
 _atom_site_fract_x
 _atom_site_fract_y
 _atom_site_fract_z
 _atom_site_occupancy
  O  O0  1  0.591705  0.295223  0.873399  1
  O  O1  1  0.578176  0.373399  0.281694  1
  O  O2  1  0.921824  0.203518  0.795223  1
  O  O3  1  0.908295  0.781694  0.703518  1
  O  O4  1  0.408295  0.704777  0.126601  1
  O  O5  1  0.421824  0.626601  0.718306  1
  O  O6  1  0.078176  0.796482  0.204777  1
  O  O7  1  0.091705  0.218306  0.296482  1
  Ag  Ag8  1  0.500000  0.000000  0.500000  1
  Ag  Ag9  1  0.500000  0.000000  0.000000  1
  Ag  Ag10  1  0.000000  0.000000  0.500000  1
  Ag  Ag11  1  0.000000  0.500000  0.500000  1
  Ag  Ag12  1  0.500000  0.500000  0.000000  1
  Ag  Ag13  1  0.500000  0.500000  0.500000  1
  Ag  Ag14  1  0.000000  0.500000  0.000000  1
  Ag  Ag15  1  0.000000  0.000000  0.000000  1
