# generated using pymatgen
data_NaB(SO4)2
_symmetry_space_group_name_H-M   'P 1'
_cell_length_a   5.55282644
_cell_length_b   7.68753202
_cell_length_c   7.88599155
_cell_angle_alpha   90.00000000
_cell_angle_beta   108.66518002
_cell_angle_gamma   90.00000000
_symmetry_Int_Tables_number   1
_chemical_formula_structural   NaB(SO4)2
_chemical_formula_sum   'Na2 B2 S4 O16'
_cell_volume   318.92825188
_cell_formula_units_Z   2
loop_
 _symmetry_equiv_pos_site_id
 _symmetry_equiv_pos_as_xyz
  1  'x, y, z'
loop_
 _atom_site_type_symbol
 _atom_site_label
 _atom_site_symmetry_multiplicity
 _atom_site_fract_x
 _atom_site_fract_y
 _atom_site_fract_z
 _atom_site_occupancy
  Na  Na0  1  0.500000  0.432952  0.750000  1
  Na  Na1  1  0.500000  0.567048  0.250000  1
  B  B2  1  -0.000000  0.041936  0.250000  1
  B  B3  1  -0.000000  0.958064  0.750000  1
  S  S4  1  0.129769  0.776805  0.496159  1
  S  S5  1  0.870231  0.776805  0.003841  1
  S  S6  1  0.870231  0.223195  0.503841  1
  S  S7  1  0.129769  0.223195  0.996159  1
  O  O8  1  0.873180  0.715030  0.417588  1
  O  O9  1  0.126820  0.715030  0.082412  1
  O  O10  1  0.126820  0.284970  0.582412  1
  O  O11  1  0.873180  0.284970  0.917588  1
  O  O12  1  0.178792  0.939120  0.394040  1
  O  O13  1  0.821208  0.939120  0.105960  1
  O  O14  1  0.821208  0.060880  0.605960  1
  O  O15  1  0.178792  0.060880  0.894040  1
  O  O16  1  0.173591  0.846218  0.687721  1
  O  O17  1  0.826409  0.846218  0.812279  1
  O  O18  1  0.826409  0.153782  0.312279  1
  O  O19  1  0.173591  0.153782  0.187721  1
  O  O20  1  0.334904  0.656555  0.510700  1
  O  O21  1  0.665096  0.656555  0.989300  1
  O  O22  1  0.665096  0.343445  0.489300  1
  O  O23  1  0.334904  0.343445  0.010700  1
