# generated using pymatgen
data_Ni5P4
_symmetry_space_group_name_H-M   'P 1'
_cell_length_a   6.77860358
_cell_length_b   6.77860358
_cell_length_c   10.97781270
_cell_angle_alpha   90.00000000
_cell_angle_beta   90.00000000
_cell_angle_gamma   120.00000001
_symmetry_Int_Tables_number   1
_chemical_formula_structural   Ni5P4
_chemical_formula_sum   'Ni20 P16'
_cell_volume   436.84454962
_cell_formula_units_Z   4
loop_
 _symmetry_equiv_pos_site_id
 _symmetry_equiv_pos_as_xyz
  1  'x, y, z'
loop_
 _atom_site_type_symbol
 _atom_site_label
 _atom_site_symmetry_multiplicity
 _atom_site_fract_x
 _atom_site_fract_y
 _atom_site_fract_z
 _atom_site_occupancy
  P  P0  1  0.666667  0.333333  0.558940  1
  P  P1  1  0.333333  0.666667  0.058940  1
  P  P2  1  0.000000  0.000000  0.500191  1
  P  P3  1  0.000000  0.000000  0.000191  1
  P  P4  1  0.821008  0.178992  0.942271  1
  P  P5  1  0.642015  0.821008  0.442271  1
  P  P6  1  0.178992  0.357985  0.442271  1
  P  P7  1  0.821008  0.642015  0.942271  1
  P  P8  1  0.357985  0.178992  0.942271  1
  P  P9  1  0.178992  0.821008  0.442271  1
  P  P10  1  0.181912  0.818088  0.731556  1
  P  P11  1  0.363825  0.181912  0.231556  1
  P  P12  1  0.818088  0.636175  0.231556  1
  P  P13  1  0.181912  0.363825  0.731556  1
  P  P14  1  0.636175  0.818088  0.731556  1
  P  P15  1  0.818088  0.181912  0.231556  1
  Ni  Ni16  1  0.919030  0.459515  0.379830  1
  Ni  Ni17  1  0.459515  0.540485  0.879830  1
  Ni  Ni18  1  0.000000  0.000000  0.199464  1
  Ni  Ni19  1  0.000000  0.000000  0.699464  1
  Ni  Ni20  1  0.540485  0.080969  0.379830  1
  Ni  Ni21  1  0.459515  0.919030  0.879830  1
  Ni  Ni22  1  0.080969  0.540485  0.879830  1
  Ni  Ni23  1  0.540485  0.459515  0.379830  1
  Ni  Ni24  1  0.792967  0.207033  0.737654  1
  Ni  Ni25  1  0.585934  0.792967  0.237654  1
  Ni  Ni26  1  0.207033  0.414066  0.237654  1
  Ni  Ni27  1  0.792967  0.585934  0.737654  1
  Ni  Ni28  1  0.414066  0.207033  0.737654  1
  Ni  Ni29  1  0.207033  0.792967  0.237654  1
  Ni  Ni30  1  0.462934  0.537066  0.589047  1
  Ni  Ni31  1  0.925869  0.462934  0.089047  1
  Ni  Ni32  1  0.537066  0.074131  0.089047  1
  Ni  Ni33  1  0.462934  0.925869  0.589047  1
  Ni  Ni34  1  0.074131  0.537066  0.589047  1
  Ni  Ni35  1  0.537066  0.462934  0.089047  1
