# generated using pymatgen
data_Er3FeSi3
_symmetry_space_group_name_H-M   'P 1'
_cell_length_a   4.13176630
_cell_length_b   5.59886541
_cell_length_c   12.66945993
_cell_angle_alpha   84.96993623
_cell_angle_beta   80.61544101
_cell_angle_gamma   68.34712322
_symmetry_Int_Tables_number   1
_chemical_formula_structural   Er3FeSi3
_chemical_formula_sum   'Er6 Fe2 Si6'
_cell_volume   268.63722970
_cell_formula_units_Z   2
loop_
 _symmetry_equiv_pos_site_id
 _symmetry_equiv_pos_as_xyz
  1  'x, y, z'
loop_
 _atom_site_type_symbol
 _atom_site_label
 _atom_site_symmetry_multiplicity
 _atom_site_fract_x
 _atom_site_fract_y
 _atom_site_fract_z
 _atom_site_occupancy
  Si  Si0  1  0.143979  0.255436  0.456606  1
  Si  Si1  1  0.856021  0.744564  0.543394  1
  Si  Si2  1  0.114018  0.847390  0.924573  1
  Si  Si3  1  0.885981  0.152610  0.075427  1
  Si  Si4  1  0.054835  0.132441  0.757890  1
  Si  Si5  1  0.945165  0.867559  0.242110  1
  Fe  Fe6  1  0.753144  0.078278  0.415435  1
  Fe  Fe7  1  0.246856  0.921722  0.584565  1
  Er  Er8  1  0.748459  0.732989  0.770093  1
  Er  Er9  1  0.251541  0.267011  0.229907  1
  Er  Er10  1  0.523829  0.331842  0.620500  1
  Er  Er11  1  0.476171  0.668158  0.379500  1
  Er  Er12  1  0.398873  0.283065  0.919189  1
  Er  Er13  1  0.601127  0.716935  0.080811  1
