# generated using pymatgen
data_TmNiO3
_symmetry_space_group_name_H-M   'P 1'
_cell_length_a   5.14549831
_cell_length_b   5.64218469
_cell_length_c   7.34581187
_cell_angle_alpha   90.00000000
_cell_angle_beta   89.89357175
_cell_angle_gamma   90.00000000
_symmetry_Int_Tables_number   1
_chemical_formula_structural   TmNiO3
_chemical_formula_sum   'Tm4 Ni4 O12'
_cell_volume   213.26215338
_cell_formula_units_Z   4
loop_
 _symmetry_equiv_pos_site_id
 _symmetry_equiv_pos_as_xyz
  1  'x, y, z'
loop_
 _atom_site_type_symbol
 _atom_site_label
 _atom_site_symmetry_multiplicity
 _atom_site_fract_x
 _atom_site_fract_y
 _atom_site_fract_z
 _atom_site_occupancy
  O  O0  1  0.694708  0.314186  0.444663  1
  O  O1  1  0.805293  0.814185  0.055336  1
  O  O2  1  0.305292  0.685816  0.555336  1
  O  O3  1  0.194708  0.185814  0.944663  1
  O  O4  1  0.195384  0.185034  0.555647  1
  O  O5  1  0.304616  0.685034  0.944353  1
  O  O6  1  0.804616  0.814967  0.444353  1
  O  O7  1  0.695383  0.314965  0.055647  1
  O  O8  1  0.115415  0.463149  0.250619  1
  O  O9  1  0.384586  0.963148  0.249381  1
  O  O10  1  0.615416  0.036851  0.750619  1
  O  O11  1  0.884584  0.536852  0.749382  1
  Ni  Ni12  1  0.000000  0.500000  0.000000  1
  Ni  Ni13  1  0.500001  0.000000  0.500001  1
  Ni  Ni14  1  0.000001  0.500000  0.500000  1
  Ni  Ni15  1  0.500000  0.000000  1.000000  1
  Tm  Tm16  1  0.475721  0.415181  0.749744  1
  Tm  Tm17  1  0.024279  0.915181  0.750256  1
  Tm  Tm18  1  0.524278  0.584820  0.250256  1
  Tm  Tm19  1  0.975721  0.084819  0.249744  1
