# generated using pymatgen
data_CrN2
_symmetry_space_group_name_H-M   'P 1'
_cell_length_a   9.17678558
_cell_length_b   13.71966079
_cell_length_c   13.71966157
_cell_angle_alpha   109.08348540
_cell_angle_beta   90.00000000
_cell_angle_gamma   90.00000000
_symmetry_Int_Tables_number   1
_chemical_formula_structural   CrN2
_chemical_formula_sum   'Cr24 N48'
_cell_volume   1632.40912187
_cell_formula_units_Z   24
loop_
 _symmetry_equiv_pos_site_id
 _symmetry_equiv_pos_as_xyz
  1  'x, y, z'
loop_
 _atom_site_type_symbol
 _atom_site_label
 _atom_site_symmetry_multiplicity
 _atom_site_fract_x
 _atom_site_fract_y
 _atom_site_fract_z
 _atom_site_occupancy
  Cr  Cr0  1  0.063160  0.773516  0.226484  1
  Cr  Cr1  1  0.936840  0.226484  0.773516  1
  Cr  Cr2  1  0.436840  0.773516  0.226484  1
  Cr  Cr3  1  0.563160  0.226484  0.773516  1
  Cr  Cr4  1  0.063735  0.622930  0.377070  1
  Cr  Cr5  1  0.936265  0.377070  0.622930  1
  Cr  Cr6  1  0.436265  0.622930  0.377070  1
  Cr  Cr7  1  0.563735  0.377070  0.622930  1
  Cr  Cr8  1  0.937874  0.760279  0.617877  1
  Cr  Cr9  1  0.062126  0.617877  0.760279  1
  Cr  Cr10  1  0.562126  0.760279  0.617877  1
  Cr  Cr11  1  0.437874  0.617877  0.760279  1
  Cr  Cr12  1  0.062126  0.239721  0.382123  1
  Cr  Cr13  1  0.937874  0.382123  0.239721  1
  Cr  Cr14  1  0.437874  0.239721  0.382123  1
  Cr  Cr15  1  0.562126  0.382123  0.239721  1
  Cr  Cr16  1  0.937812  0.004732  0.382793  1
  Cr  Cr17  1  0.062188  0.382793  0.004732  1
  Cr  Cr18  1  0.562188  0.004732  0.382793  1
  Cr  Cr19  1  0.437812  0.382793  0.004732  1
  Cr  Cr20  1  0.062188  0.995268  0.617207  1
  Cr  Cr21  1  0.937812  0.617207  0.995268  1
  Cr  Cr22  1  0.437812  0.995268  0.617207  1
  Cr  Cr23  1  0.562188  0.617207  0.995268  1
  N  N24  1  0.250000  0.780951  0.219049  1
  N  N25  1  0.750000  0.219049  0.780951  1
  N  N26  1  0.250000  0.614034  0.385966  1
  N  N27  1  0.750000  0.385966  0.614034  1
  N  N28  1  0.750000  0.761426  0.618838  1
  N  N29  1  0.250000  0.618838  0.761426  1
  N  N30  1  0.250000  0.238574  0.381162  1
  N  N31  1  0.750000  0.381162  0.238574  1
  N  N32  1  0.750000  0.006647  0.386868  1
  N  N33  1  0.250000  0.386868  0.006647  1
  N  N34  1  0.250000  0.993353  0.613132  1
  N  N35  1  0.750000  0.613132  0.993353  1
  N  N36  1  0.023771  0.698201  0.301799  1
  N  N37  1  -0.023771  0.301799  0.698201  1
  N  N38  1  0.476229  0.698201  0.301799  1
  N  N39  1  0.523771  0.301799  0.698201  1
  N  N40  1  -0.004876  0.679616  0.499624  1
  N  N41  1  0.004876  0.499624  0.679616  1
  N  N42  1  0.504876  0.679616  0.499624  1
  N  N43  1  0.495124  0.499624  0.679616  1
  N  N44  1  0.004876  0.320384  0.500376  1
  N  N45  1  -0.004876  0.500376  0.320384  1
  N  N46  1  0.495124  0.320384  0.500376  1
  N  N47  1  0.504876  0.500376  0.320384  1
  N  N48  1  -0.000000  0.712044  0.712044  1
  N  N49  1  0.500000  0.712044  0.712044  1
  N  N50  1  -0.000000  0.287956  0.287956  1
  N  N51  1  0.500000  0.287956  0.287956  1
  N  N52  1  0.001772  0.883703  0.636817  1
  N  N53  1  -0.001772  0.636817  0.883703  1
  N  N54  1  0.498228  0.883703  0.636817  1
  N  N55  1  0.501772  0.636817  0.883703  1
  N  N56  1  -0.001772  0.116297  0.363183  1
  N  N57  1  0.001772  0.363183  0.116297  1
  N  N58  1  0.501772  0.116297  0.363183  1
  N  N59  1  0.498228  0.363183  0.116297  1
  N  N60  1  -0.000000  0.000000  0.500000  1
  N  N61  1  -0.000000  0.500000  -0.000000  1
  N  N62  1  0.500000  0.000000  0.500000  1
  N  N63  1  0.500000  0.500000  -0.000000  1
  N  N64  1  0.994607  0.896311  0.284787  1
  N  N65  1  0.005393  0.284787  0.896311  1
  N  N66  1  0.505393  0.896311  0.284787  1
  N  N67  1  0.494607  0.284787  0.896311  1
  N  N68  1  0.005393  0.103689  0.715213  1
  N  N69  1  0.994607  0.715213  0.103689  1
  N  N70  1  0.494607  0.103689  0.715213  1
  N  N71  1  0.505393  0.715213  0.103689  1
