# generated using pymatgen
data_BaYb2NiO5
_symmetry_space_group_name_H-M   'P 1'
_cell_length_a   3.79854379
_cell_length_b   5.71701213
_cell_length_c   6.41727098
_cell_angle_alpha   116.45138409
_cell_angle_beta   107.21466607
_cell_angle_gamma   90.00031312
_symmetry_Int_Tables_number   1
_chemical_formula_structural   BaYb2NiO5
_chemical_formula_sum   'Ba1 Yb2 Ni1 O5'
_cell_volume   117.75634709
_cell_formula_units_Z   1
loop_
 _symmetry_equiv_pos_site_id
 _symmetry_equiv_pos_as_xyz
  1  'x, y, z'
loop_
 _atom_site_type_symbol
 _atom_site_label
 _atom_site_symmetry_multiplicity
 _atom_site_fract_x
 _atom_site_fract_y
 _atom_site_fract_z
 _atom_site_occupancy
  O  O0  1  0.500000  0.000000  0.000001  1
  O  O1  1  0.134474  0.906375  0.269046  1
  O  O2  1  0.865528  0.093627  0.730960  1
  O  O3  1  0.865537  0.637343  0.730972  1
  O  O4  1  0.134465  0.362660  0.269032  1
  Ni  Ni5  1  -0.000012  -0.000012  -0.000024  1
  Ba  Ba6  1  0.500006  0.500006  0.000012  1
  Yb  Yb7  1  0.292425  0.792422  0.584845  1
  Yb  Yb8  1  0.707575  0.207579  0.415157  1
