# generated using pymatgen
data_TeMoWSeS2
_symmetry_space_group_name_H-M   'P 1'
_cell_length_a   3.30664649
_cell_length_b   3.30656730
_cell_length_c   37.59305645
_cell_angle_alpha   90.00000094
_cell_angle_beta   90.00000000
_cell_angle_gamma   120.00079232
_symmetry_Int_Tables_number   1
_chemical_formula_structural   TeMoWSeS2
_chemical_formula_sum   'Te2 Mo2 W2 Se2 S4'
_cell_volume   355.95896500
_cell_formula_units_Z   2
loop_
 _symmetry_equiv_pos_site_id
 _symmetry_equiv_pos_as_xyz
  1  'x, y, z'
loop_
 _atom_site_type_symbol
 _atom_site_label
 _atom_site_symmetry_multiplicity
 _atom_site_fract_x
 _atom_site_fract_y
 _atom_site_fract_z
 _atom_site_occupancy
  Te  Te0  1  0.666648  0.333294  0.043095  1
  Te  Te1  1  0.666649  0.333298  0.144743  1
  Mo  Mo2  1  0.333311  0.666622  0.093898  1
  Mo  Mo3  1  0.666697  0.333395  0.281816  1
  W  W4  1  0.333311  0.666622  0.469655  1
  W  W5  1  0.666690  0.333380  0.657537  1
  Se  Se6  1  0.333351  0.666703  0.702394  1
  Se  Se7  1  0.333352  0.666704  0.612674  1
  S  S8  1  0.333351  0.666702  0.322471  1
  S  S9  1  0.666644  0.333287  0.428874  1
  S  S10  1  0.666643  0.333286  0.510439  1
  S  S11  1  0.333353  0.666707  0.241151  1
