# generated using pymatgen
data_CsC10
_symmetry_space_group_name_H-M   'P 1'
_cell_length_a   10.40757189
_cell_length_b   10.40757189
_cell_length_c   10.40757189
_cell_angle_alpha   109.47122064
_cell_angle_beta   109.47122063
_cell_angle_gamma   109.47122064
_symmetry_Int_Tables_number   1
_chemical_formula_structural   CsC10
_chemical_formula_sum   'Cs6 C60'
_cell_volume   867.81343118
_cell_formula_units_Z   6
loop_
 _symmetry_equiv_pos_site_id
 _symmetry_equiv_pos_as_xyz
  1  'x, y, z'
loop_
 _atom_site_type_symbol
 _atom_site_label
 _atom_site_symmetry_multiplicity
 _atom_site_fract_x
 _atom_site_fract_y
 _atom_site_fract_z
 _atom_site_occupancy
  C  C0  1  0.350878  0.059540  0.291339  1
  C  C1  1  0.059540  0.708661  0.768201  1
  C  C2  1  0.291339  0.231799  0.940460  1
  C  C3  1  0.940460  0.708661  0.649122  1
  C  C4  1  0.708661  0.768201  0.059540  1
  C  C5  1  0.940460  0.291339  0.231799  1
  C  C6  1  0.708661  0.649122  0.940460  1
  C  C7  1  0.291339  0.350878  0.059540  1
  C  C8  1  0.059540  0.291339  0.350878  1
  C  C9  1  0.768201  0.059540  0.708661  1
  C  C10  1  0.231799  0.940460  0.291339  1
  C  C11  1  0.649122  0.940460  0.708661  1
  C  C12  1  0.351394  0.373522  0.217274  1
  C  C13  1  0.134120  0.782726  0.156248  1
  C  C14  1  0.977872  0.843752  0.626478  1
  C  C15  1  0.865880  0.022128  0.648606  1
  C  C16  1  0.782726  0.156248  0.134120  1
  C  C17  1  0.626478  0.977872  0.843752  1
  C  C18  1  0.022128  0.648606  0.865880  1
  C  C19  1  0.217274  0.351394  0.373522  1
  C  C20  1  0.373522  0.217274  0.351394  1
  C  C21  1  0.156248  0.134120  0.782726  1
  C  C22  1  0.843752  0.626478  0.977872  1
  C  C23  1  0.648606  0.865880  0.022128  1
  C  C24  1  0.648606  0.626478  0.782726  1
  C  C25  1  0.865880  0.217274  0.843752  1
  C  C26  1  0.022128  0.156248  0.373522  1
  C  C27  1  0.134120  0.977872  0.351394  1
  C  C28  1  0.217274  0.843752  0.865880  1
  C  C29  1  0.373522  0.022128  0.156248  1
  C  C30  1  0.977872  0.351394  0.134120  1
  C  C31  1  0.782726  0.648606  0.626478  1
  C  C32  1  0.626478  0.782726  0.648606  1
  C  C33  1  0.843752  0.865880  0.217274  1
  C  C34  1  0.156248  0.373522  0.022128  1
  C  C35  1  0.351394  0.134120  0.977872  1
  C  C36  1  0.410114  0.276964  0.253573  1
  C  C37  1  0.156541  0.746427  0.023391  1
  C  C38  1  0.133150  0.976609  0.723036  1
  C  C39  1  0.843459  0.866850  0.589886  1
  C  C40  1  0.746427  0.023391  0.156541  1
  C  C41  1  0.723036  0.133150  0.976609  1
  C  C42  1  0.866850  0.589886  0.843459  1
  C  C43  1  0.253573  0.410114  0.276964  1
  C  C44  1  0.276964  0.253573  0.410114  1
  C  C45  1  0.023391  0.156541  0.746427  1
  C  C46  1  0.976609  0.723036  0.133150  1
  C  C47  1  0.589886  0.843459  0.866850  1
  C  C48  1  0.589886  0.723036  0.746427  1
  C  C49  1  0.843459  0.253573  0.976609  1
  C  C50  1  0.866850  0.023391  0.276964  1
  C  C51  1  0.156541  0.133150  0.410114  1
  C  C52  1  0.253573  0.976609  0.843459  1
  C  C53  1  0.276964  0.866850  0.023391  1
  C  C54  1  0.133150  0.410114  0.156541  1
  C  C55  1  0.746427  0.589886  0.723036  1
  C  C56  1  0.723036  0.746427  0.589886  1
  C  C57  1  0.976609  0.843459  0.253573  1
  C  C58  1  0.023391  0.276964  0.866850  1
  C  C59  1  0.410114  0.156541  0.133150  1
  Cs  Cs60  1  0.500000  0.777307  0.277307  1
  Cs  Cs61  1  0.222693  0.722693  0.500000  1
  Cs  Cs62  1  0.722693  0.500000  0.222693  1
  Cs  Cs63  1  0.777307  0.277307  0.500000  1
  Cs  Cs64  1  0.277307  0.500000  0.777307  1
  Cs  Cs65  1  0.500000  0.222693  0.722693  1
