# generated using pymatgen
data_SrP3
_symmetry_space_group_name_H-M   'P 1'
_cell_length_a   5.74408841
_cell_length_b   5.90416269
_cell_length_c   5.90416268
_cell_angle_alpha   77.02214046
_cell_angle_beta   71.89738576
_cell_angle_gamma   71.89738582
_symmetry_Int_Tables_number   1
_chemical_formula_structural   SrP3
_chemical_formula_sum   'Sr2 P6'
_cell_volume   179.07641160
_cell_formula_units_Z   2
loop_
 _symmetry_equiv_pos_site_id
 _symmetry_equiv_pos_as_xyz
  1  'x, y, z'
loop_
 _atom_site_type_symbol
 _atom_site_label
 _atom_site_symmetry_multiplicity
 _atom_site_fract_x
 _atom_site_fract_y
 _atom_site_fract_z
 _atom_site_occupancy
  P  P0  1  0.309186  0.988597  0.988597  1
  P  P1  1  0.690814  0.011403  0.011403  1
  P  P2  1  0.679060  0.395010  0.885241  1
  P  P3  1  0.320940  0.114759  0.604990  1
  P  P4  1  0.320940  0.604990  0.114759  1
  P  P5  1  0.679060  0.885241  0.395010  1
  Sr  Sr6  1  0.147507  0.662990  0.662990  1
  Sr  Sr7  1  0.852493  0.337010  0.337010  1
