# generated using pymatgen
data_CsSm2CuSe4
_symmetry_space_group_name_H-M   'P 1'
_cell_length_a   4.23335898
_cell_length_b   7.73186796
_cell_length_c   14.67989493
_cell_angle_alpha   90.00000000
_cell_angle_beta   90.00000000
_cell_angle_gamma   105.88815744
_symmetry_Int_Tables_number   1
_chemical_formula_structural   CsSm2CuSe4
_chemical_formula_sum   'Cs2 Sm4 Cu2 Se8'
_cell_volume   462.14292033
_cell_formula_units_Z   2
loop_
 _symmetry_equiv_pos_site_id
 _symmetry_equiv_pos_as_xyz
  1  'x, y, z'
loop_
 _atom_site_type_symbol
 _atom_site_label
 _atom_site_symmetry_multiplicity
 _atom_site_fract_x
 _atom_site_fract_y
 _atom_site_fract_z
 _atom_site_occupancy
  Cu  Cu0  1  0.834224  0.668447  0.750000  1
  Cu  Cu1  1  0.165776  0.331553  0.250000  1
  Se  Se2  1  0.578060  0.156120  0.250000  1
  Se  Se3  1  0.421940  0.843880  0.750000  1
  Se  Se4  1  0.258597  0.517194  0.108906  1
  Se  Se5  1  0.741403  0.482806  0.891094  1
  Se  Se6  1  0.000000  0.000000  0.500000  1
  Se  Se7  1  0.000000  0.000000  0.000000  1
  Se  Se8  1  0.258597  0.517194  0.391094  1
  Se  Se9  1  0.741403  0.482806  0.608906  1
  Cs  Cs10  1  0.106805  0.213611  0.750000  1
  Cs  Cs11  1  0.893195  0.786389  0.250000  1
  Sm  Sm12  1  0.634094  0.268187  0.061992  1
  Sm  Sm13  1  0.365906  0.731813  0.938008  1
  Sm  Sm14  1  0.634094  0.268187  0.438008  1
  Sm  Sm15  1  0.365906  0.731813  0.561992  1
