# generated using pymatgen
data_Ho3Al5O12
_symmetry_space_group_name_H-M   'P 1'
_cell_length_a   10.46095274
_cell_length_b   10.46095275
_cell_length_c   10.46095275
_cell_angle_alpha   109.47122064
_cell_angle_beta   109.47122065
_cell_angle_gamma   109.47122064
_symmetry_Int_Tables_number   1
_chemical_formula_structural   Ho3Al5O12
_chemical_formula_sum   'Ho12 Al20 O48'
_cell_volume   881.23518777
_cell_formula_units_Z   4
loop_
 _symmetry_equiv_pos_site_id
 _symmetry_equiv_pos_as_xyz
  1  'x, y, z'
loop_
 _atom_site_type_symbol
 _atom_site_label
 _atom_site_symmetry_multiplicity
 _atom_site_fract_x
 _atom_site_fract_y
 _atom_site_fract_z
 _atom_site_occupancy
  O  O0  1  0.979089  0.679305  0.098270  1
  O  O1  1  0.820695  0.799785  0.418965  1
  O  O2  1  0.401730  0.081035  0.880819  1
  O  O3  1  0.520911  0.619181  0.700215  1
  O  O4  1  0.520911  0.401730  0.820695  1
  O  O5  1  0.619181  0.700215  0.520911  1
  O  O6  1  0.081035  0.700215  0.679305  1
  O  O7  1  0.700215  0.520911  0.619181  1
  O  O8  1  0.418965  0.098270  0.619181  1
  O  O9  1  0.799785  0.880819  0.979089  1
  O  O10  1  0.880819  0.979089  0.799785  1
  O  O11  1  0.820695  0.520911  0.401730  1
  O  O12  1  0.700215  0.679305  0.081035  1
  O  O13  1  0.619181  0.418965  0.098270  1
  O  O14  1  0.401730  0.820695  0.520911  1
  O  O15  1  0.679305  0.081035  0.700215  1
  O  O16  1  0.098270  0.619181  0.418965  1
  O  O17  1  0.418965  0.820695  0.799785  1
  O  O18  1  0.081035  0.880819  0.401730  1
  O  O19  1  0.581035  0.901730  0.380819  1
  O  O20  1  0.880819  0.401730  0.081035  1
  O  O21  1  0.098270  0.979089  0.679305  1
  O  O22  1  0.799785  0.418965  0.820695  1
  O  O23  1  0.979089  0.799785  0.880819  1
  O  O24  1  0.020911  0.320695  0.901730  1
  O  O25  1  0.179305  0.200215  0.581035  1
  O  O26  1  0.598270  0.918965  0.119181  1
  O  O27  1  0.479089  0.380819  0.299785  1
  O  O28  1  0.479089  0.598270  0.179305  1
  O  O29  1  0.380819  0.299785  0.479089  1
  O  O30  1  0.918965  0.299785  0.320695  1
  O  O31  1  0.299785  0.479089  0.380819  1
  O  O32  1  0.020911  0.200215  0.119181  1
  O  O33  1  0.200215  0.581035  0.179305  1
  O  O34  1  0.901730  0.020911  0.320695  1
  O  O35  1  0.320695  0.901730  0.020911  1
  O  O36  1  0.119181  0.598270  0.918965  1
  O  O37  1  0.918965  0.119181  0.598270  1
  O  O38  1  0.581035  0.179305  0.200215  1
  O  O39  1  0.901730  0.380819  0.581035  1
  O  O40  1  0.320695  0.918965  0.299785  1
  O  O41  1  0.598270  0.179305  0.479089  1
  O  O42  1  0.380819  0.581035  0.901730  1
  O  O43  1  0.299785  0.320695  0.918965  1
  O  O44  1  0.179305  0.479089  0.598270  1
  O  O45  1  0.119181  0.020911  0.200215  1
  O  O46  1  0.200215  0.119181  0.020911  1
  O  O47  1  0.679305  0.098270  0.979089  1
  Al  Al48  1  0.250000  0.125000  0.875000  1
  Al  Al49  1  0.750000  0.875000  0.125000  1
  Al  Al50  1  0.375000  0.250000  0.625000  1
  Al  Al51  1  0.625000  0.375000  0.250000  1
  Al  Al52  1  0.125000  0.750000  0.875000  1
  Al  Al53  1  0.875000  0.125000  0.750000  1
  Al  Al54  1  0.750000  0.375000  0.625000  1
  Al  Al55  1  0.375000  0.625000  0.750000  1
  Al  Al56  1  0.125000  0.875000  0.250000  1
  Al  Al57  1  0.875000  0.250000  0.125000  1
  Al  Al58  1  0.625000  0.750000  0.375000  1
  Al  Al59  1  0.250000  0.625000  0.375000  1
  Al  Al60  1  0.500000  0.500000  0.500000  1
  Al  Al61  1  0.500000  0.500000  0.000000  1
  Al  Al62  1  0.500000  0.000000  0.500000  1
  Al  Al63  1  0.000000  0.500000  0.500000  1
  Al  Al64  1  0.500000  0.000000  0.000000  1
  Al  Al65  1  0.000000  0.000000  0.500000  1
  Al  Al66  1  0.000000  0.500000  0.000000  1
  Al  Al67  1  0.000000  0.000000  0.000000  1
  Ho  Ho68  1  0.250000  0.875000  0.625000  1
  Ho  Ho69  1  0.875000  0.625000  0.250000  1
  Ho  Ho70  1  0.625000  0.875000  0.750000  1
  Ho  Ho71  1  0.875000  0.750000  0.625000  1
  Ho  Ho72  1  0.625000  0.250000  0.875000  1
  Ho  Ho73  1  0.750000  0.625000  0.875000  1
  Ho  Ho74  1  0.750000  0.125000  0.375000  1
  Ho  Ho75  1  0.125000  0.375000  0.750000  1
  Ho  Ho76  1  0.375000  0.125000  0.250000  1
  Ho  Ho77  1  0.125000  0.250000  0.375000  1
  Ho  Ho78  1  0.375000  0.750000  0.125000  1
  Ho  Ho79  1  0.250000  0.375000  0.125000  1
