# generated using pymatgen
data_TeMo2Se2S
_symmetry_space_group_name_H-M   'P 1'
_cell_length_a   3.34434487
_cell_length_b   3.34433901
_cell_length_c   37.99416145
_cell_angle_alpha   90.00035245
_cell_angle_beta   90.00000852
_cell_angle_gamma   120.00002226
_symmetry_Int_Tables_number   1
_chemical_formula_structural   TeMo2Se2S
_chemical_formula_sum   'Te2 Mo4 Se4 S2'
_cell_volume   368.01773511
_cell_formula_units_Z   2
loop_
 _symmetry_equiv_pos_site_id
 _symmetry_equiv_pos_as_xyz
  1  'x, y, z'
loop_
 _atom_site_type_symbol
 _atom_site_label
 _atom_site_symmetry_multiplicity
 _atom_site_fract_x
 _atom_site_fract_y
 _atom_site_fract_z
 _atom_site_occupancy
  Te  Te0  1  0.333382  0.666766  0.707457  1
  Te  Te1  1  0.333351  0.666703  0.607615  1
  Mo  Mo2  1  0.333301  0.666602  0.093909  1
  Mo  Mo3  1  0.333304  0.666607  0.469649  1
  Mo  Mo4  1  0.666684  0.333368  0.281807  1
  Mo  Mo5  1  0.666693  0.333388  0.657556  1
  Se  Se6  1  0.333350  0.666700  0.325669  1
  Se  Se7  1  0.666638  0.333276  0.050062  1
  Se  Se8  1  0.666633  0.333266  0.137765  1
  Se  Se9  1  0.333347  0.666695  0.237942  1
  S  S10  1  0.666656  0.333311  0.429736  1
  S  S11  1  0.666660  0.333319  0.509580  1
