# generated using pymatgen
data_HfNi
_symmetry_space_group_name_H-M   'P 1'
_cell_length_a   3.23177336
_cell_length_b   4.08005036
_cell_length_c   5.17818365
_cell_angle_alpha   90.00000000
_cell_angle_beta   71.81678200
_cell_angle_gamma   90.00000000
_symmetry_Int_Tables_number   1
_chemical_formula_structural   HfNi
_chemical_formula_sum   'Hf2 Ni2'
_cell_volume   64.86889499
_cell_formula_units_Z   2
loop_
 _symmetry_equiv_pos_site_id
 _symmetry_equiv_pos_as_xyz
  1  'x, y, z'
loop_
 _atom_site_type_symbol
 _atom_site_label
 _atom_site_symmetry_multiplicity
 _atom_site_fract_x
 _atom_site_fract_y
 _atom_site_fract_z
 _atom_site_occupancy
  Hf  Hf0  1  0.139704  0.750000  0.720592  1
  Hf  Hf1  1  0.860296  0.250000  0.279408  1
  Ni  Ni2  1  0.416224  0.750000  0.167552  1
  Ni  Ni3  1  0.583776  0.250000  0.832448  1
