# generated using pymatgen
data_Fe3P
_symmetry_space_group_name_H-M   'P 1'
_cell_length_a   4.38763975
_cell_length_b   6.76178950
_cell_length_c   6.76178949
_cell_angle_alpha   83.95764023
_cell_angle_beta   71.06812595
_cell_angle_gamma   71.06812604
_symmetry_Int_Tables_number   1
_chemical_formula_structural   Fe3P
_chemical_formula_sum   'Fe12 P4'
_cell_volume   179.49374176
_cell_formula_units_Z   4
loop_
 _symmetry_equiv_pos_site_id
 _symmetry_equiv_pos_as_xyz
  1  'x, y, z'
loop_
 _atom_site_type_symbol
 _atom_site_label
 _atom_site_symmetry_multiplicity
 _atom_site_fract_x
 _atom_site_fract_y
 _atom_site_fract_z
 _atom_site_occupancy
  P  P0  1  0.202156  0.246208  0.336227  1
  P  P1  1  0.461617  0.336227  0.753792  1
  P  P2  1  0.551636  0.663773  0.246208  1
  P  P3  1  0.784591  0.753792  0.663773  1
  Fe  Fe4  1  0.352116  0.668742  0.606634  1
  Fe  Fe5  1  0.041249  0.606634  0.331258  1
  Fe  Fe6  1  0.979141  0.393366  0.668742  1
  Fe  Fe7  1  0.627493  0.331258  0.393366  1
  Fe  Fe8  1  0.927756  0.049948  0.609985  1
  Fe  Fe9  1  0.462259  0.609985  0.950052  1
  Fe  Fe10  1  0.022296  0.390015  0.049948  1
  Fe  Fe11  1  0.587689  0.950052  0.390015  1
  Fe  Fe12  1  0.155858  0.972738  0.184774  1
  Fe  Fe13  1  0.659368  0.184774  0.027262  1
  Fe  Fe14  1  0.871404  0.815226  0.972738  1
  Fe  Fe15  1  0.313370  0.027262  0.815226  1
