# generated using pymatgen
data_TeMoWSeS2
_symmetry_space_group_name_H-M   'P 1'
_cell_length_a   3.30610499
_cell_length_b   3.30616926
_cell_length_c   38.08318566
_cell_angle_alpha   89.99869004
_cell_angle_beta   90.00005815
_cell_angle_gamma   120.00023762
_symmetry_Int_Tables_number   1
_chemical_formula_structural   TeMoWSeS2
_chemical_formula_sum   'Te2 Mo2 W2 Se2 S4'
_cell_volume   360.49943362
_cell_formula_units_Z   2
loop_
 _symmetry_equiv_pos_site_id
 _symmetry_equiv_pos_as_xyz
  1  'x, y, z'
loop_
 _atom_site_type_symbol
 _atom_site_label
 _atom_site_symmetry_multiplicity
 _atom_site_fract_x
 _atom_site_fract_y
 _atom_site_fract_z
 _atom_site_occupancy
  Te  Te0  1  0.666661  0.333319  0.419151  1
  Te  Te1  1  0.666654  0.333295  0.519624  1
  Mo  Mo2  1  0.333317  0.666651  0.469417  1
  Mo  Mo3  1  0.666691  0.333349  0.281693  1
  W  W4  1  0.333306  0.666616  0.093918  1
  W  W5  1  0.666690  0.333376  0.657927  1
  Se  Se6  1  0.333335  0.666678  0.702251  1
  Se  Se7  1  0.333353  0.666718  0.613553  1
  S  S8  1  0.333339  0.666695  0.321800  1
  S  S9  1  0.666650  0.333297  0.053642  1
  S  S10  1  0.666638  0.333273  0.134192  1
  S  S11  1  0.333366  0.666735  0.241581  1
