# generated using pymatgen
data_Sc5Si7Pt9
_symmetry_space_group_name_H-M   'P 1'
_cell_length_a   10.02957240
_cell_length_b   10.02957240
_cell_length_c   3.91550079
_cell_angle_alpha   90.00000000
_cell_angle_beta   90.00000000
_cell_angle_gamma   119.99999995
_symmetry_Int_Tables_number   1
_chemical_formula_structural   Sc5Si7Pt9
_chemical_formula_sum   'Sc5 Si7 Pt9'
_cell_volume   341.10083573
_cell_formula_units_Z   1
loop_
 _symmetry_equiv_pos_site_id
 _symmetry_equiv_pos_as_xyz
  1  'x, y, z'
loop_
 _atom_site_type_symbol
 _atom_site_label
 _atom_site_symmetry_multiplicity
 _atom_site_fract_x
 _atom_site_fract_y
 _atom_site_fract_z
 _atom_site_occupancy
  Si  Si0  1  0.573081  0.856287  0.500000  1
  Si  Si1  1  0.143713  0.716793  0.500000  1
  Si  Si2  1  0.283207  0.426919  0.500000  1
  Si  Si3  1  0.886943  0.314595  0.000000  1
  Si  Si4  1  0.685405  0.572348  0.000000  1
  Si  Si5  1  0.427652  0.113057  0.000000  1
  Si  Si6  1  0.000000  0.000000  0.000000  1
  Sc  Sc7  1  0.333333  0.666667  0.000000  1
  Sc  Sc8  1  0.666667  0.333333  0.500000  1
  Sc  Sc9  1  0.229499  0.125202  0.500000  1
  Sc  Sc10  1  0.895703  0.770501  0.500000  1
  Sc  Sc11  1  0.874798  0.104297  0.500000  1
  Pt  Pt12  1  0.550758  0.602586  0.500000  1
  Pt  Pt13  1  0.397414  0.948171  0.500000  1
  Pt  Pt14  1  0.051829  0.449242  0.500000  1
  Pt  Pt15  1  0.648734  0.082626  0.000000  1
  Pt  Pt16  1  0.917374  0.566108  0.000000  1
  Pt  Pt17  1  0.433892  0.351266  0.000000  1
  Pt  Pt18  1  0.715870  0.838783  0.000000  1
  Pt  Pt19  1  0.161217  0.877087  0.000000  1
  Pt  Pt20  1  0.122913  0.284130  0.000000  1
