# generated using pymatgen
data_CeCrSe2O
_symmetry_space_group_name_H-M   'P 1'
_cell_length_a   3.92621028
_cell_length_b   6.09541077
_cell_length_c   8.39456352
_cell_angle_alpha   90.45862856
_cell_angle_beta   90.00347385
_cell_angle_gamma   108.78286465
_symmetry_Int_Tables_number   1
_chemical_formula_structural   CeCrSe2O
_chemical_formula_sum   'Ce2 Cr2 Se4 O2'
_cell_volume   190.19204471
_cell_formula_units_Z   2
loop_
 _symmetry_equiv_pos_site_id
 _symmetry_equiv_pos_as_xyz
  1  'x, y, z'
loop_
 _atom_site_type_symbol
 _atom_site_label
 _atom_site_symmetry_multiplicity
 _atom_site_fract_x
 _atom_site_fract_y
 _atom_site_fract_z
 _atom_site_occupancy
  O  O0  1  0.672454  0.345022  0.937006  1
  O  O1  1  0.327577  0.655029  0.063018  1
  Cr  Cr2  1  0.999960  0.999957  0.499982  1
  Cr  Cr3  1  0.500004  -0.000025  1.000010  1
  Se  Se4  1  0.354683  0.709191  0.464241  1
  Se  Se5  1  0.052434  0.104537  0.203351  1
  Se  Se6  1  0.947599  0.895450  0.796642  1
  Se  Se7  1  0.645271  0.290778  0.535736  1
  Ce  Ce8  1  0.228080  0.456262  0.808179  1
  Ce  Ce9  1  0.771943  0.543798  0.191834  1
