# generated using pymatgen
data_Cs6K3AlSb4
_symmetry_space_group_name_H-M   'P 1'
_cell_length_a   11.17576913
_cell_length_b   11.17576913
_cell_length_c   11.71776350
_cell_angle_alpha   90.00000000
_cell_angle_beta   90.00000000
_cell_angle_gamma   120.00000003
_symmetry_Int_Tables_number   1
_chemical_formula_structural   Cs6K3AlSb4
_chemical_formula_sum   'Cs12 K6 Al2 Sb8'
_cell_volume   1267.44815323
_cell_formula_units_Z   2
loop_
 _symmetry_equiv_pos_site_id
 _symmetry_equiv_pos_as_xyz
  1  'x, y, z'
loop_
 _atom_site_type_symbol
 _atom_site_label
 _atom_site_symmetry_multiplicity
 _atom_site_fract_x
 _atom_site_fract_y
 _atom_site_fract_z
 _atom_site_occupancy
  Al  Al0  1  0.333333  0.666667  0.250000  1
  Al  Al1  1  0.666667  0.333333  0.750000  1
  K  K2  1  0.239090  0.119545  0.750000  1
  K  K3  1  0.880455  0.119545  0.750000  1
  K  K4  1  0.760910  0.880455  0.250000  1
  K  K5  1  0.119545  0.239090  0.250000  1
  K  K6  1  0.119545  0.880455  0.250000  1
  K  K7  1  0.880455  0.760910  0.750000  1
  Sb  Sb8  1  0.000000  0.000000  0.000000  1
  Sb  Sb9  1  0.055650  0.527825  0.250000  1
  Sb  Sb10  1  0.472175  0.944350  0.250000  1
  Sb  Sb11  1  0.527825  0.055650  0.750000  1
  Sb  Sb12  1  0.527825  0.472175  0.750000  1
  Sb  Sb13  1  0.000000  0.000000  0.500000  1
  Sb  Sb14  1  0.472175  0.527825  0.250000  1
  Sb  Sb15  1  0.944350  0.472175  0.750000  1
  Cs  Cs16  1  0.208884  0.791116  0.956454  1
  Cs  Cs17  1  0.208884  0.417767  0.956454  1
  Cs  Cs18  1  0.582233  0.791116  0.956454  1
  Cs  Cs19  1  0.417767  0.208884  0.456454  1
  Cs  Cs20  1  0.791116  0.582233  0.043546  1
  Cs  Cs21  1  0.791116  0.208884  0.456454  1
  Cs  Cs22  1  0.791116  0.582233  0.456454  1
  Cs  Cs23  1  0.208884  0.791116  0.543546  1
  Cs  Cs24  1  0.582233  0.791116  0.543546  1
  Cs  Cs25  1  0.417767  0.208884  0.043546  1
  Cs  Cs26  1  0.791116  0.208884  0.043546  1
  Cs  Cs27  1  0.208884  0.417767  0.543546  1
