# generated using pymatgen
data_Ag3O4
_symmetry_space_group_name_H-M   'P 1'
_cell_length_a   3.77201104
_cell_length_b   5.74571169
_cell_length_c   9.34798779
_cell_angle_alpha   90.00000000
_cell_angle_beta   90.00000000
_cell_angle_gamma   104.22882121
_symmetry_Int_Tables_number   1
_chemical_formula_structural   Ag3O4
_chemical_formula_sum   'Ag6 O8'
_cell_volume   196.38255949
_cell_formula_units_Z   2
loop_
 _symmetry_equiv_pos_site_id
 _symmetry_equiv_pos_as_xyz
  1  'x, y, z'
loop_
 _atom_site_type_symbol
 _atom_site_label
 _atom_site_symmetry_multiplicity
 _atom_site_fract_x
 _atom_site_fract_y
 _atom_site_fract_z
 _atom_site_occupancy
  O  O0  1  0.052676  0.331031  0.692046  1
  O  O1  1  0.947324  0.168969  0.192046  1
  O  O2  1  0.947324  0.668969  0.307954  1
  O  O3  1  0.052676  0.831031  0.807954  1
  O  O4  1  0.467773  0.271140  0.956931  1
  O  O5  1  0.532227  0.228860  0.456931  1
  O  O6  1  0.467773  0.771140  0.543069  1
  O  O7  1  0.532227  0.728860  0.043069  1
  Ag  Ag8  1  0.293861  0.551043  0.858276  1
  Ag  Ag9  1  0.706139  0.948957  0.358276  1
  Ag  Ag10  1  0.706139  0.448957  0.141724  1
  Ag  Ag11  1  0.293861  0.051043  0.641724  1
  Ag  Ag12  1  0.000000  0.500000  0.500000  1
  Ag  Ag13  1  0.000000  0.000000  0.000000  1
