# generated using pymatgen
data_SmAsO4
_symmetry_space_group_name_H-M   'P 1'
_cell_length_a   6.08529356
_cell_length_b   6.08529356
_cell_length_c   6.08529356
_cell_angle_alpha   106.35913195
_cell_angle_beta   106.35913193
_cell_angle_gamma   115.89260955
_symmetry_Int_Tables_number   1
_chemical_formula_structural   SmAsO4
_chemical_formula_sum   'Sm2 As2 O8'
_cell_volume   171.81724730
_cell_formula_units_Z   2
loop_
 _symmetry_equiv_pos_site_id
 _symmetry_equiv_pos_as_xyz
  1  'x, y, z'
loop_
 _atom_site_type_symbol
 _atom_site_label
 _atom_site_symmetry_multiplicity
 _atom_site_fract_x
 _atom_site_fract_y
 _atom_site_fract_z
 _atom_site_occupancy
  O  O0  1  0.798045  0.727535  0.429490  1
  O  O1  1  0.368555  0.798045  0.570510  1
  O  O2  1  0.727535  0.798045  0.929490  1
  O  O3  1  0.798045  0.368555  0.070510  1
  O  O4  1  0.631445  0.201955  0.429490  1
  O  O5  1  0.201955  0.272465  0.570510  1
  O  O6  1  0.201955  0.631445  0.929490  1
  O  O7  1  0.272465  0.201955  0.070510  1
  As  As8  1  0.375000  0.625000  0.750000  1
  As  As9  1  0.625000  0.375000  0.250000  1
  Sm  Sm10  1  0.125000  0.875000  0.250000  1
  Sm  Sm11  1  0.875000  0.125000  0.750000  1
