# generated using pymatgen
data_BaDyCo4O7
_symmetry_space_group_name_H-M   'P 1'
_cell_length_a   6.39311773
_cell_length_b   6.39311772
_cell_length_c   10.42259061
_cell_angle_alpha   90.00000000
_cell_angle_beta   90.00000000
_cell_angle_gamma   119.99999998
_symmetry_Int_Tables_number   1
_chemical_formula_structural   BaDyCo4O7
_chemical_formula_sum   'Ba2 Dy2 Co8 O14'
_cell_volume   368.91958804
_cell_formula_units_Z   2
loop_
 _symmetry_equiv_pos_site_id
 _symmetry_equiv_pos_as_xyz
  1  'x, y, z'
loop_
 _atom_site_type_symbol
 _atom_site_label
 _atom_site_symmetry_multiplicity
 _atom_site_fract_x
 _atom_site_fract_y
 _atom_site_fract_z
 _atom_site_occupancy
  O  O0  1  0.832702  0.167298  0.001926  1
  O  O1  1  0.665403  0.832701  0.501927  1
  O  O2  1  0.167298  0.334597  0.501927  1
  O  O3  1  0.832702  0.665402  0.001926  1
  O  O4  1  0.334597  0.167298  0.001926  1
  O  O5  1  0.167298  0.832701  0.501927  1
  O  O6  1  0.000000  0.000000  0.743380  1
  O  O7  1  0.000000  0.000000  0.243381  1
  O  O8  1  0.508593  0.491405  0.258535  1
  O  O9  1  0.017189  0.508594  0.758534  1
  O  O10  1  0.491406  0.982813  0.758534  1
  O  O11  1  0.508595  0.017188  0.258535  1
  O  O12  1  0.491405  0.508594  0.758534  1
  O  O13  1  0.982811  0.491405  0.258535  1
  Co  Co14  1  0.830671  0.169329  0.186254  1
  Co  Co15  1  0.661341  0.830670  0.686253  1
  Co  Co16  1  0.169329  0.338659  0.686253  1
  Co  Co17  1  0.830671  0.661341  0.186254  1
  Co  Co18  1  0.338658  0.169329  0.186254  1
  Co  Co19  1  0.169329  0.830670  0.686253  1
  Co  Co20  1  0.000000  0.000000  0.441629  1
  Co  Co21  1  0.000000  0.000000  0.941630  1
  Ba  Ba22  1  0.333333  0.666666  0.979360  1
  Ba  Ba23  1  0.666667  0.333333  0.479360  1
  Dy  Dy24  1  0.333333  0.666666  0.375587  1
  Dy  Dy25  1  0.666667  0.333333  0.875586  1
