# generated using pymatgen
data_Rb2SiO3
_symmetry_space_group_name_H-M   'P 1'
_cell_length_a   6.59955425
_cell_length_b   13.72753598
_cell_length_c   15.83844968
_cell_angle_alpha   90.00000000
_cell_angle_beta   95.38079985
_cell_angle_gamma   90.00000000
_symmetry_Int_Tables_number   1
_chemical_formula_structural   Rb2SiO3
_chemical_formula_sum   'Rb24 Si12 O36'
_cell_volume   1428.57120326
_cell_formula_units_Z   12
loop_
 _symmetry_equiv_pos_site_id
 _symmetry_equiv_pos_as_xyz
  1  'x, y, z'
loop_
 _atom_site_type_symbol
 _atom_site_label
 _atom_site_symmetry_multiplicity
 _atom_site_fract_x
 _atom_site_fract_y
 _atom_site_fract_z
 _atom_site_occupancy
  O  O0  1  0.492513  0.942054  0.385296  1
  O  O1  1  0.007487  0.442054  0.114704  1
  O  O2  1  0.507487  0.057946  0.614704  1
  O  O3  1  0.992513  0.557946  0.885296  1
  O  O4  1  0.855823  0.869886  0.459949  1
  O  O5  1  0.644177  0.369886  0.040051  1
  O  O6  1  0.144177  0.130114  0.540051  1
  O  O7  1  0.355823  0.630114  0.959949  1
  O  O8  1  0.216582  0.106759  0.147139  1
  O  O9  1  0.283418  0.606759  0.352861  1
  O  O10  1  0.783418  0.893241  0.852861  1
  O  O11  1  0.716582  0.393241  0.647139  1
  O  O12  1  0.678871  0.565572  0.413192  1
  O  O13  1  0.821129  0.065572  0.086808  1
  O  O14  1  0.321129  0.434428  0.586808  1
  O  O15  1  0.178871  0.934428  0.913192  1
  O  O16  1  0.459882  0.809696  0.162318  1
  O  O17  1  0.093825  0.840261  0.763208  1
  O  O18  1  0.540118  0.190304  0.837682  1
  O  O19  1  0.959882  0.690304  0.662318  1
  O  O20  1  0.851733  0.738966  0.158307  1
  O  O21  1  0.648267  0.238966  0.341693  1
  O  O22  1  0.148267  0.261034  0.841693  1
  O  O23  1  0.351733  0.761034  0.658307  1
  O  O24  1  0.745657  0.836834  0.294879  1
  O  O25  1  0.754343  0.336834  0.205121  1
  O  O26  1  0.254343  0.163166  0.705121  1
  O  O27  1  0.245657  0.663166  0.794879  1
  O  O28  1  0.536346  0.750024  0.410470  1
  O  O29  1  0.963654  0.250024  0.089530  1
  O  O30  1  0.463654  0.249976  0.589530  1
  O  O31  1  0.036346  0.749976  0.910470  1
  O  O32  1  0.593825  0.659739  0.263208  1
  O  O33  1  0.906175  0.159739  0.236792  1
  O  O34  1  0.406175  0.340261  0.736792  1
  O  O35  1  0.040118  0.309696  0.337682  1
  Si  Si36  1  0.660090  0.854833  0.391431  1
  Si  Si37  1  0.839910  0.354833  0.108568  1
  Si  Si38  1  0.339910  0.145167  0.608568  1
  Si  Si39  1  0.160090  0.645167  0.891432  1
  Si  Si40  1  0.520322  0.639485  0.361832  1
  Si  Si41  1  0.979678  0.139485  0.138168  1
  Si  Si42  1  0.479678  0.360515  0.638168  1
  Si  Si43  1  0.020322  0.860515  0.861832  1
  Si  Si44  1  0.662215  0.762569  0.213197  1
  Si  Si45  1  0.837785  0.262569  0.286803  1
  Si  Si46  1  0.337785  0.237431  0.786803  1
  Si  Si47  1  0.162215  0.737431  0.713197  1
  Rb  Rb48  1  0.765142  0.370204  0.863830  1
  Rb  Rb49  1  0.465822  0.167458  0.011606  1
  Rb  Rb50  1  0.965822  0.332542  0.511606  1
  Rb  Rb51  1  0.534178  0.832542  0.988394  1
  Rb  Rb52  1  0.234858  0.629796  0.136170  1
  Rb  Rb53  1  0.265142  0.129796  0.363830  1
  Rb  Rb54  1  0.034178  0.667458  0.488394  1
  Rb  Rb55  1  0.734858  0.870204  0.636170  1
  Rb  Rb56  1  0.331268  0.316245  0.198957  1
  Rb  Rb57  1  0.168732  0.816245  0.301043  1
  Rb  Rb58  1  0.668732  0.683755  0.801043  1
  Rb  Rb59  1  0.831268  0.183755  0.698957  1
  Rb  Rb60  1  0.573081  0.015840  0.215775  1
  Rb  Rb61  1  0.926919  0.515840  0.284225  1
  Rb  Rb62  1  0.426919  0.984160  0.784225  1
  Rb  Rb63  1  0.073081  0.484160  0.715775  1
  Rb  Rb64  1  0.751978  0.083590  0.471642  1
  Rb  Rb65  1  0.748022  0.583590  0.028358  1
  Rb  Rb66  1  0.248022  0.916410  0.528358  1
  Rb  Rb67  1  0.251978  0.416410  0.971642  1
  Rb  Rb68  1  0.923470  0.099542  0.916300  1
  Rb  Rb69  1  0.576530  0.599542  0.583700  1
  Rb  Rb70  1  0.076530  0.900458  0.083700  1
  Rb  Rb71  1  0.423470  0.400458  0.416300  1
