# generated using pymatgen
data_RbSbS2
_symmetry_space_group_name_H-M   'P 1'
_cell_length_a   6.68923107
_cell_length_b   6.73209685
_cell_length_c   12.28329790
_cell_angle_alpha   99.05034209
_cell_angle_beta   100.66654083
_cell_angle_gamma   104.43217444
_symmetry_Int_Tables_number   1
_chemical_formula_structural   RbSbS2
_chemical_formula_sum   'Rb4 Sb4 S8'
_cell_volume   514.26905945
_cell_formula_units_Z   4
loop_
 _symmetry_equiv_pos_site_id
 _symmetry_equiv_pos_as_xyz
  1  'x, y, z'
loop_
 _atom_site_type_symbol
 _atom_site_label
 _atom_site_symmetry_multiplicity
 _atom_site_fract_x
 _atom_site_fract_y
 _atom_site_fract_z
 _atom_site_occupancy
  S  S0  1  0.050092  0.266382  0.184010  1
  S  S1  1  0.094134  0.605378  0.446310  1
  S  S2  1  0.500124  0.238388  0.905294  1
  S  S3  1  0.443077  0.236571  0.440448  1
  S  S4  1  0.640323  0.628153  0.724956  1
  S  S5  1  0.099173  0.202780  0.634498  1
  S  S6  1  0.040808  0.665314  0.995207  1
  S  S7  1  0.698568  0.632672  0.189782  1
  Rb  Rb8  1  0.639365  0.758846  0.468779  1
  Rb  Rb9  1  0.504135  0.110638  0.161624  1
  Rb  Rb10  1  0.970231  0.155864  0.898347  1
  Rb  Rb11  1  0.170391  0.711921  0.731714  1
  Sb  Sb12  1  0.657374  0.616646  0.966611  1
  Sb  Sb13  1  0.066645  0.230771  0.404421  1
  Sb  Sb14  1  0.075423  0.640726  0.225219  1
  Sb  Sb15  1  0.482139  0.249950  0.662780  1
