# generated using pymatgen
data_Sn3F8
_symmetry_space_group_name_H-M   'P 1'
_cell_length_a   5.49442948
_cell_length_b   5.49657983
_cell_length_c   12.49378353
_cell_angle_alpha   90.00000000
_cell_angle_beta   90.52353665
_cell_angle_gamma   90.00000000
_symmetry_Int_Tables_number   1
_chemical_formula_structural   Sn3F8
_chemical_formula_sum   'Sn6 F16'
_cell_volume   377.30363597
_cell_formula_units_Z   2
loop_
 _symmetry_equiv_pos_site_id
 _symmetry_equiv_pos_as_xyz
  1  'x, y, z'
loop_
 _atom_site_type_symbol
 _atom_site_label
 _atom_site_symmetry_multiplicity
 _atom_site_fract_x
 _atom_site_fract_y
 _atom_site_fract_z
 _atom_site_occupancy
  F  F0  1  0.338388  0.107090  0.754071  1
  F  F1  1  0.161612  0.607090  0.745929  1
  F  F2  1  0.661612  0.892910  0.245929  1
  F  F3  1  0.838388  0.392910  0.254071  1
  F  F4  1  0.210041  0.300245  0.537002  1
  F  F5  1  0.289959  0.800245  0.962998  1
  F  F6  1  0.138342  0.030792  0.149575  1
  F  F7  1  0.361658  0.530792  0.350425  1
  F  F8  1  0.861658  0.969208  0.850425  1
  F  F9  1  0.638342  0.469208  0.649575  1
  F  F10  1  0.677339  0.195653  0.452538  1
  F  F11  1  0.822661  0.695653  0.047462  1
  F  F12  1  0.322661  0.804347  0.547462  1
  F  F13  1  0.177339  0.304347  0.952538  1
  F  F14  1  0.710041  0.199755  0.037002  1
  F  F15  1  0.789959  0.699755  0.462998  1
  Sn  Sn16  1  0.460087  0.445019  0.833011  1
  Sn  Sn17  1  0.039913  0.945019  0.666989  1
  Sn  Sn18  1  0.539913  0.554981  0.166989  1
  Sn  Sn19  1  0.960087  0.054981  0.333011  1
  Sn  Sn20  1  0.500000  0.500000  0.500000  1
  Sn  Sn21  1  0.000000  0.000000  0.000000  1
