# generated using pymatgen
data_Sr3P4
_symmetry_space_group_name_H-M   'P 1'
_cell_length_a   5.87104644
_cell_length_b   7.76306640
_cell_length_c   9.21531341
_cell_angle_alpha   83.08159260
_cell_angle_beta   71.42483979
_cell_angle_gamma   67.78150408
_symmetry_Int_Tables_number   1
_chemical_formula_structural   Sr3P4
_chemical_formula_sum   'Sr6 P8'
_cell_volume   368.56791141
_cell_formula_units_Z   2
loop_
 _symmetry_equiv_pos_site_id
 _symmetry_equiv_pos_as_xyz
  1  'x, y, z'
loop_
 _atom_site_type_symbol
 _atom_site_label
 _atom_site_symmetry_multiplicity
 _atom_site_fract_x
 _atom_site_fract_y
 _atom_site_fract_z
 _atom_site_occupancy
  P  P0  1  0.422376  0.661458  0.498076  1
  P  P1  1  0.581910  0.338542  0.501924  1
  P  P2  1  0.833834  0.838542  0.998076  1
  P  P3  1  0.670452  0.161458  0.001924  1
  P  P4  1  0.341045  0.183213  0.653835  1
  P  P5  1  0.178093  0.816787  0.346165  1
  P  P6  1  0.744880  0.683213  0.846165  1
  P  P7  1  0.274259  0.316787  0.153835  1
  Sr  Sr8  1  0.580568  0.996521  0.336304  1
  Sr  Sr9  1  0.913393  0.003479  0.663696  1
  Sr  Sr10  1  0.327089  0.503479  0.836304  1
  Sr  Sr11  1  0.666872  0.496521  0.163696  1
  Sr  Sr12  1  0.005815  0.500000  0.500000  1
  Sr  Sr13  1  0.255815  0.000000  0.000000  1
