# generated using pymatgen
data_V2CdO4
_symmetry_space_group_name_H-M   'P 1'
_cell_length_a   6.24209102
_cell_length_b   6.24209102
_cell_length_c   6.24209102
_cell_angle_alpha   60.00000003
_cell_angle_beta   60.00000002
_cell_angle_gamma   59.99999999
_symmetry_Int_Tables_number   1
_chemical_formula_structural   V2CdO4
_chemical_formula_sum   'V4 Cd2 O8'
_cell_volume   171.97895043
_cell_formula_units_Z   2
loop_
 _symmetry_equiv_pos_site_id
 _symmetry_equiv_pos_as_xyz
  1  'x, y, z'
loop_
 _atom_site_type_symbol
 _atom_site_label
 _atom_site_symmetry_multiplicity
 _atom_site_fract_x
 _atom_site_fract_y
 _atom_site_fract_z
 _atom_site_occupancy
  O  O0  1  0.732858  0.732857  0.732857  1
  O  O1  1  0.267142  0.267143  0.698572  1
  O  O2  1  0.267142  0.698572  0.267143  1
  O  O3  1  0.698571  0.267143  0.267142  1
  O  O4  1  0.732856  0.301428  0.732857  1
  O  O5  1  0.301429  0.732857  0.732856  1
  O  O6  1  0.267142  0.267143  0.267143  1
  O  O7  1  0.732858  0.732857  0.301429  1
  V  V8  1  0.499999  0.000000  0.500000  1
  V  V9  1  0.999999  0.500000  0.500000  1
  V  V10  1  0.500000  0.500000  1.000000  1
  V  V11  1  0.500000  0.500000  0.499999  1
  Cd  Cd12  1  0.124999  0.125001  0.125000  1
  Cd  Cd13  1  0.874999  0.875000  0.875001  1
