# generated using pymatgen
data_Sr2Ta2O7
_symmetry_space_group_name_H-M   'P 1'
_cell_length_a   3.98985361
_cell_length_b   5.75570000
_cell_length_c   13.97290283
_cell_angle_alpha   90.00000000
_cell_angle_beta   98.20823009
_cell_angle_gamma   90.00000000
_symmetry_Int_Tables_number   1
_chemical_formula_structural   Sr2Ta2O7
_chemical_formula_sum   'Sr4 Ta4 O14'
_cell_volume   317.59216189
_cell_formula_units_Z   2
loop_
 _symmetry_equiv_pos_site_id
 _symmetry_equiv_pos_as_xyz
  1  'x, y, z'
loop_
 _atom_site_type_symbol
 _atom_site_label
 _atom_site_symmetry_multiplicity
 _atom_site_fract_x
 _atom_site_fract_y
 _atom_site_fract_z
 _atom_site_occupancy
  O  O0  1  0.000000  0.000000  0.000000  1
  O  O1  1  0.000000  0.500000  0.000000  1
  O  O2  1  0.452998  0.750000  0.905997  1
  O  O3  1  0.547002  0.250000  0.094003  1
  O  O4  1  0.098974  0.992354  0.197948  1
  O  O5  1  0.901026  0.007646  0.802052  1
  O  O6  1  0.901026  0.492354  0.802052  1
  O  O7  1  0.098974  0.507646  0.197948  1
  O  O8  1  0.205826  0.511874  0.411651  1
  O  O9  1  0.794174  0.488126  0.588349  1
  O  O10  1  0.794174  0.011874  0.588349  1
  O  O11  1  0.205826  0.988126  0.411651  1
  O  O12  1  0.649061  0.750000  0.298122  1
  O  O13  1  0.350939  0.250000  0.701878  1
  Sr  Sr14  1  0.714643  0.250000  0.429287  1
  Sr  Sr15  1  0.285357  0.750000  0.570713  1
  Sr  Sr16  1  0.553421  0.750000  0.106843  1
  Sr  Sr17  1  0.446579  0.250000  0.893157  1
  Ta  Ta18  1  0.159087  0.750000  0.318174  1
  Ta  Ta19  1  0.840913  0.250000  0.681826  1
  Ta  Ta20  1  0.054679  0.250000  0.109359  1
  Ta  Ta21  1  0.945321  0.750000  0.890641  1
