# generated using pymatgen
data_Ba2CaSi4(BO7)2
_symmetry_space_group_name_H-M   'P 1'
_cell_length_a   9.39208394
_cell_length_b   9.39208394
_cell_length_c   9.39208394
_cell_angle_alpha   107.87627873
_cell_angle_beta   107.87627873
_cell_angle_gamma   112.71047917
_symmetry_Int_Tables_number   1
_chemical_formula_structural   Ba2CaSi4(BO7)2
_chemical_formula_sum   'Ba4 Ca2 Si8 B4 O28'
_cell_volume   636.23169122
_cell_formula_units_Z   2
loop_
 _symmetry_equiv_pos_site_id
 _symmetry_equiv_pos_as_xyz
  1  'x, y, z'
loop_
 _atom_site_type_symbol
 _atom_site_label
 _atom_site_symmetry_multiplicity
 _atom_site_fract_x
 _atom_site_fract_y
 _atom_site_fract_z
 _atom_site_occupancy
  Ba  Ba0  1  0.793968  0.203918  0.000000  1
  Ba  Ba1  1  0.203918  0.793968  0.000000  1
  Ba  Ba2  1  0.206032  0.206032  0.409950  1
  Ba  Ba3  1  0.796082  0.796082  0.590050  1
  Ca  Ca4  1  0.244129  0.244129  -0.000000  1
  Ca  Ca5  1  0.755871  0.755871  -0.000000  1
  Si  Si6  1  0.035125  0.750845  0.313449  1
  Si  Si7  1  0.437396  0.721676  0.686551  1
  Si  Si8  1  0.964875  0.278324  0.715720  1
  Si  Si9  1  0.562604  0.249155  0.284280  1
  Si  Si10  1  0.278324  0.964875  0.715720  1
  Si  Si11  1  0.249155  0.562604  0.284280  1
  Si  Si12  1  0.721676  0.437396  0.686551  1
  Si  Si13  1  0.750845  0.035125  0.313449  1
  B  B14  1  0.667114  0.500000  0.167114  1
  B  B15  1  0.332886  0.500000  0.832886  1
  B  B16  1  0.500000  0.332886  0.832886  1
  B  B17  1  0.500000  0.667114  0.167114  1
  O  O18  1  0.659807  0.471984  -0.000000  1
  O  O19  1  0.471984  0.659807  0.000000  1
  O  O20  1  0.340193  0.340193  0.812177  1
  O  O21  1  0.528016  0.528016  0.187823  1
  O  O22  1  0.844051  0.657645  0.306786  1
  O  O23  1  0.350859  0.537265  0.693214  1
  O  O24  1  0.155949  0.462735  0.813593  1
  O  O25  1  0.649141  0.342355  0.186407  1
  O  O26  1  0.462735  0.155949  0.813593  1
  O  O27  1  0.342355  0.649141  0.186407  1
  O  O28  1  0.537265  0.350859  0.693214  1
  O  O29  1  0.657645  0.844051  0.306786  1
  O  O30  1  0.042580  0.842728  0.194277  1
  O  O31  1  0.648451  0.848302  0.805723  1
  O  O32  1  0.957420  0.151698  0.800149  1
  O  O33  1  0.351549  0.157272  0.199851  1
  O  O34  1  0.151698  0.957420  0.800149  1
  O  O35  1  0.157272  0.351549  0.199851  1
  O  O36  1  0.848302  0.648451  0.805723  1
  O  O37  1  0.842728  0.042580  0.194277  1
  O  O38  1  0.177718  0.912043  0.512640  1
  O  O39  1  0.399403  0.665078  0.487360  1
  O  O40  1  0.822282  0.334922  0.734325  1
  O  O41  1  0.600597  0.087957  0.265675  1
  O  O42  1  0.334922  0.822282  0.734325  1
  O  O43  1  0.087957  0.600597  0.265675  1
  O  O44  1  0.665078  0.399403  0.487360  1
  O  O45  1  0.912043  0.177718  0.512640  1
