# generated using pymatgen
data_Tb2Si5Ru3
_symmetry_space_group_name_H-M   'P 1'
_cell_length_a   5.62647336
_cell_length_b   8.25549514
_cell_length_c   8.25549514
_cell_angle_alpha   71.58952351
_cell_angle_beta   70.07612077
_cell_angle_gamma   70.07612078
_symmetry_Int_Tables_number   1
_chemical_formula_structural   Tb2Si5Ru3
_chemical_formula_sum   'Tb4 Si10 Ru6'
_cell_volume   330.16865161
_cell_formula_units_Z   2
loop_
 _symmetry_equiv_pos_site_id
 _symmetry_equiv_pos_as_xyz
  1  'x, y, z'
loop_
 _atom_site_type_symbol
 _atom_site_label
 _atom_site_symmetry_multiplicity
 _atom_site_fract_x
 _atom_site_fract_y
 _atom_site_fract_z
 _atom_site_occupancy
  Si  Si0  1  0.250000  0.000000  0.000000  1
  Si  Si1  1  0.750000  0.000000  0.000000  1
  Si  Si2  1  0.958064  0.291936  0.291936  1
  Si  Si3  1  0.541936  0.708064  0.708064  1
  Si  Si4  1  0.041936  0.708064  0.708064  1
  Si  Si5  1  0.458064  0.291936  0.291936  1
  Si  Si6  1  0.404208  0.427271  0.764312  1
  Si  Si7  1  0.904208  0.764312  0.427271  1
  Si  Si8  1  0.095792  0.235688  0.572729  1
  Si  Si9  1  0.595792  0.572729  0.235688  1
  Ru  Ru10  1  0.853999  0.053231  0.238771  1
  Ru  Ru11  1  0.750000  0.500000  0.500000  1
  Ru  Ru12  1  0.353999  0.238771  0.053231  1
  Ru  Ru13  1  0.646001  0.761229  0.946769  1
  Ru  Ru14  1  0.146001  0.946769  0.761229  1
  Ru  Ru15  1  0.250000  0.500000  0.500000  1
  Tb  Tb16  1  0.134946  0.632525  0.097583  1
  Tb  Tb17  1  0.865054  0.367475  0.902417  1
  Tb  Tb18  1  0.365054  0.902417  0.367475  1
  Tb  Tb19  1  0.634946  0.097583  0.632525  1
