# generated using pymatgen
data_TeMoWSeS2
_symmetry_space_group_name_H-M   'P 1'
_cell_length_a   3.30560126
_cell_length_b   3.30572537
_cell_length_c   39.29545500
_cell_angle_alpha   89.99960278
_cell_angle_beta   90.00000000
_cell_angle_gamma   119.99875802
_symmetry_Int_Tables_number   1
_chemical_formula_structural   TeMoWSeS2
_chemical_formula_sum   'Te2 Mo2 W2 Se2 S4'
_cell_volume   371.87383741
_cell_formula_units_Z   2
loop_
 _symmetry_equiv_pos_site_id
 _symmetry_equiv_pos_as_xyz
  1  'x, y, z'
loop_
 _atom_site_type_symbol
 _atom_site_label
 _atom_site_symmetry_multiplicity
 _atom_site_fract_x
 _atom_site_fract_y
 _atom_site_fract_z
 _atom_site_occupancy
  Te  Te0  1  0.333277  0.666554  0.329545  1
  Te  Te1  1  0.333307  0.666616  0.232172  1
  Mo  Mo2  1  0.333269  0.666538  0.093397  1
  Mo  Mo3  1  0.666656  0.333312  0.280869  1
  W  W4  1  0.333363  0.666725  0.470940  1
  W  W5  1  0.666691  0.333381  0.657759  1
  Se  Se6  1  0.666716  0.333431  0.427895  1
  Se  Se7  1  0.666708  0.333415  0.513924  1
  S  S8  1  0.333341  0.666683  0.696831  1
  S  S9  1  0.666681  0.333360  0.054514  1
  S  S10  1  0.666665  0.333330  0.132219  1
  S  S11  1  0.333326  0.666654  0.618680  1
