# generated using pymatgen
data_Na3Fe(PO4)2
_symmetry_space_group_name_H-M   'P 1'
_cell_length_a   5.08793433
_cell_length_b   5.25757935
_cell_length_c   14.07404248
_cell_angle_alpha   91.76360461
_cell_angle_beta   90.00000000
_cell_angle_gamma   118.93824335
_symmetry_Int_Tables_number   1
_chemical_formula_structural   Na3Fe(PO4)2
_chemical_formula_sum   'Na6 Fe2 P4 O16'
_cell_volume   329.27282103
_cell_formula_units_Z   2
loop_
 _symmetry_equiv_pos_site_id
 _symmetry_equiv_pos_as_xyz
  1  'x, y, z'
loop_
 _atom_site_type_symbol
 _atom_site_label
 _atom_site_symmetry_multiplicity
 _atom_site_fract_x
 _atom_site_fract_y
 _atom_site_fract_z
 _atom_site_occupancy
  O  O0  1  0.928881  0.657121  0.915271  1
  O  O1  1  0.271760  0.342879  0.584729  1
  O  O2  1  0.071119  0.342879  0.084729  1
  O  O3  1  0.728240  0.657121  0.415271  1
  O  O4  1  0.853918  0.149591  0.885054  1
  O  O5  1  0.704327  0.850409  0.614946  1
  O  O6  1  0.146082  0.850409  0.114946  1
  O  O7  1  0.295673  0.149591  0.385054  1
  O  O8  1  0.436336  0.218523  0.962488  1
  O  O9  1  0.217813  0.781477  0.537512  1
  O  O10  1  0.563664  0.781477  0.037512  1
  O  O11  1  0.782187  0.218523  0.462488  1
  O  O12  1  0.778811  0.330639  0.290087  1
  O  O13  1  0.448171  0.669361  0.209913  1
  O  O14  1  0.221189  0.669361  0.709913  1
  O  O15  1  0.551829  0.330639  0.790087  1
  Na  Na16  1  0.950660  0.000000  0.250000  1
  Na  Na17  1  0.049340  0.000000  0.750000  1
  Na  Na18  1  0.627665  0.338197  0.133892  1
  Na  Na19  1  0.289468  0.661803  0.366108  1
  Na  Na20  1  0.710532  0.338197  0.633892  1
  Na  Na21  1  0.372335  0.661803  0.866108  1
  P  P22  1  0.312145  0.663954  0.112676  1
  P  P23  1  0.351808  0.663954  0.612676  1
  P  P24  1  0.648192  0.336046  0.387324  1
  P  P25  1  0.687855  0.336046  0.887324  1
  Fe  Fe26  1  0.000000  0.000000  0.500000  1
  Fe  Fe27  1  0.000000  0.000000  0.000000  1
