# generated using pymatgen
data_RbEu(PO3)4
_symmetry_space_group_name_H-M   'P 1'
_cell_length_a   10.65966301
_cell_length_b   9.15081565
_cell_length_c   11.19317417
_cell_angle_alpha   90.00000000
_cell_angle_beta   106.73758203
_cell_angle_gamma   90.00000000
_symmetry_Int_Tables_number   1
_chemical_formula_structural   RbEu(PO3)4
_chemical_formula_sum   'Rb4 Eu4 P16 O48'
_cell_volume   1045.57697162
_cell_formula_units_Z   4
loop_
 _symmetry_equiv_pos_site_id
 _symmetry_equiv_pos_as_xyz
  1  'x, y, z'
loop_
 _atom_site_type_symbol
 _atom_site_label
 _atom_site_symmetry_multiplicity
 _atom_site_fract_x
 _atom_site_fract_y
 _atom_site_fract_z
 _atom_site_occupancy
  Eu  Eu0  1  0.999776  0.726255  0.315851  1
  Eu  Eu1  1  0.499776  0.773745  0.815851  1
  Eu  Eu2  1  0.000224  0.273745  0.684149  1
  Eu  Eu3  1  0.500224  0.226255  0.184149  1
  Rb  Rb4  1  0.799350  0.434271  0.041450  1
  Rb  Rb5  1  0.299350  0.065729  0.541450  1
  Rb  Rb6  1  0.200650  0.565729  0.958550  1
  Rb  Rb7  1  0.700650  0.934271  0.458550  1
  P  P8  1  0.040086  0.327074  0.360339  1
  P  P9  1  0.540086  0.172926  0.860339  1
  P  P10  1  0.959914  0.672926  0.639661  1
  P  P11  1  0.459914  0.827074  0.139661  1
  P  P12  1  0.750851  0.528419  0.723620  1
  P  P13  1  0.250851  0.971581  0.223620  1
  P  P14  1  0.249149  0.471581  0.276380  1
  P  P15  1  0.749149  0.028419  0.776380  1
  P  P16  1  0.822621  0.896759  0.021659  1
  P  P17  1  0.322621  0.603241  0.521659  1
  P  P18  1  0.177379  0.103241  0.978341  1
  P  P19  1  0.677379  0.396759  0.478341  1
  P  P20  1  0.855918  0.094091  0.240400  1
  P  P21  1  0.355918  0.405909  0.740400  1
  P  P22  1  0.144082  0.905909  0.759600  1
  P  P23  1  0.644082  0.594091  0.259600  1
  O  O24  1  0.674049  0.595109  0.802729  1
  O  O25  1  0.174049  0.904891  0.302729  1
  O  O26  1  0.325951  0.404891  0.197271  1
  O  O27  1  0.825951  0.095109  0.697271  1
  O  O28  1  0.645066  0.458676  0.601636  1
  O  O29  1  0.145066  0.041324  0.101636  1
  O  O30  1  0.354934  0.541324  0.398364  1
  O  O31  1  0.854934  0.958676  0.898364  1
  O  O32  1  0.854015  0.418102  0.785495  1
  O  O33  1  0.354015  0.081898  0.285495  1
  O  O34  1  0.145985  0.581898  0.214505  1
  O  O35  1  0.645985  0.918102  0.714505  1
  O  O36  1  0.963846  0.466352  0.325806  1
  O  O37  1  0.463846  0.033648  0.825806  1
  O  O38  1  0.036154  0.533648  0.674194  1
  O  O39  1  0.536154  0.966352  0.174194  1
  O  O40  1  0.184109  0.658250  0.484960  1
  O  O41  1  0.684109  0.841750  0.984960  1
  O  O42  1  0.815891  0.341750  0.515040  1
  O  O43  1  0.315891  0.158250  0.015040  1
  O  O44  1  0.927912  0.793141  0.090880  1
  O  O45  1  0.427912  0.706859  0.590880  1
  O  O46  1  0.072088  0.206859  0.909120  1
  O  O47  1  0.572088  0.293141  0.409120  1
  O  O48  1  0.937593  0.741211  0.513871  1
  O  O49  1  0.437593  0.758789  0.013871  1
  O  O50  1  0.062407  0.258789  0.486129  1
  O  O51  1  0.562407  0.241211  0.986129  1
  O  O52  1  0.975672  0.208118  0.251460  1
  O  O53  1  0.475672  0.291882  0.751460  1
  O  O54  1  0.024328  0.791882  0.748540  1
  O  O55  1  0.524328  0.708118  0.248540  1
  O  O56  1  0.832352  0.050295  0.096193  1
  O  O57  1  0.332352  0.449705  0.596193  1
  O  O58  1  0.167648  0.949705  0.903807  1
  O  O59  1  0.667648  0.550295  0.403807  1
  O  O60  1  0.760602  0.676675  0.246393  1
  O  O61  1  0.260602  0.823325  0.746393  1
  O  O62  1  0.239398  0.323325  0.753607  1
  O  O63  1  0.739398  0.176675  0.253607  1
  O  O64  1  0.902235  0.964436  0.323635  1
  O  O65  1  0.402235  0.535564  0.823635  1
  O  O66  1  0.097765  0.035564  0.676365  1
  O  O67  1  0.597765  0.464436  0.176365  1
  O  O68  1  0.816767  0.658572  0.662956  1
  O  O69  1  0.316767  0.841428  0.162956  1
  O  O70  1  0.183233  0.341428  0.337044  1
  O  O71  1  0.683233  0.158572  0.837044  1
