# generated using pymatgen
data_EuBrO2
_symmetry_space_group_name_H-M   'P 1'
_cell_length_a   3.72776836
_cell_length_b   6.29361318
_cell_length_c   7.03967348
_cell_angle_alpha   114.19321629
_cell_angle_beta   90.00000000
_cell_angle_gamma   90.00000000
_symmetry_Int_Tables_number   1
_chemical_formula_structural   EuBrO2
_chemical_formula_sum   'Eu2 Br2 O4'
_cell_volume   150.65259601
_cell_formula_units_Z   2
loop_
 _symmetry_equiv_pos_site_id
 _symmetry_equiv_pos_as_xyz
  1  'x, y, z'
loop_
 _atom_site_type_symbol
 _atom_site_label
 _atom_site_symmetry_multiplicity
 _atom_site_fract_x
 _atom_site_fract_y
 _atom_site_fract_z
 _atom_site_occupancy
  Eu  Eu0  1  0.750000  0.202460  0.410987  1
  Eu  Eu1  1  0.250000  0.797540  0.589013  1
  Br  Br2  1  0.750000  0.747131  0.958617  1
  Br  Br3  1  0.250000  0.252869  0.041383  1
  O  O4  1  0.750000  0.586567  0.421529  1
  O  O5  1  0.250000  0.413433  0.578471  1
  O  O6  1  0.750000  0.042172  0.654135  1
  O  O7  1  0.250000  0.957828  0.345865  1
