# generated using pymatgen
data_TeW2Se2S
_symmetry_space_group_name_H-M   'P 1'
_cell_length_a   3.34331978
_cell_length_b   3.34332489
_cell_length_c   38.13645913
_cell_angle_alpha   90.00021681
_cell_angle_beta   90.00000000
_cell_angle_gamma   119.99994947
_symmetry_Int_Tables_number   1
_chemical_formula_structural   TeW2Se2S
_chemical_formula_sum   'Te2 W4 Se4 S2'
_cell_volume   369.17112010
_cell_formula_units_Z   2
loop_
 _symmetry_equiv_pos_site_id
 _symmetry_equiv_pos_as_xyz
  1  'x, y, z'
loop_
 _atom_site_type_symbol
 _atom_site_label
 _atom_site_symmetry_multiplicity
 _atom_site_fract_x
 _atom_site_fract_y
 _atom_site_fract_z
 _atom_site_occupancy
  Te  Te0  1  0.333352  0.666705  0.707598  1
  Te  Te1  1  0.333349  0.666699  0.607548  1
  W  W2  1  0.333315  0.666631  0.093905  1
  W  W3  1  0.333311  0.666622  0.469631  1
  W  W4  1  0.666691  0.333381  0.281805  1
  W  W5  1  0.666689  0.333378  0.657593  1
  Se  Se6  1  0.666643  0.333284  0.049967  1
  Se  Se7  1  0.666649  0.333297  0.425680  1
  Se  Se8  1  0.666653  0.333306  0.137856  1
  Se  Se9  1  0.666638  0.333276  0.513575  1
  S  S10  1  0.333358  0.666717  0.321716  1
  S  S11  1  0.333352  0.666705  0.241873  1
