# generated using pymatgen
data_CeTlCd
_symmetry_space_group_name_H-M   'P 1'
_cell_length_a   5.03046268
_cell_length_b   4.99709074
_cell_length_c   7.08344113
_cell_angle_alpha   90.00000000
_cell_angle_beta   90.00000000
_cell_angle_gamma   120.22115741
_symmetry_Int_Tables_number   1
_chemical_formula_structural   CeTlCd
_chemical_formula_sum   'Ce2 Tl2 Cd2'
_cell_volume   153.86077987
_cell_formula_units_Z   2
loop_
 _symmetry_equiv_pos_site_id
 _symmetry_equiv_pos_as_xyz
  1  'x, y, z'
loop_
 _atom_site_type_symbol
 _atom_site_label
 _atom_site_symmetry_multiplicity
 _atom_site_fract_x
 _atom_site_fract_y
 _atom_site_fract_z
 _atom_site_occupancy
  Ce  Ce0  1  -0.000000  0.000000  0.500000  1
  Ce  Ce1  1  -0.000000  0.000000  0.000000  1
  Tl  Tl2  1  0.333164  0.666326  0.750000  1
  Tl  Tl3  1  0.666836  0.333674  0.250000  1
  Cd  Cd4  1  0.333222  0.666445  0.250000  1
  Cd  Cd5  1  0.666778  0.333555  0.750000  1
