# generated using pymatgen
data_La4V5(Si2O11)2
_symmetry_space_group_name_H-M   'P 1'
_cell_length_a   5.73083117
_cell_length_b   7.39188205
_cell_length_c   11.23628222
_cell_angle_alpha   99.77409571
_cell_angle_beta   90.00000000
_cell_angle_gamma   112.80795506
_symmetry_Int_Tables_number   1
_chemical_formula_structural   La4V5(Si2O11)2
_chemical_formula_sum   'La4 V5 Si4 O22'
_cell_volume   431.26454584
_cell_formula_units_Z   1
loop_
 _symmetry_equiv_pos_site_id
 _symmetry_equiv_pos_as_xyz
  1  'x, y, z'
loop_
 _atom_site_type_symbol
 _atom_site_label
 _atom_site_symmetry_multiplicity
 _atom_site_fract_x
 _atom_site_fract_y
 _atom_site_fract_z
 _atom_site_occupancy
  O  O0  1  0.217575  0.435151  0.863588  1
  O  O1  1  0.782424  0.564848  0.136412  1
  O  O2  1  0.694983  0.860118  0.086026  1
  O  O3  1  0.834865  0.139882  0.913974  1
  O  O4  1  0.305018  0.139882  0.913974  1
  O  O5  1  0.165135  0.860118  0.086026  1
  O  O6  1  0.811103  0.622207  0.902120  1
  O  O7  1  0.188897  0.377793  0.097880  1
  O  O8  1  0.410730  0.821460  0.839508  1
  O  O9  1  0.589269  0.178539  0.160492  1
  O  O10  1  0.488557  0.451309  0.311737  1
  O  O11  1  0.037249  0.548692  0.688264  1
  O  O12  1  0.511443  0.548692  0.688264  1
  O  O13  1  0.349702  0.699403  0.485248  1
  O  O14  1  0.650297  0.300595  0.514752  1
  O  O15  1  0.142611  0.285222  0.475447  1
  O  O16  1  0.857389  0.714778  0.524552  1
  O  O17  1  0.962751  0.451309  0.311737  1
  O  O18  1  0.781814  0.044718  0.629414  1
  O  O19  1  0.262903  0.044718  0.629414  1
  O  O20  1  0.218185  0.955281  0.370586  1
  O  O21  1  0.737096  0.955281  0.370586  1
  Si  Si22  1  0.138231  0.276461  0.956974  1
  Si  Si23  1  0.861768  0.723538  0.043026  1
  Si  Si24  1  0.295805  0.591609  0.770458  1
  Si  Si25  1  0.704194  0.408390  0.229542  1
  V  V26  1  0.499999  0.000000  0.000000  1
  V  V27  1  0.499999  0.499999  0.500000  1
  V  V28  1  0.500000  0.000000  0.500000  1
  V  V29  1  0.000000  0.000000  0.500000  1
  V  V30  1  0.000000  0.499999  0.500000  1
  La  La31  1  0.927177  0.854356  0.752186  1
  La  La32  1  0.072822  0.145645  0.247815  1
  La  La33  1  0.643480  0.286961  0.757333  1
  La  La34  1  0.356520  0.713039  0.242668  1
