# generated using pymatgen
data_CsSmCdTe3
_symmetry_space_group_name_H-M   'P 1'
_cell_length_a   4.60576987
_cell_length_b   8.99813752
_cell_length_c   12.03612718
_cell_angle_alpha   90.00000000
_cell_angle_beta   90.00000000
_cell_angle_gamma   104.82864364
_symmetry_Int_Tables_number   1
_chemical_formula_structural   CsSmCdTe3
_chemical_formula_sum   'Cs2 Sm2 Cd2 Te6'
_cell_volume   482.20460574
_cell_formula_units_Z   2
loop_
 _symmetry_equiv_pos_site_id
 _symmetry_equiv_pos_as_xyz
  1  'x, y, z'
loop_
 _atom_site_type_symbol
 _atom_site_label
 _atom_site_symmetry_multiplicity
 _atom_site_fract_x
 _atom_site_fract_y
 _atom_site_fract_z
 _atom_site_occupancy
  Cd  Cd0  1  0.963884  0.927769  0.250000  1
  Cd  Cd1  1  0.036116  0.072231  0.750000  1
  Te  Te2  1  0.121468  0.242936  0.550198  1
  Te  Te3  1  0.878532  0.757064  0.449802  1
  Te  Te4  1  0.878532  0.757064  0.050197  1
  Te  Te5  1  0.121468  0.242936  0.949802  1
  Te  Te6  1  0.565686  0.131371  0.250000  1
  Te  Te7  1  0.434314  0.868629  0.750000  1
  Cs  Cs8  1  0.250400  0.500801  0.250000  1
  Cs  Cs9  1  0.749600  0.499199  0.750000  1
  Sm  Sm10  1  0.500000  0.000000  0.500000  1
  Sm  Sm11  1  0.500000  0.000000  0.000000  1
