# generated using pymatgen
data_Ba2Nb6Te2O21
_symmetry_space_group_name_H-M   'P 1'
_cell_length_a   5.79395858
_cell_length_b   8.99166894
_cell_length_c   9.85091299
_cell_angle_alpha   96.46763585
_cell_angle_beta   90.00000000
_cell_angle_gamma   108.79510545
_symmetry_Int_Tables_number   1
_chemical_formula_structural   Ba2Nb6Te2O21
_chemical_formula_sum   'Ba2 Nb6 Te2 O21'
_cell_volume   482.38922586
_cell_formula_units_Z   1
loop_
 _symmetry_equiv_pos_site_id
 _symmetry_equiv_pos_as_xyz
  1  'x, y, z'
loop_
 _atom_site_type_symbol
 _atom_site_label
 _atom_site_symmetry_multiplicity
 _atom_site_fract_x
 _atom_site_fract_y
 _atom_site_fract_z
 _atom_site_occupancy
  O  O0  1  0.581813  0.163628  0.279008  1
  O  O1  1  0.418186  0.836372  0.720991  1
  O  O2  1  0.790970  0.581941  0.151956  1
  O  O3  1  0.209029  0.418059  0.848044  1
  O  O4  1  0.000000  0.000000  0.000000  1
  O  O5  1  0.306311  0.130850  0.779210  1
  O  O6  1  0.175460  0.869150  0.220790  1
  O  O7  1  0.693690  0.869150  0.220790  1
  O  O8  1  0.824540  0.130850  0.779210  1
  O  O9  1  0.605763  0.709172  0.946743  1
  O  O10  1  0.277261  0.999999  0.500000  1
  O  O11  1  0.722738  0.999999  0.500000  1
  O  O12  1  0.357666  0.715333  0.396227  1
  O  O13  1  0.642333  0.284667  0.603773  1
  O  O14  1  0.978612  0.436251  0.331165  1
  O  O15  1  0.896592  0.290828  0.053256  1
  O  O16  1  0.021388  0.563749  0.668834  1
  O  O17  1  0.457639  0.436251  0.331165  1
  O  O18  1  0.103409  0.709172  0.946743  1
  O  O19  1  0.394236  0.290828  0.053256  1
  O  O20  1  0.542361  0.563749  0.668834  1
  Nb  Nb21  1  0.676479  0.352959  0.171128  1
  Nb  Nb22  1  0.323520  0.647040  0.828871  1
  Nb  Nb23  1  0.480009  0.960018  0.336917  1
  Nb  Nb24  1  0.519990  0.039981  0.663084  1
  Nb  Nb25  1  0.098778  0.197556  0.916521  1
  Nb  Nb26  1  0.901222  0.802445  0.083480  1
  Te  Te27  1  0.725826  0.451652  0.750652  1
  Te  Te28  1  0.274174  0.548349  0.249347  1
  Ba  Ba29  1  0.860764  0.721529  0.471202  1
  Ba  Ba30  1  0.139236  0.278472  0.528799  1
