# generated using pymatgen
data_SrAlF5
_symmetry_space_group_name_H-M   'P 1'
_cell_length_a   7.54791717
_cell_length_b   9.07104364
_cell_length_c   10.89039642
_cell_angle_alpha   94.30171295
_cell_angle_beta   90.00000000
_cell_angle_gamma   90.00000000
_symmetry_Int_Tables_number   1
_chemical_formula_structural   SrAlF5
_chemical_formula_sum   'Sr8 Al8 F40'
_cell_volume   743.53752092
_cell_formula_units_Z   8
loop_
 _symmetry_equiv_pos_site_id
 _symmetry_equiv_pos_as_xyz
  1  'x, y, z'
loop_
 _atom_site_type_symbol
 _atom_site_label
 _atom_site_symmetry_multiplicity
 _atom_site_fract_x
 _atom_site_fract_y
 _atom_site_fract_z
 _atom_site_occupancy
  F  F0  1  0.064821  0.180111  0.831804  1
  F  F1  1  0.564821  0.319889  0.668196  1
  F  F2  1  0.935179  0.819889  0.168196  1
  F  F3  1  0.435179  0.680111  0.331804  1
  F  F4  1  0.507701  0.407806  0.271141  1
  F  F5  1  0.007701  0.092194  0.228859  1
  F  F6  1  0.492299  0.592194  0.728859  1
  F  F7  1  0.992299  0.907806  0.771141  1
  F  F8  1  0.553995  0.313248  0.042362  1
  F  F9  1  0.053995  0.186752  0.457638  1
  F  F10  1  0.446005  0.686752  0.957638  1
  F  F11  1  0.946005  0.813248  0.542362  1
  F  F12  1  0.607129  0.874108  0.148448  1
  F  F13  1  0.107129  0.625892  0.351552  1
  F  F14  1  0.392871  0.125892  0.851552  1
  F  F15  1  0.892871  0.374108  0.648448  1
  F  F16  1  0.812104  0.671183  0.714055  1
  F  F17  1  0.312104  0.828817  0.785945  1
  F  F18  1  0.187896  0.328817  0.285945  1
  F  F19  1  0.687896  0.171183  0.214055  1
  F  F20  1  0.738316  0.464344  0.847627  1
  F  F21  1  0.238316  0.035656  0.652373  1
  F  F22  1  0.261684  0.535656  0.152373  1
  F  F23  1  0.761684  0.964344  0.347627  1
  F  F24  1  0.669256  0.903677  0.804718  1
  F  F25  1  0.169256  0.596323  0.695282  1
  F  F26  1  0.330744  0.096323  0.195282  1
  F  F27  1  0.830744  0.403677  0.304718  1
  F  F28  1  0.609076  0.820013  0.563717  1
  F  F29  1  0.109076  0.679987  0.936283  1
  F  F30  1  0.390924  0.179987  0.436283  1
  F  F31  1  0.890924  0.320013  0.063717  1
  F  F32  1  0.781868  0.060489  0.637489  1
  F  F33  1  0.281868  0.439511  0.862511  1
  F  F34  1  0.218132  0.939511  0.362511  1
  F  F35  1  0.718132  0.560489  0.137489  1
  F  F36  1  0.317947  0.486499  0.474591  1
  F  F37  1  0.817947  0.013501  0.025409  1
  F  F38  1  0.682053  0.513501  0.525409  1
  F  F39  1  0.182053  0.986499  0.974591  1
  Al  Al40  1  0.706004  0.367311  0.164887  1
  Al  Al41  1  0.206004  0.132689  0.335113  1
  Al  Al42  1  0.293996  0.632689  0.835113  1
  Al  Al43  1  0.793996  0.867311  0.664887  1
  Al  Al44  1  0.800098  0.990837  0.186998  1
  Al  Al45  1  0.300098  0.509163  0.313002  1
  Al  Al46  1  0.199902  0.009163  0.813002  1
  Al  Al47  1  0.699902  0.490837  0.686998  1
  Sr  Sr48  1  0.779260  0.682102  0.361825  1
  Sr  Sr49  1  0.279260  0.817898  0.138175  1
  Sr  Sr50  1  0.220740  0.317898  0.638175  1
  Sr  Sr51  1  0.720740  0.182102  0.861825  1
  Sr  Sr52  1  0.722435  0.221295  0.461874  1
  Sr  Sr53  1  0.222435  0.278705  0.038126  1
  Sr  Sr54  1  0.277565  0.778705  0.538126  1
  Sr  Sr55  1  0.777565  0.721295  0.961874  1
