# generated using pymatgen
data_TeMoWSe3
_symmetry_space_group_name_H-M   'P 1'
_cell_length_a   3.37935733
_cell_length_b   3.37932645
_cell_length_c   38.49260983
_cell_angle_alpha   90.00047516
_cell_angle_beta   90.00000000
_cell_angle_gamma   120.00030235
_symmetry_Int_Tables_number   1
_chemical_formula_structural   TeMoWSe3
_chemical_formula_sum   'Te2 Mo2 W2 Se6'
_cell_volume   380.68952783
_cell_formula_units_Z   2
loop_
 _symmetry_equiv_pos_site_id
 _symmetry_equiv_pos_as_xyz
  1  'x, y, z'
loop_
 _atom_site_type_symbol
 _atom_site_label
 _atom_site_symmetry_multiplicity
 _atom_site_fract_x
 _atom_site_fract_y
 _atom_site_fract_z
 _atom_site_occupancy
  Te  Te0  1  0.666648  0.333295  0.420815  1
  Te  Te1  1  0.666649  0.333297  0.518500  1
  Mo  Mo2  1  0.333308  0.666616  0.093920  1
  Mo  Mo3  1  0.333310  0.666621  0.469670  1
  W  W4  1  0.666686  0.333372  0.281781  1
  W  W5  1  0.666694  0.333387  0.657563  1
  Se  Se6  1  0.333354  0.666709  0.324970  1
  Se  Se7  1  0.333364  0.666729  0.700730  1
  Se  Se8  1  0.666634  0.333268  0.050887  1
  Se  Se9  1  0.666646  0.333292  0.136957  1
  Se  Se10  1  0.333354  0.666709  0.238597  1
  Se  Se11  1  0.333352  0.666704  0.614356  1
