# generated using pymatgen
data_Rb2Ge(S2O7)3
_symmetry_space_group_name_H-M   'P 1'
_cell_length_a   9.90460092
_cell_length_b   9.90484167
_cell_length_c   11.40648117
_cell_angle_alpha   89.99487164
_cell_angle_beta   89.99997604
_cell_angle_gamma   120.00081987
_symmetry_Int_Tables_number   1
_chemical_formula_structural   Rb2Ge(S2O7)3
_chemical_formula_sum   'Rb4 Ge2 S12 O42'
_cell_volume   969.08807227
_cell_formula_units_Z   2
loop_
 _symmetry_equiv_pos_site_id
 _symmetry_equiv_pos_as_xyz
  1  'x, y, z'
loop_
 _atom_site_type_symbol
 _atom_site_label
 _atom_site_symmetry_multiplicity
 _atom_site_fract_x
 _atom_site_fract_y
 _atom_site_fract_z
 _atom_site_occupancy
  Rb  Rb0  1  0.666646  0.333331  0.560601  1
  Rb  Rb1  1  0.333354  0.666669  0.439399  1
  Rb  Rb2  1  0.333355  0.666686  0.877893  1
  Rb  Rb3  1  0.666645  0.333314  0.122107  1
  Ge  Ge4  1  1.000033  0.999989  0.757470  1
  Ge  Ge5  1  -0.000033  0.000011  0.242530  1
  S  S6  1  0.081944  0.334358  0.660303  1
  S  S7  1  0.252397  0.918050  0.660309  1
  S  S8  1  0.665652  0.747590  0.660300  1
  S  S9  1  0.918056  0.665642  0.339697  1
  S  S10  1  0.747603  0.081950  0.339691  1
  S  S11  1  0.334348  0.252410  0.339700  1
  S  S12  1  0.804506  0.656035  0.845979  1
  S  S13  1  0.851537  0.195506  0.845990  1
  S  S14  1  0.343956  0.148446  0.845986  1
  S  S15  1  0.195494  0.343965  0.154021  1
  S  S16  1  0.148463  0.804494  0.154010  1
  S  S17  1  0.656044  0.851554  0.154014  1
  O  O18  1  0.660001  0.678454  0.794834  1
  O  O19  1  0.018462  0.339998  0.794839  1
  O  O20  1  0.321534  0.981532  0.794846  1
  O  O21  1  0.339999  0.321546  0.205166  1
  O  O22  1  0.981538  0.660002  0.205161  1
  O  O23  1  0.678466  0.018468  0.205154  1
  O  O24  1  0.937073  0.825148  0.858919  1
  O  O25  1  0.888069  0.062928  0.858943  1
  O  O26  1  0.174840  0.111911  0.858931  1
  O  O27  1  0.062927  0.174852  0.141081  1
  O  O28  1  0.111931  0.937072  0.141057  1
  O  O29  1  0.825160  0.888089  0.141069  1
  O  O30  1  0.061213  0.171718  0.652782  1
  O  O31  1  0.110488  0.938786  0.652793  1
  O  O32  1  0.828297  0.889500  0.652774  1
  O  O33  1  0.938787  0.828282  0.347218  1
  O  O34  1  0.889512  0.061214  0.347207  1
  O  O35  1  0.171703  0.110500  0.347226  1
  O  O36  1  0.839160  0.571230  0.760881  1
  O  O37  1  0.732068  0.160854  0.760891  1
  O  O38  1  0.428780  0.267928  0.760889  1
  O  O39  1  0.160840  0.428770  0.239119  1
  O  O40  1  0.267932  0.839146  0.239110  1
  O  O41  1  0.571220  0.732072  0.239111  1
  O  O42  1  0.749697  0.591442  0.960044  1
  O  O43  1  0.841755  0.250303  0.960057  1
  O  O44  1  0.408540  0.158221  0.960052  1
  O  O45  1  0.250303  0.408558  0.039956  1
  O  O46  1  0.158245  0.749697  0.039943  1
  O  O47  1  0.591460  0.841779  0.039948  1
  O  O48  1  0.242992  0.453116  0.668361  1
  O  O49  1  0.210118  0.757012  0.668378  1
  O  O50  1  0.546890  0.789871  0.668359  1
  O  O51  1  0.757008  0.546884  0.331639  1
  O  O52  1  0.789882  0.242988  0.331622  1
  O  O53  1  0.453110  0.210129  0.331641  1
  O  O54  1  0.984901  0.352056  0.575793  1
  O  O55  1  0.367141  0.015089  0.575798  1
  O  O56  1  0.647959  0.632858  0.575795  1
  O  O57  1  0.015099  0.647944  0.424207  1
  O  O58  1  0.632859  0.984911  0.424202  1
  O  O59  1  0.352041  0.367142  0.424205  1
