# generated using pymatgen
data_Te2Mo2WS4
_symmetry_space_group_name_H-M   'P 1'
_cell_length_a   3.30489976
_cell_length_b   3.30483538
_cell_length_c   30.55468969
_cell_angle_alpha   90.00000000
_cell_angle_beta   90.00000000
_cell_angle_gamma   120.00064441
_symmetry_Int_Tables_number   1
_chemical_formula_structural   Te2Mo2WS4
_chemical_formula_sum   'Te2 Mo2 W1 S4'
_cell_volume   289.01062688
_cell_formula_units_Z   1
loop_
 _symmetry_equiv_pos_site_id
 _symmetry_equiv_pos_as_xyz
  1  'x, y, z'
loop_
 _atom_site_type_symbol
 _atom_site_label
 _atom_site_symmetry_multiplicity
 _atom_site_fract_x
 _atom_site_fract_y
 _atom_site_fract_z
 _atom_site_occupancy
  Te  Te0  1  0.333351  0.666702  0.410082  1
  Te  Te1  1  0.333351  0.666702  0.283883  1
  Mo  Mo2  1  0.333302  0.666605  0.115605  1
  Mo  Mo3  1  0.333302  0.666605  0.578360  1
  W  W4  1  0.666689  0.333377  0.346982  1
  S  S5  1  0.666652  0.333303  0.065534  1
  S  S6  1  0.666651  0.333302  0.528254  1
  S  S7  1  0.666651  0.333302  0.165711  1
  S  S8  1  0.666652  0.333303  0.628430  1
