# generated using pymatgen
data_Mg4Nb2O9
_symmetry_space_group_name_H-M   'P 1'
_cell_length_a   5.23302997
_cell_length_b   5.23302997
_cell_length_c   14.23734041
_cell_angle_alpha   90.00000000
_cell_angle_beta   90.00000000
_cell_angle_gamma   119.99999997
_symmetry_Int_Tables_number   1
_chemical_formula_structural   Mg4Nb2O9
_chemical_formula_sum   'Mg8 Nb4 O18'
_cell_volume   337.64937052
_cell_formula_units_Z   2
loop_
 _symmetry_equiv_pos_site_id
 _symmetry_equiv_pos_as_xyz
  1  'x, y, z'
loop_
 _atom_site_type_symbol
 _atom_site_label
 _atom_site_symmetry_multiplicity
 _atom_site_fract_x
 _atom_site_fract_y
 _atom_site_fract_z
 _atom_site_occupancy
  O  O0  1  0.348688  0.028931  0.915723  1
  O  O1  1  0.971069  0.319757  0.915723  1
  O  O2  1  0.680243  0.651312  0.915723  1
  O  O3  1  0.319757  0.971069  0.584277  1
  O  O4  1  0.651312  0.680243  0.584277  1
  O  O5  1  0.028931  0.348688  0.584277  1
  O  O6  1  0.651312  0.971069  0.084276  1
  O  O7  1  0.028931  0.680243  0.084276  1
  O  O8  1  0.319757  0.348688  0.084276  1
  O  O9  1  0.680243  0.028931  0.415723  1
  O  O10  1  0.348688  0.319757  0.415723  1
  O  O11  1  0.971069  0.651312  0.415723  1
  O  O12  1  0.290680  0.000000  0.250000  1
  O  O13  1  0.000001  0.290680  0.250000  1
  O  O14  1  0.709321  0.709320  0.250000  1
  O  O15  1  0.290679  0.290680  0.750000  1
  O  O16  1  0.999999  0.709320  0.750000  1
  O  O17  1  0.709321  0.000000  0.750000  1
  Mg  Mg18  1  0.666667  0.333333  0.516436  1
  Mg  Mg19  1  0.333333  0.666667  0.983564  1
  Mg  Mg20  1  0.333333  0.666667  0.483564  1
  Mg  Mg21  1  0.666667  0.333333  0.016436  1
  Mg  Mg22  1  0.666667  0.333333  0.308430  1
  Mg  Mg23  1  0.333333  0.666667  0.191570  1
  Mg  Mg24  1  0.666667  0.333333  0.808429  1
  Mg  Mg25  1  0.333333  0.666667  0.691570  1
  Nb  Nb26  1  0.000000  0.000000  0.357743  1
  Nb  Nb27  1  0.000000  0.000000  0.142257  1
  Nb  Nb28  1  0.000000  0.000000  0.642257  1
  Nb  Nb29  1  0.000000  0.000000  0.857743  1
