# generated using pymatgen
data_Na2Zn3S4
_symmetry_space_group_name_H-M   'P 1'
_cell_length_a   6.85549545
_cell_length_b   7.76559039
_cell_length_c   14.13141552
_cell_angle_alpha   90.00000000
_cell_angle_beta   90.00000000
_cell_angle_gamma   90.00000000
_symmetry_Int_Tables_number   1
_chemical_formula_structural   Na2Zn3S4
_chemical_formula_sum   'Na8 Zn12 S16'
_cell_volume   752.31373823
_cell_formula_units_Z   4
loop_
 _symmetry_equiv_pos_site_id
 _symmetry_equiv_pos_as_xyz
  1  'x, y, z'
loop_
 _atom_site_type_symbol
 _atom_site_label
 _atom_site_symmetry_multiplicity
 _atom_site_fract_x
 _atom_site_fract_y
 _atom_site_fract_z
 _atom_site_occupancy
  Na  Na0  1  0.962711  0.884743  0.398986  1
  Na  Na1  1  0.462711  0.115257  0.101014  1
  Na  Na2  1  0.037289  0.615257  0.898986  1
  Na  Na3  1  0.537289  0.384743  0.601014  1
  Na  Na4  1  0.037289  0.115257  0.601014  1
  Na  Na5  1  0.537289  0.884743  0.898986  1
  Na  Na6  1  0.962711  0.384743  0.101014  1
  Na  Na7  1  0.462711  0.615257  0.398986  1
  Zn  Zn8  1  0.784565  0.657836  0.701958  1
  Zn  Zn9  1  0.284565  0.342164  0.798042  1
  Zn  Zn10  1  0.215435  0.842164  0.201958  1
  Zn  Zn11  1  0.715435  0.157836  0.298042  1
  Zn  Zn12  1  0.215435  0.342164  0.298042  1
  Zn  Zn13  1  0.715435  0.657836  0.201958  1
  Zn  Zn14  1  0.784565  0.157836  0.798042  1
  Zn  Zn15  1  0.284565  0.842164  0.701958  1
  Zn  Zn16  1  0.000000  0.500000  0.500000  1
  Zn  Zn17  1  0.500000  0.500000  0.000000  1
  Zn  Zn18  1  0.000000  -0.000000  0.000000  1
  Zn  Zn19  1  0.500000  -0.000000  0.500000  1
  S  S20  1  0.253915  0.834093  0.535397  1
  S  S21  1  0.753915  0.165907  0.964603  1
  S  S22  1  0.746085  0.665907  0.035397  1
  S  S23  1  0.246085  0.334093  0.464603  1
  S  S24  1  0.746085  0.165907  0.464603  1
  S  S25  1  0.246085  0.834093  0.035397  1
  S  S26  1  0.253915  0.334093  0.964603  1
  S  S27  1  0.753915  0.665907  0.535397  1
  S  S28  1  0.035953  0.616036  0.268856  1
  S  S29  1  0.535953  0.383964  0.231144  1
  S  S30  1  0.964047  0.883964  0.768856  1
  S  S31  1  0.464047  0.116036  0.731144  1
  S  S32  1  0.964047  0.383964  0.731144  1
  S  S33  1  0.464047  0.616036  0.768856  1
  S  S34  1  0.035953  0.116036  0.231144  1
  S  S35  1  0.535953  0.883964  0.268856  1
