# generated using pymatgen
data_PrTe3
_symmetry_space_group_name_H-M   'P 1'
_cell_length_a   4.40477196
_cell_length_b   4.40740549
_cell_length_c   14.00476878
_cell_angle_alpha   90.00000000
_cell_angle_beta   99.04787606
_cell_angle_gamma   90.00000000
_symmetry_Int_Tables_number   1
_chemical_formula_structural   PrTe3
_chemical_formula_sum   'Pr2 Te6'
_cell_volume   268.50023853
_cell_formula_units_Z   2
loop_
 _symmetry_equiv_pos_site_id
 _symmetry_equiv_pos_as_xyz
  1  'x, y, z'
loop_
 _atom_site_type_symbol
 _atom_site_label
 _atom_site_symmetry_multiplicity
 _atom_site_fract_x
 _atom_site_fract_y
 _atom_site_fract_z
 _atom_site_occupancy
  Te  Te0  1  0.498515  0.750000  0.156104  1
  Te  Te1  1  0.342411  0.250000  0.843896  1
  Te  Te2  1  0.212119  0.750000  0.585619  1
  Te  Te3  1  0.626500  0.250000  0.414381  1
  Te  Te4  1  0.998568  0.250000  0.156087  1
  Te  Te5  1  0.842481  0.750000  0.843913  1
  Pr  Pr6  1  0.747695  0.250000  0.656385  1
  Pr  Pr7  1  0.091310  0.750000  0.343615  1
