# generated using pymatgen
data_KBe2B3O7
_symmetry_space_group_name_H-M   'P 1'
_cell_length_a   7.71205011
_cell_length_b   17.66071299
_cell_length_c   4.40830860
_cell_angle_alpha   90.00000000
_cell_angle_beta   90.00000000
_cell_angle_gamma   90.00000000
_symmetry_Int_Tables_number   1
_chemical_formula_structural   KBe2B3O7
_chemical_formula_sum   'K4 Be8 B12 O28'
_cell_volume   600.41296949
_cell_formula_units_Z   4
loop_
 _symmetry_equiv_pos_site_id
 _symmetry_equiv_pos_as_xyz
  1  'x, y, z'
loop_
 _atom_site_type_symbol
 _atom_site_label
 _atom_site_symmetry_multiplicity
 _atom_site_fract_x
 _atom_site_fract_y
 _atom_site_fract_z
 _atom_site_occupancy
  K  K0  1  -0.000000  0.362548  0.106834  1
  K  K1  1  0.500000  0.637452  0.606834  1
  K  K2  1  0.500000  0.147015  0.176872  1
  K  K3  1  -0.000000  0.852985  0.676872  1
  Be  Be4  1  0.311428  0.458361  0.626757  1
  Be  Be5  1  0.688572  0.458361  0.626757  1
  Be  Be6  1  0.188572  0.541639  0.126757  1
  Be  Be7  1  0.811428  0.541639  0.126757  1
  Be  Be8  1  0.175979  0.037177  0.771773  1
  Be  Be9  1  0.824021  0.037177  0.771773  1
  Be  Be10  1  0.324021  0.962823  0.271773  1
  Be  Be11  1  0.675979  0.962823  0.271773  1
  B  B12  1  0.500000  0.479927  0.124134  1
  B  B13  1  -0.000000  0.520073  0.624134  1
  B  B14  1  -0.000000  0.009002  0.265134  1
  B  B15  1  0.500000  0.990998  0.765134  1
  B  B16  1  0.340188  0.315619  0.543548  1
  B  B17  1  0.659812  0.315619  0.543548  1
  B  B18  1  0.159812  0.684381  0.043548  1
  B  B19  1  0.840188  0.684381  0.043548  1
  B  B20  1  0.165336  0.192988  0.671529  1
  B  B21  1  0.834664  0.192988  0.671529  1
  B  B22  1  0.334664  0.807012  0.171529  1
  B  B23  1  0.665336  0.807012  0.171529  1
  O  O24  1  0.500000  0.472706  0.811114  1
  O  O25  1  -0.000000  0.527294  0.311114  1
  O  O26  1  0.342905  0.486794  0.275150  1
  O  O27  1  0.657095  0.486794  0.275150  1
  O  O28  1  0.157095  0.513206  0.775150  1
  O  O29  1  0.842905  0.513206  0.775150  1
  O  O30  1  -0.000000  0.008821  0.952790  1
  O  O31  1  0.500000  0.991179  0.452790  1
  O  O32  1  0.155384  0.007451  0.419917  1
  O  O33  1  0.844616  0.007451  0.419917  1
  O  O34  1  0.344616  0.992549  0.919917  1
  O  O35  1  0.655384  0.992549  0.919917  1
  O  O36  1  0.237885  0.372305  0.638445  1
  O  O37  1  0.762115  0.372305  0.638445  1
  O  O38  1  0.262115  0.627695  0.138445  1
  O  O39  1  0.737885  0.627695  0.138445  1
  O  O40  1  0.500000  0.331781  0.405071  1
  O  O41  1  -0.000000  0.668219  0.905071  1
  O  O42  1  0.303230  0.238718  0.571783  1
  O  O43  1  0.696770  0.238718  0.571783  1
  O  O44  1  0.196770  0.761282  0.071783  1
  O  O45  1  0.803230  0.761282  0.071783  1
  O  O46  1  -0.000000  0.224272  0.631064  1
  O  O47  1  0.500000  0.775728  0.131064  1
  O  O48  1  0.206185  0.125697  0.787336  1
  O  O49  1  0.793815  0.125697  0.787336  1
  O  O50  1  0.293815  0.874303  0.287336  1
  O  O51  1  0.706185  0.874303  0.287336  1
