# generated using pymatgen
data_Cs2TaAgS4
_symmetry_space_group_name_H-M   'P 1'
_cell_length_a   6.03251711
_cell_length_b   7.87891620
_cell_length_c   12.97493412
_cell_angle_alpha   84.89420851
_cell_angle_beta   76.55757596
_cell_angle_gamma   67.49112211
_symmetry_Int_Tables_number   1
_chemical_formula_structural   Cs2TaAgS4
_chemical_formula_sum   'Cs4 Ta2 Ag2 S8'
_cell_volume   554.10711866
_cell_formula_units_Z   2
loop_
 _symmetry_equiv_pos_site_id
 _symmetry_equiv_pos_as_xyz
  1  'x, y, z'
loop_
 _atom_site_type_symbol
 _atom_site_label
 _atom_site_symmetry_multiplicity
 _atom_site_fract_x
 _atom_site_fract_y
 _atom_site_fract_z
 _atom_site_occupancy
  S  S0  1  0.878901  0.562791  0.856145  1
  S  S1  1  0.797838  0.937209  0.643855  1
  S  S2  1  0.558307  0.562791  0.643855  1
  S  S3  1  0.264953  0.937209  0.856145  1
  S  S4  1  0.735047  0.062791  0.143855  1
  S  S5  1  0.202162  0.062791  0.356145  1
  S  S6  1  0.441693  0.437209  0.356145  1
  S  S7  1  0.121099  0.437209  0.143855  1
  Ag  Ag8  1  0.125000  0.750000  0.750000  1
  Ag  Ag9  1  0.875000  0.250000  0.250000  1
  Cs  Cs10  1  0.446864  0.750000  0.106272  1
  Cs  Cs11  1  0.803136  0.750000  0.393728  1
  Cs  Cs12  1  0.553136  0.250000  0.893728  1
  Cs  Cs13  1  0.196864  0.250000  0.606272  1
  Ta  Ta14  1  0.625000  0.750000  0.750000  1
  Ta  Ta15  1  0.375000  0.250000  0.250000  1
