# generated using pymatgen
data_Na2Ge(S2O7)3
_symmetry_space_group_name_H-M   'P 1'
_cell_length_a   9.89426897
_cell_length_b   12.92300274
_cell_length_c   14.85824421
_cell_angle_alpha   90.00000000
_cell_angle_beta   90.00000000
_cell_angle_gamma   90.00000000
_symmetry_Int_Tables_number   1
_chemical_formula_structural   Na2Ge(S2O7)3
_chemical_formula_sum   'Na8 Ge4 S24 O84'
_cell_volume   1899.82956030
_cell_formula_units_Z   4
loop_
 _symmetry_equiv_pos_site_id
 _symmetry_equiv_pos_as_xyz
  1  'x, y, z'
loop_
 _atom_site_type_symbol
 _atom_site_label
 _atom_site_symmetry_multiplicity
 _atom_site_fract_x
 _atom_site_fract_y
 _atom_site_fract_z
 _atom_site_occupancy
  Na  Na0  1  0.559795  0.198033  0.959656  1
  Na  Na1  1  0.940205  0.801967  0.459656  1
  Na  Na2  1  0.059795  0.301967  0.040344  1
  Na  Na3  1  0.440205  0.698033  0.540344  1
  Na  Na4  1  0.885121  0.183254  0.384442  1
  Na  Na5  1  0.614879  0.816746  0.884442  1
  Na  Na6  1  0.385121  0.316746  0.615558  1
  Na  Na7  1  0.114879  0.683254  0.115558  1
  Ge  Ge8  1  0.433039  0.033197  0.276591  1
  Ge  Ge9  1  0.066961  0.966803  0.776591  1
  Ge  Ge10  1  0.933039  0.466803  0.723409  1
  Ge  Ge11  1  0.566961  0.533197  0.223409  1
  S  S12  1  0.165540  0.903168  0.275758  1
  S  S13  1  0.334460  0.096832  0.775758  1
  S  S14  1  0.665540  0.596832  0.724242  1
  S  S15  1  0.834460  0.403168  0.224242  1
  S  S16  1  0.520354  0.968323  0.086378  1
  S  S17  1  0.979646  0.031677  0.586378  1
  S  S18  1  0.020354  0.531677  0.913622  1
  S  S19  1  0.479646  0.468323  0.413622  1
  S  S20  1  0.151845  0.119649  0.226116  1
  S  S21  1  0.348155  0.880351  0.726116  1
  S  S22  1  0.651845  0.380351  0.773884  1
  S  S23  1  0.848155  0.619649  0.273884  1
  S  S24  1  0.699353  0.106130  0.179812  1
  S  S25  1  0.800647  0.893870  0.679812  1
  S  S26  1  0.199353  0.393870  0.820188  1
  S  S27  1  0.300647  0.606130  0.320188  1
  S  S28  1  0.528055  0.115031  0.461629  1
  S  S29  1  0.971945  0.884969  0.961629  1
  S  S30  1  0.028055  0.384969  0.538371  1
  S  S31  1  0.471945  0.615031  0.038371  1
  S  S32  1  0.615528  0.907814  0.417333  1
  S  S33  1  0.884472  0.092186  0.917333  1
  S  S34  1  0.115528  0.592186  0.582667  1
  S  S35  1  0.384472  0.407814  0.082667  1
  O  O36  1  0.565401  0.125695  0.228631  1
  O  O37  1  0.934599  0.874305  0.728631  1
  O  O38  1  0.065401  0.374305  0.771369  1
  O  O39  1  0.434599  0.625695  0.271369  1
  O  O40  1  0.306259  0.126961  0.225002  1
  O  O41  1  0.193741  0.873039  0.725002  1
  O  O42  1  0.806259  0.373039  0.774998  1
  O  O43  1  0.693741  0.626961  0.274998  1
  O  O44  1  0.291545  0.946416  0.322524  1
  O  O45  1  0.208455  0.053584  0.822524  1
  O  O46  1  0.791545  0.553584  0.677476  1
  O  O47  1  0.708455  0.446416  0.177476  1
  O  O48  1  0.470884  0.058498  0.040711  1
  O  O49  1  0.029116  0.941502  0.540711  1
  O  O50  1  0.970884  0.441502  0.959289  1
  O  O51  1  0.529116  0.558498  0.459289  1
  O  O52  1  0.568998  0.943028  0.324712  1
  O  O53  1  0.931002  0.056972  0.824712  1
  O  O54  1  0.068998  0.556972  0.675288  1
  O  O55  1  0.431002  0.443028  0.175288  1
  O  O56  1  0.125056  0.996699  0.203459  1
  O  O57  1  0.374944  0.003301  0.703459  1
  O  O58  1  0.625056  0.503301  0.796541  1
  O  O59  1  0.874944  0.496699  0.296541  1
  O  O60  1  0.439003  0.946231  0.171848  1
  O  O61  1  0.060997  0.053769  0.671848  1
  O  O62  1  0.939003  0.553769  0.828152  1
  O  O63  1  0.560997  0.446231  0.328152  1
  O  O64  1  0.759406  0.920360  0.423662  1
  O  O65  1  0.740594  0.079640  0.923662  1
  O  O66  1  0.259406  0.579640  0.576338  1
  O  O67  1  0.240594  0.420360  0.076338  1
  O  O68  1  0.424543  0.112377  0.384939  1
  O  O69  1  0.075457  0.887623  0.884939  1
  O  O70  1  0.924543  0.387623  0.615061  1
  O  O71  1  0.575457  0.612377  0.115061  1
  O  O72  1  0.193599  0.817748  0.217418  1
  O  O73  1  0.306401  0.182252  0.717418  1
  O  O74  1  0.693599  0.682252  0.782582  1
  O  O75  1  0.806401  0.317748  0.282582  1
  O  O76  1  0.100350  0.171147  0.148164  1
  O  O77  1  0.399650  0.828853  0.648164  1
  O  O78  1  0.600350  0.328853  0.851836  1
  O  O79  1  0.899650  0.671147  0.351836  1
  O  O80  1  0.058784  0.894759  0.340238  1
  O  O81  1  0.441216  0.105241  0.840238  1
  O  O82  1  0.558784  0.605241  0.659762  1
  O  O83  1  0.941216  0.394759  0.159762  1
  O  O84  1  0.465925  0.157180  0.540139  1
  O  O85  1  0.034075  0.842820  0.040139  1
  O  O86  1  0.965925  0.342820  0.459861  1
  O  O87  1  0.534075  0.657180  0.959861  1
  O  O88  1  0.097021  0.142838  0.313272  1
  O  O89  1  0.402979  0.857162  0.813272  1
  O  O90  1  0.597021  0.357162  0.686728  1
  O  O91  1  0.902979  0.642838  0.186728  1
  O  O92  1  0.540224  0.874081  0.037588  1
  O  O93  1  0.959776  0.125919  0.537588  1
  O  O94  1  0.040224  0.625919  0.962412  1
  O  O95  1  0.459776  0.374081  0.462412  1
  O  O96  1  0.542460  0.990354  0.487099  1
  O  O97  1  0.957540  0.009646  0.987099  1
  O  O98  1  0.042460  0.509646  0.512901  1
  O  O99  1  0.457540  0.490354  0.012901  1
  O  O100  1  0.807974  0.082236  0.239966  1
  O  O101  1  0.692026  0.917764  0.739966  1
  O  O102  1  0.307974  0.417764  0.760034  1
  O  O103  1  0.192026  0.582236  0.260034  1
  O  O104  1  0.657938  0.151272  0.432841  1
  O  O105  1  0.842062  0.848728  0.932841  1
  O  O106  1  0.157938  0.348728  0.567159  1
  O  O107  1  0.342062  0.651272  0.067159  1
  O  O108  1  0.717304  0.183344  0.111554  1
  O  O109  1  0.782696  0.816656  0.611554  1
  O  O110  1  0.217304  0.316656  0.888446  1
  O  O111  1  0.282696  0.683344  0.388446  1
  O  O112  1  0.557664  0.810731  0.443098  1
  O  O113  1  0.942336  0.189269  0.943098  1
  O  O114  1  0.057664  0.689269  0.556902  1
  O  O115  1  0.442336  0.310731  0.056902  1
  O  O116  1  0.671802  0.993545  0.127688  1
  O  O117  1  0.828198  0.006455  0.627688  1
  O  O118  1  0.171802  0.506455  0.872312  1
  O  O119  1  0.328198  0.493545  0.372312  1
