# generated using pymatgen
data_CrN2
_symmetry_space_group_name_H-M   'P 1'
_cell_length_a   10.82495827
_cell_length_b   10.84065276
_cell_length_c   13.71491798
_cell_angle_alpha   113.27931584
_cell_angle_beta   113.24363236
_cell_angle_gamma   90.00000000
_symmetry_Int_Tables_number   1
_chemical_formula_structural   CrN2
_chemical_formula_sum   'Cr16 N32'
_cell_volume   1335.02455195
_cell_formula_units_Z   16
loop_
 _symmetry_equiv_pos_site_id
 _symmetry_equiv_pos_as_xyz
  1  'x, y, z'
loop_
 _atom_site_type_symbol
 _atom_site_label
 _atom_site_symmetry_multiplicity
 _atom_site_fract_x
 _atom_site_fract_y
 _atom_site_fract_z
 _atom_site_occupancy
  Cr  Cr0  1  0.520182  0.330142  0.358131  1
  Cr  Cr1  1  0.837949  0.027989  0.358131  1
  Cr  Cr2  1  0.412051  0.722011  0.141869  1
  Cr  Cr3  1  0.729818  0.419858  0.141869  1
  Cr  Cr4  1  0.837949  0.330142  0.358131  1
  Cr  Cr5  1  0.520182  0.027989  0.358131  1
  Cr  Cr6  1  0.729818  0.722011  0.141869  1
  Cr  Cr7  1  0.412051  0.419858  0.141869  1
  Cr  Cr8  1  0.972037  0.162252  0.641715  1
  Cr  Cr9  1  0.669679  0.479463  0.641715  1
  Cr  Cr10  1  0.580321  0.270537  0.858285  1
  Cr  Cr11  1  0.277963  0.587748  0.858285  1
  Cr  Cr12  1  0.669679  0.162252  0.641715  1
  Cr  Cr13  1  0.972037  0.479463  0.641715  1
  Cr  Cr14  1  0.277963  0.270537  0.858285  1
  Cr  Cr15  1  0.580321  0.587748  0.858285  1
  N  N16  1  0.552578  0.447129  0.499897  1
  N  N17  1  0.947319  0.052768  0.499897  1
  N  N18  1  0.302681  0.697232  0.000103  1
  N  N19  1  0.697422  0.302871  0.000103  1
  N  N20  1  0.947319  0.447129  0.499897  1
  N  N21  1  0.552578  0.052768  0.499897  1
  N  N22  1  0.697422  0.697232  0.000103  1
  N  N23  1  0.302681  0.302871  0.000103  1
  N  N24  1  0.574276  0.422768  0.148553  1
  N  N25  1  0.574276  0.725785  0.148553  1
  N  N26  1  0.675724  0.024215  0.351447  1
  N  N27  1  0.675724  0.327232  0.351447  1
  N  N28  1  0.274205  0.425805  0.851610  1
  N  N29  1  0.577405  0.425805  0.851610  1
  N  N30  1  0.672595  0.324195  0.648390  1
  N  N31  1  0.975795  0.324195  0.648390  1
  N  N32  1  0.787946  0.581785  0.163571  1
  N  N33  1  0.375625  0.581785  0.163571  1
  N  N34  1  0.874375  0.168215  0.336429  1
  N  N35  1  0.462054  0.168215  0.336429  1
  N  N36  1  0.418232  0.624118  0.836464  1
  N  N37  1  0.418232  0.212346  0.836464  1
  N  N38  1  0.831768  0.537654  0.663536  1
  N  N39  1  0.831768  0.125882  0.663536  1
  N  N40  1  0.412390  0.375000  0.250000  1
  N  N41  1  0.837610  0.875000  0.250000  1
  N  N42  1  0.412390  0.875000  0.250000  1
  N  N43  1  0.837610  0.375000  0.250000  1
  N  N44  1  0.125000  0.162685  0.750000  1
  N  N45  1  0.625000  0.587315  0.750000  1
  N  N46  1  0.625000  0.162685  0.750000  1
  N  N47  1  0.125000  0.587315  0.750000  1
