# generated using pymatgen
data_Ba2NdNbO6
_symmetry_space_group_name_H-M   'P 1'
_cell_length_a   6.17333945
_cell_length_b   6.17333945
_cell_length_c   6.17333945
_cell_angle_alpha   60.00000003
_cell_angle_beta   60.00000004
_cell_angle_gamma   59.99999998
_symmetry_Int_Tables_number   1
_chemical_formula_structural   Ba2NdNbO6
_chemical_formula_sum   'Ba2 Nd1 Nb1 O6'
_cell_volume   166.35868380
_cell_formula_units_Z   1
loop_
 _symmetry_equiv_pos_site_id
 _symmetry_equiv_pos_as_xyz
  1  'x, y, z'
loop_
 _atom_site_type_symbol
 _atom_site_label
 _atom_site_symmetry_multiplicity
 _atom_site_fract_x
 _atom_site_fract_y
 _atom_site_fract_z
 _atom_site_occupancy
  O  O0  1  0.232660  0.767341  0.767340  1
  O  O1  1  0.232660  0.767341  0.232659  1
  O  O2  1  0.767341  0.232660  0.767341  1
  O  O3  1  0.232660  0.232660  0.767340  1
  O  O4  1  0.767341  0.232660  0.232659  1
  O  O5  1  0.767339  0.767341  0.232659  1
  Nb  Nb6  1  0.000000  0.000000  0.000000  1
  Ba  Ba7  1  0.750001  0.749999  0.750001  1
  Ba  Ba8  1  0.250001  0.250000  0.249999  1
  Nd  Nd9  1  0.500000  0.499999  0.500000  1
