# generated using pymatgen
data_LaAg2
_symmetry_space_group_name_H-M   'P 1'
_cell_length_a   4.89738311
_cell_length_b   6.06200655
_cell_length_c   6.06200655
_cell_angle_alpha   75.25979676
_cell_angle_beta   66.17523308
_cell_angle_gamma   66.17523308
_symmetry_Int_Tables_number   1
_chemical_formula_structural   LaAg2
_chemical_formula_sum   'La2 Ag4'
_cell_volume   149.70511281
_cell_formula_units_Z   2
loop_
 _symmetry_equiv_pos_site_id
 _symmetry_equiv_pos_as_xyz
  1  'x, y, z'
loop_
 _atom_site_type_symbol
 _atom_site_label
 _atom_site_symmetry_multiplicity
 _atom_site_fract_x
 _atom_site_fract_y
 _atom_site_fract_z
 _atom_site_occupancy
  La  La0  1  0.460493  0.289507  0.789507  1
  La  La1  1  0.539507  0.710493  0.210493  1
  Ag  Ag2  1  0.834514  0.118165  0.212807  1
  Ag  Ag3  1  0.165486  0.881835  0.787193  1
  Ag  Ag4  1  0.834514  0.712807  0.618165  1
  Ag  Ag5  1  0.165486  0.287193  0.381835  1
