# generated using pymatgen
data_CsMgBO3
_symmetry_space_group_name_H-M   'P 1'
_cell_length_a   20.50868220
_cell_length_b   4.94028128
_cell_length_c   16.91670763
_cell_angle_alpha   90.00000000
_cell_angle_beta   114.32037774
_cell_angle_gamma   90.00000000
_symmetry_Int_Tables_number   1
_chemical_formula_structural   CsMgBO3
_chemical_formula_sum   'Cs16 Mg16 B16 O48'
_cell_volume   1561.87432753
_cell_formula_units_Z   16
loop_
 _symmetry_equiv_pos_site_id
 _symmetry_equiv_pos_as_xyz
  1  'x, y, z'
loop_
 _atom_site_type_symbol
 _atom_site_label
 _atom_site_symmetry_multiplicity
 _atom_site_fract_x
 _atom_site_fract_y
 _atom_site_fract_z
 _atom_site_occupancy
  Cs  Cs0  1  0.271666  0.736670  0.141623  1
  Cs  Cs1  1  0.728334  0.236670  0.358377  1
  Cs  Cs2  1  0.728334  0.263330  0.858377  1
  Cs  Cs3  1  0.271666  0.763330  0.641623  1
  Cs  Cs4  1  0.442044  0.722710  0.400379  1
  Cs  Cs5  1  0.557956  0.222710  0.099621  1
  Cs  Cs6  1  0.557956  0.277290  0.599621  1
  Cs  Cs7  1  0.442044  0.777290  0.900379  1
  Cs  Cs8  1  0.057712  0.725422  0.958477  1
  Cs  Cs9  1  0.942288  0.225422  0.541523  1
  Cs  Cs10  1  0.942288  0.274578  0.041523  1
  Cs  Cs11  1  0.057712  0.774578  0.458477  1
  Cs  Cs12  1  0.228124  0.754701  0.370099  1
  Cs  Cs13  1  0.771876  0.254701  0.129901  1
  Cs  Cs14  1  0.771876  0.245299  0.629901  1
  Cs  Cs15  1  0.228124  0.745299  0.870099  1
  Mg  Mg16  1  0.058580  0.273001  0.280818  1
  Mg  Mg17  1  0.941420  0.773001  0.219182  1
  Mg  Mg18  1  0.941420  0.726999  0.719182  1
  Mg  Mg19  1  0.058580  0.226999  0.780818  1
  Mg  Mg20  1  0.655349  0.734344  0.490723  1
  Mg  Mg21  1  0.344651  0.234344  0.009277  1
  Mg  Mg22  1  0.344651  0.265656  0.509277  1
  Mg  Mg23  1  0.655349  0.765656  0.990723  1
  Mg  Mg24  1  0.441252  0.219217  0.221936  1
  Mg  Mg25  1  0.558748  0.719217  0.278064  1
  Mg  Mg26  1  0.558748  0.780783  0.778064  1
  Mg  Mg27  1  0.441252  0.280783  0.721936  1
  Mg  Mg28  1  0.155206  0.256956  0.165105  1
  Mg  Mg29  1  0.844794  0.756956  0.334895  1
  Mg  Mg30  1  0.844794  0.743044  0.834895  1
  Mg  Mg31  1  0.155206  0.243044  0.665105  1
  B  B32  1  0.823331  0.732760  0.514876  1
  B  B33  1  0.176669  0.232760  0.985124  1
  B  B34  1  0.176669  0.267240  0.485124  1
  B  B35  1  0.823331  0.767240  0.014876  1
  B  B36  1  0.580380  0.217402  0.384693  1
  B  B37  1  0.419620  0.717402  0.115307  1
  B  B38  1  0.419620  0.782598  0.615307  1
  B  B39  1  0.580380  0.282598  0.884693  1
  B  B40  1  0.676944  0.775305  0.692082  1
  B  B41  1  0.323056  0.275305  0.807918  1
  B  B42  1  0.323056  0.224695  0.307918  1
  B  B43  1  0.676944  0.724695  0.192082  1
  B  B44  1  0.080554  0.774556  0.195777  1
  B  B45  1  0.919446  0.274556  0.304223  1
  B  B46  1  0.919446  0.225444  0.804223  1
  B  B47  1  0.080554  0.725444  0.695777  1
  O  O48  1  0.872699  0.735778  0.601427  1
  O  O49  1  0.127301  0.235778  0.898573  1
  O  O50  1  0.127301  0.264222  0.398573  1
  O  O51  1  0.872699  0.764222  0.101427  1
  O  O52  1  0.750836  0.757107  0.493514  1
  O  O53  1  0.249164  0.257107  0.006486  1
  O  O54  1  0.249164  0.242893  0.506486  1
  O  O55  1  0.750836  0.742893  0.993514  1
  O  O56  1  0.371327  0.229360  0.269221  1
  O  O57  1  0.628673  0.729360  0.230779  1
  O  O58  1  0.628673  0.770640  0.730779  1
  O  O59  1  0.371327  0.270640  0.769221  1
  O  O60  1  0.250087  0.229279  0.258083  1
  O  O61  1  0.749913  0.729279  0.241917  1
  O  O62  1  0.749913  0.770721  0.741917  1
  O  O63  1  0.250087  0.270721  0.758083  1
  O  O64  1  0.150854  0.204944  0.049046  1
  O  O65  1  0.849146  0.704944  0.450954  1
  O  O66  1  0.849146  0.795056  0.950954  1
  O  O67  1  0.150854  0.295056  0.549046  1
  O  O68  1  0.649609  0.787829  0.601815  1
  O  O69  1  0.350391  0.287829  0.898185  1
  O  O70  1  0.350391  0.212171  0.398185  1
  O  O71  1  0.649609  0.712171  0.101815  1
  O  O72  1  0.416494  0.434036  0.113607  1
  O  O73  1  0.583506  0.934036  0.386393  1
  O  O74  1  0.583506  0.565964  0.886393  1
  O  O75  1  0.416494  0.065964  0.613607  1
  O  O76  1  0.618519  0.363031  0.457424  1
  O  O77  1  0.381481  0.863031  0.042576  1
  O  O78  1  0.381481  0.636969  0.542576  1
  O  O79  1  0.618519  0.136969  0.957424  1
  O  O80  1  0.119130  0.629312  0.161646  1
  O  O81  1  0.880870  0.129312  0.338354  1
  O  O82  1  0.880870  0.370688  0.838354  1
  O  O83  1  0.119130  0.870688  0.661646  1
  O  O84  1  0.083324  0.057916  0.197141  1
  O  O85  1  0.916676  0.557916  0.302859  1
  O  O86  1  0.916676  0.942084  0.802859  1
  O  O87  1  0.083324  0.442084  0.697141  1
  O  O88  1  0.038351  0.648705  0.233111  1
  O  O89  1  0.961649  0.148705  0.266889  1
  O  O90  1  0.961649  0.351295  0.766889  1
  O  O91  1  0.038351  0.851295  0.733111  1
  O  O92  1  0.461675  0.842951  0.194956  1
  O  O93  1  0.538325  0.342951  0.305044  1
  O  O94  1  0.538325  0.157049  0.805044  1
  O  O95  1  0.461675  0.657049  0.694956  1
