# generated using pymatgen
data_SrZn5
_symmetry_space_group_name_H-M   'P 1'
_cell_length_a   5.27208735
_cell_length_b   6.75379376
_cell_length_c   13.23161316
_cell_angle_alpha   90.00000000
_cell_angle_beta   90.00000000
_cell_angle_gamma   90.00000000
_symmetry_Int_Tables_number   1
_chemical_formula_structural   SrZn5
_chemical_formula_sum   'Sr4 Zn20'
_cell_volume   471.13263338
_cell_formula_units_Z   4
loop_
 _symmetry_equiv_pos_site_id
 _symmetry_equiv_pos_as_xyz
  1  'x, y, z'
loop_
 _atom_site_type_symbol
 _atom_site_label
 _atom_site_symmetry_multiplicity
 _atom_site_fract_x
 _atom_site_fract_y
 _atom_site_fract_z
 _atom_site_occupancy
  Zn  Zn0  1  0.250000  0.405214  0.521094  1
  Zn  Zn1  1  0.750000  0.594786  0.478906  1
  Zn  Zn2  1  0.750000  0.905214  0.978906  1
  Zn  Zn3  1  0.250000  0.094786  0.021094  1
  Zn  Zn4  1  0.250000  0.160120  0.213612  1
  Zn  Zn5  1  0.750000  0.839880  0.786388  1
  Zn  Zn6  1  0.750000  0.660120  0.286388  1
  Zn  Zn7  1  0.250000  0.339880  0.713612  1
  Zn  Zn8  1  0.250000  0.543624  0.206953  1
  Zn  Zn9  1  0.750000  0.456376  0.793047  1
  Zn  Zn10  1  0.750000  0.043624  0.293047  1
  Zn  Zn11  1  0.250000  0.956376  0.706953  1
  Zn  Zn12  1  0.000099  0.345820  0.357031  1
  Zn  Zn13  1  0.500099  0.654180  0.642969  1
  Zn  Zn14  1  0.999901  0.845820  0.142969  1
  Zn  Zn15  1  0.499901  0.154180  0.857031  1
  Zn  Zn16  1  0.999901  0.654180  0.642969  1
  Zn  Zn17  1  0.499901  0.345820  0.357031  1
  Zn  Zn18  1  0.000099  0.154180  0.857031  1
  Zn  Zn19  1  0.500099  0.845820  0.142969  1
  Sr  Sr20  1  0.250000  0.644727  0.910097  1
  Sr  Sr21  1  0.750000  0.355273  0.089903  1
  Sr  Sr22  1  0.750000  0.144727  0.589903  1
  Sr  Sr23  1  0.250000  0.855273  0.410097  1
