# generated using pymatgen
data_Te2Mo2WSe4
_symmetry_space_group_name_H-M   'P 1'
_cell_length_a   3.40320549
_cell_length_b   3.40313515
_cell_length_c   31.41739825
_cell_angle_alpha   90.00000000
_cell_angle_beta   90.00000000
_cell_angle_gamma   120.00068386
_symmetry_Int_Tables_number   1
_chemical_formula_structural   Te2Mo2WSe4
_chemical_formula_sum   'Te2 Mo2 W1 Se4'
_cell_volume   315.11220566
_cell_formula_units_Z   1
loop_
 _symmetry_equiv_pos_site_id
 _symmetry_equiv_pos_as_xyz
  1  'x, y, z'
loop_
 _atom_site_type_symbol
 _atom_site_label
 _atom_site_symmetry_multiplicity
 _atom_site_fract_x
 _atom_site_fract_y
 _atom_site_fract_z
 _atom_site_occupancy
  Te  Te0  1  0.333354  0.666709  0.406877  1
  Te  Te1  1  0.333354  0.666709  0.287088  1
  Mo  Mo2  1  0.333310  0.666620  0.115637  1
  Mo  Mo3  1  0.333310  0.666620  0.578328  1
  W  W4  1  0.666694  0.333388  0.346982  1
  Se  Se5  1  0.666648  0.333296  0.063171  1
  Se  Se6  1  0.666641  0.333282  0.525809  1
  Se  Se7  1  0.666641  0.333282  0.168156  1
  Se  Se8  1  0.666648  0.333296  0.630793  1
