# generated using pymatgen
data_KB(SO4)2
_symmetry_space_group_name_H-M   'P 1'
_cell_length_a   9.23188475
_cell_length_b   9.23188475
_cell_length_c   7.55018771
_cell_angle_alpha   90.00000000
_cell_angle_beta   90.00000000
_cell_angle_gamma   90.00000000
_symmetry_Int_Tables_number   1
_chemical_formula_structural   KB(SO4)2
_chemical_formula_sum   'K4 B4 S8 O32'
_cell_volume   643.48510317
_cell_formula_units_Z   4
loop_
 _symmetry_equiv_pos_site_id
 _symmetry_equiv_pos_as_xyz
  1  'x, y, z'
loop_
 _atom_site_type_symbol
 _atom_site_label
 _atom_site_symmetry_multiplicity
 _atom_site_fract_x
 _atom_site_fract_y
 _atom_site_fract_z
 _atom_site_occupancy
  K  K0  1  0.750000  0.750000  0.437419  1
  K  K1  1  0.750000  0.750000  0.937419  1
  K  K2  1  0.250000  0.250000  0.562581  1
  K  K3  1  0.250000  0.250000  0.062581  1
  B  B4  1  0.750000  0.250000  0.500000  1
  B  B5  1  0.750000  0.250000  0.000000  1
  B  B6  1  0.250000  0.750000  0.000000  1
  B  B7  1  0.250000  0.750000  0.500000  1
  S  S8  1  0.903561  0.096439  0.250000  1
  S  S9  1  0.596439  0.096439  0.750000  1
  S  S10  1  0.903561  0.403561  0.750000  1
  S  S11  1  0.596439  0.403561  0.250000  1
  S  S12  1  0.096439  0.903561  0.750000  1
  S  S13  1  0.403561  0.903561  0.250000  1
  S  S14  1  0.096439  0.596439  0.250000  1
  S  S15  1  0.403561  0.596439  0.750000  1
  O  O16  1  0.624929  0.545473  0.179298  1
  O  O17  1  0.875071  0.545473  0.679298  1
  O  O18  1  0.624929  0.954527  0.679298  1
  O  O19  1  0.875071  0.954527  0.179298  1
  O  O20  1  0.545473  0.624929  0.679298  1
  O  O21  1  0.954527  0.624929  0.179298  1
  O  O22  1  0.545473  0.875071  0.179298  1
  O  O23  1  0.954527  0.875071  0.679298  1
  O  O24  1  0.375071  0.454527  0.820702  1
  O  O25  1  0.124929  0.454527  0.320702  1
  O  O26  1  0.375071  0.045473  0.320702  1
  O  O27  1  0.124929  0.045473  0.820702  1
  O  O28  1  0.454527  0.375071  0.320702  1
  O  O29  1  0.045473  0.375071  0.820702  1
  O  O30  1  0.454527  0.124929  0.820702  1
  O  O31  1  0.045473  0.124929  0.320702  1
  O  O32  1  0.120695  0.716944  0.391951  1
  O  O33  1  0.379305  0.716944  0.891951  1
  O  O34  1  0.120695  0.783056  0.891951  1
  O  O35  1  0.379305  0.783056  0.391951  1
  O  O36  1  0.716944  0.120695  0.891951  1
  O  O37  1  0.783056  0.120695  0.391951  1
  O  O38  1  0.716944  0.379305  0.391951  1
  O  O39  1  0.783056  0.379305  0.891951  1
  O  O40  1  0.879305  0.283056  0.608049  1
  O  O41  1  0.620695  0.283056  0.108049  1
  O  O42  1  0.879305  0.216944  0.108049  1
  O  O43  1  0.620695  0.216944  0.608049  1
  O  O44  1  0.283056  0.879305  0.108049  1
  O  O45  1  0.216944  0.879305  0.608049  1
  O  O46  1  0.283056  0.620695  0.608049  1
  O  O47  1  0.216944  0.620695  0.108049  1
