# generated using pymatgen
data_PrTl(MoO4)2
_symmetry_space_group_name_H-M   'P 1'
_cell_length_a   6.42826706
_cell_length_b   6.42826706
_cell_length_c   9.75781183
_cell_angle_alpha   90.00000000
_cell_angle_beta   90.00000000
_cell_angle_gamma   90.00000000
_symmetry_Int_Tables_number   1
_chemical_formula_structural   PrTl(MoO4)2
_chemical_formula_sum   'Pr2 Tl2 Mo4 O16'
_cell_volume   403.21832486
_cell_formula_units_Z   2
loop_
 _symmetry_equiv_pos_site_id
 _symmetry_equiv_pos_as_xyz
  1  'x, y, z'
loop_
 _atom_site_type_symbol
 _atom_site_label
 _atom_site_symmetry_multiplicity
 _atom_site_fract_x
 _atom_site_fract_y
 _atom_site_fract_z
 _atom_site_occupancy
  O  O0  1  0.055275  0.638162  0.389741  1
  O  O1  1  0.444725  0.861838  0.389741  1
  O  O2  1  0.638162  0.055275  0.110259  1
  O  O3  1  0.638162  0.444725  0.389741  1
  O  O4  1  0.861838  0.055275  0.389741  1
  O  O5  1  0.444725  0.638162  0.110259  1
  O  O6  1  0.055275  0.861838  0.110259  1
  O  O7  1  0.861838  0.444725  0.110259  1
  O  O8  1  0.138162  0.555275  0.889741  1
  O  O9  1  0.944725  0.138162  0.889741  1
  O  O10  1  0.555275  0.361838  0.889741  1
  O  O11  1  0.138162  0.944725  0.610259  1
  O  O12  1  0.361838  0.555275  0.610259  1
  O  O13  1  0.361838  0.944725  0.889741  1
  O  O14  1  0.555275  0.138162  0.610259  1
  O  O15  1  0.944725  0.361838  0.610259  1
  Mo  Mo16  1  0.750000  0.250000  0.500000  1
  Mo  Mo17  1  0.250000  0.750000  0.500000  1
  Mo  Mo18  1  0.750000  0.250000  0.000000  1
  Mo  Mo19  1  0.250000  0.750000  0.000000  1
  Pr  Pr20  1  0.750000  0.750000  0.250000  1
  Pr  Pr21  1  0.250000  0.250000  0.750000  1
  Tl  Tl22  1  0.750000  0.750000  0.750000  1
  Tl  Tl23  1  0.250000  0.250000  0.250000  1
