# generated using pymatgen
data_K2VO2F3
_symmetry_space_group_name_H-M   'P 1'
_cell_length_a   5.77548046
_cell_length_b   7.51780682
_cell_length_c   11.57112120
_cell_angle_alpha   90.00000000
_cell_angle_beta   90.00000000
_cell_angle_gamma   90.00000000
_symmetry_Int_Tables_number   1
_chemical_formula_structural   K2VO2F3
_chemical_formula_sum   'K8 V4 O8 F12'
_cell_volume   502.40589107
_cell_formula_units_Z   4
loop_
 _symmetry_equiv_pos_site_id
 _symmetry_equiv_pos_as_xyz
  1  'x, y, z'
loop_
 _atom_site_type_symbol
 _atom_site_label
 _atom_site_symmetry_multiplicity
 _atom_site_fract_x
 _atom_site_fract_y
 _atom_site_fract_z
 _atom_site_occupancy
  O  O0  1  0.022972  0.321747  0.111508  1
  O  O1  1  0.522972  0.678253  0.888492  1
  O  O2  1  0.977028  0.178253  0.611508  1
  O  O3  1  0.022972  0.821747  0.388492  1
  O  O4  1  0.522972  0.178253  0.611508  1
  O  O5  1  0.477028  0.321747  0.111508  1
  O  O6  1  0.977028  0.678253  0.888492  1
  O  O7  1  0.477028  0.821747  0.388492  1
  F  F8  1  0.750000  0.964334  0.806231  1
  F  F9  1  0.000000  0.500000  0.500000  1
  F  F10  1  0.500000  0.000000  0.000000  1
  F  F11  1  0.000000  0.000000  0.000000  1
  F  F12  1  0.250000  0.035666  0.193769  1
  F  F13  1  0.750000  0.464334  0.693769  1
  F  F14  1  0.250000  0.535666  0.306231  1
  F  F15  1  0.750000  0.731031  0.091035  1
  F  F16  1  0.250000  0.768969  0.591035  1
  F  F17  1  0.750000  0.231031  0.408965  1
  F  F18  1  0.500000  0.500000  0.500000  1
  F  F19  1  0.250000  0.268969  0.908965  1
  K  K20  1  0.250000  0.973269  0.783837  1
  K  K21  1  0.750000  0.026731  0.216163  1
  K  K22  1  0.250000  0.473269  0.716163  1
  K  K23  1  0.750000  0.526731  0.283837  1
  K  K24  1  0.250000  0.685860  0.087495  1
  K  K25  1  0.750000  0.314140  0.912505  1
  K  K26  1  0.250000  0.185860  0.412505  1
  K  K27  1  0.750000  0.814140  0.587495  1
  V  V28  1  0.250000  0.700070  0.430361  1
  V  V29  1  0.750000  0.299930  0.569639  1
  V  V30  1  0.250000  0.200070  0.069639  1
  V  V31  1  0.750000  0.799930  0.930361  1
