# generated using pymatgen
data_Rb3Na(RuO4)2
_symmetry_space_group_name_H-M   'P 1'
_cell_length_a   6.20753048
_cell_length_b   6.20753048
_cell_length_c   8.06452676
_cell_angle_alpha   90.00000000
_cell_angle_beta   90.00000000
_cell_angle_gamma   120.00000000
_symmetry_Int_Tables_number   1
_chemical_formula_structural   Rb3Na(RuO4)2
_chemical_formula_sum   'Rb3 Na1 Ru2 O8'
_cell_volume   269.12078467
_cell_formula_units_Z   1
loop_
 _symmetry_equiv_pos_site_id
 _symmetry_equiv_pos_as_xyz
  1  'x, y, z'
loop_
 _atom_site_type_symbol
 _atom_site_label
 _atom_site_symmetry_multiplicity
 _atom_site_fract_x
 _atom_site_fract_y
 _atom_site_fract_z
 _atom_site_occupancy
  O  O0  1  0.177990  0.355980  0.307526  1
  O  O1  1  0.644020  0.822010  0.307526  1
  O  O2  1  0.177990  0.822010  0.307526  1
  O  O3  1  0.822010  0.644020  0.692474  1
  O  O4  1  0.822010  0.177990  0.692474  1
  O  O5  1  0.355980  0.177990  0.692474  1
  O  O6  1  0.666667  0.333333  0.998464  1
  O  O7  1  0.333333  0.666667  0.001536  1
  Na  Na8  1  0.000000  0.000000  0.500000  1
  Rb  Rb9  1  0.666667  0.333333  0.340916  1
  Rb  Rb10  1  0.000000  0.000000  0.000000  1
  Rb  Rb11  1  0.333333  0.666667  0.659084  1
  Ru  Ru12  1  0.666667  0.333333  0.778822  1
  Ru  Ru13  1  0.333333  0.666667  0.221178  1
