# generated using pymatgen
data_K4SiO4
_symmetry_space_group_name_H-M   'P 1'
_cell_length_a   6.51615650
_cell_length_b   10.47173118
_cell_length_c   10.47765368
_cell_angle_alpha   112.16774553
_cell_angle_beta   90.00000000
_cell_angle_gamma   90.00000000
_symmetry_Int_Tables_number   1
_chemical_formula_structural   K4SiO4
_chemical_formula_sum   'K16 Si4 O16'
_cell_volume   662.10064305
_cell_formula_units_Z   4
loop_
 _symmetry_equiv_pos_site_id
 _symmetry_equiv_pos_as_xyz
  1  'x, y, z'
loop_
 _atom_site_type_symbol
 _atom_site_label
 _atom_site_symmetry_multiplicity
 _atom_site_fract_x
 _atom_site_fract_y
 _atom_site_fract_z
 _atom_site_occupancy
  O  O0  1  0.760859  0.031006  0.908656  1
  O  O1  1  0.998081  0.848892  0.223318  1
  O  O2  1  0.498081  0.651108  0.776682  1
  O  O3  1  0.001919  0.151108  0.776682  1
  O  O4  1  0.260859  0.468994  0.091344  1
  O  O5  1  0.239141  0.968994  0.091344  1
  O  O6  1  0.739141  0.531006  0.908656  1
  O  O7  1  0.682329  0.984335  0.640000  1
  O  O8  1  0.182329  0.515665  0.360000  1
  O  O9  1  0.317671  0.015665  0.360000  1
  O  O10  1  0.817671  0.484335  0.640000  1
  O  O11  1  0.978005  0.130245  0.296631  1
  O  O12  1  0.478005  0.369755  0.703369  1
  O  O13  1  0.021995  0.869755  0.703369  1
  O  O14  1  0.521995  0.630245  0.296631  1
  O  O15  1  0.501919  0.348892  0.223318  1
  Si  Si16  1  0.631468  0.508893  0.757349  1
  Si  Si17  1  0.131468  0.991107  0.242651  1
  Si  Si18  1  0.868532  0.008893  0.757349  1
  Si  Si19  1  0.368532  0.491107  0.242651  1
  K  K20  1  0.337996  0.109783  0.633742  1
  K  K21  1  0.662004  0.890217  0.366258  1
  K  K22  1  0.162004  0.609783  0.633742  1
  K  K23  1  0.406610  0.694463  0.060089  1
  K  K24  1  0.906610  0.805537  0.939911  1
  K  K25  1  0.593390  0.305537  0.939911  1
  K  K26  1  0.093390  0.194463  0.060089  1
  K  K27  1  0.389503  0.913150  0.842452  1
  K  K28  1  0.889503  0.586850  0.157548  1
  K  K29  1  0.610497  0.086850  0.157548  1
  K  K30  1  0.110497  0.413150  0.842452  1
  K  K31  1  0.315808  0.296661  0.426747  1
  K  K32  1  0.815808  0.203339  0.573253  1
  K  K33  1  0.684192  0.703339  0.573253  1
  K  K34  1  0.184192  0.796661  0.426747  1
  K  K35  1  0.837996  0.390217  0.366258  1
