# generated using pymatgen
data_K5B(SO4)4
_symmetry_space_group_name_H-M   'P 1'
_cell_length_a   10.07350648
_cell_length_b   10.07350648
_cell_length_c   16.46548583
_cell_angle_alpha   90.00000000
_cell_angle_beta   90.00000000
_cell_angle_gamma   90.00000000
_symmetry_Int_Tables_number   1
_chemical_formula_structural   K5B(SO4)4
_chemical_formula_sum   'K20 B4 S16 O64'
_cell_volume   1670.84394745
_cell_formula_units_Z   4
loop_
 _symmetry_equiv_pos_site_id
 _symmetry_equiv_pos_as_xyz
  1  'x, y, z'
loop_
 _atom_site_type_symbol
 _atom_site_label
 _atom_site_symmetry_multiplicity
 _atom_site_fract_x
 _atom_site_fract_y
 _atom_site_fract_z
 _atom_site_occupancy
  K  K0  1  0.047760  0.245840  0.005432  1
  K  K1  1  0.952240  0.754160  0.505432  1
  K  K2  1  0.245840  0.952240  0.755432  1
  K  K3  1  0.754160  0.047760  0.255432  1
  K  K4  1  0.675004  0.145782  0.832864  1
  K  K5  1  0.324996  0.854218  0.332864  1
  K  K6  1  0.145782  0.324996  0.582864  1
  K  K7  1  0.854218  0.675004  0.082864  1
  K  K8  1  0.347204  0.418120  0.799778  1
  K  K9  1  0.652796  0.581880  0.299778  1
  K  K10  1  0.418120  0.652796  0.549778  1
  K  K11  1  0.581880  0.347204  0.049778  1
  K  K12  1  0.907317  0.827540  0.854852  1
  K  K13  1  0.092683  0.172460  0.354852  1
  K  K14  1  0.827540  0.092683  0.604852  1
  K  K15  1  0.172460  0.907317  0.104852  1
  K  K16  1  0.504807  0.756612  0.898008  1
  K  K17  1  0.495193  0.243388  0.398008  1
  K  K18  1  0.756612  0.495193  0.648008  1
  K  K19  1  0.243388  0.504807  0.148008  1
  B  B20  1  0.993318  0.485211  0.830623  1
  B  B21  1  0.006682  0.514789  0.330623  1
  B  B22  1  0.485211  0.006682  0.580623  1
  B  B23  1  0.514789  0.993318  0.080623  1
  S  S24  1  0.014196  0.222395  0.790240  1
  S  S25  1  0.985804  0.777605  0.290240  1
  S  S26  1  0.222395  0.985804  0.540240  1
  S  S27  1  0.777605  0.014196  0.040240  1
  S  S28  1  0.728834  0.510850  0.865811  1
  S  S29  1  0.271166  0.489150  0.365811  1
  S  S30  1  0.510850  0.271166  0.615811  1
  S  S31  1  0.489150  0.728834  0.115811  1
  S  S32  1  0.158143  0.600574  0.947331  1
  S  S33  1  0.841857  0.399426  0.447331  1
  S  S34  1  0.600574  0.841857  0.697331  1
  S  S35  1  0.399426  0.158143  0.197331  1
  S  S36  1  0.380772  0.100797  0.944993  1
  S  S37  1  0.619228  0.899203  0.444993  1
  S  S38  1  0.100797  0.619228  0.694993  1
  S  S39  1  0.899203  0.380772  0.194993  1
  O  O40  1  0.010672  0.343227  0.853534  1
  O  O41  1  0.989328  0.656773  0.353534  1
  O  O42  1  0.343227  0.989328  0.603534  1
  O  O43  1  0.656773  0.010672  0.103534  1
  O  O44  1  0.914732  0.250111  0.727088  1
  O  O45  1  0.085268  0.749889  0.227088  1
  O  O46  1  0.250111  0.085268  0.477088  1
  O  O47  1  0.749889  0.914732  0.977088  1
  O  O48  1  0.978952  0.106452  0.840351  1
  O  O49  1  0.021048  0.893548  0.340351  1
  O  O50  1  0.106452  0.021048  0.590351  1
  O  O51  1  0.893548  0.978952  0.090351  1
  O  O52  1  0.150007  0.215651  0.758625  1
  O  O53  1  0.849993  0.784349  0.258625  1
  O  O54  1  0.215651  0.849993  0.508625  1
  O  O55  1  0.784349  0.150007  0.008625  1
  O  O56  1  0.854865  0.517242  0.806102  1
  O  O57  1  0.145135  0.482758  0.306102  1
  O  O58  1  0.517242  0.145135  0.556102  1
  O  O59  1  0.482758  0.854865  0.056102  1
  O  O60  1  0.616229  0.522323  0.809575  1
  O  O61  1  0.383771  0.477677  0.309575  1
  O  O62  1  0.522323  0.383771  0.559575  1
  O  O63  1  0.477677  0.616229  0.059575  1
  O  O64  1  0.732620  0.383971  0.909086  1
  O  O65  1  0.267380  0.616029  0.409086  1
  O  O66  1  0.383971  0.267380  0.659086  1
  O  O67  1  0.616029  0.732620  0.159086  1
  O  O68  1  0.739774  0.625672  0.920705  1
  O  O69  1  0.260226  0.374328  0.420705  1
  O  O70  1  0.625672  0.260226  0.670705  1
  O  O71  1  0.374328  0.739774  0.170705  1
  O  O72  1  0.020982  0.570552  0.901869  1
  O  O73  1  0.979018  0.429448  0.401869  1
  O  O74  1  0.570552  0.979018  0.651869  1
  O  O75  1  0.429448  0.020982  0.151869  1
  O  O76  1  0.247076  0.663811  0.888320  1
  O  O77  1  0.752924  0.336189  0.388320  1
  O  O78  1  0.663811  0.752924  0.638320  1
  O  O79  1  0.336189  0.247076  0.138320  1
  O  O80  1  0.114499  0.691154  0.012375  1
  O  O81  1  0.885501  0.308846  0.512375  1
  O  O82  1  0.691154  0.885501  0.762375  1
  O  O83  1  0.308846  0.114499  0.262375  1
  O  O84  1  0.208480  0.473590  0.977595  1
  O  O85  1  0.791520  0.526410  0.477595  1
  O  O86  1  0.473590  0.791520  0.727595  1
  O  O87  1  0.526410  0.208480  0.227595  1
  O  O88  1  0.252084  0.065499  0.980590  1
  O  O89  1  0.747916  0.934501  0.480590  1
  O  O90  1  0.065499  0.747916  0.730590  1
  O  O91  1  0.934501  0.252084  0.230590  1
  O  O92  1  0.492476  0.085163  0.012417  1
  O  O93  1  0.507524  0.914837  0.512417  1
  O  O94  1  0.085163  0.507524  0.762417  1
  O  O95  1  0.914837  0.492476  0.262417  1
  O  O96  1  0.394454  0.240485  0.922187  1
  O  O97  1  0.605546  0.759515  0.422187  1
  O  O98  1  0.240485  0.605546  0.672187  1
  O  O99  1  0.759515  0.394454  0.172187  1
  O  O100  1  0.419862  0.011097  0.878397  1
  O  O101  1  0.580138  0.988903  0.378397  1
  O  O102  1  0.011097  0.580138  0.628397  1
  O  O103  1  0.988903  0.419862  0.128397  1
