# generated using pymatgen
data_Te4Mo3WS4
_symmetry_space_group_name_H-M   'P 1'
_cell_length_a   3.36170745
_cell_length_b   3.36144221
_cell_length_c   38.23365671
_cell_angle_alpha   90.00022896
_cell_angle_beta   90.00000000
_cell_angle_gamma   120.00261013
_symmetry_Int_Tables_number   1
_chemical_formula_structural   Te4Mo3WS4
_chemical_formula_sum   'Te4 Mo3 W1 S4'
_cell_volume   374.15418827
_cell_formula_units_Z   1
loop_
 _symmetry_equiv_pos_site_id
 _symmetry_equiv_pos_as_xyz
  1  'x, y, z'
loop_
 _atom_site_type_symbol
 _atom_site_label
 _atom_site_symmetry_multiplicity
 _atom_site_fract_x
 _atom_site_fract_y
 _atom_site_fract_z
 _atom_site_occupancy
  Te  Te0  1  0.333352  0.666705  0.707240  1
  Te  Te1  1  0.666643  0.333285  0.044533  1
  Te  Te2  1  0.666650  0.333300  0.143331  1
  Te  Te3  1  0.333349  0.666698  0.607813  1
  Mo  Mo4  1  0.333307  0.666613  0.093910  1
  Mo  Mo5  1  0.333306  0.666613  0.469645  1
  Mo  Mo6  1  0.666676  0.333353  0.281809  1
  W  W7  1  0.666692  0.333383  0.657551  1
  S  S8  1  0.333365  0.666731  0.321379  1
  S  S9  1  0.666649  0.333297  0.430044  1
  S  S10  1  0.666650  0.333299  0.509261  1
  S  S11  1  0.333361  0.666723  0.242232  1
