# generated using pymatgen
data_Pr3Si6N11
_symmetry_space_group_name_H-M   'P 1'
_cell_length_a   4.89904120
_cell_length_b   10.17970713
_cell_length_c   10.17970713
_cell_angle_alpha   90.00000000
_cell_angle_beta   90.00000000
_cell_angle_gamma   90.00000000
_symmetry_Int_Tables_number   1
_chemical_formula_structural   Pr3Si6N11
_chemical_formula_sum   'Pr6 Si12 N22'
_cell_volume   507.67018551
_cell_formula_units_Z   2
loop_
 _symmetry_equiv_pos_site_id
 _symmetry_equiv_pos_as_xyz
  1  'x, y, z'
loop_
 _atom_site_type_symbol
 _atom_site_label
 _atom_site_symmetry_multiplicity
 _atom_site_fract_x
 _atom_site_fract_y
 _atom_site_fract_z
 _atom_site_occupancy
  N  N0  1  0.431128  0.000000  0.500000  1
  N  N1  1  0.431128  0.500000  0.000000  1
  N  N2  1  0.005366  0.679232  0.420831  1
  N  N3  1  0.005366  0.320768  0.579169  1
  N  N4  1  0.005366  0.420831  0.320768  1
  N  N5  1  0.005366  0.579169  0.679232  1
  N  N6  1  0.005366  0.079169  0.820768  1
  N  N7  1  0.005366  0.179232  0.079169  1
  N  N8  1  0.005366  0.820768  0.920831  1
  N  N9  1  0.005366  0.920831  0.179232  1
  N  N10  1  0.060303  0.345625  0.845625  1
  N  N11  1  0.060303  0.154375  0.345625  1
  N  N12  1  0.060303  0.845625  0.654375  1
  N  N13  1  0.060303  0.654375  0.154375  1
  N  N14  1  0.542488  0.076044  0.230161  1
  N  N15  1  0.542488  0.769839  0.076044  1
  N  N16  1  0.542488  0.230161  0.923956  1
  N  N17  1  0.542488  0.923956  0.769839  1
  N  N18  1  0.542488  0.423956  0.730161  1
  N  N19  1  0.542488  0.576044  0.269839  1
  N  N20  1  0.542488  0.269839  0.423956  1
  N  N21  1  0.542488  0.730161  0.576044  1
  Si  Si22  1  0.405661  0.617274  0.117274  1
  Si  Si23  1  0.405661  0.882726  0.617274  1
  Si  Si24  1  0.405661  0.117274  0.382726  1
  Si  Si25  1  0.405661  0.382726  0.882726  1
  Si  Si26  1  0.894872  0.708738  0.579350  1
  Si  Si27  1  0.894872  0.291262  0.420650  1
  Si  Si28  1  0.894872  0.579350  0.291262  1
  Si  Si29  1  0.894872  0.420650  0.708738  1
  Si  Si30  1  0.894872  0.920650  0.791262  1
  Si  Si31  1  0.894872  0.208737  0.920650  1
  Si  Si32  1  0.894872  0.791262  0.079350  1
  Si  Si33  1  0.894872  0.079350  0.208737  1
  Pr  Pr34  1  0.352209  0.500000  0.500000  1
  Pr  Pr35  1  0.352209  0.000000  0.000000  1
  Pr  Pr36  1  0.366604  0.182034  0.682034  1
  Pr  Pr37  1  0.366604  0.317966  0.182034  1
  Pr  Pr38  1  0.366604  0.682034  0.817966  1
  Pr  Pr39  1  0.366604  0.817966  0.317966  1
