# generated using pymatgen
data_TbYb2PrS6
_symmetry_space_group_name_H-M   'P 1'
_cell_length_a   4.13894514
_cell_length_b   11.00269328
_cell_length_c   11.48700394
_cell_angle_alpha   104.82002081
_cell_angle_beta   90.00000000
_cell_angle_gamma   90.00000000
_symmetry_Int_Tables_number   1
_chemical_formula_structural   TbYb2PrS6
_chemical_formula_sum   'Tb2 Yb4 Pr2 S12'
_cell_volume   505.71108170
_cell_formula_units_Z   2
loop_
 _symmetry_equiv_pos_site_id
 _symmetry_equiv_pos_as_xyz
  1  'x, y, z'
loop_
 _atom_site_type_symbol
 _atom_site_label
 _atom_site_symmetry_multiplicity
 _atom_site_fract_x
 _atom_site_fract_y
 _atom_site_fract_z
 _atom_site_occupancy
  S  S0  1  0.250000  0.628356  0.967889  1
  S  S1  1  0.750000  0.371644  0.032111  1
  S  S2  1  0.250000  0.949573  0.104189  1
  S  S3  1  0.750000  0.050427  0.895811  1
  S  S4  1  0.250000  0.301611  0.259160  1
  S  S5  1  0.750000  0.698389  0.740840  1
  S  S6  1  0.250000  0.278986  0.728437  1
  S  S7  1  0.750000  0.721014  0.271563  1
  S  S8  1  0.750000  0.595688  0.384169  1
  S  S9  1  0.250000  0.404312  0.615831  1
  S  S10  1  0.750000  0.096625  0.428038  1
  S  S11  1  0.250000  0.903375  0.571962  1
  Pr  Pr12  1  0.750000  0.474343  0.819348  1
  Pr  Pr13  1  0.250000  0.525657  0.180652  1
  Tb  Tb14  1  0.750000  0.831110  0.968536  1
  Tb  Tb15  1  0.250000  0.168890  0.031464  1
  Yb  Yb16  1  0.750000  0.053204  0.649047  1
  Yb  Yb17  1  0.250000  0.946796  0.350953  1
  Yb  Yb18  1  0.750000  0.324250  0.412923  1
  Yb  Yb19  1  0.250000  0.675750  0.587077  1
