# generated using pymatgen
data_U2Re2C3
_symmetry_space_group_name_H-M   'P 1'
_cell_length_a   3.11476975
_cell_length_b   5.59072219
_cell_length_c   6.16849686
_cell_angle_alpha   112.04966242
_cell_angle_beta   104.62395722
_cell_angle_gamma   90.00000000
_symmetry_Int_Tables_number   1
_chemical_formula_structural   U2Re2C3
_chemical_formula_sum   'U2 Re2 C3'
_cell_volume   95.79554053
_cell_formula_units_Z   1
loop_
 _symmetry_equiv_pos_site_id
 _symmetry_equiv_pos_as_xyz
  1  'x, y, z'
loop_
 _atom_site_type_symbol
 _atom_site_label
 _atom_site_symmetry_multiplicity
 _atom_site_fract_x
 _atom_site_fract_y
 _atom_site_fract_z
 _atom_site_occupancy
  U  U0  1  0.397955  0.193211  0.795910  1
  U  U1  1  0.602045  0.806789  0.204090  1
  Re  Re2  1  0.154462  0.335378  0.308923  1
  Re  Re3  1  0.845538  0.664622  0.691077  1
  C  C4  1  0.248857  0.753065  0.497713  1
  C  C5  1  0.751143  0.246935  0.502287  1
  C  C6  1  0.000000  0.000000  0.000000  1
