# generated using pymatgen
data_Te4Mo3W(SeS)2
_symmetry_space_group_name_H-M   'P 1'
_cell_length_a   3.40201396
_cell_length_b   3.40200615
_cell_length_c   38.71509331
_cell_angle_alpha   90.00092947
_cell_angle_beta   90.00000000
_cell_angle_gamma   120.00007598
_symmetry_Int_Tables_number   1
_chemical_formula_structural   Te4Mo3W(SeS)2
_chemical_formula_sum   'Te4 Mo3 W1 Se2 S2'
_cell_volume   388.04473442
_cell_formula_units_Z   1
loop_
 _symmetry_equiv_pos_site_id
 _symmetry_equiv_pos_as_xyz
  1  'x, y, z'
loop_
 _atom_site_type_symbol
 _atom_site_label
 _atom_site_symmetry_multiplicity
 _atom_site_fract_x
 _atom_site_fract_y
 _atom_site_fract_z
 _atom_site_occupancy
  Te  Te0  1  0.333358  0.666718  0.330115  1
  Te  Te1  1  0.333348  0.666698  0.706201  1
  Te  Te2  1  0.333349  0.666699  0.233436  1
  Te  Te3  1  0.333363  0.666727  0.608865  1
  Mo  Mo4  1  0.333303  0.666606  0.093946  1
  Mo  Mo5  1  0.333305  0.666611  0.469659  1
  Mo  Mo6  1  0.666696  0.333392  0.281797  1
  W  W7  1  0.666691  0.333382  0.657535  1
  Se  Se8  1  0.666647  0.333294  0.427118  1
  Se  Se9  1  0.666648  0.333295  0.512203  1
  S  S10  1  0.666645  0.333288  0.055085  1
  S  S11  1  0.666645  0.333290  0.132787  1
