# generated using pymatgen
data_K2Ca3Si3O10
_symmetry_space_group_name_H-M   'P 1'
_cell_length_a   7.50853877
_cell_length_b   7.50853877
_cell_length_c   9.93713061
_cell_angle_alpha   108.98717050
_cell_angle_beta   108.98717050
_cell_angle_gamma   91.71784303
_symmetry_Int_Tables_number   1
_chemical_formula_structural   K2Ca3Si3O10
_chemical_formula_sum   'K4 Ca6 Si6 O20'
_cell_volume   495.11808949
_cell_formula_units_Z   2
loop_
 _symmetry_equiv_pos_site_id
 _symmetry_equiv_pos_as_xyz
  1  'x, y, z'
loop_
 _atom_site_type_symbol
 _atom_site_label
 _atom_site_symmetry_multiplicity
 _atom_site_fract_x
 _atom_site_fract_y
 _atom_site_fract_z
 _atom_site_occupancy
  K  K0  1  0.230772  0.473774  0.989083  1
  K  K1  1  0.526226  0.769228  0.510917  1
  K  K2  1  0.769228  0.526226  0.010917  1
  K  K3  1  0.473774  0.230772  0.489083  1
  Ca  Ca4  1  0.369736  0.630264  0.750000  1
  Ca  Ca5  1  0.630264  0.369736  0.250000  1
  Ca  Ca6  1  0.222199  0.984130  0.978265  1
  Ca  Ca7  1  0.015870  0.777801  0.521735  1
  Ca  Ca8  1  0.777801  0.015870  0.021735  1
  Ca  Ca9  1  0.984130  0.222199  0.478265  1
  Si  Si10  1  0.576075  0.852383  0.207712  1
  Si  Si11  1  0.147617  0.423925  0.292288  1
  Si  Si12  1  0.423925  0.147617  0.792288  1
  Si  Si13  1  0.852383  0.576075  0.707712  1
  Si  Si14  1  0.159277  0.840723  0.250000  1
  Si  Si15  1  0.840723  0.159277  0.750000  1
  O  O16  1  0.689909  0.680585  0.766700  1
  O  O17  1  0.319415  0.310091  0.733300  1
  O  O18  1  0.310091  0.319415  0.233300  1
  O  O19  1  0.680585  0.689909  0.266700  1
  O  O20  1  0.119668  0.614939  0.236943  1
  O  O21  1  0.385061  0.880332  0.263057  1
  O  O22  1  0.880332  0.385061  0.763057  1
  O  O23  1  0.614939  0.119668  0.736943  1
  O  O24  1  0.494054  0.787253  0.019236  1
  O  O25  1  0.212747  0.505946  0.480764  1
  O  O26  1  0.505946  0.212747  0.980764  1
  O  O27  1  0.787253  0.494054  0.519236  1
  O  O28  1  0.066007  0.696210  0.772963  1
  O  O29  1  0.303790  0.933993  0.727037  1
  O  O30  1  0.933993  0.303790  0.227037  1
  O  O31  1  0.696210  0.066007  0.272963  1
  O  O32  1  0.139472  0.971711  0.407537  1
  O  O33  1  0.028289  0.860528  0.092463  1
  O  O34  1  0.860528  0.028289  0.592463  1
  O  O35  1  0.971711  0.139472  0.907537  1
