# generated using pymatgen
data_Yb4Sb3
_symmetry_space_group_name_H-M   'P 1'
_cell_length_a   8.18318604
_cell_length_b   8.18318605
_cell_length_c   8.18318605
_cell_angle_alpha   109.47122061
_cell_angle_beta   109.47122063
_cell_angle_gamma   109.47122066
_symmetry_Int_Tables_number   1
_chemical_formula_structural   Yb4Sb3
_chemical_formula_sum   'Yb8 Sb6'
_cell_volume   421.83769432
_cell_formula_units_Z   2
loop_
 _symmetry_equiv_pos_site_id
 _symmetry_equiv_pos_as_xyz
  1  'x, y, z'
loop_
 _atom_site_type_symbol
 _atom_site_label
 _atom_site_symmetry_multiplicity
 _atom_site_fract_x
 _atom_site_fract_y
 _atom_site_fract_z
 _atom_site_occupancy
  Sb  Sb0  1  0.750000  0.875000  0.125000  1
  Sb  Sb1  1  0.625000  0.375000  0.250000  1
  Sb  Sb2  1  0.875000  0.125000  0.750000  1
  Sb  Sb3  1  0.125000  0.750000  0.875000  1
  Sb  Sb4  1  0.375000  0.250000  0.625000  1
  Sb  Sb5  1  0.250000  0.625000  0.375000  1
  Yb  Yb6  1  0.350040  0.500000  0.000000  1
  Yb  Yb7  1  0.649960  0.649960  0.649960  1
  Yb  Yb8  1  0.500000  0.000000  0.350040  1
  Yb  Yb9  1  0.000000  0.350040  0.500000  1
  Yb  Yb10  1  0.500000  0.000000  0.850040  1
  Yb  Yb11  1  0.000000  0.850040  0.500000  1
  Yb  Yb12  1  0.850040  0.500000  0.000000  1
  Yb  Yb13  1  0.149960  0.149960  0.149960  1
