# generated using pymatgen
data_LiMo2P2O9
_symmetry_space_group_name_H-M   'P 1'
_cell_length_a   6.66750353
_cell_length_b   7.88582606
_cell_length_c   14.53296536
_cell_angle_alpha   90.00000000
_cell_angle_beta   90.00000000
_cell_angle_gamma   90.00000000
_symmetry_Int_Tables_number   1
_chemical_formula_structural   LiMo2P2O9
_chemical_formula_sum   'Li4 Mo8 P8 O36'
_cell_volume   764.12548802
_cell_formula_units_Z   4
loop_
 _symmetry_equiv_pos_site_id
 _symmetry_equiv_pos_as_xyz
  1  'x, y, z'
loop_
 _atom_site_type_symbol
 _atom_site_label
 _atom_site_symmetry_multiplicity
 _atom_site_fract_x
 _atom_site_fract_y
 _atom_site_fract_z
 _atom_site_occupancy
  Li  Li0  1  0.750000  0.966404  0.750621  1
  Li  Li1  1  0.750000  0.533596  0.250621  1
  Li  Li2  1  0.250001  0.466403  0.749379  1
  Li  Li3  1  0.250001  0.033596  0.249379  1
  Mo  Mo4  1  0.750000  0.357756  0.880751  1
  Mo  Mo5  1  0.250001  0.642244  0.119249  1
  Mo  Mo6  1  0.250001  0.857756  0.619249  1
  Mo  Mo7  1  0.750000  0.142244  0.380751  1
  Mo  Mo8  1  0.500000  0.000000  0.000000  1
  Mo  Mo9  1  0.500000  0.500000  0.500000  1
  Mo  Mo10  1  0.000000  0.500000  0.500000  1
  Mo  Mo11  1  0.000000  0.000000  0.000000  1
  P  P12  1  0.250001  0.353482  0.933403  1
  P  P13  1  0.750000  0.646518  0.066598  1
  P  P14  1  0.750000  0.853482  0.566597  1
  P  P15  1  0.250001  0.146519  0.433403  1
  P  P16  1  0.750000  0.385955  0.691590  1
  P  P17  1  0.750000  0.114045  0.191590  1
  P  P18  1  0.250001  0.885955  0.808410  1
  P  P19  1  0.250001  0.614044  0.308410  1
  O  O20  1  0.056199  0.602632  0.365978  1
  O  O21  1  0.556198  0.397367  0.634022  1
  O  O22  1  0.943801  0.102632  0.134022  1
  O  O23  1  0.443801  0.897368  0.865978  1
  O  O24  1  0.943801  0.397367  0.634022  1
  O  O25  1  0.443801  0.602632  0.365978  1
  O  O26  1  0.056199  0.897368  0.865978  1
  O  O27  1  0.556198  0.102632  0.134022  1
  O  O28  1  0.250001  0.327570  0.478729  1
  O  O29  1  0.750000  0.672431  0.521271  1
  O  O30  1  0.750000  0.827569  0.021270  1
  O  O31  1  0.250001  0.172431  0.978729  1
  O  O32  1  0.750000  0.141748  0.946853  1
  O  O33  1  0.250001  0.858252  0.053146  1
  O  O34  1  0.250001  0.641748  0.553146  1
  O  O35  1  0.750000  0.358253  0.446854  1
  O  O36  1  0.750000  0.219977  0.752481  1
  O  O37  1  0.250001  0.780023  0.247520  1
  O  O38  1  0.250001  0.719977  0.747519  1
  O  O39  1  0.750000  0.280024  0.252480  1
  O  O40  1  0.432339  0.126883  0.369897  1
  O  O41  1  0.932339  0.873117  0.630103  1
  O  O42  1  0.567661  0.626882  0.130103  1
  O  O43  1  0.067661  0.373117  0.869897  1
  O  O44  1  0.567661  0.873117  0.630103  1
  O  O45  1  0.067661  0.126883  0.369897  1
  O  O46  1  0.432339  0.373117  0.869897  1
  O  O47  1  0.932339  0.626882  0.130103  1
  O  O48  1  0.750000  0.518348  0.987477  1
  O  O49  1  0.250001  0.023791  0.730593  1
  O  O50  1  0.250001  0.476208  0.230593  1
  O  O51  1  0.750000  0.523791  0.769407  1
  O  O52  1  0.750000  0.981652  0.487477  1
  O  O53  1  0.250001  0.018348  0.512523  1
  O  O54  1  0.250001  0.481651  0.012522  1
  O  O55  1  0.750000  0.976209  0.269407  1
