# generated using pymatgen
data_NaCr(SiO3)2
_symmetry_space_group_name_H-M   'P 1'
_cell_length_a   5.35555203
_cell_length_b   6.58560779
_cell_length_c   6.58560779
_cell_angle_alpha   84.56109602
_cell_angle_beta   76.84472959
_cell_angle_gamma   76.84472946
_symmetry_Int_Tables_number   1
_chemical_formula_structural   NaCr(SiO3)2
_chemical_formula_sum   'Na2 Cr2 Si4 O12'
_cell_volume   220.01398537
_cell_formula_units_Z   2
loop_
 _symmetry_equiv_pos_site_id
 _symmetry_equiv_pos_as_xyz
  1  'x, y, z'
loop_
 _atom_site_type_symbol
 _atom_site_label
 _atom_site_symmetry_multiplicity
 _atom_site_fract_x
 _atom_site_fract_y
 _atom_site_fract_z
 _atom_site_occupancy
  O  O0  1  0.486339  0.346091  0.358668  1
  O  O1  1  0.013661  0.641332  0.653909  1
  O  O2  1  0.513661  0.653909  0.641332  1
  O  O3  1  0.986339  0.358668  0.346091  1
  O  O4  1  0.198133  0.103151  0.617167  1
  O  O5  1  0.301867  0.382833  0.896849  1
  O  O6  1  0.801867  0.896849  0.382833  1
  O  O7  1  0.698133  0.617167  0.103151  1
  O  O8  1  0.861596  0.193594  0.035052  1
  O  O9  1  0.638404  0.964948  0.806406  1
  O  O10  1  0.138404  0.806406  0.964948  1
  O  O11  1  0.361596  0.035052  0.193594  1
  Na  Na12  1  0.250000  0.703018  0.296982  1
  Na  Na13  1  0.750000  0.296982  0.703018  1
  Si  Si14  1  0.264869  0.201869  0.383329  1
  Si  Si15  1  0.764869  0.383329  0.201869  1
  Si  Si16  1  0.235131  0.616671  0.798131  1
  Si  Si17  1  0.735131  0.798131  0.616671  1
  Cr  Cr18  1  0.250000  0.093616  0.906384  1
  Cr  Cr19  1  0.750000  0.906384  0.093616  1
