# generated using pymatgen
data_SmSbO4
_symmetry_space_group_name_H-M   'P 1'
_cell_length_a   5.49646528
_cell_length_b   7.67557998
_cell_length_c   7.73522922
_cell_angle_alpha   99.59644083
_cell_angle_beta   90.00000000
_cell_angle_gamma   90.00000000
_symmetry_Int_Tables_number   1
_chemical_formula_structural   SmSbO4
_chemical_formula_sum   'Sm4 Sb4 O16'
_cell_volume   321.77152583
_cell_formula_units_Z   4
loop_
 _symmetry_equiv_pos_site_id
 _symmetry_equiv_pos_as_xyz
  1  'x, y, z'
loop_
 _atom_site_type_symbol
 _atom_site_label
 _atom_site_symmetry_multiplicity
 _atom_site_fract_x
 _atom_site_fract_y
 _atom_site_fract_z
 _atom_site_occupancy
  O  O0  1  0.022673  0.673655  0.117834  1
  O  O1  1  0.522673  0.826345  0.882166  1
  O  O2  1  0.977327  0.326344  0.882166  1
  O  O3  1  0.477327  0.173655  0.117834  1
  O  O4  1  0.370643  0.941630  0.330036  1
  O  O5  1  0.870643  0.558370  0.669964  1
  O  O6  1  0.629357  0.058370  0.669964  1
  O  O7  1  0.129357  0.441630  0.330036  1
  O  O8  1  0.997050  0.125263  0.174465  1
  O  O9  1  0.497050  0.374737  0.825535  1
  O  O10  1  0.002950  0.874737  0.825535  1
  O  O11  1  0.502950  0.625263  0.174465  1
  O  O12  1  0.091820  0.197412  0.564314  1
  O  O13  1  0.591820  0.302588  0.435686  1
  O  O14  1  0.908180  0.802588  0.435686  1
  O  O15  1  0.408180  0.697412  0.564314  1
  Sb  Sb16  1  0.231771  0.695753  0.336883  1
  Sb  Sb17  1  0.731771  0.804247  0.663117  1
  Sb  Sb18  1  0.768229  0.304247  0.663117  1
  Sb  Sb19  1  0.268229  0.195753  0.336883  1
  Sm  Sm20  1  0.725091  0.894683  0.146939  1
  Sm  Sm21  1  0.225091  0.605317  0.853061  1
  Sm  Sm22  1  0.274909  0.105317  0.853061  1
  Sm  Sm23  1  0.774909  0.394683  0.146939  1
