# generated using pymatgen
data_MoWSeS3
_symmetry_space_group_name_H-M   'P 1'
_cell_length_a   3.22195028
_cell_length_b   3.22189316
_cell_length_c   36.39047447
_cell_angle_alpha   90.00016619
_cell_angle_beta   90.00000000
_cell_angle_gamma   120.00058651
_symmetry_Int_Tables_number   1
_chemical_formula_structural   MoWSeS3
_chemical_formula_sum   'Mo2 W2 Se2 S6'
_cell_volume   327.14911628
_cell_formula_units_Z   2
loop_
 _symmetry_equiv_pos_site_id
 _symmetry_equiv_pos_as_xyz
  1  'x, y, z'
loop_
 _atom_site_type_symbol
 _atom_site_label
 _atom_site_symmetry_multiplicity
 _atom_site_fract_x
 _atom_site_fract_y
 _atom_site_fract_z
 _atom_site_occupancy
  Mo  Mo0  1  0.333309  0.666618  0.093913  1
  Mo  Mo1  1  0.666690  0.333379  0.281792  1
  W  W2  1  0.333312  0.666623  0.469657  1
  W  W3  1  0.666688  0.333376  0.657556  1
  Se  Se4  1  0.333357  0.666715  0.704871  1
  Se  Se5  1  0.333348  0.666698  0.610238  1
  S  S6  1  0.333356  0.666712  0.324556  1
  S  S7  1  0.666645  0.333288  0.051146  1
  S  S8  1  0.666645  0.333289  0.426753  1
  S  S9  1  0.666646  0.333292  0.136686  1
  S  S10  1  0.666646  0.333290  0.512554  1
  S  S11  1  0.333359  0.666720  0.239026  1
