# generated using pymatgen
data_Te6MoW3Se2
_symmetry_space_group_name_H-M   'P 1'
_cell_length_a   3.49815967
_cell_length_b   3.49814313
_cell_length_c   39.68219746
_cell_angle_alpha   89.99963938
_cell_angle_beta   90.00000000
_cell_angle_gamma   120.00015635
_symmetry_Int_Tables_number   1
_chemical_formula_structural   Te6MoW3Se2
_chemical_formula_sum   'Te6 Mo1 W3 Se2'
_cell_volume   420.53569486
_cell_formula_units_Z   1
loop_
 _symmetry_equiv_pos_site_id
 _symmetry_equiv_pos_as_xyz
  1  'x, y, z'
loop_
 _atom_site_type_symbol
 _atom_site_label
 _atom_site_symmetry_multiplicity
 _atom_site_fract_x
 _atom_site_fract_y
 _atom_site_fract_z
 _atom_site_occupancy
  Te  Te0  1  0.333353  0.666708  0.328236  1
  Te  Te1  1  0.333367  0.666735  0.703975  1
  Te  Te2  1  0.666647  0.333292  0.423507  1
  Te  Te3  1  0.666647  0.333294  0.515813  1
  Te  Te4  1  0.333352  0.666706  0.235349  1
  Te  Te5  1  0.333353  0.666707  0.611088  1
  Mo  Mo6  1  0.333309  0.666619  0.469659  1
  W  W7  1  0.333308  0.666616  0.093916  1
  W  W8  1  0.666692  0.333384  0.281775  1
  W  W9  1  0.666691  0.333383  0.657551  1
  Se  Se10  1  0.666642  0.333282  0.053032  1
  Se  Se11  1  0.666638  0.333274  0.134849  1
