# generated using pymatgen
data_Th2N3
_symmetry_space_group_name_H-M   'P 1'
_cell_length_a   3.91632486
_cell_length_b   3.91667441
_cell_length_c   6.14234048
_cell_angle_alpha   90.00000005
_cell_angle_beta   89.99527711
_cell_angle_gamma   120.00294605
_symmetry_Int_Tables_number   1
_chemical_formula_structural   Th2N3
_chemical_formula_sum   'Th2 N3'
_cell_volume   81.59204216
_cell_formula_units_Z   1
loop_
 _symmetry_equiv_pos_site_id
 _symmetry_equiv_pos_as_xyz
  1  'x, y, z'
loop_
 _atom_site_type_symbol
 _atom_site_label
 _atom_site_symmetry_multiplicity
 _atom_site_fract_x
 _atom_site_fract_y
 _atom_site_fract_z
 _atom_site_occupancy
  Th  Th0  1  0.333397  0.666699  0.248718  1
  Th  Th1  1  0.666603  0.333301  0.751282  1
  N  N2  1  0.333327  0.666664  0.642036  1
  N  N3  1  0.666673  0.333336  0.357964  1
  N  N4  1  -0.000000  -0.000000  0.000000  1
