# generated using pymatgen
data_TeW2SeS2
_symmetry_space_group_name_H-M   'P 1'
_cell_length_a   3.30659872
_cell_length_b   3.30661395
_cell_length_c   37.68015625
_cell_angle_alpha   89.99954623
_cell_angle_beta   89.99996703
_cell_angle_gamma   119.99978932
_symmetry_Int_Tables_number   1
_chemical_formula_structural   TeW2SeS2
_chemical_formula_sum   'Te2 W4 Se2 S4'
_cell_volume   356.78717551
_cell_formula_units_Z   2
loop_
 _symmetry_equiv_pos_site_id
 _symmetry_equiv_pos_as_xyz
  1  'x, y, z'
loop_
 _atom_site_type_symbol
 _atom_site_label
 _atom_site_symmetry_multiplicity
 _atom_site_fract_x
 _atom_site_fract_y
 _atom_site_fract_z
 _atom_site_occupancy
  Te  Te0  1  0.333354  0.666709  0.332801  1
  Te  Te1  1  0.333358  0.666717  0.230798  1
  W  W2  1  0.333312  0.666623  0.093902  1
  W  W3  1  0.333307  0.666613  0.469681  1
  W  W4  1  0.666691  0.333382  0.281792  1
  W  W5  1  0.666693  0.333387  0.657531  1
  Se  Se6  1  0.333351  0.666701  0.702291  1
  Se  Se7  1  0.333357  0.666715  0.612770  1
  S  S8  1  0.666648  0.333296  0.053209  1
  S  S9  1  0.666645  0.333289  0.428988  1
  S  S10  1  0.666646  0.333292  0.134603  1
  S  S11  1  0.666638  0.333276  0.510381  1
