# generated using pymatgen
data_Y3Fe5O12
_symmetry_space_group_name_H-M   'P 1'
_cell_length_a   10.87698375
_cell_length_b   10.87698375
_cell_length_c   10.87698374
_cell_angle_alpha   109.47122064
_cell_angle_beta   109.47122064
_cell_angle_gamma   109.47122062
_symmetry_Int_Tables_number   1
_chemical_formula_structural   Y3Fe5O12
_chemical_formula_sum   'Y12 Fe20 O48'
_cell_volume   990.61191569
_cell_formula_units_Z   4
loop_
 _symmetry_equiv_pos_site_id
 _symmetry_equiv_pos_as_xyz
  1  'x, y, z'
loop_
 _atom_site_type_symbol
 _atom_site_label
 _atom_site_symmetry_multiplicity
 _atom_site_fract_x
 _atom_site_fract_y
 _atom_site_fract_z
 _atom_site_occupancy
  O  O0  1  0.791742  0.416797  0.822939  1
  O  O1  1  0.083204  0.874945  0.406143  1
  O  O2  1  0.677061  0.093857  0.968802  1
  O  O3  1  0.708259  0.531198  0.625055  1
  O  O4  1  0.708259  0.677061  0.083204  1
  O  O5  1  0.531198  0.625055  0.708259  1
  O  O6  1  0.093858  0.625055  0.416797  1
  O  O7  1  0.625056  0.708259  0.531198  1
  O  O8  1  0.406143  0.822939  0.531198  1
  O  O9  1  0.874945  0.968802  0.791741  1
  O  O10  1  0.968802  0.791741  0.874945  1
  O  O11  1  0.083203  0.708259  0.677061  1
  O  O12  1  0.625055  0.416797  0.093858  1
  O  O13  1  0.531198  0.406143  0.822939  1
  O  O14  1  0.677061  0.083204  0.708258  1
  O  O15  1  0.416796  0.093857  0.625055  1
  O  O16  1  0.822938  0.531198  0.406142  1
  O  O17  1  0.406143  0.083204  0.874945  1
  O  O18  1  0.093857  0.968802  0.677061  1
  O  O19  1  0.593857  0.177061  0.468802  1
  O  O20  1  0.416796  0.822939  0.791741  1
  O  O21  1  0.822939  0.791741  0.416796  1
  O  O22  1  0.874945  0.406143  0.083204  1
  O  O23  1  0.791741  0.874945  0.968802  1
  O  O24  1  0.208259  0.583204  0.177061  1
  O  O25  1  0.916796  0.125055  0.593857  1
  O  O26  1  0.322939  0.906142  0.031198  1
  O  O27  1  0.291741  0.468803  0.374945  1
  O  O28  1  0.291742  0.322939  0.916797  1
  O  O29  1  0.468802  0.374944  0.291741  1
  O  O30  1  0.906142  0.374944  0.583203  1
  O  O31  1  0.374944  0.291741  0.468802  1
  O  O32  1  0.208259  0.125055  0.031197  1
  O  O33  1  0.125055  0.593858  0.916796  1
  O  O34  1  0.177061  0.208259  0.583203  1
  O  O35  1  0.583204  0.177061  0.208259  1
  O  O36  1  0.031198  0.322939  0.906142  1
  O  O37  1  0.906143  0.031198  0.322939  1
  O  O38  1  0.593857  0.916796  0.125055  1
  O  O39  1  0.177062  0.468803  0.593858  1
  O  O40  1  0.583203  0.906142  0.374944  1
  O  O41  1  0.322939  0.916796  0.291740  1
  O  O42  1  0.468803  0.593858  0.177061  1
  O  O43  1  0.374945  0.583204  0.906143  1
  O  O44  1  0.916797  0.291741  0.322938  1
  O  O45  1  0.031198  0.208259  0.125055  1
  O  O46  1  0.125055  0.031198  0.208259  1
  O  O47  1  0.968802  0.677061  0.093858  1
  Fe  Fe48  1  0.250000  0.125000  0.875000  1
  Fe  Fe49  1  0.750000  0.875000  0.125000  1
  Fe  Fe50  1  0.375000  0.250000  0.625000  1
  Fe  Fe51  1  0.625000  0.375001  0.250000  1
  Fe  Fe52  1  0.124999  0.750000  0.875000  1
  Fe  Fe53  1  0.875000  0.125000  0.750000  1
  Fe  Fe54  1  0.750001  0.375001  0.625001  1
  Fe  Fe55  1  0.375000  0.625000  0.750000  1
  Fe  Fe56  1  0.125000  0.875000  0.250000  1
  Fe  Fe57  1  0.875000  0.250000  0.125000  1
  Fe  Fe58  1  0.625000  0.750000  0.375000  1
  Fe  Fe59  1  0.250000  0.625000  0.375000  1
  Fe  Fe60  1  0.500001  0.500000  0.500000  1
  Fe  Fe61  1  0.500001  0.500000  0.000000  1
  Fe  Fe62  1  0.500000  0.000000  0.500000  1
  Fe  Fe63  1  1.000000  0.500000  0.500000  1
  Fe  Fe64  1  0.000000  0.000000  0.000000  1
  Fe  Fe65  1  0.000000  0.000000  0.500000  1
  Fe  Fe66  1  1.000000  0.500000  0.000000  1
  Fe  Fe67  1  0.500000  0.000000  0.000000  1
  Y  Y68  1  0.250000  0.875000  0.625000  1
  Y  Y69  1  0.875000  0.625000  0.250000  1
  Y  Y70  1  0.625000  0.875000  0.750000  1
  Y  Y71  1  0.875000  0.750000  0.625000  1
  Y  Y72  1  0.625000  0.250000  0.875000  1
  Y  Y73  1  0.750000  0.625000  0.875000  1
  Y  Y74  1  0.750000  0.125000  0.375000  1
  Y  Y75  1  0.125000  0.375001  0.750000  1
  Y  Y76  1  0.375000  0.125000  0.250000  1
  Y  Y77  1  0.125000  0.250000  0.375000  1
  Y  Y78  1  0.375000  0.750000  0.125000  1
  Y  Y79  1  0.250001  0.375001  0.125001  1
