# generated using pymatgen
data_Zn3As2
_symmetry_space_group_name_H-M   'P 1'
_cell_length_a   8.44019492
_cell_length_b   8.44019492
_cell_length_c   11.92928082
_cell_angle_alpha   90.00000000
_cell_angle_beta   90.00000000
_cell_angle_gamma   90.00000000
_symmetry_Int_Tables_number   1
_chemical_formula_structural   Zn3As2
_chemical_formula_sum   'Zn24 As16'
_cell_volume   849.80486898
_cell_formula_units_Z   8
loop_
 _symmetry_equiv_pos_site_id
 _symmetry_equiv_pos_as_xyz
  1  'x, y, z'
loop_
 _atom_site_type_symbol
 _atom_site_label
 _atom_site_symmetry_multiplicity
 _atom_site_fract_x
 _atom_site_fract_y
 _atom_site_fract_z
 _atom_site_occupancy
  Zn  Zn0  1  0.250000  0.973765  0.860142  1
  Zn  Zn1  1  0.526235  0.250000  0.360142  1
  Zn  Zn2  1  0.973765  0.250000  0.360142  1
  Zn  Zn3  1  0.750000  0.026235  0.139858  1
  Zn  Zn4  1  0.750000  0.473765  0.139858  1
  Zn  Zn5  1  0.250000  0.526235  0.860142  1
  Zn  Zn6  1  0.473765  0.750000  0.639858  1
  Zn  Zn7  1  0.026235  0.750000  0.639858  1
  Zn  Zn8  1  0.250000  0.029204  0.136010  1
  Zn  Zn9  1  0.470796  0.250000  0.636010  1
  Zn  Zn10  1  0.029204  0.250000  0.636010  1
  Zn  Zn11  1  0.750000  0.970796  0.863990  1
  Zn  Zn12  1  0.750000  0.529204  0.863990  1
  Zn  Zn13  1  0.250000  0.470796  0.136010  1
  Zn  Zn14  1  0.529204  0.750000  0.363990  1
  Zn  Zn15  1  0.970796  0.750000  0.363990  1
  Zn  Zn16  1  0.250000  0.996075  0.396449  1
  Zn  Zn17  1  0.503925  0.250000  0.896449  1
  Zn  Zn18  1  0.996075  0.250000  0.896449  1
  Zn  Zn19  1  0.750000  0.003925  0.603551  1
  Zn  Zn20  1  0.750000  0.496075  0.603551  1
  Zn  Zn21  1  0.250000  0.503925  0.396449  1
  Zn  Zn22  1  0.496075  0.750000  0.103551  1
  Zn  Zn23  1  0.003925  0.750000  0.103551  1
  As  As24  1  0.250000  0.750000  0.995693  1
  As  As25  1  0.750000  0.250000  0.495693  1
  As  As26  1  0.750000  0.250000  0.004307  1
  As  As27  1  0.250000  0.750000  0.504307  1
  As  As28  1  0.250000  0.250000  0.996256  1
  As  As29  1  0.250000  0.250000  0.496256  1
  As  As30  1  0.750000  0.750000  0.003744  1
  As  As31  1  0.750000  0.750000  0.503744  1
  As  As32  1  0.502648  0.002648  0.750000  1
  As  As33  1  0.497352  0.502648  0.250000  1
  As  As34  1  0.002648  0.997352  0.250000  1
  As  As35  1  0.997352  0.497352  0.750000  1
  As  As36  1  0.497352  0.997352  0.250000  1
  As  As37  1  0.502648  0.497352  0.750000  1
  As  As38  1  0.997352  0.002648  0.750000  1
  As  As39  1  0.002648  0.502648  0.250000  1
