# generated using pymatgen
data_ErPtF7
_symmetry_space_group_name_H-M   'P 1'
_cell_length_a   5.51558002
_cell_length_b   8.81852182
_cell_length_c   11.09795560
_cell_angle_alpha   107.42832448
_cell_angle_beta   90.00000000
_cell_angle_gamma   90.00000000
_symmetry_Int_Tables_number   1
_chemical_formula_structural   ErPtF7
_chemical_formula_sum   'Er4 Pt4 F28'
_cell_volume   515.01561105
_cell_formula_units_Z   4
loop_
 _symmetry_equiv_pos_site_id
 _symmetry_equiv_pos_as_xyz
  1  'x, y, z'
loop_
 _atom_site_type_symbol
 _atom_site_label
 _atom_site_symmetry_multiplicity
 _atom_site_fract_x
 _atom_site_fract_y
 _atom_site_fract_z
 _atom_site_occupancy
  F  F0  1  0.563377  0.382286  0.084961  1
  F  F1  1  0.063377  0.117714  0.415039  1
  F  F2  1  0.436623  0.617714  0.915039  1
  F  F3  1  0.936623  0.882286  0.584961  1
  F  F4  1  0.562554  0.180225  0.456592  1
  F  F5  1  0.062554  0.319775  0.043408  1
  F  F6  1  0.437446  0.819775  0.543408  1
  F  F7  1  0.937446  0.680225  0.956592  1
  F  F8  1  0.222929  0.618813  0.141692  1
  F  F9  1  0.722929  0.881187  0.358308  1
  F  F10  1  0.777071  0.381187  0.858308  1
  F  F11  1  0.277071  0.118813  0.641692  1
  F  F12  1  0.246645  0.927543  0.949254  1
  F  F13  1  0.746645  0.572457  0.550746  1
  F  F14  1  0.753355  0.072457  0.050746  1
  F  F15  1  0.253355  0.427543  0.449254  1
  F  F16  1  0.034981  0.638456  0.362803  1
  F  F17  1  0.534981  0.861544  0.137197  1
  F  F18  1  0.965019  0.361544  0.637197  1
  F  F19  1  0.465019  0.138456  0.862803  1
  F  F20  1  0.949534  0.077333  0.823729  1
  F  F21  1  0.449534  0.422667  0.676271  1
  F  F22  1  0.050466  0.922667  0.176271  1
  F  F23  1  0.550466  0.577333  0.323729  1
  F  F24  1  0.583495  0.796709  0.767148  1
  F  F25  1  0.083495  0.703291  0.732852  1
  F  F26  1  0.416505  0.203291  0.232852  1
  F  F27  1  0.916505  0.296709  0.267148  1
  Er  Er28  1  0.238796  0.421311  0.235753  1
  Er  Er29  1  0.738796  0.078689  0.264247  1
  Er  Er30  1  0.761204  0.578689  0.764247  1
  Er  Er31  1  0.261204  0.921311  0.735753  1
  Pt  Pt32  1  0.240544  0.770894  0.043072  1
  Pt  Pt33  1  0.740544  0.729106  0.456928  1
  Pt  Pt34  1  0.759456  0.229106  0.956928  1
  Pt  Pt35  1  0.259456  0.270894  0.543072  1
