# generated using pymatgen
data_Cr3N2
_symmetry_space_group_name_H-M   'P 1'
_cell_length_a   4.45751783
_cell_length_b   4.45760692
_cell_length_c   5.02818589
_cell_angle_alpha   89.99999994
_cell_angle_beta   90.04990605
_cell_angle_gamma   120.00066977
_symmetry_Int_Tables_number   1
_chemical_formula_structural   Cr3N2
_chemical_formula_sum   'Cr3 N2'
_cell_volume   86.52341744
_cell_formula_units_Z   1
loop_
 _symmetry_equiv_pos_site_id
 _symmetry_equiv_pos_as_xyz
  1  'x, y, z'
loop_
 _atom_site_type_symbol
 _atom_site_label
 _atom_site_symmetry_multiplicity
 _atom_site_fract_x
 _atom_site_fract_y
 _atom_site_fract_z
 _atom_site_occupancy
  Cr  Cr0  1  0.000000  0.677368  1.000000  1
  Cr  Cr1  1  0.322988  0.322803  -0.000144  1
  Cr  Cr2  1  0.677012  -0.000185  1.000144  1
  N  N3  1  0.333465  0.666739  0.202285  1
  N  N4  1  0.666535  0.333275  0.797715  1
