# generated using pymatgen
data_MoWSeS3
_symmetry_space_group_name_H-M   'P 1'
_cell_length_a   3.22020081
_cell_length_b   3.22017382
_cell_length_c   36.33764904
_cell_angle_alpha   89.99989785
_cell_angle_beta   90.00000000
_cell_angle_gamma   120.00027719
_symmetry_Int_Tables_number   1
_chemical_formula_structural   MoWSeS3
_chemical_formula_sum   'Mo2 W2 Se2 S6'
_cell_volume   326.32362291
_cell_formula_units_Z   2
loop_
 _symmetry_equiv_pos_site_id
 _symmetry_equiv_pos_as_xyz
  1  'x, y, z'
loop_
 _atom_site_type_symbol
 _atom_site_label
 _atom_site_symmetry_multiplicity
 _atom_site_fract_x
 _atom_site_fract_y
 _atom_site_fract_z
 _atom_site_occupancy
  Mo  Mo0  1  0.333311  0.666622  0.093923  1
  Mo  Mo1  1  0.333311  0.666621  0.469671  1
  W  W2  1  0.666688  0.333376  0.281798  1
  W  W3  1  0.666688  0.333375  0.657553  1
  Se  Se4  1  0.666648  0.333294  0.422591  1
  Se  Se5  1  0.666647  0.333293  0.516713  1
  S  S6  1  0.333352  0.666704  0.324754  1
  S  S7  1  0.333352  0.666704  0.700534  1
  S  S8  1  0.666648  0.333294  0.051086  1
  S  S9  1  0.666645  0.333290  0.136749  1
  S  S10  1  0.333354  0.666709  0.238808  1
  S  S11  1  0.333358  0.666717  0.614568  1
