# generated using pymatgen
data_Sm2(Ga3Co)3
_symmetry_space_group_name_H-M   'P 1'
_cell_length_a   7.40643606
_cell_length_b   7.40643606
_cell_length_c   9.50859887
_cell_angle_alpha   90.00000000
_cell_angle_beta   90.00000000
_cell_angle_gamma   119.63084871
_symmetry_Int_Tables_number   1
_chemical_formula_structural   Sm2(Ga3Co)3
_chemical_formula_sum   'Sm4 Ga18 Co6'
_cell_volume   453.38716347
_cell_formula_units_Z   2
loop_
 _symmetry_equiv_pos_site_id
 _symmetry_equiv_pos_as_xyz
  1  'x, y, z'
loop_
 _atom_site_type_symbol
 _atom_site_label
 _atom_site_symmetry_multiplicity
 _atom_site_fract_x
 _atom_site_fract_y
 _atom_site_fract_z
 _atom_site_occupancy
  Sm  Sm0  1  0.331254  0.003005  0.250000  1
  Sm  Sm1  1  0.668748  0.996996  0.750000  1
  Sm  Sm2  1  0.996996  0.668748  0.750000  1
  Sm  Sm3  1  0.003005  0.331254  0.250000  1
  Ga  Ga4  1  0.451243  0.663138  0.250000  1
  Ga  Ga5  1  0.548758  0.336863  0.750000  1
  Ga  Ga6  1  0.336863  0.548758  0.750000  1
  Ga  Ga7  1  0.663138  0.451243  0.250000  1
  Ga  Ga8  1  0.123394  0.123394  0.750000  1
  Ga  Ga9  1  0.876607  0.876607  0.250000  1
  Ga  Ga10  1  0.665373  0.665373  0.555264  1
  Ga  Ga11  1  0.334627  0.334627  0.055263  1
  Ga  Ga12  1  0.334627  0.334627  0.444737  1
  Ga  Ga13  1  0.665373  0.665373  0.944738  1
  Ga  Ga14  1  0.334416  0.001869  0.571195  1
  Ga  Ga15  1  0.665584  0.998131  0.071195  1
  Ga  Ga16  1  0.998131  0.665584  0.428806  1
  Ga  Ga17  1  0.001869  0.334416  0.928805  1
  Ga  Ga18  1  0.665584  0.998131  0.428806  1
  Ga  Ga19  1  0.334416  0.001869  0.928805  1
  Ga  Ga20  1  0.001869  0.334416  0.571195  1
  Ga  Ga21  1  0.998131  0.665584  0.071195  1
  Co  Co22  1  0.000000  0.000000  0.500001  1
  Co  Co23  1  0.000000  0.000000  -0.000000  1
  Co  Co24  1  0.329266  0.670734  0.500001  1
  Co  Co25  1  0.670734  0.329266  -0.000000  1
  Co  Co26  1  0.670734  0.329266  0.500001  1
  Co  Co27  1  0.329266  0.670734  -0.000000  1
