# generated using pymatgen
data_Te2Mo3WS6
_symmetry_space_group_name_H-M   'P 1'
_cell_length_a   3.27251006
_cell_length_b   3.27212593
_cell_length_c   39.05055966
_cell_angle_alpha   89.99827046
_cell_angle_beta   90.00000000
_cell_angle_gamma   120.00388348
_symmetry_Int_Tables_number   1
_chemical_formula_structural   Te2Mo3WS6
_chemical_formula_sum   'Te2 Mo3 W1 S6'
_cell_volume   362.11948744
_cell_formula_units_Z   1
loop_
 _symmetry_equiv_pos_site_id
 _symmetry_equiv_pos_as_xyz
  1  'x, y, z'
loop_
 _atom_site_type_symbol
 _atom_site_label
 _atom_site_symmetry_multiplicity
 _atom_site_fract_x
 _atom_site_fract_y
 _atom_site_fract_z
 _atom_site_occupancy
  Te  Te0  1  0.333318  0.666637  0.331127  1
  Te  Te1  1  0.333328  0.666658  0.232211  1
  Mo  Mo2  1  0.333267  0.666534  0.092938  1
  Mo  Mo3  1  0.666694  0.333387  0.281688  1
  Mo  Mo4  1  0.666651  0.333302  0.657626  1
  W  W5  1  0.333390  0.666781  0.470668  1
  S  S6  1  0.333339  0.666680  0.697073  1
  S  S7  1  0.666620  0.333239  0.053551  1
  S  S8  1  0.666714  0.333428  0.431074  1
  S  S9  1  0.666627  0.333252  0.132362  1
  S  S10  1  0.666713  0.333425  0.510239  1
  S  S11  1  0.333338  0.666677  0.618191  1
