# generated using pymatgen
data_K2ZrGe2O7
_symmetry_space_group_name_H-M   'P 1'
_cell_length_a   5.64719731
_cell_length_b   5.79360091
_cell_length_c   13.18199912
_cell_angle_alpha   77.47667662
_cell_angle_beta   77.63133843
_cell_angle_gamma   60.83245878
_symmetry_Int_Tables_number   1
_chemical_formula_structural   K2ZrGe2O7
_chemical_formula_sum   'K4 Zr2 Ge4 O14'
_cell_volume   364.64448151
_cell_formula_units_Z   2
loop_
 _symmetry_equiv_pos_site_id
 _symmetry_equiv_pos_as_xyz
  1  'x, y, z'
loop_
 _atom_site_type_symbol
 _atom_site_label
 _atom_site_symmetry_multiplicity
 _atom_site_fract_x
 _atom_site_fract_y
 _atom_site_fract_z
 _atom_site_occupancy
  O  O0  1  0.812102  0.308013  0.955789  1
  O  O1  1  0.328054  0.375958  0.872856  1
  O  O2  1  0.423132  0.875958  0.372856  1
  O  O3  1  0.671946  0.624042  0.127144  1
  O  O4  1  0.860403  0.250000  0.750000  1
  O  O5  1  0.139597  0.750000  0.250000  1
  O  O6  1  0.213283  0.148884  0.101015  1
  O  O7  1  0.463182  0.351116  0.398985  1
  O  O8  1  0.075904  0.191987  0.544211  1
  O  O9  1  0.536818  0.648884  0.601015  1
  O  O10  1  0.187898  0.691987  0.044211  1
  O  O11  1  0.924096  0.808013  0.455789  1
  O  O12  1  0.786717  0.851116  0.898985  1
  O  O13  1  0.576868  0.124042  0.627144  1
  K  K14  1  0.640626  0.116482  0.177759  1
  K  K15  1  0.934867  0.383518  0.322241  1
  K  K16  1  0.359374  0.883518  0.822241  1
  K  K17  1  0.065133  0.616482  0.677759  1
  Ge  Ge18  1  0.757969  0.303286  0.622153  1
  Ge  Ge19  1  0.316592  0.803286  0.122153  1
  Ge  Ge20  1  0.242031  0.696714  0.377847  1
  Ge  Ge21  1  0.683408  0.196714  0.877847  1
  Zr  Zr22  1  0.500000  0.000000  0.500000  1
  Zr  Zr23  1  0.000000  0.500000  0.000000  1
