# generated using pymatgen
data_YbCl3
_symmetry_space_group_name_H-M   'P 1'
_cell_length_a   3.98826563
_cell_length_b   6.03820780
_cell_length_c   8.66026669
_cell_angle_alpha   90.00000000
_cell_angle_beta   90.00000000
_cell_angle_gamma   109.28409779
_symmetry_Int_Tables_number   1
_chemical_formula_structural   YbCl3
_chemical_formula_sum   'Yb2 Cl6'
_cell_volume   196.85479612
_cell_formula_units_Z   2
loop_
 _symmetry_equiv_pos_site_id
 _symmetry_equiv_pos_as_xyz
  1  'x, y, z'
loop_
 _atom_site_type_symbol
 _atom_site_label
 _atom_site_symmetry_multiplicity
 _atom_site_fract_x
 _atom_site_fract_y
 _atom_site_fract_z
 _atom_site_occupancy
  Yb  Yb0  1  0.750296  0.500592  0.250000  1
  Yb  Yb1  1  0.249704  0.499408  0.750000  1
  Cl  Cl2  1  0.353775  0.707550  0.060567  1
  Cl  Cl3  1  0.646225  0.292451  0.939433  1
  Cl  Cl4  1  0.646225  0.292451  0.560567  1
  Cl  Cl5  1  0.353775  0.707550  0.439433  1
  Cl  Cl6  1  0.083804  0.167607  0.250000  1
  Cl  Cl7  1  0.916196  0.832393  0.750000  1
