# generated using pymatgen
data_TeMoSe
_symmetry_space_group_name_H-M   'P 1'
_cell_length_a   3.44063808
_cell_length_b   3.44058248
_cell_length_c   39.03685026
_cell_angle_alpha   90.00067152
_cell_angle_beta   90.00000000
_cell_angle_gamma   120.00053458
_symmetry_Int_Tables_number   1
_chemical_formula_structural   TeMoSe
_chemical_formula_sum   'Te4 Mo4 Se4'
_cell_volume   400.19718186
_cell_formula_units_Z   4
loop_
 _symmetry_equiv_pos_site_id
 _symmetry_equiv_pos_as_xyz
  1  'x, y, z'
loop_
 _atom_site_type_symbol
 _atom_site_label
 _atom_site_symmetry_multiplicity
 _atom_site_fract_x
 _atom_site_fract_y
 _atom_site_fract_z
 _atom_site_occupancy
  Te  Te0  1  0.333360  0.666721  0.705043  1
  Te  Te1  1  0.666640  0.333279  0.046415  1
  Te  Te2  1  0.666647  0.333294  0.141453  1
  Te  Te3  1  0.333353  0.666706  0.610005  1
  Mo  Mo4  1  0.333306  0.666611  0.093923  1
  Mo  Mo5  1  0.333314  0.666628  0.469641  1
  Mo  Mo6  1  0.666686  0.333372  0.281817  1
  Mo  Mo7  1  0.666694  0.333389  0.657535  1
  Se  Se8  1  0.333356  0.666713  0.323702  1
  Se  Se9  1  0.666644  0.333286  0.427756  1
  Se  Se10  1  0.666649  0.333297  0.511558  1
  Se  Se11  1  0.333351  0.666703  0.239900  1
