# generated using pymatgen
data_FeSb4C6(O3F11)2
_symmetry_space_group_name_H-M   'P 1'
_cell_length_a   9.94407763
_cell_length_b   10.81472244
_cell_length_c   12.68030556
_cell_angle_alpha   90.00000000
_cell_angle_beta   90.00000000
_cell_angle_gamma   110.49285371
_symmetry_Int_Tables_number   1
_chemical_formula_structural   FeSb4C6(O3F11)2
_chemical_formula_sum   'Fe2 Sb8 C12 O12 F44'
_cell_volume   1277.37225029
_cell_formula_units_Z   2
loop_
 _symmetry_equiv_pos_site_id
 _symmetry_equiv_pos_as_xyz
  1  'x, y, z'
loop_
 _atom_site_type_symbol
 _atom_site_label
 _atom_site_symmetry_multiplicity
 _atom_site_fract_x
 _atom_site_fract_y
 _atom_site_fract_z
 _atom_site_occupancy
  C  C0  1  0.864908  0.834880  0.049905  1
  C  C1  1  0.978289  0.930971  0.858459  1
  C  C2  1  0.521711  0.569029  0.358459  1
  C  C3  1  0.021711  0.069029  0.141541  1
  C  C4  1  0.478289  0.430971  0.641542  1
  C  C5  1  0.152804  0.932392  0.021563  1
  C  C6  1  0.347196  0.567608  0.521563  1
  C  C7  1  0.847196  0.067609  0.978437  1
  C  C8  1  0.364907  0.334880  0.450095  1
  C  C9  1  0.135093  0.165120  0.950095  1
  C  C10  1  0.635093  0.665120  0.549905  1
  C  C11  1  0.652804  0.432392  0.478437  1
  O  O12  1  0.285266  0.237236  0.421829  1
  O  O13  1  0.240947  0.889317  0.031117  1
  O  O14  1  0.259052  0.610683  0.531117  1
  O  O15  1  0.759052  0.110683  0.968883  1
  O  O16  1  0.740947  0.389317  0.468883  1
  O  O17  1  0.785266  0.737236  0.078171  1
  O  O18  1  0.714733  0.762764  0.578171  1
  O  O19  1  0.214734  0.262764  0.921829  1
  O  O20  1  0.032581  0.112326  0.223888  1
  O  O21  1  0.467420  0.387675  0.723888  1
  O  O22  1  0.532581  0.612326  0.276112  1
  O  O23  1  0.967420  0.887675  0.776112  1
  F  F24  1  0.572794  0.104441  0.771530  1
  F  F25  1  0.927206  0.395560  0.271529  1
  F  F26  1  0.427206  0.895559  0.228470  1
  F  F27  1  0.072794  0.604441  0.728470  1
  F  F28  1  0.292058  0.056244  0.806161  1
  F  F29  1  0.207942  0.443756  0.306161  1
  F  F30  1  0.707943  0.943757  0.193839  1
  F  F31  1  0.792057  0.556243  0.693839  1
  F  F32  1  0.568496  0.599097  0.908776  1
  F  F33  1  0.931504  0.900903  0.408776  1
  F  F34  1  0.431504  0.400902  0.091223  1
  F  F35  1  0.068495  0.099097  0.591223  1
  F  F36  1  0.451261  0.654301  0.726508  1
  F  F37  1  0.048740  0.845699  0.226508  1
  F  F38  1  0.548740  0.345700  0.273492  1
  F  F39  1  0.001196  0.420336  0.884520  1
  F  F40  1  0.665577  0.846166  0.820307  1
  F  F41  1  0.834422  0.653835  0.320307  1
  F  F42  1  0.334423  0.153835  0.179693  1
  F  F43  1  0.165577  0.346165  0.679693  1
  F  F44  1  0.519516  0.817585  0.997509  1
  F  F45  1  0.980483  0.682416  0.497509  1
  F  F46  1  0.480484  0.182416  0.002491  1
  F  F47  1  0.019516  0.317584  0.502491  1
  F  F48  1  0.295716  0.620430  0.907143  1
  F  F49  1  0.498804  0.079664  0.384520  1
  F  F50  1  0.704284  0.379570  0.092857  1
  F  F51  1  0.795716  0.120431  0.592857  1
  F  F52  1  0.998803  0.579664  0.115479  1
  F  F53  1  0.501196  0.920336  0.615479  1
  F  F54  1  0.725044  0.382318  0.848214  1
  F  F55  1  0.774956  0.117681  0.348214  1
  F  F56  1  0.274956  0.617681  0.151786  1
  F  F57  1  0.225045  0.882319  0.651786  1
  F  F58  1  0.911006  0.642187  0.892548  1
  F  F59  1  0.588994  0.857813  0.392548  1
  F  F60  1  0.088994  0.357813  0.107452  1
  F  F61  1  0.411006  0.142187  0.607452  1
  F  F62  1  0.893429  0.357773  0.684116  1
  F  F63  1  0.606571  0.142227  0.184116  1
  F  F64  1  0.106570  0.642227  0.315884  1
  F  F65  1  0.393429  0.857773  0.815884  1
  F  F66  1  0.204284  0.879569  0.407143  1
  F  F67  1  0.951260  0.154301  0.773492  1
  Fe  Fe68  1  0.500000  0.500000  0.500000  1
  Fe  Fe69  1  0.000000  0.000000  0.000000  1
  Sb  Sb70  1  0.484606  0.724066  0.867658  1
  Sb  Sb71  1  0.515394  0.275934  0.132342  1
  Sb  Sb72  1  0.015394  0.775934  0.367658  1
  Sb  Sb73  1  0.984606  0.224066  0.632342  1
  Sb  Sb74  1  0.901471  0.502454  0.797858  1
  Sb  Sb75  1  0.598529  0.997546  0.297858  1
  Sb  Sb76  1  0.098530  0.497546  0.202142  1
  Sb  Sb77  1  0.401471  0.002454  0.702142  1
