# generated using pymatgen
data_Te2Mo3WS6
_symmetry_space_group_name_H-M   'P 1'
_cell_length_a   3.27315763
_cell_length_b   3.27335772
_cell_length_c   37.12169311
_cell_angle_alpha   90.00021530
_cell_angle_beta   90.00000000
_cell_angle_gamma   119.99797788
_symmetry_Int_Tables_number   1
_chemical_formula_structural   Te2Mo3WS6
_chemical_formula_sum   'Te2 Mo3 W1 S6'
_cell_volume   344.45115524
_cell_formula_units_Z   1
loop_
 _symmetry_equiv_pos_site_id
 _symmetry_equiv_pos_as_xyz
  1  'x, y, z'
loop_
 _atom_site_type_symbol
 _atom_site_label
 _atom_site_symmetry_multiplicity
 _atom_site_fract_x
 _atom_site_fract_y
 _atom_site_fract_z
 _atom_site_occupancy
  Te  Te0  1  0.333352  0.666705  0.709454  1
  Te  Te1  1  0.333351  0.666703  0.605661  1
  Mo  Mo2  1  0.333300  0.666599  0.093899  1
  Mo  Mo3  1  0.333319  0.666638  0.469634  1
  Mo  Mo4  1  0.666690  0.333380  0.657608  1
  W  W5  1  0.666690  0.333380  0.281796  1
  S  S6  1  0.333355  0.666710  0.323412  1
  S  S7  1  0.666655  0.333309  0.052514  1
  S  S8  1  0.666641  0.333282  0.428229  1
  S  S9  1  0.666655  0.333310  0.135319  1
  S  S10  1  0.666639  0.333277  0.511032  1
  S  S11  1  0.333354  0.666709  0.240190  1
