# generated using pymatgen
data_K3DySi2O7
_symmetry_space_group_name_H-M   'P 1'
_cell_length_a   9.95888403
_cell_length_b   9.95888403
_cell_length_c   14.49624189
_cell_angle_alpha   90.00000000
_cell_angle_beta   90.00000000
_cell_angle_gamma   120.00000003
_symmetry_Int_Tables_number   1
_chemical_formula_structural   K3DySi2O7
_chemical_formula_sum   'K18 Dy6 Si12 O42'
_cell_volume   1245.10910488
_cell_formula_units_Z   6
loop_
 _symmetry_equiv_pos_site_id
 _symmetry_equiv_pos_as_xyz
  1  'x, y, z'
loop_
 _atom_site_type_symbol
 _atom_site_label
 _atom_site_symmetry_multiplicity
 _atom_site_fract_x
 _atom_site_fract_y
 _atom_site_fract_z
 _atom_site_occupancy
  O  O0  1  0.407907  0.000000  0.750000  1
  O  O1  1  0.407907  0.407907  0.250000  1
  O  O2  1  0.000000  0.592093  0.250000  1
  O  O3  1  0.000000  0.407907  0.750000  1
  O  O4  1  0.592093  0.592093  0.750000  1
  O  O5  1  0.592093  0.000000  0.250000  1
  O  O6  1  0.822787  0.822787  0.852048  1
  O  O7  1  0.177213  0.000000  0.852048  1
  O  O8  1  0.000000  0.177213  0.852048  1
  O  O9  1  0.000000  0.822787  0.352048  1
  O  O10  1  0.177213  0.000000  0.647952  1
  O  O11  1  0.177213  0.177213  0.352048  1
  O  O12  1  0.822787  0.000000  0.352048  1
  O  O13  1  0.177213  0.177213  0.147952  1
  O  O14  1  0.000000  0.822787  0.147952  1
  O  O15  1  0.000000  0.177213  0.647952  1
  O  O16  1  0.822787  0.822787  0.647952  1
  O  O17  1  0.822787  0.000000  0.147952  1
  O  O18  1  0.321891  0.844552  0.908305  1
  O  O19  1  0.155448  0.477340  0.908305  1
  O  O20  1  0.522660  0.678109  0.908305  1
  O  O21  1  0.477340  0.321891  0.408305  1
  O  O22  1  0.678109  0.522660  0.591695  1
  O  O23  1  0.678109  0.155448  0.408305  1
  O  O24  1  0.844552  0.522660  0.408305  1
  O  O25  1  0.155448  0.678109  0.091695  1
  O  O26  1  0.522660  0.844552  0.091695  1
  O  O27  1  0.477340  0.155448  0.591695  1
  O  O28  1  0.844552  0.321891  0.591695  1
  O  O29  1  0.321891  0.477340  0.091695  1
  O  O30  1  0.678109  0.155448  0.091695  1
  O  O31  1  0.844552  0.522660  0.091695  1
  O  O32  1  0.477340  0.321891  0.091695  1
  O  O33  1  0.522660  0.678109  0.591695  1
  O  O34  1  0.321891  0.477340  0.408305  1
  O  O35  1  0.321891  0.844552  0.591695  1
  O  O36  1  0.678109  0.522660  0.908305  1
  O  O37  1  0.155448  0.678109  0.408305  1
  O  O38  1  0.522660  0.844552  0.408305  1
  O  O39  1  0.477340  0.155448  0.908305  1
  O  O40  1  0.844552  0.321891  0.908305  1
  O  O41  1  0.155448  0.477340  0.591695  1
  Si  Si42  1  0.658443  0.658443  0.857189  1
  Si  Si43  1  0.341557  0.000000  0.857189  1
  Si  Si44  1  0.000000  0.341557  0.857189  1
  Si  Si45  1  0.000000  0.658443  0.357189  1
  Si  Si46  1  0.341557  0.000000  0.642811  1
  Si  Si47  1  0.341557  0.341557  0.357189  1
  Si  Si48  1  0.658443  0.000000  0.357189  1
  Si  Si49  1  0.341557  0.341557  0.142811  1
  Si  Si50  1  0.000000  0.658443  0.142811  1
  Si  Si51  1  0.000000  0.341557  0.642811  1
  Si  Si52  1  0.658443  0.658443  0.642811  1
  Si  Si53  1  0.658443  0.000000  0.142811  1
  K  K54  1  0.000000  0.000000  0.500000  1
  K  K55  1  0.332001  0.000000  0.091621  1
  K  K56  1  0.332001  0.332001  0.591621  1
  K  K57  1  0.000000  0.667999  0.591621  1
  K  K58  1  0.000000  0.332001  0.091621  1
  K  K59  1  0.667999  0.667999  0.091621  1
  K  K60  1  0.332001  0.000000  0.408379  1
  K  K61  1  0.000000  0.000000  0.000000  1
  K  K62  1  0.333333  0.666667  0.750000  1
  K  K63  1  0.666667  0.333333  0.250000  1
  K  K64  1  0.666667  0.333333  0.750000  1
  K  K65  1  0.333333  0.666667  0.250000  1
  K  K66  1  0.667999  0.667999  0.408379  1
  K  K67  1  0.667999  0.000000  0.908379  1
  K  K68  1  0.000000  0.667999  0.908379  1
  K  K69  1  0.000000  0.332001  0.408379  1
  K  K70  1  0.667999  0.000000  0.591621  1
  K  K71  1  0.332001  0.332001  0.908379  1
  Dy  Dy72  1  0.000000  0.000000  0.750000  1
  Dy  Dy73  1  0.333333  0.666667  0.000000  1
  Dy  Dy74  1  0.666667  0.333333  0.500000  1
  Dy  Dy75  1  0.666667  0.333333  0.000000  1
  Dy  Dy76  1  0.333333  0.666667  0.500000  1
  Dy  Dy77  1  0.000000  0.000000  0.250000  1
