# generated using pymatgen
data_Ba4NbFeO8
_symmetry_space_group_name_H-M   'P 1'
_cell_length_a   6.13406059
_cell_length_b   7.65502907
_cell_length_c   21.23204190
_cell_angle_alpha   97.98404085
_cell_angle_beta   90.00000000
_cell_angle_gamma   90.00000000
_symmetry_Int_Tables_number   1
_chemical_formula_structural   Ba4NbFeO8
_chemical_formula_sum   'Ba16 Nb4 Fe4 O32'
_cell_volume   987.31657454
_cell_formula_units_Z   4
loop_
 _symmetry_equiv_pos_site_id
 _symmetry_equiv_pos_as_xyz
  1  'x, y, z'
loop_
 _atom_site_type_symbol
 _atom_site_label
 _atom_site_symmetry_multiplicity
 _atom_site_fract_x
 _atom_site_fract_y
 _atom_site_fract_z
 _atom_site_occupancy
  Ba  Ba0  1  0.260629  0.031412  0.401744  1
  Ba  Ba1  1  0.760629  0.968588  0.098256  1
  Ba  Ba2  1  0.739371  0.968588  0.598256  1
  Ba  Ba3  1  0.239371  0.031412  0.901744  1
  Ba  Ba4  1  0.257777  0.511679  0.361458  1
  Ba  Ba5  1  0.757777  0.488321  0.138542  1
  Ba  Ba6  1  0.742223  0.488321  0.638542  1
  Ba  Ba7  1  0.242223  0.511679  0.861458  1
  Ba  Ba8  1  0.774579  0.296725  0.452553  1
  Ba  Ba9  1  0.274579  0.703275  0.047447  1
  Ba  Ba10  1  0.225421  0.703275  0.547447  1
  Ba  Ba11  1  0.725421  0.296725  0.952553  1
  Ba  Ba12  1  0.780852  0.846029  0.288493  1
  Ba  Ba13  1  0.280852  0.153971  0.211507  1
  Ba  Ba14  1  0.219148  0.153971  0.711507  1
  Ba  Ba15  1  0.719148  0.846029  0.788493  1
  Nb  Nb16  1  0.765181  0.342061  0.288217  1
  Nb  Nb17  1  0.265181  0.657939  0.211783  1
  Nb  Nb18  1  0.234819  0.657939  0.711783  1
  Nb  Nb19  1  0.734819  0.342061  0.788217  1
  Fe  Fe20  1  0.721746  0.734482  0.440990  1
  Fe  Fe21  1  0.221746  0.265518  0.059010  1
  Fe  Fe22  1  0.278254  0.265518  0.559010  1
  Fe  Fe23  1  0.778254  0.734482  0.940990  1
  O  O24  1  0.996563  0.498529  0.248231  1
  O  O25  1  0.496563  0.501471  0.251769  1
  O  O26  1  0.003437  0.501471  0.751769  1
  O  O27  1  0.503437  0.498529  0.748231  1
  O  O28  1  0.995375  0.212297  0.321874  1
  O  O29  1  0.495375  0.787703  0.178126  1
  O  O30  1  0.004625  0.787703  0.678126  1
  O  O31  1  0.504625  0.212297  0.821874  1
  O  O32  1  0.735880  0.189725  0.207662  1
  O  O33  1  0.235880  0.810275  0.292338  1
  O  O34  1  0.264120  0.810275  0.792338  1
  O  O35  1  0.764120  0.189725  0.707662  1
  O  O36  1  0.532555  0.225180  0.331273  1
  O  O37  1  0.032555  0.774820  0.168727  1
  O  O38  1  0.467445  0.774820  0.668727  1
  O  O39  1  0.967445  0.225180  0.831273  1
  O  O40  1  0.774572  0.548939  0.368616  1
  O  O41  1  0.274572  0.451061  0.131384  1
  O  O42  1  0.225428  0.451061  0.631384  1
  O  O43  1  0.725428  0.548939  0.868616  1
  O  O44  1  0.845513  0.941640  0.418005  1
  O  O45  1  0.345513  0.058360  0.081995  1
  O  O46  1  0.154487  0.058360  0.581995  1
  O  O47  1  0.654487  0.941640  0.918005  1
  O  O48  1  0.803319  0.657611  0.519719  1
  O  O49  1  0.303319  0.342389  0.980281  1
  O  O50  1  0.196681  0.342389  0.480281  1
  O  O51  1  0.696681  0.657611  0.019719  1
  O  O52  1  0.415076  0.760617  0.444778  1
  O  O53  1  0.915076  0.239383  0.055222  1
  O  O54  1  0.584924  0.239383  0.555222  1
  O  O55  1  0.084924  0.760617  0.944778  1
