# generated using pymatgen
data_RbHo2Cu3S5
_symmetry_space_group_name_H-M   'P 1'
_cell_length_a   3.94309219
_cell_length_b   7.23759720
_cell_length_c   16.49585815
_cell_angle_alpha   90.00000000
_cell_angle_beta   90.00000000
_cell_angle_gamma   105.80733338
_symmetry_Int_Tables_number   1
_chemical_formula_structural   RbHo2Cu3S5
_chemical_formula_sum   'Rb2 Ho4 Cu6 S10'
_cell_volume   452.96432056
_cell_formula_units_Z   2
loop_
 _symmetry_equiv_pos_site_id
 _symmetry_equiv_pos_as_xyz
  1  'x, y, z'
loop_
 _atom_site_type_symbol
 _atom_site_label
 _atom_site_symmetry_multiplicity
 _atom_site_fract_x
 _atom_site_fract_y
 _atom_site_fract_z
 _atom_site_occupancy
  S  S0  1  0.332268  0.664536  0.569490  1
  S  S1  1  0.667732  0.335464  0.430510  1
  S  S2  1  0.667732  0.335464  0.069490  1
  S  S3  1  0.332268  0.664536  0.930510  1
  S  S4  1  0.262219  0.524438  0.250000  1
  S  S5  1  0.737781  0.475562  0.750000  1
  S  S6  1  0.938586  0.877172  0.113108  1
  S  S7  1  0.938586  0.877172  0.386892  1
  S  S8  1  0.061414  0.122828  0.886892  1
  S  S9  1  0.061414  0.122828  0.613108  1
  Cu  Cu10  1  0.915894  0.831788  0.963678  1
  Cu  Cu11  1  0.084106  0.168212  0.036322  1
  Cu  Cu12  1  0.084106  0.168212  0.463678  1
  Cu  Cu13  1  0.155147  0.310294  0.750000  1
  Cu  Cu14  1  0.844853  0.689706  0.250000  1
  Cu  Cu15  1  0.915894  0.831788  0.536322  1
  Rb  Rb16  1  0.434453  0.868906  0.750000  1
  Rb  Rb17  1  0.565547  0.131094  0.250000  1
  Ho  Ho18  1  0.691985  0.383971  0.592728  1
  Ho  Ho19  1  0.308015  0.616029  0.407272  1
  Ho  Ho20  1  0.691985  0.383971  0.907272  1
  Ho  Ho21  1  0.308015  0.616029  0.092728  1
