# generated using pymatgen
data_Ho3Ge4
_symmetry_space_group_name_H-M   'P 1'
_cell_length_a   4.05368417
_cell_length_b   5.70290108
_cell_length_c   14.26424546
_cell_angle_alpha   90.00000000
_cell_angle_beta   90.00000000
_cell_angle_gamma   110.81829505
_symmetry_Int_Tables_number   1
_chemical_formula_structural   Ho3Ge4
_chemical_formula_sum   'Ho6 Ge8'
_cell_volume   308.22827851
_cell_formula_units_Z   2
loop_
 _symmetry_equiv_pos_site_id
 _symmetry_equiv_pos_as_xyz
  1  'x, y, z'
loop_
 _atom_site_type_symbol
 _atom_site_label
 _atom_site_symmetry_multiplicity
 _atom_site_fract_x
 _atom_site_fract_y
 _atom_site_fract_z
 _atom_site_occupancy
  Ge  Ge0  1  0.000000  0.000000  0.500000  1
  Ge  Ge1  1  0.000000  0.000000  0.000000  1
  Ge  Ge2  1  0.225697  0.451394  0.250000  1
  Ge  Ge3  1  0.774303  0.548606  0.750000  1
  Ge  Ge4  1  0.380937  0.761873  0.391596  1
  Ge  Ge5  1  0.619063  0.238127  0.608404  1
  Ge  Ge6  1  0.380937  0.761873  0.108404  1
  Ge  Ge7  1  0.619063  0.238127  0.891596  1
  Ho  Ho8  1  0.954660  0.909321  0.250000  1
  Ho  Ho9  1  0.045340  0.090679  0.750000  1
  Ho  Ho10  1  0.329590  0.659180  0.596805  1
  Ho  Ho11  1  0.670410  0.340820  0.403195  1
  Ho  Ho12  1  0.670410  0.340820  0.096805  1
  Ho  Ho13  1  0.329590  0.659180  0.903195  1
