# generated using pymatgen
data_K2ErF5
_symmetry_space_group_name_H-M   'P 1'
_cell_length_a   6.68240063
_cell_length_b   7.26395447
_cell_length_c   10.97209595
_cell_angle_alpha   90.00000000
_cell_angle_beta   90.00000000
_cell_angle_gamma   90.00000000
_symmetry_Int_Tables_number   1
_chemical_formula_structural   K2ErF5
_chemical_formula_sum   'K8 Er4 F20'
_cell_volume   532.59271236
_cell_formula_units_Z   4
loop_
 _symmetry_equiv_pos_site_id
 _symmetry_equiv_pos_as_xyz
  1  'x, y, z'
loop_
 _atom_site_type_symbol
 _atom_site_label
 _atom_site_symmetry_multiplicity
 _atom_site_fract_x
 _atom_site_fract_y
 _atom_site_fract_z
 _atom_site_occupancy
  F  F0  1  0.877619  0.994953  0.166080  1
  F  F1  1  0.122381  0.494953  0.833920  1
  F  F2  1  0.622381  0.994953  0.666080  1
  F  F3  1  0.377619  0.494953  0.333920  1
  F  F4  1  0.843106  0.494867  0.189029  1
  F  F5  1  0.156894  0.994867  0.810971  1
  F  F6  1  0.656894  0.494867  0.689029  1
  F  F7  1  0.343106  0.994867  0.310971  1
  F  F8  1  0.646878  0.209257  0.427090  1
  F  F9  1  0.353122  0.709257  0.572910  1
  F  F10  1  0.853122  0.209257  0.927090  1
  F  F11  1  0.146878  0.709257  0.072910  1
  F  F12  1  0.389824  0.995130  0.013935  1
  F  F13  1  0.610176  0.495130  0.986065  1
  F  F14  1  0.110176  0.995130  0.513935  1
  F  F15  1  0.889824  0.495130  0.486065  1
  F  F16  1  0.146959  0.280809  0.072957  1
  F  F17  1  0.853041  0.780809  0.927043  1
  F  F18  1  0.353041  0.280809  0.572957  1
  F  F19  1  0.646959  0.780809  0.427043  1
  K  K20  1  0.534664  0.241988  0.170952  1
  K  K21  1  0.465336  0.741988  0.829048  1
  K  K22  1  0.965336  0.241988  0.670952  1
  K  K23  1  0.034664  0.741988  0.329048  1
  K  K24  1  0.534926  0.747980  0.170830  1
  K  K25  1  0.465074  0.247980  0.829170  1
  K  K26  1  0.965074  0.747980  0.670830  1
  K  K27  1  0.034926  0.247980  0.329170  1
  Er  Er28  1  0.563715  0.495027  0.497481  1
  Er  Er29  1  0.436285  0.995027  0.502519  1
  Er  Er30  1  0.936285  0.495027  0.997481  1
  Er  Er31  1  0.063715  0.995027  0.002519  1
