# generated using pymatgen
data_TeWS
_symmetry_space_group_name_H-M   'P 1'
_cell_length_a   3.36029198
_cell_length_b   3.36029058
_cell_length_c   38.36830275
_cell_angle_alpha   90.00019985
_cell_angle_beta   90.00000000
_cell_angle_gamma   120.00001380
_symmetry_Int_Tables_number   1
_chemical_formula_structural   TeWS
_chemical_formula_sum   'Te4 W4 S4'
_cell_volume   375.19497156
_cell_formula_units_Z   4
loop_
 _symmetry_equiv_pos_site_id
 _symmetry_equiv_pos_as_xyz
  1  'x, y, z'
loop_
 _atom_site_type_symbol
 _atom_site_label
 _atom_site_symmetry_multiplicity
 _atom_site_fract_x
 _atom_site_fract_y
 _atom_site_fract_z
 _atom_site_occupancy
  Te  Te0  1  0.333357  0.666715  0.707092  1
  Te  Te1  1  0.666643  0.333285  0.044366  1
  Te  Te2  1  0.666648  0.333295  0.143466  1
  Te  Te3  1  0.333352  0.666705  0.607992  1
  W  W4  1  0.333311  0.666622  0.093897  1
  W  W5  1  0.333311  0.666622  0.469654  1
  W  W6  1  0.666689  0.333378  0.281804  1
  W  W7  1  0.666689  0.333378  0.657561  1
  S  S8  1  0.333355  0.666710  0.321364  1
  S  S9  1  0.666645  0.333290  0.430094  1
  S  S10  1  0.666646  0.333291  0.509220  1
  S  S11  1  0.333354  0.666709  0.242238  1
