# generated using pymatgen
data_MoW3(SeS)4
_symmetry_space_group_name_H-M   'P 1'
_cell_length_a   3.25389047
_cell_length_b   3.25386088
_cell_length_c   36.92303917
_cell_angle_alpha   89.99979855
_cell_angle_beta   90.00000000
_cell_angle_gamma   120.00030075
_symmetry_Int_Tables_number   1
_chemical_formula_structural   MoW3(SeS)4
_chemical_formula_sum   'Mo1 W3 Se4 S4'
_cell_volume   338.55455921
_cell_formula_units_Z   1
loop_
 _symmetry_equiv_pos_site_id
 _symmetry_equiv_pos_as_xyz
  1  'x, y, z'
loop_
 _atom_site_type_symbol
 _atom_site_label
 _atom_site_symmetry_multiplicity
 _atom_site_fract_x
 _atom_site_fract_y
 _atom_site_fract_z
 _atom_site_occupancy
  Mo  Mo0  1  0.666688  0.333377  0.281799  1
  W  W1  1  0.333311  0.666623  0.093922  1
  W  W2  1  0.333312  0.666624  0.469653  1
  W  W3  1  0.666689  0.333378  0.657556  1
  Se  Se4  1  0.333354  0.666710  0.703850  1
  Se  Se5  1  0.666642  0.333284  0.423361  1
  Se  Se6  1  0.666648  0.333295  0.515926  1
  Se  Se7  1  0.333354  0.666709  0.611259  1
  S  S8  1  0.333356  0.666714  0.323683  1
  S  S9  1  0.666645  0.333290  0.051950  1
  S  S10  1  0.666644  0.333286  0.135889  1
  S  S11  1  0.333355  0.666711  0.239899  1
