# generated using pymatgen
data_LiGe2(PO4)3
_symmetry_space_group_name_H-M   'P 1'
_cell_length_a   8.35286581
_cell_length_b   8.35286581
_cell_length_c   8.45855756
_cell_angle_alpha   60.41248496
_cell_angle_beta   60.41248493
_cell_angle_gamma   59.99999770
_symmetry_Int_Tables_number   1
_chemical_formula_structural   LiGe2(PO4)3
_chemical_formula_sum   'Li2 Ge4 P6 O24'
_cell_volume   419.88664404
_cell_formula_units_Z   2
loop_
 _symmetry_equiv_pos_site_id
 _symmetry_equiv_pos_as_xyz
  1  'x, y, z'
loop_
 _atom_site_type_symbol
 _atom_site_label
 _atom_site_symmetry_multiplicity
 _atom_site_fract_x
 _atom_site_fract_y
 _atom_site_fract_z
 _atom_site_occupancy
  Li  Li0  1  0.000000  -0.000000  -0.000000  1
  Li  Li1  1  0.500000  0.500000  0.500000  1
  Ge  Ge2  1  0.357881  0.357881  0.926358  1
  Ge  Ge3  1  0.642119  0.642119  0.073642  1
  Ge  Ge4  1  0.141373  0.141373  0.575882  1
  Ge  Ge5  1  0.858627  0.858627  0.424118  1
  P  P6  1  0.037691  0.461728  0.750018  1
  P  P7  1  0.461728  0.750563  0.750018  1
  P  P8  1  0.750563  0.037691  0.750018  1
  P  P9  1  0.962309  0.538272  0.249982  1
  P  P10  1  0.538272  0.249437  0.249982  1
  P  P11  1  0.249437  0.962309  0.249982  1
  O  O12  1  0.222241  0.465123  0.749778  1
  O  O13  1  0.465123  0.562857  0.749778  1
  O  O14  1  0.562856  0.222242  0.749778  1
  O  O15  1  0.777759  0.534877  0.250222  1
  O  O16  1  0.534877  0.437143  0.250222  1
  O  O17  1  0.437144  0.777758  0.250222  1
  O  O18  1  0.080162  0.257691  0.752460  1
  O  O19  1  0.257692  0.909687  0.752460  1
  O  O20  1  0.909687  0.080162  0.752460  1
  O  O21  1  0.919838  0.742309  0.247540  1
  O  O22  1  0.742308  0.090313  0.247540  1
  O  O23  1  0.090313  0.919838  0.247540  1
  O  O24  1  0.859196  0.484358  0.931532  1
  O  O25  1  0.484358  0.724914  0.931532  1
  O  O26  1  0.724914  0.859196  0.931532  1
  O  O27  1  0.140804  0.515642  0.068468  1
  O  O28  1  0.515642  0.275086  0.068468  1
  O  O29  1  0.275086  0.140804  0.068468  1
  O  O30  1  0.004573  0.624154  0.563845  1
  O  O31  1  0.624154  0.807428  0.563845  1
  O  O32  1  0.807428  0.004573  0.563845  1
  O  O33  1  -0.004573  0.375846  0.436155  1
  O  O34  1  0.375846  0.192572  0.436155  1
  O  O35  1  0.192572  -0.004573  0.436155  1
