# generated using pymatgen
data_Co2Te3O8
_symmetry_space_group_name_H-M   'P 1'
_cell_length_a   5.29451602
_cell_length_b   6.95571948
_cell_length_c   11.73899381
_cell_angle_alpha   98.27561855
_cell_angle_beta   90.00000000
_cell_angle_gamma   112.37006178
_symmetry_Int_Tables_number   1
_chemical_formula_structural   Co2Te3O8
_chemical_formula_sum   'Co4 Te6 O16'
_cell_volume   394.90781387
_cell_formula_units_Z   2
loop_
 _symmetry_equiv_pos_site_id
 _symmetry_equiv_pos_as_xyz
  1  'x, y, z'
loop_
 _atom_site_type_symbol
 _atom_site_label
 _atom_site_symmetry_multiplicity
 _atom_site_fract_x
 _atom_site_fract_y
 _atom_site_fract_z
 _atom_site_occupancy
  O  O0  1  0.726996  0.473109  0.970043  1
  O  O1  1  0.253886  0.526891  0.529957  1
  O  O2  1  0.273004  0.526890  0.029958  1
  O  O3  1  0.746114  0.473109  0.470043  1
  O  O4  1  0.434834  0.607016  0.808421  1
  O  O5  1  0.827817  0.392984  0.691579  1
  O  O6  1  0.565166  0.392984  0.191579  1
  O  O7  1  0.172182  0.607017  0.308420  1
  O  O8  1  0.009751  0.772177  0.861603  1
  O  O9  1  0.237575  0.227823  0.638397  1
  O  O10  1  0.991220  0.838508  0.142894  1
  O  O11  1  0.152710  0.161490  0.357107  1
  O  O12  1  0.008780  0.161490  0.857106  1
  O  O13  1  0.990248  0.227824  0.138397  1
  O  O14  1  0.762426  0.772177  0.361603  1
  O  O15  1  0.847290  0.838508  0.642894  1
  Co  Co16  1  0.967586  0.539729  0.149148  1
  Co  Co17  1  0.427858  0.460271  0.350852  1
  Co  Co18  1  0.032413  0.460271  0.850853  1
  Co  Co19  1  0.572143  0.539729  0.649148  1
  Te  Te20  1  0.849814  0.000001  0.250000  1
  Te  Te21  1  0.150186  0.000001  0.750000  1
  Te  Te22  1  0.054805  0.727006  0.445161  1
  Te  Te23  1  0.327800  0.272995  0.054838  1
  Te  Te24  1  0.945194  0.272994  0.554838  1
  Te  Te25  1  0.672201  0.727006  0.945162  1
