# generated using pymatgen
data_CeS2
_symmetry_space_group_name_H-M   'P 1'
_cell_length_a   4.03679257
_cell_length_b   8.04619042
_cell_length_c   8.00991590
_cell_angle_alpha   90.17625563
_cell_angle_beta   90.00000000
_cell_angle_gamma   90.00000000
_symmetry_Int_Tables_number   1
_chemical_formula_structural   CeS2
_chemical_formula_sum   'Ce4 S8'
_cell_volume   260.16725888
_cell_formula_units_Z   4
loop_
 _symmetry_equiv_pos_site_id
 _symmetry_equiv_pos_as_xyz
  1  'x, y, z'
loop_
 _atom_site_type_symbol
 _atom_site_label
 _atom_site_symmetry_multiplicity
 _atom_site_fract_x
 _atom_site_fract_y
 _atom_site_fract_z
 _atom_site_occupancy
  S  S0  1  0.161336  0.997960  0.608697  1
  S  S1  1  0.661336  0.002040  0.891303  1
  S  S2  1  0.838664  0.002040  0.391303  1
  S  S3  1  0.338664  0.997960  0.108697  1
  S  S4  1  0.761026  0.363994  0.124543  1
  S  S5  1  0.261026  0.636006  0.375457  1
  S  S6  1  0.238974  0.636006  0.875457  1
  S  S7  1  0.738974  0.363994  0.624543  1
  Ce  Ce8  1  0.717647  0.722329  0.630300  1
  Ce  Ce9  1  0.217647  0.277671  0.869700  1
  Ce  Ce10  1  0.282353  0.277671  0.369700  1
  Ce  Ce11  1  0.782353  0.722329  0.130300  1
