# generated using pymatgen
data_BaY4Si5O17
_symmetry_space_group_name_H-M   'P 1'
_cell_length_a   5.59639405
_cell_length_b   20.02467992
_cell_length_c   6.95112567
_cell_angle_alpha   90.00000000
_cell_angle_beta   106.68936985
_cell_angle_gamma   90.00000000
_symmetry_Int_Tables_number   1
_chemical_formula_structural   BaY4Si5O17
_chemical_formula_sum   'Ba2 Y8 Si10 O34'
_cell_volume   746.17072763
_cell_formula_units_Z   2
loop_
 _symmetry_equiv_pos_site_id
 _symmetry_equiv_pos_as_xyz
  1  'x, y, z'
loop_
 _atom_site_type_symbol
 _atom_site_label
 _atom_site_symmetry_multiplicity
 _atom_site_fract_x
 _atom_site_fract_y
 _atom_site_fract_z
 _atom_site_occupancy
  Ba  Ba0  1  0.244248  0.250000  0.809688  1
  Ba  Ba1  1  0.755752  0.750000  0.190312  1
  Y  Y2  1  0.301996  0.461180  0.117218  1
  Y  Y3  1  0.698004  0.961180  0.882782  1
  Y  Y4  1  0.698004  0.538820  0.882782  1
  Y  Y5  1  0.301996  0.038820  0.117218  1
  Y  Y6  1  0.647976  0.341822  0.482126  1
  Y  Y7  1  0.352024  0.841822  0.517874  1
  Y  Y8  1  0.352024  0.658178  0.517874  1
  Y  Y9  1  0.647976  0.158178  0.482126  1
  Si  Si10  1  0.063521  0.250000  0.281041  1
  Si  Si11  1  0.936479  0.750000  0.718959  1
  Si  Si12  1  0.771269  0.364204  0.008011  1
  Si  Si13  1  0.228731  0.864204  0.991989  1
  Si  Si14  1  0.228731  0.635796  0.991989  1
  Si  Si15  1  0.771269  0.135796  0.008011  1
  Si  Si16  1  0.196263  0.439267  0.594749  1
  Si  Si17  1  0.803737  0.939267  0.405251  1
  Si  Si18  1  0.803737  0.560733  0.405251  1
  Si  Si19  1  0.196263  0.060733  0.594749  1
  O  O20  1  0.867012  0.250000  0.416273  1
  O  O21  1  0.132988  0.750000  0.583727  1
  O  O22  1  0.356112  0.250000  0.417584  1
  O  O23  1  0.643888  0.750000  0.582416  1
  O  O24  1  0.016773  0.316040  0.130580  1
  O  O25  1  0.983227  0.816040  0.869420  1
  O  O26  1  0.983227  0.683960  0.869420  1
  O  O27  1  0.016773  0.183960  0.130580  1
  O  O28  1  0.638582  0.326647  0.797102  1
  O  O29  1  0.361418  0.826647  0.202898  1
  O  O30  1  0.361418  0.673353  0.202898  1
  O  O31  1  0.638582  0.173353  0.797102  1
  O  O32  1  0.898134  0.436343  0.983224  1
  O  O33  1  0.101866  0.936343  0.016776  1
  O  O34  1  0.101866  0.563657  0.016776  1
  O  O35  1  0.898134  0.063657  0.983224  1
  O  O36  1  0.579602  0.370459  0.148533  1
  O  O37  1  0.420398  0.870459  0.851467  1
  O  O38  1  0.420398  0.629541  0.851467  1
  O  O39  1  0.579602  0.129541  0.148533  1
  O  O40  1  0.041874  0.372210  0.615108  1
  O  O41  1  0.958126  0.872210  0.384892  1
  O  O42  1  0.958126  0.627790  0.384892  1
  O  O43  1  0.041874  0.127790  0.615108  1
  O  O44  1  0.374430  0.465806  0.812523  1
  O  O45  1  0.625570  0.965806  0.187477  1
  O  O46  1  0.625570  0.534194  0.187477  1
  O  O47  1  0.374430  0.034194  0.812523  1
  O  O48  1  -0.000000  0.500000  0.500000  1
  O  O49  1  -0.000000  0.000000  0.500000  1
  O  O50  1  0.368983  0.426666  0.440397  1
  O  O51  1  0.631017  0.926666  0.559603  1
  O  O52  1  0.631017  0.573334  0.559603  1
  O  O53  1  0.368983  0.073334  0.440397  1
