# generated using pymatgen
data_Te4Mo3W(SeS)2
_symmetry_space_group_name_H-M   'P 1'
_cell_length_a   3.39559282
_cell_length_b   3.39558463
_cell_length_c   38.67993844
_cell_angle_alpha   90.00031276
_cell_angle_beta   90.00000000
_cell_angle_gamma   120.00007975
_symmetry_Int_Tables_number   1
_chemical_formula_structural   Te4Mo3W(SeS)2
_chemical_formula_sum   'Te4 Mo3 W1 Se2 S2'
_cell_volume   386.23019468
_cell_formula_units_Z   1
loop_
 _symmetry_equiv_pos_site_id
 _symmetry_equiv_pos_as_xyz
  1  'x, y, z'
loop_
 _atom_site_type_symbol
 _atom_site_label
 _atom_site_symmetry_multiplicity
 _atom_site_fract_x
 _atom_site_fract_y
 _atom_site_fract_z
 _atom_site_occupancy
  Te  Te0  1  0.333354  0.666709  0.705957  1
  Te  Te1  1  0.666646  0.333292  0.045494  1
  Te  Te2  1  0.666650  0.333298  0.142367  1
  Te  Te3  1  0.333351  0.666704  0.609092  1
  Mo  Mo4  1  0.333310  0.666620  0.093902  1
  Mo  Mo5  1  0.666693  0.333386  0.281792  1
  Mo  Mo6  1  0.666690  0.333380  0.657543  1
  W  W7  1  0.333311  0.666622  0.469648  1
  Se  Se8  1  0.333355  0.666710  0.324460  1
  Se  Se9  1  0.333354  0.666709  0.239174  1
  S  S10  1  0.666638  0.333275  0.430679  1
  S  S11  1  0.666648  0.333295  0.508639  1
