# generated using pymatgen
data_TeMoWSe2S
_symmetry_space_group_name_H-M   'P 1'
_cell_length_a   3.34080002
_cell_length_b   3.34079402
_cell_length_c   38.07424097
_cell_angle_alpha   89.99996810
_cell_angle_beta   90.00000000
_cell_angle_gamma   120.00005939
_symmetry_Int_Tables_number   1
_chemical_formula_structural   TeMoWSe2S
_chemical_formula_sum   'Te2 Mo2 W2 Se4 S2'
_cell_volume   368.01185185
_cell_formula_units_Z   2
loop_
 _symmetry_equiv_pos_site_id
 _symmetry_equiv_pos_as_xyz
  1  'x, y, z'
loop_
 _atom_site_type_symbol
 _atom_site_label
 _atom_site_symmetry_multiplicity
 _atom_site_fract_x
 _atom_site_fract_y
 _atom_site_fract_z
 _atom_site_occupancy
  Te  Te0  1  0.333355  0.666711  0.331568  1
  Te  Te1  1  0.333351  0.666703  0.231968  1
  Mo  Mo2  1  0.333311  0.666622  0.469694  1
  Mo  Mo3  1  0.666690  0.333381  0.281796  1
  W  W4  1  0.333311  0.666623  0.093919  1
  W  W5  1  0.666686  0.333371  0.657532  1
  Se  Se6  1  0.333347  0.666696  0.701523  1
  Se  Se7  1  0.666649  0.333297  0.425895  1
  Se  Se8  1  0.666649  0.333296  0.513461  1
  Se  Se9  1  0.333357  0.666714  0.613545  1
  S  S10  1  0.666647  0.333292  0.053916  1
  S  S11  1  0.666648  0.333294  0.133930  1
