# generated using pymatgen
data_Pu3Pd4
_symmetry_space_group_name_H-M   'P 1'
_cell_length_a   7.97749157
_cell_length_b   7.97749157
_cell_length_c   7.97749157
_cell_angle_alpha   114.37986227
_cell_angle_beta   114.37986230
_cell_angle_gamma   114.37986224
_symmetry_Int_Tables_number   1
_chemical_formula_structural   Pu3Pd4
_chemical_formula_sum   'Pu6 Pd8'
_cell_volume   299.56232828
_cell_formula_units_Z   2
loop_
 _symmetry_equiv_pos_site_id
 _symmetry_equiv_pos_as_xyz
  1  'x, y, z'
loop_
 _atom_site_type_symbol
 _atom_site_label
 _atom_site_symmetry_multiplicity
 _atom_site_fract_x
 _atom_site_fract_y
 _atom_site_fract_z
 _atom_site_occupancy
  Pd  Pd0  1  0.000000  0.000000  0.000000  1
  Pd  Pd1  1  0.500000  0.500000  0.500000  1
  Pd  Pd2  1  0.548599  0.219861  0.057650  1
  Pd  Pd3  1  0.057650  0.548599  0.219861  1
  Pd  Pd4  1  0.219861  0.057650  0.548599  1
  Pd  Pd5  1  0.451401  0.780139  0.942350  1
  Pd  Pd6  1  0.942350  0.451401  0.780139  1
  Pd  Pd7  1  0.780139  0.942350  0.451401  1
  Pu  Pu8  1  0.287742  0.404879  0.027645  1
  Pu  Pu9  1  0.027645  0.287742  0.404879  1
  Pu  Pu10  1  0.404879  0.027645  0.287742  1
  Pu  Pu11  1  0.712258  0.595121  0.972355  1
  Pu  Pu12  1  0.972355  0.712258  0.595121  1
  Pu  Pu13  1  0.595121  0.972355  0.712258  1
