# generated using pymatgen
data_Ce4B14O27
_symmetry_space_group_name_H-M   'P 1'
_cell_length_a   6.47971480
_cell_length_b   6.49306476
_cell_length_c   25.34102501
_cell_angle_alpha   84.31081711
_cell_angle_beta   82.65461359
_cell_angle_gamma   60.06798975
_symmetry_Int_Tables_number   1
_chemical_formula_structural   Ce4B14O27
_chemical_formula_sum   'Ce8 B28 O54'
_cell_volume   915.61191935
_cell_formula_units_Z   2
loop_
 _symmetry_equiv_pos_site_id
 _symmetry_equiv_pos_as_xyz
  1  'x, y, z'
loop_
 _atom_site_type_symbol
 _atom_site_label
 _atom_site_symmetry_multiplicity
 _atom_site_fract_x
 _atom_site_fract_y
 _atom_site_fract_z
 _atom_site_occupancy
  Ce  Ce0  1  0.262138  0.346559  0.315562  1
  Ce  Ce1  1  0.924259  0.153441  0.184438  1
  Ce  Ce2  1  0.737862  0.653441  0.684438  1
  Ce  Ce3  1  0.075741  0.846559  0.815562  1
  Ce  Ce4  1  0.349923  0.743106  0.056258  1
  Ce  Ce5  1  0.149287  0.756894  0.443742  1
  Ce  Ce6  1  0.650077  0.256894  0.943742  1
  Ce  Ce7  1  0.850713  0.243106  0.556258  1
  B  B8  1  0.359977  0.611453  0.205309  1
  B  B9  1  0.176739  0.888547  0.294691  1
  B  B10  1  0.640023  0.388547  0.794691  1
  B  B11  1  0.823261  0.111453  0.705309  1
  B  B12  1  0.359841  0.260864  0.174881  1
  B  B13  1  0.795586  0.239136  0.325119  1
  B  B14  1  0.640159  0.739136  0.825119  1
  B  B15  1  0.204414  0.760864  0.674881  1
  B  B16  1  0.834987  0.847431  0.350980  1
  B  B17  1  0.033398  0.652569  0.149020  1
  B  B18  1  0.165013  0.152569  0.649020  1
  B  B19  1  0.966602  0.347431  0.850980  1
  B  B20  1  0.632949  0.766444  0.445460  1
  B  B21  1  0.844853  0.733556  0.054540  1
  B  B22  1  0.367051  0.233556  0.554540  1
  B  B23  1  0.155147  0.266444  0.945460  1
  B  B24  1  0.548485  0.164092  0.077436  1
  B  B25  1  0.790013  0.335908  0.422564  1
  B  B26  1  0.451514  0.835908  0.922564  1
  B  B27  1  0.209987  0.664092  0.577436  1
  B  B28  1  0.310642  0.211768  0.453103  1
  B  B29  1  0.975513  0.288232  0.046897  1
  B  B30  1  0.689358  0.788232  0.546897  1
  B  B31  1  0.024487  0.711768  0.953103  1
  B  B32  1  0.603976  0.679771  0.313524  1
  B  B33  1  0.597271  0.820229  0.186476  1
  B  B34  1  0.396024  0.320229  0.686476  1
  B  B35  1  0.402729  0.179771  0.813524  1
  O  O36  1  0.203876  0.750000  0.250000  1
  O  O37  1  0.796124  0.250000  0.750000  1
  O  O38  1  0.218708  0.716819  0.157866  1
  O  O39  1  0.093393  0.783181  0.342134  1
  O  O40  1  0.781292  0.283181  0.842134  1
  O  O41  1  0.906607  0.216819  0.657866  1
  O  O42  1  0.593916  0.608465  0.192796  1
  O  O43  1  0.395177  0.891535  0.307204  1
  O  O44  1  0.406084  0.391535  0.807204  1
  O  O45  1  0.604823  0.108465  0.692796  1
  O  O46  1  0.430468  0.354023  0.216667  1
  O  O47  1  0.001157  0.145977  0.283333  1
  O  O48  1  0.569532  0.645977  0.783333  1
  O  O49  1  0.998843  0.854023  0.716667  1
  O  O50  1  0.683550  0.088363  0.330948  1
  O  O51  1  0.102861  0.411637  0.169052  1
  O  O52  1  0.316450  0.911637  0.669052  1
  O  O53  1  0.897139  0.588363  0.830948  1
  O  O54  1  0.600814  0.472190  0.309377  1
  O  O55  1  0.382380  0.027810  0.190623  1
  O  O56  1  0.399186  0.527810  0.690623  1
  O  O57  1  0.617620  0.972190  0.809377  1
  O  O58  1  0.511844  0.259698  0.126415  1
  O  O59  1  0.897957  0.240302  0.373585  1
  O  O60  1  0.488156  0.740302  0.873585  1
  O  O61  1  0.102043  0.759698  0.626415  1
  O  O62  1  0.813013  0.671966  0.322058  1
  O  O63  1  0.807038  0.828034  0.177942  1
  O  O64  1  0.186987  0.328034  0.677942  1
  O  O65  1  0.192962  0.171966  0.822058  1
  O  O66  1  0.796767  0.816497  0.409257  1
  O  O67  1  0.022522  0.683503  0.090743  1
  O  O68  1  0.203233  0.183503  0.590743  1
  O  O69  1  0.977478  0.316497  0.909257  1
  O  O70  1  0.600934  0.572684  0.426441  1
  O  O71  1  0.600058  0.927316  0.073559  1
  O  O72  1  0.399066  0.427316  0.573559  1
  O  O73  1  0.399942  0.072684  0.926441  1
  O  O74  1  0.388883  0.969519  0.449697  1
  O  O75  1  0.808099  0.530481  0.050303  1
  O  O76  1  0.611117  0.030481  0.550303  1
  O  O77  1  0.191901  0.469519  0.949697  1
  O  O78  1  0.737502  0.684748  0.497866  1
  O  O79  1  0.920116  0.815252  0.002134  1
  O  O80  1  0.262498  0.315252  0.502134  1
  O  O81  1  0.079884  0.184748  0.997866  1
  O  O82  1  0.265467  0.361879  0.409424  1
  O  O83  1  0.036770  0.138121  0.090576  1
  O  O84  1  0.734533  0.638121  0.590576  1
  O  O85  1  0.963230  0.861879  0.909424  1
  O  O86  1  0.536272  0.307296  0.034037  1
  O  O87  1  0.877605  0.192704  0.465963  1
  O  O88  1  0.463728  0.692704  0.965963  1
  O  O89  1  0.122395  0.807296  0.534037  1
