# generated using pymatgen
data_TlFeO2
_symmetry_space_group_name_H-M   'P 1'
_cell_length_a   6.10543743
_cell_length_b   6.10543742
_cell_length_c   6.10543743
_cell_angle_alpha   59.74384641
_cell_angle_beta   59.74384646
_cell_angle_gamma   59.74384647
_symmetry_Int_Tables_number   1
_chemical_formula_structural   TlFeO2
_chemical_formula_sum   'Tl2 Fe2 O4'
_cell_volume   159.99327188
_cell_formula_units_Z   2
loop_
 _symmetry_equiv_pos_site_id
 _symmetry_equiv_pos_as_xyz
  1  'x, y, z'
loop_
 _atom_site_type_symbol
 _atom_site_label
 _atom_site_symmetry_multiplicity
 _atom_site_fract_x
 _atom_site_fract_y
 _atom_site_fract_z
 _atom_site_occupancy
  O  O0  1  0.499999  0.000001  0.500001  1
  O  O1  1  0.000001  0.500000  0.500000  1
  O  O2  1  0.500001  0.500000  0.999999  1
  O  O3  1  0.499999  0.500001  0.500001  1
  Fe  Fe4  1  0.624630  0.624629  0.624631  1
  Fe  Fe5  1  0.375369  0.375370  0.375371  1
  Tl  Tl6  1  0.878309  0.878310  0.878311  1
  Tl  Tl7  1  0.121690  0.121689  0.121691  1
