# generated using pymatgen
data_NaMg4(AsO4)3
_symmetry_space_group_name_H-M   'P 1'
_cell_length_a   6.90603556
_cell_length_b   6.90603556
_cell_length_c   10.90760918
_cell_angle_alpha   108.45559679
_cell_angle_beta   108.45559681
_cell_angle_gamma   90.00000003
_symmetry_Int_Tables_number   1
_chemical_formula_structural   NaMg4(AsO4)3
_chemical_formula_sum   'Na2 Mg8 As6 O24'
_cell_volume   465.17322901
_cell_formula_units_Z   2
loop_
 _symmetry_equiv_pos_site_id
 _symmetry_equiv_pos_as_xyz
  1  'x, y, z'
loop_
 _atom_site_type_symbol
 _atom_site_label
 _atom_site_symmetry_multiplicity
 _atom_site_fract_x
 _atom_site_fract_y
 _atom_site_fract_z
 _atom_site_occupancy
  O  O0  1  0.734631  0.086264  0.588014  1
  O  O1  1  0.853383  0.501749  0.588014  1
  O  O2  1  0.251749  0.103383  0.088014  1
  O  O3  1  0.913736  0.146617  0.411986  1
  O  O4  1  0.498251  0.265369  0.411986  1
  O  O5  1  0.015369  0.748251  0.911986  1
  O  O6  1  0.896617  0.163736  0.911986  1
  O  O7  1  0.836264  0.984631  0.088014  1
  O  O8  1  0.071195  0.893793  0.696967  1
  O  O9  1  0.625772  0.803173  0.696967  1
  O  O10  1  0.553173  0.875772  0.196967  1
  O  O11  1  0.106207  0.374228  0.303033  1
  O  O12  1  0.196827  0.928805  0.303033  1
  O  O13  1  0.678805  0.446827  0.803033  1
  O  O14  1  0.124228  0.356207  0.803033  1
  O  O15  1  0.643793  0.321195  0.196967  1
  O  O16  1  0.856336  0.567805  0.119271  1
  O  O17  1  0.448534  0.143664  0.880729  1
  O  O18  1  0.432195  0.737065  0.880729  1
  O  O19  1  0.487065  0.682195  0.380729  1
  O  O20  1  0.893664  0.698534  0.380729  1
  O  O21  1  0.262935  0.551466  0.119271  1
  O  O22  1  0.301466  0.512935  0.619271  1
  O  O23  1  0.317805  0.106336  0.619271  1
  Na  Na24  1  0.250000  0.750000  0.500000  1
  Na  Na25  1  0.500000  0.500000  0.000000  1
  Mg  Mg26  1  0.375000  0.368090  0.250000  1
  Mg  Mg27  1  0.118090  0.625000  0.750000  1
  Mg  Mg28  1  0.631910  0.125000  0.750000  1
  Mg  Mg29  1  0.875000  0.881910  0.250000  1
  Mg  Mg30  1  0.770033  0.770033  0.540066  1
  Mg  Mg31  1  0.229967  0.229967  0.459934  1
  Mg  Mg32  1  0.979967  0.479967  0.959934  1
  Mg  Mg33  1  0.520033  0.020033  0.040066  1
  As  As34  1  0.375000  0.781162  0.250000  1
  As  As35  1  0.531162  0.625000  0.750000  1
  As  As36  1  0.218838  0.125000  0.750000  1
  As  As37  1  0.875000  0.468838  0.250000  1
  As  As38  1  0.750000  0.250000  0.500000  1
  As  As39  1  0.000000  0.000000  0.000000  1
