# generated using pymatgen
data_TeMoWSe2S
_symmetry_space_group_name_H-M   'P 1'
_cell_length_a   3.34565104
_cell_length_b   3.34564911
_cell_length_c   38.11494282
_cell_angle_alpha   89.99979034
_cell_angle_beta   90.00000000
_cell_angle_gamma   120.00001912
_symmetry_Int_Tables_number   1
_chemical_formula_structural   TeMoWSe2S
_chemical_formula_sum   'Te2 Mo2 W2 Se4 S2'
_cell_volume   369.47652599
_cell_formula_units_Z   2
loop_
 _symmetry_equiv_pos_site_id
 _symmetry_equiv_pos_as_xyz
  1  'x, y, z'
loop_
 _atom_site_type_symbol
 _atom_site_label
 _atom_site_symmetry_multiplicity
 _atom_site_fract_x
 _atom_site_fract_y
 _atom_site_fract_z
 _atom_site_occupancy
  Te  Te0  1  0.333364  0.666729  0.707624  1
  Te  Te1  1  0.333357  0.666714  0.607541  1
  Mo  Mo2  1  0.333319  0.666638  0.093928  1
  Mo  Mo3  1  0.666690  0.333380  0.281772  1
  W  W4  1  0.333308  0.666617  0.469625  1
  W  W5  1  0.666691  0.333381  0.657603  1
  Se  Se6  1  0.333354  0.666708  0.325526  1
  Se  Se7  1  0.666649  0.333298  0.425652  1
  Se  Se8  1  0.666646  0.333291  0.513608  1
  Se  Se9  1  0.333348  0.666696  0.238012  1
  S  S10  1  0.666639  0.333277  0.054139  1
  S  S11  1  0.666636  0.333271  0.133719  1
