# generated using pymatgen
data_Dy2Si5Ni3
_symmetry_space_group_name_H-M   'P 1'
_cell_length_a   5.64667638
_cell_length_b   7.86499895
_cell_length_c   7.86499896
_cell_angle_alpha   74.99201136
_cell_angle_beta   68.96273795
_cell_angle_gamma   68.96273794
_symmetry_Int_Tables_number   1
_chemical_formula_structural   Dy2Si5Ni3
_chemical_formula_sum   'Dy4 Si10 Ni6'
_cell_volume   300.87029065
_cell_formula_units_Z   2
loop_
 _symmetry_equiv_pos_site_id
 _symmetry_equiv_pos_as_xyz
  1  'x, y, z'
loop_
 _atom_site_type_symbol
 _atom_site_label
 _atom_site_symmetry_multiplicity
 _atom_site_fract_x
 _atom_site_fract_y
 _atom_site_fract_z
 _atom_site_occupancy
  Si  Si0  1  0.250000  0.000000  0.000000  1
  Si  Si1  1  0.750000  0.000000  0.000000  1
  Si  Si2  1  0.983200  0.266800  0.266800  1
  Si  Si3  1  0.516800  0.733200  0.733200  1
  Si  Si4  1  0.016800  0.733200  0.733200  1
  Si  Si5  1  0.483200  0.266800  0.266800  1
  Si  Si6  1  0.392699  0.454617  0.759984  1
  Si  Si7  1  0.892699  0.759984  0.454617  1
  Si  Si8  1  0.107301  0.240016  0.545383  1
  Si  Si9  1  0.607301  0.545383  0.240016  1
  Ni  Ni10  1  0.865602  0.022287  0.246509  1
  Ni  Ni11  1  0.750000  0.500000  0.500000  1
  Ni  Ni12  1  0.365602  0.246509  0.022287  1
  Ni  Ni13  1  0.634398  0.753491  0.977713  1
  Ni  Ni14  1  0.134398  0.977713  0.753491  1
  Ni  Ni15  1  0.250000  0.500000  0.500000  1
  Dy  Dy16  1  0.131271  0.632172  0.105286  1
  Dy  Dy17  1  0.868729  0.367828  0.894714  1
  Dy  Dy18  1  0.368729  0.894714  0.367828  1
  Dy  Dy19  1  0.631271  0.105286  0.632172  1
