# generated using pymatgen
data_Te2Mo3WSe6
_symmetry_space_group_name_H-M   'P 1'
_cell_length_a   3.38486211
_cell_length_b   3.38477929
_cell_length_c   38.43948662
_cell_angle_alpha   90.00018605
_cell_angle_beta   90.00000000
_cell_angle_gamma   120.00080928
_symmetry_Int_Tables_number   1
_chemical_formula_structural   Te2Mo3WSe6
_chemical_formula_sum   'Te2 Mo3 W1 Se6'
_cell_volume   381.39588747
_cell_formula_units_Z   1
loop_
 _symmetry_equiv_pos_site_id
 _symmetry_equiv_pos_as_xyz
  1  'x, y, z'
loop_
 _atom_site_type_symbol
 _atom_site_label
 _atom_site_symmetry_multiplicity
 _atom_site_fract_x
 _atom_site_fract_y
 _atom_site_fract_z
 _atom_site_occupancy
  Te  Te0  1  0.333352  0.666706  0.706653  1
  Te  Te1  1  0.333352  0.666705  0.608414  1
  Mo  Mo2  1  0.333310  0.666619  0.093921  1
  Mo  Mo3  1  0.333310  0.666621  0.469647  1
  Mo  Mo4  1  0.666688  0.333377  0.281800  1
  W  W5  1  0.666691  0.333381  0.657539  1
  Se  Se6  1  0.333356  0.666713  0.324835  1
  Se  Se7  1  0.666648  0.333294  0.050896  1
  Se  Se8  1  0.666648  0.333294  0.426639  1
  Se  Se9  1  0.666647  0.333293  0.136951  1
  Se  Se10  1  0.666648  0.333295  0.512687  1
  Se  Se11  1  0.333351  0.666703  0.238766  1
