# generated using pymatgen
data_Cs2NaAl3F12
_symmetry_space_group_name_H-M   'P 1'
_cell_length_a   7.41741330
_cell_length_b   7.41741314
_cell_length_c   7.41741282
_cell_angle_alpha   57.59630709
_cell_angle_beta   57.59630793
_cell_angle_gamma   57.59630713
_symmetry_Int_Tables_number   1
_chemical_formula_structural   Cs2NaAl3F12
_chemical_formula_sum   'Cs2 Na1 Al3 F12'
_cell_volume   272.61925439
_cell_formula_units_Z   1
loop_
 _symmetry_equiv_pos_site_id
 _symmetry_equiv_pos_as_xyz
  1  'x, y, z'
loop_
 _atom_site_type_symbol
 _atom_site_label
 _atom_site_symmetry_multiplicity
 _atom_site_fract_x
 _atom_site_fract_y
 _atom_site_fract_z
 _atom_site_occupancy
  Cs  Cs0  1  0.378261  0.378261  0.378261  1
  Cs  Cs1  1  0.621739  0.621739  0.621739  1
  Na  Na2  1  0.000000  0.000000  0.000000  1
  Al  Al3  1  0.000000  0.000000  0.500000  1
  Al  Al4  1  0.000000  0.500000  0.000000  1
  Al  Al5  1  0.500000  0.000000  0.000000  1
  F  F6  1  0.922336  0.297128  0.297128  1
  F  F7  1  0.297128  0.297128  0.922336  1
  F  F8  1  0.617342  0.085117  0.085117  1
  F  F9  1  0.914883  0.382658  0.914883  1
  F  F10  1  0.297128  0.922336  0.297128  1
  F  F11  1  0.702872  0.702872  0.077664  1
  F  F12  1  0.085117  0.617342  0.085117  1
  F  F13  1  0.702872  0.077664  0.702872  1
  F  F14  1  0.382658  0.914883  0.914883  1
  F  F15  1  0.914883  0.914883  0.382658  1
  F  F16  1  0.077664  0.702872  0.702872  1
  F  F17  1  0.085117  0.085117  0.617342  1
