# generated using pymatgen
data_CF4
_symmetry_space_group_name_H-M   'P 1'
_cell_length_a   4.47087282
_cell_length_b   4.90076437
_cell_length_c   7.87571006
_cell_angle_alpha   82.33818110
_cell_angle_beta   73.51051661
_cell_angle_gamma   62.86166915
_symmetry_Int_Tables_number   1
_chemical_formula_structural   CF4
_chemical_formula_sum   'C2 F8'
_cell_volume   147.24719486
_cell_formula_units_Z   2
loop_
 _symmetry_equiv_pos_site_id
 _symmetry_equiv_pos_as_xyz
  1  'x, y, z'
loop_
 _atom_site_type_symbol
 _atom_site_label
 _atom_site_symmetry_multiplicity
 _atom_site_fract_x
 _atom_site_fract_y
 _atom_site_fract_z
 _atom_site_occupancy
  C  C0  1  0.926084  0.250000  0.250000  1
  C  C1  1  0.073916  0.750000  0.750000  1
  F  F2  1  0.958356  0.490874  0.291412  1
  F  F3  1  0.240643  0.009126  0.208588  1
  F  F4  1  0.041644  0.509126  0.708588  1
  F  F5  1  0.759357  0.990874  0.791412  1
  F  F6  1  0.280966  0.822596  0.610705  1
  F  F7  1  0.214267  0.677404  0.889295  1
  F  F8  1  0.719034  0.177404  0.389295  1
  F  F9  1  0.785733  0.322596  0.110705  1
