# generated using pymatgen
data_Dy(CuS)2
_symmetry_space_group_name_H-M   'P 1'
_cell_length_a   3.94531487
_cell_length_b   3.94531524
_cell_length_c   6.35603299
_cell_angle_alpha   90.05585098
_cell_angle_beta   89.94414906
_cell_angle_gamma   120.00682422
_symmetry_Int_Tables_number   1
_chemical_formula_structural   Dy(CuS)2
_chemical_formula_sum   'Dy1 Cu2 S2'
_cell_volume   85.67419058
_cell_formula_units_Z   1
loop_
 _symmetry_equiv_pos_site_id
 _symmetry_equiv_pos_as_xyz
  1  'x, y, z'
loop_
 _atom_site_type_symbol
 _atom_site_label
 _atom_site_symmetry_multiplicity
 _atom_site_fract_x
 _atom_site_fract_y
 _atom_site_fract_z
 _atom_site_occupancy
  Dy  Dy0  1  0.000000  -0.000000  -0.000000  1
  Cu  Cu1  1  0.666885  0.333115  0.660546  1
  Cu  Cu2  1  0.333115  0.666885  0.339454  1
  S  S3  1  0.666482  0.333518  0.266043  1
  S  S4  1  0.333518  0.666482  0.733957  1
