# generated using pymatgen
data_Te2MoW3(Se2S)2
_symmetry_space_group_name_H-M   'P 1'
_cell_length_a   3.34338989
_cell_length_b   3.34338055
_cell_length_c   38.05266840
_cell_angle_alpha   89.99967688
_cell_angle_beta   89.99999965
_cell_angle_gamma   120.00006306
_symmetry_Int_Tables_number   1
_chemical_formula_structural   Te2MoW3(Se2S)2
_chemical_formula_sum   'Te2 Mo1 W3 Se4 S2'
_cell_volume   368.37343977
_cell_formula_units_Z   1
loop_
 _symmetry_equiv_pos_site_id
 _symmetry_equiv_pos_as_xyz
  1  'x, y, z'
loop_
 _atom_site_type_symbol
 _atom_site_label
 _atom_site_symmetry_multiplicity
 _atom_site_fract_x
 _atom_site_fract_y
 _atom_site_fract_z
 _atom_site_occupancy
  Te  Te0  1  0.333358  0.666717  0.707632  1
  Te  Te1  1  0.333351  0.666702  0.607453  1
  Mo  Mo2  1  0.666688  0.333377  0.281815  1
  W  W3  1  0.333309  0.666617  0.093909  1
  W  W4  1  0.333309  0.666617  0.469660  1
  W  W5  1  0.666690  0.333380  0.657571  1
  Se  Se6  1  0.333363  0.666726  0.325553  1
  Se  Se7  1  0.666645  0.333290  0.049959  1
  Se  Se8  1  0.666647  0.333292  0.137856  1
  Se  Se9  1  0.333350  0.666701  0.238029  1
  S  S10  1  0.666646  0.333291  0.429657  1
  S  S11  1  0.666645  0.333290  0.509652  1
