# generated using pymatgen
data_Te4MoW3(SeS)2
_symmetry_space_group_name_H-M   'P 1'
_cell_length_a   3.39490712
_cell_length_b   3.39492686
_cell_length_c   39.85669152
_cell_angle_alpha   89.99892517
_cell_angle_beta   90.00000000
_cell_angle_gamma   119.99980768
_symmetry_Int_Tables_number   1
_chemical_formula_structural   Te4MoW3(SeS)2
_chemical_formula_sum   'Te4 Mo1 W3 Se2 S2'
_cell_volume   397.82405301
_cell_formula_units_Z   1
loop_
 _symmetry_equiv_pos_site_id
 _symmetry_equiv_pos_as_xyz
  1  'x, y, z'
loop_
 _atom_site_type_symbol
 _atom_site_label
 _atom_site_symmetry_multiplicity
 _atom_site_fract_x
 _atom_site_fract_y
 _atom_site_fract_z
 _atom_site_occupancy
  Te  Te0  1  0.333317  0.666634  0.329835  1
  Te  Te1  1  0.666665  0.333329  0.045908  1
  Te  Te2  1  0.666657  0.333313  0.139855  1
  Te  Te3  1  0.333341  0.666684  0.235225  1
  Mo  Mo4  1  0.333331  0.666661  0.092864  1
  W  W5  1  0.333329  0.666657  0.469979  1
  W  W6  1  0.666661  0.333322  0.282556  1
  W  W7  1  0.666684  0.333368  0.657523  1
  Se  Se8  1  0.666664  0.333327  0.428406  1
  Se  Se9  1  0.666656  0.333311  0.511555  1
  S  S10  1  0.333345  0.666690  0.695337  1
  S  S11  1  0.333351  0.666703  0.619705  1
