# generated using pymatgen
data_Ti5CuSb2
_symmetry_space_group_name_H-M   'P 1'
_cell_length_a   5.13261135
_cell_length_b   7.82507075
_cell_length_c   7.82507076
_cell_angle_alpha   83.82547157
_cell_angle_beta   70.85503266
_cell_angle_gamma   70.85503262
_symmetry_Int_Tables_number   1
_chemical_formula_structural   Ti5CuSb2
_chemical_formula_sum   'Ti10 Cu2 Sb4'
_cell_volume   280.47569202
_cell_formula_units_Z   2
loop_
 _symmetry_equiv_pos_site_id
 _symmetry_equiv_pos_as_xyz
  1  'x, y, z'
loop_
 _atom_site_type_symbol
 _atom_site_label
 _atom_site_symmetry_multiplicity
 _atom_site_fract_x
 _atom_site_fract_y
 _atom_site_fract_z
 _atom_site_occupancy
  Ti  Ti0  1  0.574096  0.711252  0.140556  1
  Ti  Ti1  1  0.425904  0.288748  0.859444  1
  Ti  Ti2  1  0.250000  0.500000  0.500000  1
  Ti  Ti3  1  0.750000  0.500000  0.500000  1
  Ti  Ti4  1  0.714652  0.859444  0.711252  1
  Ti  Ti5  1  0.285348  0.140556  0.288748  1
  Ti  Ti6  1  0.925904  0.859444  0.288748  1
  Ti  Ti7  1  0.214652  0.711252  0.859444  1
  Ti  Ti8  1  0.074096  0.140556  0.711252  1
  Ti  Ti9  1  0.785348  0.288748  0.140556  1
  Cu  Cu10  1  0.250000  0.000000  0.000000  1
  Cu  Cu11  1  0.750000  0.000000  0.000000  1
  Sb  Sb12  1  0.335959  0.828082  0.500000  1
  Sb  Sb13  1  0.164041  0.500000  0.171918  1
  Sb  Sb14  1  0.664041  0.171918  0.500000  1
  Sb  Sb15  1  0.835959  0.500000  0.828082  1
