# generated using pymatgen
data_CaGa4O7
_symmetry_space_group_name_H-M   'P 1'
_cell_length_a   5.68093525
_cell_length_b   8.08287424
_cell_length_c   8.08287424
_cell_angle_alpha   69.54170451
_cell_angle_beta   78.09238454
_cell_angle_gamma   78.09238456
_symmetry_Int_Tables_number   1
_chemical_formula_structural   CaGa4O7
_chemical_formula_sum   'Ca2 Ga8 O14'
_cell_volume   336.59298633
_cell_formula_units_Z   2
loop_
 _symmetry_equiv_pos_site_id
 _symmetry_equiv_pos_as_xyz
  1  'x, y, z'
loop_
 _atom_site_type_symbol
 _atom_site_label
 _atom_site_symmetry_multiplicity
 _atom_site_fract_x
 _atom_site_fract_y
 _atom_site_fract_z
 _atom_site_occupancy
  O  O0  1  0.250000  0.964290  0.035710  1
  O  O1  1  0.750000  0.035710  0.964290  1
  O  O2  1  0.864494  0.862031  0.364090  1
  O  O3  1  0.635506  0.635910  0.137969  1
  O  O4  1  0.135506  0.137969  0.635910  1
  O  O5  1  0.364494  0.364090  0.862031  1
  O  O6  1  0.595830  0.319072  0.452786  1
  O  O7  1  0.904170  0.547214  0.680928  1
  O  O8  1  0.404170  0.680928  0.547214  1
  O  O9  1  0.095830  0.452786  0.319072  1
  O  O10  1  0.920014  0.253977  0.131634  1
  O  O11  1  0.579986  0.868366  0.746023  1
  O  O12  1  0.079986  0.746023  0.868366  1
  O  O13  1  0.420014  0.131634  0.253977  1
  Ca  Ca14  1  0.750000  0.292216  0.707784  1
  Ca  Ca15  1  0.250000  0.707784  0.292216  1
  Ga  Ga16  1  0.685268  0.744736  0.575261  1
  Ga  Ga17  1  0.814732  0.424739  0.255264  1
  Ga  Ga18  1  0.754856  0.056483  0.185385  1
  Ga  Ga19  1  0.745144  0.814615  0.943517  1
  Ga  Ga20  1  0.245144  0.943517  0.814615  1
  Ga  Ga21  1  0.254856  0.185385  0.056483  1
  Ga  Ga22  1  0.185268  0.575261  0.744736  1
  Ga  Ga23  1  0.314732  0.255264  0.424739  1
