# generated using pymatgen
data_Te2MoW2(SeS)2
_symmetry_space_group_name_H-M   'P 1'
_cell_length_a   3.35126694
_cell_length_b   3.35126155
_cell_length_c   31.04885163
_cell_angle_alpha   89.99970318
_cell_angle_beta   90.00000000
_cell_angle_gamma   120.00005321
_symmetry_Int_Tables_number   1
_chemical_formula_structural   Te2MoW2(SeS)2
_chemical_formula_sum   'Te2 Mo1 W2 Se2 S2'
_cell_volume   301.99050391
_cell_formula_units_Z   1
loop_
 _symmetry_equiv_pos_site_id
 _symmetry_equiv_pos_as_xyz
  1  'x, y, z'
loop_
 _atom_site_type_symbol
 _atom_site_label
 _atom_site_symmetry_multiplicity
 _atom_site_fract_x
 _atom_site_fract_y
 _atom_site_fract_z
 _atom_site_occupancy
  Te  Te0  1  0.333358  0.666716  0.408322  1
  Te  Te1  1  0.333353  0.666708  0.285548  1
  Mo  Mo2  1  0.333294  0.666589  0.115648  1
  W  W3  1  0.333307  0.666614  0.578372  1
  W  W4  1  0.666690  0.333381  0.346935  1
  Se  Se5  1  0.666646  0.333292  0.524456  1
  Se  Se6  1  0.666641  0.333281  0.632263  1
  S  S7  1  0.666654  0.333307  0.066848  1
  S  S8  1  0.666657  0.333312  0.164450  1
