# generated using pymatgen
data_Te2Mo(WS2)3
_symmetry_space_group_name_H-M   'P 1'
_cell_length_a   3.27386680
_cell_length_b   3.27382113
_cell_length_c   37.22478999
_cell_angle_alpha   90.00005546
_cell_angle_beta   90.00000000
_cell_angle_gamma   120.00046148
_symmetry_Int_Tables_number   1
_chemical_formula_structural   Te2Mo(WS2)3
_chemical_formula_sum   'Te2 Mo1 W3 S6'
_cell_volume   345.52288826
_cell_formula_units_Z   1
loop_
 _symmetry_equiv_pos_site_id
 _symmetry_equiv_pos_as_xyz
  1  'x, y, z'
loop_
 _atom_site_type_symbol
 _atom_site_label
 _atom_site_symmetry_multiplicity
 _atom_site_fract_x
 _atom_site_fract_y
 _atom_site_fract_z
 _atom_site_occupancy
  Te  Te0  1  0.333352  0.666705  0.709693  1
  Te  Te1  1  0.333353  0.666707  0.605420  1
  Mo  Mo2  1  0.333323  0.666647  0.469617  1
  W  W3  1  0.333310  0.666620  0.093916  1
  W  W4  1  0.666694  0.333387  0.281801  1
  W  W5  1  0.666690  0.333380  0.657594  1
  S  S6  1  0.333359  0.666719  0.323315  1
  S  S7  1  0.666647  0.333293  0.052407  1
  S  S8  1  0.666636  0.333271  0.428333  1
  S  S9  1  0.666647  0.333293  0.135424  1
  S  S10  1  0.666635  0.333270  0.510937  1
  S  S11  1  0.333354  0.666709  0.240291  1
