# generated using pymatgen
data_Te2MoW3(Se2S)2
_symmetry_space_group_name_H-M   'P 1'
_cell_length_a   3.34483021
_cell_length_b   3.34471388
_cell_length_c   38.12580497
_cell_angle_alpha   90.00027308
_cell_angle_beta   90.00000000
_cell_angle_gamma   120.00115065
_symmetry_Int_Tables_number   1
_chemical_formula_structural   Te2MoW3(Se2S)2
_chemical_formula_sum   'Te2 Mo1 W3 Se4 S2'
_cell_volume   369.38364889
_cell_formula_units_Z   1
loop_
 _symmetry_equiv_pos_site_id
 _symmetry_equiv_pos_as_xyz
  1  'x, y, z'
loop_
 _atom_site_type_symbol
 _atom_site_label
 _atom_site_symmetry_multiplicity
 _atom_site_fract_x
 _atom_site_fract_y
 _atom_site_fract_z
 _atom_site_occupancy
  Te  Te0  1  0.333356  0.666713  0.707578  1
  Te  Te1  1  0.333351  0.666703  0.607566  1
  Mo  Mo2  1  0.333331  0.666663  0.093927  1
  W  W3  1  0.333310  0.666621  0.469633  1
  W  W4  1  0.666693  0.333385  0.281791  1
  W  W5  1  0.666689  0.333378  0.657597  1
  Se  Se6  1  0.333363  0.666727  0.325750  1
  Se  Se7  1  0.666643  0.333286  0.425660  1
  Se  Se8  1  0.666650  0.333300  0.513598  1
  Se  Se9  1  0.333349  0.666699  0.237800  1
  S  S10  1  0.666629  0.333256  0.054181  1
  S  S11  1  0.666635  0.333269  0.133667  1
