# generated using pymatgen
data_Te2MoWSeS
_symmetry_space_group_name_H-M   'P 1'
_cell_length_a   3.39301638
_cell_length_b   3.39302461
_cell_length_c   38.76756507
_cell_angle_alpha   89.99969392
_cell_angle_beta   89.99998717
_cell_angle_gamma   119.99995562
_symmetry_Int_Tables_number   1
_chemical_formula_structural   Te2MoWSeS
_chemical_formula_sum   'Te4 Mo2 W2 Se2 S2'
_cell_volume   386.52030717
_cell_formula_units_Z   2
loop_
 _symmetry_equiv_pos_site_id
 _symmetry_equiv_pos_as_xyz
  1  'x, y, z'
loop_
 _atom_site_type_symbol
 _atom_site_label
 _atom_site_symmetry_multiplicity
 _atom_site_fract_x
 _atom_site_fract_y
 _atom_site_fract_z
 _atom_site_occupancy
  Te  Te0  1  0.333352  0.666705  0.705880  1
  Te  Te1  1  0.666643  0.333285  0.045572  1
  Te  Te2  1  0.666646  0.333291  0.142288  1
  Te  Te3  1  0.333358  0.666716  0.609194  1
  Mo  Mo4  1  0.333305  0.666609  0.093900  1
  Mo  Mo5  1  0.666688  0.333377  0.657560  1
  W  W6  1  0.333311  0.666622  0.469650  1
  W  W7  1  0.666687  0.333374  0.281790  1
  Se  Se8  1  0.666648  0.333295  0.426945  1
  Se  Se9  1  0.666649  0.333298  0.512357  1
  S  S10  1  0.333359  0.666718  0.320686  1
  S  S11  1  0.333354  0.666709  0.242924  1
