# generated using pymatgen
data_NaNbGeO5
_symmetry_space_group_name_H-M   'P 1'
_cell_length_a   6.94458924
_cell_length_b   7.64667585
_cell_length_c   9.04664164
_cell_angle_alpha   90.00000000
_cell_angle_beta   90.00000000
_cell_angle_gamma   115.47198922
_symmetry_Int_Tables_number   1
_chemical_formula_structural   NaNbGeO5
_chemical_formula_sum   'Na4 Nb4 Ge4 O20'
_cell_volume   433.70665479
_cell_formula_units_Z   4
loop_
 _symmetry_equiv_pos_site_id
 _symmetry_equiv_pos_as_xyz
  1  'x, y, z'
loop_
 _atom_site_type_symbol
 _atom_site_label
 _atom_site_symmetry_multiplicity
 _atom_site_fract_x
 _atom_site_fract_y
 _atom_site_fract_z
 _atom_site_occupancy
  O  O0  1  0.154259  0.887487  0.547448  1
  O  O1  1  0.845742  0.612513  0.047448  1
  O  O2  1  0.845742  0.112514  0.452552  1
  O  O3  1  0.154258  0.387487  0.952552  1
  O  O4  1  0.358879  0.123980  0.954909  1
  O  O5  1  0.641121  0.376019  0.454909  1
  O  O6  1  0.641121  0.876019  0.045091  1
  O  O7  1  0.358879  0.623981  0.545091  1
  O  O8  1  0.952680  0.414876  0.682265  1
  O  O9  1  0.047320  0.085124  0.182265  1
  O  O10  1  0.047319  0.585123  0.317735  1
  O  O11  1  0.952680  0.914877  0.817735  1
  O  O12  1  0.253411  0.246888  0.679396  1
  O  O13  1  0.746588  0.253113  0.179396  1
  O  O14  1  0.746589  0.753113  0.320604  1
  O  O15  1  0.253412  0.746887  0.820604  1
  O  O16  1  0.563669  0.592766  0.809650  1
  O  O17  1  0.436331  0.407234  0.190350  1
  O  O18  1  0.436331  0.907234  0.309650  1
  O  O19  1  0.563669  0.092765  0.690350  1
  Na  Na20  1  0.758560  0.794737  0.580484  1
  Na  Na21  1  0.241442  0.205264  0.419516  1
  Na  Na22  1  0.241441  0.705263  0.080484  1
  Na  Na23  1  0.758558  0.294736  0.919516  1
  Ge  Ge24  1  0.246247  0.248225  0.064397  1
  Ge  Ge25  1  0.246248  0.748225  0.435603  1
  Ge  Ge26  1  0.753753  0.251775  0.564397  1
  Ge  Ge27  1  0.753753  0.751776  0.935603  1
  Nb  Nb28  1  0.258878  0.482704  0.740086  1
  Nb  Nb29  1  0.741122  0.517296  0.259914  1
  Nb  Nb30  1  0.258877  0.982704  0.759915  1
  Nb  Nb31  1  0.741122  0.017295  0.240086  1
