# generated using pymatgen
data_Na2ZrNi(P2O7)2
_symmetry_space_group_name_H-M   'P 1'
_cell_length_a   6.59123554
_cell_length_b   7.01394427
_cell_length_c   6.61207696
_cell_angle_alpha   65.94545806
_cell_angle_beta   81.85118943
_cell_angle_gamma   85.47961181
_symmetry_Int_Tables_number   1
_chemical_formula_structural   Na2ZrNi(P2O7)2
_chemical_formula_sum   'Na2 Zr1 Ni1 P4 O14'
_cell_volume   276.24091688
_cell_formula_units_Z   1
loop_
 _symmetry_equiv_pos_site_id
 _symmetry_equiv_pos_as_xyz
  1  'x, y, z'
loop_
 _atom_site_type_symbol
 _atom_site_label
 _atom_site_symmetry_multiplicity
 _atom_site_fract_x
 _atom_site_fract_y
 _atom_site_fract_z
 _atom_site_occupancy
  O  O0  1  0.955514  0.027958  0.328440  1
  O  O1  1  0.251795  0.582885  0.510820  1
  O  O2  1  0.620209  0.519564  0.185444  1
  O  O3  1  0.703262  0.646548  0.476991  1
  O  O4  1  0.237493  0.236477  0.356191  1
  O  O5  1  0.861135  0.312990  0.470293  1
  O  O6  1  0.974049  0.656561  0.158786  1
  O  O7  1  0.441660  0.264567  0.747274  1
  O  O8  1  0.313012  0.917509  0.049255  1
  O  O9  1  0.671010  0.033064  0.023810  1
  O  O10  1  0.030009  0.988458  0.707308  1
  O  O11  1  0.067524  0.310300  0.868266  1
  O  O12  1  0.579398  0.930970  0.719367  1
  O  O13  1  0.331556  0.547014  0.891153  1
  Na  Na14  1  0.742669  0.603118  0.817618  1
  Na  Na15  1  0.458860  0.910726  0.423356  1
  P  P16  1  0.777528  0.543913  0.321243  1
  P  P17  1  0.029862  0.140286  0.461119  1
  P  P18  1  0.504251  0.026153  0.880522  1
  P  P19  1  0.266521  0.440098  0.753950  1
  Ni  Ni20  1  0.302446  0.545814  0.207551  1
  Zr  Zr21  1  0.987738  0.995526  0.027645  1
