# generated using pymatgen
data_Ba2CdSe3
_symmetry_space_group_name_H-M   'P 1'
_cell_length_a   4.55906317
_cell_length_b   9.41543434
_cell_length_c   18.18918618
_cell_angle_alpha   90.00000000
_cell_angle_beta   90.00000000
_cell_angle_gamma   90.00000000
_symmetry_Int_Tables_number   1
_chemical_formula_structural   Ba2CdSe3
_chemical_formula_sum   'Ba8 Cd4 Se12'
_cell_volume   780.78100143
_cell_formula_units_Z   4
loop_
 _symmetry_equiv_pos_site_id
 _symmetry_equiv_pos_as_xyz
  1  'x, y, z'
loop_
 _atom_site_type_symbol
 _atom_site_label
 _atom_site_symmetry_multiplicity
 _atom_site_fract_x
 _atom_site_fract_y
 _atom_site_fract_z
 _atom_site_occupancy
  Se  Se0  1  0.250000  0.484986  0.904126  1
  Se  Se1  1  0.750000  0.515014  0.095874  1
  Se  Se2  1  0.250000  0.984986  0.595874  1
  Se  Se3  1  0.750000  0.015014  0.404126  1
  Se  Se4  1  0.250000  0.618135  0.427924  1
  Se  Se5  1  0.750000  0.381865  0.572076  1
  Se  Se6  1  0.250000  0.118135  0.072076  1
  Se  Se7  1  0.750000  0.685627  0.722828  1
  Se  Se8  1  0.250000  0.814373  0.222828  1
  Se  Se9  1  0.750000  0.185627  0.777172  1
  Se  Se10  1  0.250000  0.314373  0.277172  1
  Se  Se11  1  0.750000  0.881865  0.927924  1
  Cd  Cd12  1  0.750000  0.624479  0.866791  1
  Cd  Cd13  1  0.750000  0.124479  0.633209  1
  Cd  Cd14  1  0.250000  0.375521  0.133209  1
  Cd  Cd15  1  0.250000  0.875521  0.366791  1
  Ba  Ba16  1  0.250000  0.260222  0.460438  1
  Ba  Ba17  1  0.750000  0.239778  0.960438  1
  Ba  Ba18  1  0.250000  0.760222  0.039562  1
  Ba  Ba19  1  0.750000  0.739778  0.539562  1
  Ba  Ba20  1  0.250000  0.922155  0.784407  1
  Ba  Ba21  1  0.750000  0.077845  0.215593  1
  Ba  Ba22  1  0.250000  0.422155  0.715593  1
  Ba  Ba23  1  0.750000  0.577845  0.284407  1
