# generated using pymatgen
data_Mn2PO4F
_symmetry_space_group_name_H-M   'P 1'
_cell_length_a   6.60906853
_cell_length_b   7.57193123
_cell_length_c   9.60835259
_cell_angle_alpha   72.12766897
_cell_angle_beta   69.88392927
_cell_angle_gamma   64.12438184
_symmetry_Int_Tables_number   1
_chemical_formula_structural   Mn2PO4F
_chemical_formula_sum   'Mn8 P4 O16 F4'
_cell_volume   399.17879528
_cell_formula_units_Z   4
loop_
 _symmetry_equiv_pos_site_id
 _symmetry_equiv_pos_as_xyz
  1  'x, y, z'
loop_
 _atom_site_type_symbol
 _atom_site_label
 _atom_site_symmetry_multiplicity
 _atom_site_fract_x
 _atom_site_fract_y
 _atom_site_fract_z
 _atom_site_occupancy
  O  O0  1  0.223881  0.471991  0.916369  1
  O  O1  1  0.612240  0.028007  0.583631  1
  O  O2  1  0.776120  0.528008  0.083632  1
  O  O3  1  0.387759  0.971992  0.416369  1
  O  O4  1  0.914090  0.091204  0.642693  1
  O  O5  1  0.647987  0.408796  0.857307  1
  O  O6  1  0.085910  0.908797  0.357307  1
  O  O7  1  0.352013  0.591204  0.142692  1
  O  O8  1  0.935070  0.733560  0.689622  1
  O  O9  1  0.358251  0.766439  0.810379  1
  O  O10  1  0.064931  0.266439  0.310378  1
  O  O11  1  0.641748  0.233561  0.189622  1
  O  O12  1  0.622446  0.974945  0.857474  1
  O  O13  1  0.454866  0.525055  0.642525  1
  O  O14  1  0.377555  0.025054  0.142525  1
  O  O15  1  0.545135  0.474945  0.357475  1
  F  F16  1  0.085174  0.135417  0.891022  1
  F  F17  1  0.111614  0.364582  0.608978  1
  F  F18  1  0.914825  0.864582  0.108978  1
  F  F19  1  0.888387  0.635417  0.391022  1
  P  P20  1  0.770695  0.954883  0.693766  1
  P  P21  1  0.419345  0.545117  0.806234  1
  P  P22  1  0.229304  0.045116  0.306234  1
  P  P23  1  0.580655  0.454884  0.193766  1
  Mn  Mn24  1  0.211882  0.616984  0.498212  1
  Mn  Mn25  1  0.327077  0.883018  0.001788  1
  Mn  Mn26  1  0.788118  0.383017  0.501787  1
  Mn  Mn27  1  0.672923  0.116983  0.998212  1
  Mn  Mn28  1  0.947900  0.459280  0.852059  1
  Mn  Mn29  1  0.259239  0.040721  0.647941  1
  Mn  Mn30  1  0.052100  0.540721  0.147941  1
  Mn  Mn31  1  0.740761  0.959280  0.352058  1
