# generated using pymatgen
data_ZrSiO4
_symmetry_space_group_name_H-M   'P 1'
_cell_length_a   4.71959236
_cell_length_b   5.18392193
_cell_length_c   4.93593353
_cell_angle_alpha   90.00000000
_cell_angle_beta   81.36516090
_cell_angle_gamma   90.00000000
_symmetry_Int_Tables_number   1
_chemical_formula_structural   ZrSiO4
_chemical_formula_sum   'Zr2 Si2 O8'
_cell_volume   119.39373102
_cell_formula_units_Z   2
loop_
 _symmetry_equiv_pos_site_id
 _symmetry_equiv_pos_as_xyz
  1  'x, y, z'
loop_
 _atom_site_type_symbol
 _atom_site_label
 _atom_site_symmetry_multiplicity
 _atom_site_fract_x
 _atom_site_fract_y
 _atom_site_fract_z
 _atom_site_occupancy
  Zr  Zr0  1  0.500000  0.722360  0.250000  1
  Zr  Zr1  1  0.500000  0.277640  0.750000  1
  Si  Si2  1  0.000000  0.833707  0.750000  1
  Si  Si3  1  0.000000  0.166293  0.250000  1
  O  O4  1  0.247429  0.607280  0.609765  1
  O  O5  1  0.752571  0.607280  0.890235  1
  O  O6  1  0.752571  0.392720  0.390235  1
  O  O7  1  0.247429  0.392720  0.109765  1
  O  O8  1  0.218253  0.921543  0.016847  1
  O  O9  1  0.781747  0.921543  0.483153  1
  O  O10  1  0.781747  0.078457  0.983153  1
  O  O11  1  0.218253  0.078457  0.516847  1
