# generated using pymatgen
data_Ca5(SiN3)2
_symmetry_space_group_name_H-M   'P 1'
_cell_length_a   5.93097547
_cell_length_b   5.93097547
_cell_length_c   12.06260163
_cell_angle_alpha   94.82051884
_cell_angle_beta   94.82051884
_cell_angle_gamma   116.13718249
_symmetry_Int_Tables_number   1
_chemical_formula_structural   Ca5(SiN3)2
_chemical_formula_sum   'Ca10 Si4 N12'
_cell_volume   376.09071360
_cell_formula_units_Z   2
loop_
 _symmetry_equiv_pos_site_id
 _symmetry_equiv_pos_as_xyz
  1  'x, y, z'
loop_
 _atom_site_type_symbol
 _atom_site_label
 _atom_site_symmetry_multiplicity
 _atom_site_fract_x
 _atom_site_fract_y
 _atom_site_fract_z
 _atom_site_occupancy
  Ca  Ca0  1  0.731205  0.380328  0.261424  1
  Ca  Ca1  1  0.380328  0.731205  0.261424  1
  Ca  Ca2  1  0.268795  0.619672  0.738576  1
  Ca  Ca3  1  0.619672  0.268795  0.738576  1
  Ca  Ca4  1  0.088771  0.088771  0.206801  1
  Ca  Ca5  1  0.911229  0.911229  0.793199  1
  Ca  Ca6  1  0.813684  0.186316  0.500000  1
  Ca  Ca7  1  0.186316  0.813684  0.500000  1
  Ca  Ca8  1  0.758382  0.241618  0.000000  1
  Ca  Ca9  1  0.241618  0.758382  0.000000  1
  Si  Si10  1  0.351071  0.351071  0.424602  1
  Si  Si11  1  0.648929  0.648929  0.575398  1
  Si  Si12  1  0.675468  0.675468  0.068391  1
  Si  Si13  1  0.324532  0.324532  0.931609  1
  N  N14  1  0.095412  0.389044  0.361676  1
  N  N15  1  0.389044  0.095412  0.361676  1
  N  N16  1  0.904588  0.610956  0.638324  1
  N  N17  1  0.610956  0.904588  0.638324  1
  N  N18  1  0.945967  0.657406  0.126663  1
  N  N19  1  0.657406  0.945967  0.126663  1
  N  N20  1  0.054033  0.342594  0.873337  1
  N  N21  1  0.342594  0.054033  0.873337  1
  N  N22  1  0.390681  0.390681  0.085171  1
  N  N23  1  0.609319  0.609319  0.914829  1
  N  N24  1  0.355429  0.355429  0.573762  1
  N  N25  1  0.644571  0.644571  0.426238  1
