# generated using pymatgen
data_Te4MoW3(SeS)2
_symmetry_space_group_name_H-M   'P 1'
_cell_length_a   3.39653007
_cell_length_b   3.39654082
_cell_length_c   40.59874228
_cell_angle_alpha   90.01027192
_cell_angle_beta   90.00000000
_cell_angle_gamma   119.99989516
_symmetry_Int_Tables_number   1
_chemical_formula_structural   Te4MoW3(SeS)2
_chemical_formula_sum   'Te4 Mo1 W3 Se2 S2'
_cell_volume   405.61682717
_cell_formula_units_Z   1
loop_
 _symmetry_equiv_pos_site_id
 _symmetry_equiv_pos_as_xyz
  1  'x, y, z'
loop_
 _atom_site_type_symbol
 _atom_site_label
 _atom_site_symmetry_multiplicity
 _atom_site_fract_x
 _atom_site_fract_y
 _atom_site_fract_z
 _atom_site_occupancy
  Te  Te0  1  0.333408  0.666817  0.326588  1
  Te  Te1  1  0.666573  0.333144  0.424217  1
  Te  Te2  1  0.666690  0.333380  0.517058  1
  Te  Te3  1  0.333263  0.666527  0.234311  1
  Mo  Mo4  1  0.666669  0.333338  0.280455  1
  W  W5  1  0.333283  0.666566  0.093784  1
  W  W6  1  0.333294  0.666587  0.470653  1
  W  W7  1  0.666753  0.333507  0.658047  1
  Se  Se8  1  0.333461  0.666923  0.698855  1
  Se  Se9  1  0.333374  0.666750  0.617249  1
  S  S10  1  0.666559  0.333117  0.056683  1
  S  S11  1  0.666672  0.333344  0.130849  1
