# generated using pymatgen
data_Te2Mo2WS4
_symmetry_space_group_name_H-M   'P 1'
_cell_length_a   3.30538483
_cell_length_b   3.30545937
_cell_length_c   30.51326651
_cell_angle_alpha   90.00001980
_cell_angle_beta   90.00000000
_cell_angle_gamma   119.99925390
_symmetry_Int_Tables_number   1
_chemical_formula_structural   Te2Mo2WS4
_chemical_formula_sum   'Te2 Mo2 W1 S4'
_cell_volume   288.71972297
_cell_formula_units_Z   1
loop_
 _symmetry_equiv_pos_site_id
 _symmetry_equiv_pos_as_xyz
  1  'x, y, z'
loop_
 _atom_site_type_symbol
 _atom_site_label
 _atom_site_symmetry_multiplicity
 _atom_site_fract_x
 _atom_site_fract_y
 _atom_site_fract_z
 _atom_site_occupancy
  Te  Te0  1  0.666650  0.333299  0.515209  1
  Te  Te1  1  0.666642  0.333284  0.641444  1
  Mo  Mo2  1  0.333314  0.666628  0.115649  1
  Mo  Mo3  1  0.666713  0.333425  0.346951  1
  W  W4  1  0.333310  0.666620  0.578350  1
  S  S5  1  0.333342  0.666686  0.397077  1
  S  S6  1  0.666643  0.333286  0.065494  1
  S  S7  1  0.666644  0.333287  0.165820  1
  S  S8  1  0.333342  0.666686  0.296847  1
