# generated using pymatgen
data_Sc3Si3Ni2
_symmetry_space_group_name_H-M   'P 1'
_cell_length_a   3.98336453
_cell_length_b   5.23478131
_cell_length_c   13.09237243
_cell_angle_alpha   90.00000000
_cell_angle_beta   90.00000000
_cell_angle_gamma   112.36285805
_symmetry_Int_Tables_number   1
_chemical_formula_structural   Sc3Si3Ni2
_chemical_formula_sum   'Sc6 Si6 Ni4'
_cell_volume   252.47095199
_cell_formula_units_Z   2
loop_
 _symmetry_equiv_pos_site_id
 _symmetry_equiv_pos_as_xyz
  1  'x, y, z'
loop_
 _atom_site_type_symbol
 _atom_site_label
 _atom_site_symmetry_multiplicity
 _atom_site_fract_x
 _atom_site_fract_y
 _atom_site_fract_z
 _atom_site_occupancy
  Si  Si0  1  0.340376  0.680752  0.250000  1
  Si  Si1  1  0.659624  0.319248  0.750000  1
  Si  Si2  1  0.383539  0.767078  0.539030  1
  Si  Si3  1  0.616461  0.232922  0.460970  1
  Si  Si4  1  0.616461  0.232922  0.039030  1
  Si  Si5  1  0.383539  0.767078  0.960970  1
  Sc  Sc6  1  0.082762  0.165524  0.888368  1
  Sc  Sc7  1  0.917238  0.834476  0.111632  1
  Sc  Sc8  1  0.917238  0.834476  0.388368  1
  Sc  Sc9  1  0.361566  0.723132  0.750000  1
  Sc  Sc10  1  0.082762  0.165524  0.611632  1
  Sc  Sc11  1  0.638434  0.276868  0.250000  1
  Ni  Ni12  1  0.208018  0.416036  0.403977  1
  Ni  Ni13  1  0.791982  0.583964  0.596023  1
  Ni  Ni14  1  0.208018  0.416036  0.096023  1
  Ni  Ni15  1  0.791982  0.583964  0.903977  1
