# generated using pymatgen
data_CeSi2Rh
_symmetry_space_group_name_H-M   'P 1'
_cell_length_a   4.16999907
_cell_length_b   4.22501136
_cell_length_c   8.67928887
_cell_angle_alpha   104.08707223
_cell_angle_beta   90.00000000
_cell_angle_gamma   90.00000000
_symmetry_Int_Tables_number   1
_chemical_formula_structural   CeSi2Rh
_chemical_formula_sum   'Ce2 Si4 Rh2'
_cell_volume   148.31566125
_cell_formula_units_Z   2
loop_
 _symmetry_equiv_pos_site_id
 _symmetry_equiv_pos_as_xyz
  1  'x, y, z'
loop_
 _atom_site_type_symbol
 _atom_site_label
 _atom_site_symmetry_multiplicity
 _atom_site_fract_x
 _atom_site_fract_y
 _atom_site_fract_z
 _atom_site_occupancy
  Ce  Ce0  1  0.250000  0.394364  0.788728  1
  Ce  Ce1  1  0.750000  0.605636  0.211272  1
  Si  Si2  1  0.250000  0.036981  0.073962  1
  Si  Si3  1  0.750000  0.963019  0.926038  1
  Si  Si4  1  0.250000  0.748829  0.497657  1
  Si  Si5  1  0.750000  0.251171  0.502343  1
  Rh  Rh6  1  0.250000  0.177956  0.355911  1
  Rh  Rh7  1  0.750000  0.822044  0.644089  1
