# generated using pymatgen
data_ZnP4O11
_symmetry_space_group_name_H-M   'P 1'
_cell_length_a   5.44408048
_cell_length_b   7.55228134
_cell_length_c   22.63470598
_cell_angle_alpha   90.00000000
_cell_angle_beta   90.00000000
_cell_angle_gamma   110.53034297
_symmetry_Int_Tables_number   1
_chemical_formula_structural   ZnP4O11
_chemical_formula_sum   'Zn4 P16 O44'
_cell_volume   871.52353394
_cell_formula_units_Z   4
loop_
 _symmetry_equiv_pos_site_id
 _symmetry_equiv_pos_as_xyz
  1  'x, y, z'
loop_
 _atom_site_type_symbol
 _atom_site_label
 _atom_site_symmetry_multiplicity
 _atom_site_fract_x
 _atom_site_fract_y
 _atom_site_fract_z
 _atom_site_occupancy
  O  O0  1  0.355852  0.476755  0.335488  1
  O  O1  1  0.644148  0.023245  0.835488  1
  O  O2  1  0.644148  0.523245  0.664512  1
  O  O3  1  0.355852  0.976755  0.164512  1
  O  O4  1  0.776625  0.692515  0.547369  1
  O  O5  1  0.223375  0.807485  0.047369  1
  O  O6  1  0.223375  0.307485  0.452631  1
  O  O7  1  0.776625  0.192515  0.952631  1
  O  O8  1  0.333274  0.750383  0.565583  1
  O  O9  1  0.666726  0.749617  0.065583  1
  O  O10  1  0.666726  0.249617  0.434417  1
  O  O11  1  0.333274  0.250383  0.934417  1
  O  O12  1  0.816132  0.448039  0.317334  1
  O  O13  1  0.183868  0.051961  0.817334  1
  O  O14  1  0.183868  0.551961  0.682666  1
  O  O15  1  0.816132  0.948039  0.182666  1
  O  O16  1  0.750963  0.760561  0.305245  1
  O  O17  1  0.762745  0.521645  0.952182  1
  O  O18  1  0.762745  0.021645  0.547818  1
  O  O19  1  0.237255  0.478355  0.047818  1
  O  O20  1  0.558458  0.800394  0.464697  1
  O  O21  1  0.441541  0.699606  0.964697  1
  O  O22  1  0.441541  0.199606  0.535303  1
  O  O23  1  0.558458  0.300394  0.035303  1
  O  O24  1  0.750963  0.260561  0.194755  1
  O  O25  1  0.249037  0.239439  0.694755  1
  O  O26  1  0.249037  0.739439  0.805245  1
  O  O27  1  0.542283  0.994502  0.266660  1
  O  O28  1  0.083757  0.636542  0.424407  1
  O  O29  1  0.916243  0.863458  0.924407  1
  O  O30  1  0.916243  0.363458  0.575593  1
  O  O31  1  0.083757  0.136542  0.075593  1
  O  O32  1  0.439394  0.877079  0.364506  1
  O  O33  1  0.560606  0.622921  0.864506  1
  O  O34  1  0.560606  0.122921  0.635494  1
  O  O35  1  0.439394  0.377079  0.135494  1
  O  O36  1  0.919604  0.092893  0.343760  1
  O  O37  1  0.080396  0.407107  0.843760  1
  O  O38  1  0.080396  0.907107  0.656240  1
  O  O39  1  0.919604  0.592893  0.156240  1
  O  O40  1  0.542283  0.494502  0.233340  1
  O  O41  1  0.457717  0.005498  0.733340  1
  O  O42  1  0.457717  0.505498  0.766660  1
  O  O43  1  0.237255  0.978355  0.452182  1
  P  P44  1  0.684788  0.441722  0.178788  1
  P  P45  1  0.315212  0.058278  0.678788  1
  P  P46  1  0.315212  0.558278  0.821212  1
  P  P47  1  0.684788  0.941722  0.321212  1
  P  P48  1  0.315904  0.310174  0.072079  1
  P  P49  1  0.684096  0.189826  0.572079  1
  P  P50  1  0.684096  0.689826  0.927921  1
  P  P51  1  0.315904  0.810174  0.427921  1
  P  P52  1  0.609271  0.028419  0.195944  1
  P  P53  1  0.390729  0.471581  0.695944  1
  P  P54  1  0.390729  0.971581  0.804056  1
  P  P55  1  0.609271  0.528419  0.304056  1
  P  P56  1  0.593541  0.295206  0.962890  1
  P  P57  1  0.406459  0.204794  0.462890  1
  P  P58  1  0.406459  0.704794  0.037110  1
  P  P59  1  0.593541  0.795206  0.537110  1
  Zn  Zn60  1  0.990567  0.132156  0.885095  1
  Zn  Zn61  1  0.009433  0.367844  0.385095  1
  Zn  Zn62  1  0.009433  0.867844  0.114905  1
  Zn  Zn63  1  0.990567  0.632156  0.614905  1
