# generated using pymatgen
data_Sr(GaS2)2
_symmetry_space_group_name_H-M   'P 1'
_cell_length_a   12.07438044
_cell_length_b   12.07438043
_cell_length_c   12.28191355
_cell_angle_alpha   104.88454616
_cell_angle_beta   104.88454617
_cell_angle_gamma   118.51739550
_symmetry_Int_Tables_number   1
_chemical_formula_structural   Sr(GaS2)2
_chemical_formula_sum   'Sr8 Ga16 S32'
_cell_volume   1360.25095439
_cell_formula_units_Z   8
loop_
 _symmetry_equiv_pos_site_id
 _symmetry_equiv_pos_as_xyz
  1  'x, y, z'
loop_
 _atom_site_type_symbol
 _atom_site_label
 _atom_site_symmetry_multiplicity
 _atom_site_fract_x
 _atom_site_fract_y
 _atom_site_fract_z
 _atom_site_occupancy
  S  S0  1  0.810567  0.155825  0.997949  1
  S  S1  1  0.157876  0.312619  0.502051  1
  S  S2  1  0.844175  0.189433  0.502051  1
  S  S3  1  0.687381  0.842124  0.997949  1
  S  S4  1  0.189433  0.844175  0.002051  1
  S  S5  1  0.842124  0.687381  0.497949  1
  S  S6  1  0.155825  0.810567  0.497949  1
  S  S7  1  0.312619  0.157876  0.002051  1
  S  S8  1  0.149917  0.340818  0.001762  1
  S  S9  1  0.339056  0.648155  0.498238  1
  S  S10  1  0.659182  0.850083  0.498238  1
  S  S11  1  0.351845  0.660944  0.001762  1
  S  S12  1  0.850083  0.659182  0.998238  1
  S  S13  1  0.660944  0.351845  0.501762  1
  S  S14  1  0.340818  0.149917  0.501762  1
  S  S15  1  0.648155  0.339056  0.998238  1
  S  S16  1  0.580705  0.080794  0.663677  1
  S  S17  1  0.417117  0.417028  0.836323  1
  S  S18  1  0.919206  0.419295  0.836323  1
  S  S19  1  0.582972  0.582883  0.663677  1
  S  S20  1  0.419295  0.919206  0.336323  1
  S  S21  1  0.582883  0.582972  0.163677  1
  S  S22  1  0.080794  0.580705  0.163677  1
  S  S23  1  0.417028  0.417117  0.336323  1
  S  S24  1  0.917094  0.417600  0.336907  1
  S  S25  1  0.080693  0.080187  0.163093  1
  S  S26  1  0.582400  0.082906  0.163093  1
  S  S27  1  0.919813  0.919307  0.336907  1
  S  S28  1  0.082906  0.582400  0.663093  1
  S  S29  1  0.919307  0.919813  0.836907  1
  S  S30  1  0.417600  0.917094  0.836907  1
  S  S31  1  0.080187  0.080693  0.663093  1
  Ga  Ga32  1  0.889343  0.863026  0.999076  1
  Ga  Ga33  1  0.863951  0.390268  0.500924  1
  Ga  Ga34  1  0.136974  0.110657  0.500924  1
  Ga  Ga35  1  0.609732  0.136049  0.999076  1
  Ga  Ga36  1  0.110657  0.136974  0.000924  1
  Ga  Ga37  1  0.136049  0.609732  0.499076  1
  Ga  Ga38  1  0.863026  0.889343  0.499076  1
  Ga  Ga39  1  0.390268  0.863951  0.000924  1
  Ga  Ga40  1  0.532441  0.639457  0.999530  1
  Ga  Ga41  1  0.639927  0.032911  0.500470  1
  Ga  Ga42  1  0.360543  0.467559  0.500470  1
  Ga  Ga43  1  0.967089  0.360073  0.999530  1
  Ga  Ga44  1  0.467559  0.360543  0.000470  1
  Ga  Ga45  1  0.360073  0.967089  0.499530  1
  Ga  Ga46  1  0.639457  0.532441  0.499530  1
  Ga  Ga47  1  0.032911  0.639927  0.000470  1
  Sr  Sr48  1  0.873337  0.623337  0.246675  1
  Sr  Sr49  1  0.376663  0.126663  0.253325  1
  Sr  Sr50  1  0.126663  0.376663  0.753325  1
  Sr  Sr51  1  0.623337  0.873337  0.746675  1
  Sr  Sr52  1  0.625000  0.375000  0.750000  1
  Sr  Sr53  1  0.375000  0.625000  0.250000  1
  Sr  Sr54  1  0.125000  0.875000  0.750000  1
  Sr  Sr55  1  0.875000  0.125000  0.250000  1
