# generated using pymatgen
data_MoW(SeS)2
_symmetry_space_group_name_H-M   'P 1'
_cell_length_a   3.25158254
_cell_length_b   3.25154263
_cell_length_c   36.90117855
_cell_angle_alpha   89.99986062
_cell_angle_beta   90.00000000
_cell_angle_gamma   120.00040601
_symmetry_Int_Tables_number   1
_chemical_formula_structural   MoW(SeS)2
_chemical_formula_sum   'Mo2 W2 Se4 S4'
_cell_volume   337.87287489
_cell_formula_units_Z   2
loop_
 _symmetry_equiv_pos_site_id
 _symmetry_equiv_pos_as_xyz
  1  'x, y, z'
loop_
 _atom_site_type_symbol
 _atom_site_label
 _atom_site_symmetry_multiplicity
 _atom_site_fract_x
 _atom_site_fract_y
 _atom_site_fract_z
 _atom_site_occupancy
  Mo  Mo0  1  0.333313  0.666626  0.469672  1
  Mo  Mo1  1  0.666687  0.333374  0.281786  1
  W  W2  1  0.333312  0.666624  0.093923  1
  W  W3  1  0.666688  0.333376  0.657535  1
  Se  Se4  1  0.333352  0.666705  0.327849  1
  Se  Se5  1  0.666648  0.333295  0.423609  1
  Se  Se6  1  0.666648  0.333294  0.515746  1
  Se  Se7  1  0.333352  0.666706  0.235712  1
  S  S8  1  0.333355  0.666712  0.699597  1
  S  S9  1  0.666645  0.333288  0.051861  1
  S  S10  1  0.666645  0.333289  0.135980  1
  S  S11  1  0.333355  0.666711  0.615478  1
