# generated using pymatgen
data_BeSiP2
_symmetry_space_group_name_H-M   'P 1'
_cell_length_a   5.13085487
_cell_length_b   5.13085487
_cell_length_c   6.27445996
_cell_angle_alpha   114.13375319
_cell_angle_beta   114.13375319
_cell_angle_gamma   90.00000000
_symmetry_Int_Tables_number   1
_chemical_formula_structural   BeSiP2
_chemical_formula_sum   'Be2 Si2 P4'
_cell_volume   134.76588968
_cell_formula_units_Z   2
loop_
 _symmetry_equiv_pos_site_id
 _symmetry_equiv_pos_as_xyz
  1  'x, y, z'
loop_
 _atom_site_type_symbol
 _atom_site_label
 _atom_site_symmetry_multiplicity
 _atom_site_fract_x
 _atom_site_fract_y
 _atom_site_fract_z
 _atom_site_occupancy
  Be  Be0  1  0.250000  0.750000  0.500000  1
  Be  Be1  1  0.000000  0.000000  0.000000  1
  Si  Si2  1  0.750000  0.250000  0.500000  1
  Si  Si3  1  0.500000  0.500000  -0.000000  1
  P  P4  1  0.125000  0.640514  0.750000  1
  P  P5  1  0.625000  0.109486  0.750000  1
  P  P6  1  0.359486  0.375000  0.250000  1
  P  P7  1  0.890514  0.875000  0.250000  1
