# generated using pymatgen
data_Li6Gd(BO3)3
_symmetry_space_group_name_H-M   'P 1'
_cell_length_a   6.76253061
_cell_length_b   7.30322035
_cell_length_c   16.60485247
_cell_angle_alpha   90.00000000
_cell_angle_beta   90.00000000
_cell_angle_gamma   105.47970225
_symmetry_Int_Tables_number   1
_chemical_formula_structural   Li6Gd(BO3)3
_chemical_formula_sum   'Li24 Gd4 B12 O36'
_cell_volume   790.33610858
_cell_formula_units_Z   4
loop_
 _symmetry_equiv_pos_site_id
 _symmetry_equiv_pos_as_xyz
  1  'x, y, z'
loop_
 _atom_site_type_symbol
 _atom_site_label
 _atom_site_symmetry_multiplicity
 _atom_site_fract_x
 _atom_site_fract_y
 _atom_site_fract_z
 _atom_site_occupancy
  Li  Li0  1  0.555450  0.693288  0.964913  1
  Li  Li1  1  0.416936  0.861189  0.447860  1
  Li  Li2  1  0.083064  0.138811  0.947860  1
  Li  Li3  1  0.583064  0.138811  0.552140  1
  Li  Li4  1  0.175780  0.071551  0.503692  1
  Li  Li5  1  0.324220  0.928449  0.003692  1
  Li  Li6  1  0.824220  0.928449  0.496308  1
  Li  Li7  1  0.675780  0.071551  0.996308  1
  Li  Li8  1  0.670101  0.546684  0.469956  1
  Li  Li9  1  0.829899  0.453316  0.969956  1
  Li  Li10  1  0.329899  0.453316  0.530044  1
  Li  Li11  1  0.170101  0.546684  0.030044  1
  Li  Li12  1  0.865617  0.714172  0.205694  1
  Li  Li13  1  0.634383  0.285828  0.705694  1
  Li  Li14  1  0.134383  0.285828  0.794306  1
  Li  Li15  1  0.365617  0.714172  0.294306  1
  Li  Li16  1  0.944550  0.306712  0.464913  1
  Li  Li17  1  0.916936  0.861189  0.052140  1
  Li  Li18  1  0.055450  0.693288  0.535087  1
  Li  Li19  1  0.444550  0.306712  0.035087  1
  Li  Li20  1  0.953116  0.439166  0.295775  1
  Li  Li21  1  0.546884  0.560834  0.795775  1
  Li  Li22  1  0.046884  0.560834  0.704225  1
  Li  Li23  1  0.453116  0.439166  0.204225  1
  B  B24  1  0.838233  0.917246  0.864906  1
  B  B25  1  0.161767  0.082754  0.135094  1
  B  B26  1  0.338233  0.917246  0.635094  1
  B  B27  1  0.661767  0.082754  0.364906  1
  B  B28  1  0.311334  0.440328  0.385532  1
  B  B29  1  0.188666  0.559672  0.885532  1
  B  B30  1  0.688666  0.559672  0.614468  1
  B  B31  1  0.811334  0.440328  0.114468  1
  B  B32  1  0.499551  0.712428  0.119926  1
  B  B33  1  0.000449  0.287572  0.619926  1
  B  B34  1  0.500449  0.287572  0.880074  1
  B  B35  1  0.999551  0.712428  0.380074  1
  O  O36  1  0.473730  0.004076  0.326705  1
  O  O37  1  0.026270  0.995924  0.826705  1
  O  O38  1  0.832853  0.149085  0.315549  1
  O  O39  1  0.526270  0.995924  0.673295  1
  O  O40  1  0.423215  0.604868  0.422351  1
  O  O41  1  0.076785  0.395132  0.922351  1
  O  O42  1  0.576785  0.395132  0.577649  1
  O  O43  1  0.923215  0.604868  0.077649  1
  O  O44  1  0.273530  0.423952  0.303008  1
  O  O45  1  0.226470  0.576048  0.803008  1
  O  O46  1  0.726470  0.576048  0.696992  1
  O  O47  1  0.773530  0.423952  0.196992  1
  O  O48  1  0.729226  0.277928  0.068148  1
  O  O49  1  0.770774  0.722072  0.568148  1
  O  O50  1  0.270774  0.722072  0.931852  1
  O  O51  1  0.229226  0.277928  0.431852  1
  O  O52  1  0.412844  0.536547  0.087770  1
  O  O53  1  0.087156  0.463453  0.587770  1
  O  O54  1  0.587156  0.463453  0.912230  1
  O  O55  1  0.912844  0.536547  0.412230  1
  O  O56  1  0.055501  0.737539  0.298823  1
  O  O57  1  0.444499  0.262461  0.798823  1
  O  O58  1  0.944499  0.262461  0.701177  1
  O  O59  1  0.555501  0.737539  0.201177  1
  O  O60  1  0.540498  0.877265  0.073092  1
  O  O61  1  0.959502  0.122735  0.573092  1
  O  O62  1  0.459502  0.122735  0.926908  1
  O  O63  1  0.040498  0.877265  0.426908  1
  O  O64  1  0.176157  0.085844  0.053143  1
  O  O65  1  0.323843  0.914156  0.553143  1
  O  O66  1  0.823843  0.914156  0.946857  1
  O  O67  1  0.676157  0.085844  0.446857  1
  O  O68  1  0.332853  0.149085  0.184451  1
  O  O69  1  0.167147  0.850915  0.684451  1
  O  O70  1  0.667147  0.850915  0.815549  1
  O  O71  1  0.973730  0.004076  0.173295  1
  Gd  Gd72  1  0.652699  0.079553  0.189614  1
  Gd  Gd73  1  0.847301  0.920447  0.689614  1
  Gd  Gd74  1  0.347301  0.920447  0.810386  1
  Gd  Gd75  1  0.152699  0.079553  0.310386  1
