# generated using pymatgen
data_BaNd2NiO5
_symmetry_space_group_name_H-M   'P 1'
_cell_length_a   3.86405797
_cell_length_b   5.98710180
_cell_length_c   6.89674291
_cell_angle_alpha   115.72239409
_cell_angle_beta   106.26777795
_cell_angle_gamma   89.99806836
_symmetry_Int_Tables_number   1
_chemical_formula_structural   BaNd2NiO5
_chemical_formula_sum   'Ba1 Nd2 Ni1 O5'
_cell_volume   136.61772895
_cell_formula_units_Z   1
loop_
 _symmetry_equiv_pos_site_id
 _symmetry_equiv_pos_as_xyz
  1  'x, y, z'
loop_
 _atom_site_type_symbol
 _atom_site_label
 _atom_site_symmetry_multiplicity
 _atom_site_fract_x
 _atom_site_fract_y
 _atom_site_fract_z
 _atom_site_occupancy
  O  O0  1  0.500000  0.000001  1.000001  1
  O  O1  1  0.145036  0.903531  0.290092  1
  O  O2  1  0.854965  0.096469  0.709908  1
  O  O3  1  0.854960  0.613438  0.709902  1
  O  O4  1  0.145041  0.386563  0.290100  1
  Ni  Ni5  1  0.000000  0.000000  0.000001  1
  Ba  Ba6  1  0.500001  0.500000  0.000001  1
  Nd  Nd7  1  0.297213  0.797275  0.594511  1
  Nd  Nd8  1  0.702788  0.202722  0.405487  1
