# generated using pymatgen
data_CaCrO4
_symmetry_space_group_name_H-M   'P 1'
_cell_length_a   6.08409882
_cell_length_b   6.08409882
_cell_length_c   6.08409882
_cell_angle_alpha   105.69545248
_cell_angle_beta   105.69545241
_cell_angle_gamma   117.31949792
_symmetry_Int_Tables_number   1
_chemical_formula_structural   CaCrO4
_chemical_formula_sum   'Ca2 Cr2 O8'
_cell_volume   170.89631167
_cell_formula_units_Z   2
loop_
 _symmetry_equiv_pos_site_id
 _symmetry_equiv_pos_as_xyz
  1  'x, y, z'
loop_
 _atom_site_type_symbol
 _atom_site_label
 _atom_site_symmetry_multiplicity
 _atom_site_fract_x
 _atom_site_fract_y
 _atom_site_fract_z
 _atom_site_occupancy
  O  O0  1  0.214349  0.284798  0.570449  1
  O  O1  1  0.643900  0.214349  0.429551  1
  O  O2  1  0.284798  0.214349  0.070449  1
  O  O3  1  0.214349  0.643900  0.929551  1
  O  O4  1  0.356100  0.785651  0.570449  1
  O  O5  1  0.785651  0.715202  0.429551  1
  O  O6  1  0.785651  0.356100  0.070449  1
  O  O7  1  0.715202  0.785651  0.929551  1
  Ca  Ca8  1  0.875000  0.125000  0.750000  1
  Ca  Ca9  1  0.125000  0.875000  0.250000  1
  Cr  Cr10  1  0.625000  0.375000  0.250000  1
  Cr  Cr11  1  0.375000  0.625000  0.750000  1
