# generated using pymatgen
data_Mn3N2
_symmetry_space_group_name_H-M   'P 1'
_cell_length_a   3.04799536
_cell_length_b   3.05951296
_cell_length_c   5.88194606
_cell_angle_alpha   90.00000350
_cell_angle_beta   89.73871216
_cell_angle_gamma   120.12507747
_symmetry_Int_Tables_number   1
_chemical_formula_structural   Mn3N2
_chemical_formula_sum   'Mn3 N2'
_cell_volume   47.44205378
_cell_formula_units_Z   1
loop_
 _symmetry_equiv_pos_site_id
 _symmetry_equiv_pos_as_xyz
  1  'x, y, z'
loop_
 _atom_site_type_symbol
 _atom_site_label
 _atom_site_symmetry_multiplicity
 _atom_site_fract_x
 _atom_site_fract_y
 _atom_site_fract_z
 _atom_site_occupancy
  Mn  Mn0  1  0.330338  0.665169  0.665449  1
  Mn  Mn1  1  0.669662  0.334831  0.334551  1
  Mn  Mn2  1  -0.000000  -0.000000  0.000000  1
  N  N3  1  0.339467  0.669733  0.242315  1
  N  N4  1  0.660533  0.330267  0.757685  1
