# generated using pymatgen
data_TeMoWSe2S
_symmetry_space_group_name_H-M   'P 1'
_cell_length_a   3.34405216
_cell_length_b   3.34402059
_cell_length_c   38.05008887
_cell_angle_alpha   89.99999861
_cell_angle_beta   90.00000000
_cell_angle_gamma   120.00031228
_symmetry_Int_Tables_number   1
_chemical_formula_structural   TeMoWSe2S
_chemical_formula_sum   'Te2 Mo2 W2 Se4 S2'
_cell_volume   368.49103503
_cell_formula_units_Z   2
loop_
 _symmetry_equiv_pos_site_id
 _symmetry_equiv_pos_as_xyz
  1  'x, y, z'
loop_
 _atom_site_type_symbol
 _atom_site_label
 _atom_site_symmetry_multiplicity
 _atom_site_fract_x
 _atom_site_fract_y
 _atom_site_fract_z
 _atom_site_occupancy
  Te  Te0  1  0.333355  0.666712  0.707644  1
  Te  Te1  1  0.333351  0.666703  0.607455  1
  Mo  Mo2  1  0.333310  0.666620  0.469659  1
  Mo  Mo3  1  0.666689  0.333378  0.281816  1
  W  W4  1  0.333309  0.666619  0.093923  1
  W  W5  1  0.666691  0.333382  0.657575  1
  Se  Se6  1  0.333360  0.666721  0.325535  1
  Se  Se7  1  0.666646  0.333292  0.425890  1
  Se  Se8  1  0.666649  0.333296  0.513382  1
  Se  Se9  1  0.333352  0.666705  0.238023  1
  S  S10  1  0.666642  0.333282  0.053889  1
  S  S11  1  0.666646  0.333290  0.133957  1
