# generated using pymatgen
data_Te2Mo3W(SeS2)2
_symmetry_space_group_name_H-M   'P 1'
_cell_length_a   3.30907060
_cell_length_b   3.30901147
_cell_length_c   39.43947426
_cell_angle_alpha   89.99950481
_cell_angle_beta   90.00000000
_cell_angle_gamma   120.00059107
_symmetry_Int_Tables_number   1
_chemical_formula_structural   Te2Mo3W(SeS2)2
_chemical_formula_sum   'Te2 Mo3 W1 Se2 S4'
_cell_volume   373.99299534
_cell_formula_units_Z   1
loop_
 _symmetry_equiv_pos_site_id
 _symmetry_equiv_pos_as_xyz
  1  'x, y, z'
loop_
 _atom_site_type_symbol
 _atom_site_label
 _atom_site_symmetry_multiplicity
 _atom_site_fract_x
 _atom_site_fract_y
 _atom_site_fract_z
 _atom_site_occupancy
  Te  Te0  1  0.666607  0.333212  0.420004  1
  Te  Te1  1  0.666633  0.333266  0.517065  1
  Mo  Mo2  1  0.333349  0.666698  0.093906  1
  Mo  Mo3  1  0.333290  0.666580  0.468516  1
  Mo  Mo4  1  0.666690  0.333380  0.281377  1
  W  W5  1  0.666631  0.333263  0.659080  1
  Se  Se6  1  0.333320  0.666640  0.701839  1
  Se  Se7  1  0.333315  0.666631  0.616268  1
  S  S8  1  0.333422  0.666845  0.320151  1
  S  S9  1  0.666679  0.333358  0.055169  1
  S  S10  1  0.666666  0.333330  0.132669  1
  S  S11  1  0.333397  0.666796  0.242704  1
