# generated using pymatgen
data_RbUCuS3
_symmetry_space_group_name_H-M   'P 1'
_cell_length_a   3.98051513
_cell_length_b   7.64617176
_cell_length_c   10.30767684
_cell_angle_alpha   90.00000000
_cell_angle_beta   90.00000000
_cell_angle_gamma   105.08754602
_symmetry_Int_Tables_number   1
_chemical_formula_structural   RbUCuS3
_chemical_formula_sum   'Rb2 U2 Cu2 S6'
_cell_volume   302.90716756
_cell_formula_units_Z   2
loop_
 _symmetry_equiv_pos_site_id
 _symmetry_equiv_pos_as_xyz
  1  'x, y, z'
loop_
 _atom_site_type_symbol
 _atom_site_label
 _atom_site_symmetry_multiplicity
 _atom_site_fract_x
 _atom_site_fract_y
 _atom_site_fract_z
 _atom_site_occupancy
  S  S0  1  0.382627  0.765255  0.560947  1
  S  S1  1  0.617373  0.234745  0.439053  1
  S  S2  1  0.617373  0.234745  0.060947  1
  S  S3  1  0.056636  0.113273  0.750000  1
  S  S4  1  0.943364  0.886727  0.250000  1
  S  S5  1  0.382627  0.765255  0.939053  1
  Cu  Cu6  1  0.466681  0.933362  0.750000  1
  Cu  Cu7  1  0.533319  0.066638  0.250000  1
  Rb  Rb8  1  0.258183  0.516365  0.250000  1
  Rb  Rb9  1  0.741817  0.483635  0.750000  1
  U  U10  1  0.000000  0.000000  0.500000  1
  U  U11  1  0.000000  0.000000  0.000000  1
