# generated using pymatgen
data_Ho4In(NiGe2)2
_symmetry_space_group_name_H-M   'P 1'
_cell_length_a   4.22514234
_cell_length_b   7.03451501
_cell_length_c   8.01786779
_cell_angle_alpha   108.00245704
_cell_angle_beta   105.27682677
_cell_angle_gamma   89.99999998
_symmetry_Int_Tables_number   1
_chemical_formula_structural   Ho4In(NiGe2)2
_chemical_formula_sum   'Ho4 In1 Ni2 Ge4'
_cell_volume   217.76759139
_cell_formula_units_Z   1
loop_
 _symmetry_equiv_pos_site_id
 _symmetry_equiv_pos_as_xyz
  1  'x, y, z'
loop_
 _atom_site_type_symbol
 _atom_site_label
 _atom_site_symmetry_multiplicity
 _atom_site_fract_x
 _atom_site_fract_y
 _atom_site_fract_z
 _atom_site_occupancy
  Ni  Ni0  1  0.216894  0.643228  0.433788  1
  Ni  Ni1  1  0.783106  0.356772  0.566212  1
  Ge  Ge2  1  0.065473  0.662683  0.130945  1
  Ge  Ge3  1  0.934527  0.337317  0.869055  1
  Ge  Ge4  1  0.203490  0.271048  0.406980  1
  Ge  Ge5  1  0.796510  0.728952  0.593020  1
  In  In6  1  0.000000  0.000000  0.000000  1
  Ho  Ho7  1  0.344244  0.062073  0.688487  1
  Ho  Ho8  1  0.655756  0.937927  0.311513  1
  Ho  Ho9  1  0.408230  0.608616  0.816460  1
  Ho  Ho10  1  0.591770  0.391384  0.183540  1
