# generated using pymatgen
data_TeMoWSeS2
_symmetry_space_group_name_H-M   'P 1'
_cell_length_a   3.30898702
_cell_length_b   3.30898805
_cell_length_c   37.66290319
_cell_angle_alpha   89.99960773
_cell_angle_beta   90.00000000
_cell_angle_gamma   119.99998970
_symmetry_Int_Tables_number   1
_chemical_formula_structural   TeMoWSeS2
_chemical_formula_sum   'Te2 Mo2 W2 Se2 S4'
_cell_volume   357.13690702
_cell_formula_units_Z   2
loop_
 _symmetry_equiv_pos_site_id
 _symmetry_equiv_pos_as_xyz
  1  'x, y, z'
loop_
 _atom_site_type_symbol
 _atom_site_label
 _atom_site_symmetry_multiplicity
 _atom_site_fract_x
 _atom_site_fract_y
 _atom_site_fract_z
 _atom_site_occupancy
  Te  Te0  1  0.666649  0.333298  0.418675  1
  Te  Te1  1  0.666648  0.333295  0.520696  1
  Mo  Mo2  1  0.333311  0.666623  0.093934  1
  Mo  Mo3  1  0.666687  0.333375  0.281748  1
  W  W4  1  0.333309  0.666619  0.469660  1
  W  W5  1  0.666690  0.333379  0.657548  1
  Se  Se6  1  0.333350  0.666702  0.326288  1
  Se  Se7  1  0.333349  0.666699  0.237239  1
  S  S8  1  0.333361  0.666723  0.698263  1
  S  S9  1  0.666646  0.333291  0.053311  1
  S  S10  1  0.666645  0.333289  0.134553  1
  S  S11  1  0.333354  0.666708  0.616831  1
