# generated using pymatgen
data_Hf2SN2
_symmetry_space_group_name_H-M   'P 1'
_cell_length_a   3.58998773
_cell_length_b   3.59003324
_cell_length_c   6.42489415
_cell_angle_alpha   90.00002290
_cell_angle_beta   90.00005731
_cell_angle_gamma   120.00036852
_symmetry_Int_Tables_number   1
_chemical_formula_structural   Hf2SN2
_chemical_formula_sum   'Hf2 S1 N2'
_cell_volume   71.71110751
_cell_formula_units_Z   1
loop_
 _symmetry_equiv_pos_site_id
 _symmetry_equiv_pos_as_xyz
  1  'x, y, z'
loop_
 _atom_site_type_symbol
 _atom_site_label
 _atom_site_symmetry_multiplicity
 _atom_site_fract_x
 _atom_site_fract_y
 _atom_site_fract_z
 _atom_site_occupancy
  Hf  Hf0  1  0.666674  0.333337  0.703540  1
  Hf  Hf1  1  0.333326  0.666663  0.296460  1
  S  S2  1  0.000000  -0.000000  -0.000000  1
  N  N3  1  0.666670  0.333335  0.365307  1
  N  N4  1  0.333330  0.666665  0.634693  1
