# generated using pymatgen
data_CaWO4
_symmetry_space_group_name_H-M   'P 1'
_cell_length_a   5.33436702
_cell_length_b   5.33470118
_cell_length_c   6.88125660
_cell_angle_alpha   112.81172090
_cell_angle_beta   112.80773004
_cell_angle_gamma   89.99696180
_symmetry_Int_Tables_number   1
_chemical_formula_structural   CaWO4
_chemical_formula_sum   'Ca2 W2 O8'
_cell_volume   163.77022551
_cell_formula_units_Z   2
loop_
 _symmetry_equiv_pos_site_id
 _symmetry_equiv_pos_as_xyz
  1  'x, y, z'
loop_
 _atom_site_type_symbol
 _atom_site_label
 _atom_site_symmetry_multiplicity
 _atom_site_fract_x
 _atom_site_fract_y
 _atom_site_fract_z
 _atom_site_occupancy
  O  O0  1  0.718267  0.865177  0.922899  1
  O  O1  1  0.057671  0.218267  0.422917  1
  O  O2  1  0.365183  0.704630  0.422897  1
  O  O3  1  0.204620  0.557682  0.922863  1
  O  O4  1  0.795380  0.442318  0.077139  1
  O  O5  1  0.634818  0.295370  0.577104  1
  O  O6  1  0.281732  0.134823  0.077100  1
  O  O7  1  0.942329  0.781732  0.577083  1
  Ca  Ca8  1  0.625000  0.875003  0.250007  1
  Ca  Ca9  1  0.374999  0.124998  0.749993  1
  W  W10  1  0.125002  0.375045  0.250021  1
  W  W11  1  0.874996  0.624957  0.749980  1
