# generated using pymatgen
data_Ta2V4Si5
_symmetry_space_group_name_H-M   'P 1'
_cell_length_a   5.15250528
_cell_length_b   7.54184470
_cell_length_c   9.36645706
_cell_angle_alpha   113.74044161
_cell_angle_beta   105.96504872
_cell_angle_gamma   90.00000001
_symmetry_Int_Tables_number   1
_chemical_formula_structural   Ta2V4Si5
_chemical_formula_sum   'Ta4 V8 Si10'
_cell_volume   317.77840954
_cell_formula_units_Z   2
loop_
 _symmetry_equiv_pos_site_id
 _symmetry_equiv_pos_as_xyz
  1  'x, y, z'
loop_
 _atom_site_type_symbol
 _atom_site_label
 _atom_site_symmetry_multiplicity
 _atom_site_fract_x
 _atom_site_fract_y
 _atom_site_fract_z
 _atom_site_occupancy
  Si  Si0  1  0.559909  0.653810  0.119817  1
  Si  Si1  1  0.208914  0.013221  0.417827  1
  Si  Si2  1  0.708904  0.404583  0.417809  1
  Si  Si3  1  0.291096  0.595417  0.582191  1
  Si  Si4  1  0.249997  0.000000  0.000000  1
  Si  Si5  1  0.750003  0.000000  0.000000  1
  Si  Si6  1  0.791086  0.986779  0.582173  1
  Si  Si7  1  0.059904  0.465990  0.119808  1
  Si  Si8  1  0.440091  0.346190  0.880183  1
  Si  Si9  1  0.940096  0.534010  0.880192  1
  V  V10  1  0.644177  0.026280  0.288354  1
  V  V11  1  0.435321  0.683727  0.870642  1
  V  V12  1  0.855823  0.737972  0.711646  1
  V  V13  1  0.144177  0.262028  0.288354  1
  V  V14  1  0.935309  0.186918  0.870618  1
  V  V15  1  0.064691  0.813082  0.129382  1
  V  V16  1  0.564679  0.316273  0.129358  1
  V  V17  1  0.355823  0.973720  0.711646  1
  Ta  Ta18  1  0.938615  0.688603  0.377220  1
  Ta  Ta19  1  0.438606  0.688603  0.377220  1
  Ta  Ta20  1  0.061385  0.311397  0.622780  1
  Ta  Ta21  1  0.561394  0.311397  0.622780  1
