# generated using pymatgen
data_Ba6Cu11F34
_symmetry_space_group_name_H-M   'P 1'
_cell_length_a   7.57664351
_cell_length_b   10.15855677
_cell_length_c   10.44867635
_cell_angle_alpha   83.99196333
_cell_angle_beta   74.44622710
_cell_angle_gamma   70.29508138
_symmetry_Int_Tables_number   1
_chemical_formula_structural   Ba6Cu11F34
_chemical_formula_sum   'Ba6 Cu11 F34'
_cell_volume   729.30156060
_cell_formula_units_Z   1
loop_
 _symmetry_equiv_pos_site_id
 _symmetry_equiv_pos_as_xyz
  1  'x, y, z'
loop_
 _atom_site_type_symbol
 _atom_site_label
 _atom_site_symmetry_multiplicity
 _atom_site_fract_x
 _atom_site_fract_y
 _atom_site_fract_z
 _atom_site_occupancy
  F  F0  1  0.297463  0.616553  0.602943  1
  F  F1  1  0.702537  0.383447  0.397057  1
  F  F2  1  0.512794  0.858696  0.564195  1
  F  F3  1  0.487206  0.141304  0.435805  1
  F  F4  1  0.754083  0.104490  0.612205  1
  F  F5  1  0.245917  0.895510  0.387795  1
  F  F6  1  0.681184  0.864092  0.770309  1
  F  F7  1  0.318816  0.135908  0.229691  1
  F  F8  1  0.937273  0.125562  0.834573  1
  F  F9  1  0.062727  0.874438  0.165427  1
  F  F10  1  0.933969  0.656432  0.213874  1
  F  F11  1  0.066031  0.343568  0.786126  1
  F  F12  1  0.538983  0.616447  0.757618  1
  F  F13  1  0.461017  0.383553  0.242382  1
  F  F14  1  0.899975  0.859038  0.460991  1
  F  F15  1  0.100025  0.140962  0.539009  1
  F  F16  1  0.883010  0.407311  0.085601  1
  F  F17  1  0.580450  0.646299  0.261066  1
  F  F18  1  0.419550  0.353701  0.738934  1
  F  F19  1  0.438497  0.888523  0.108251  1
  F  F20  1  0.561503  0.111477  0.891749  1
  F  F21  1  0.075490  0.394395  0.294343  1
  F  F22  1  0.924510  0.605605  0.705657  1
  F  F23  1  0.058389  0.878144  0.699829  1
  F  F24  1  0.941611  0.121856  0.300171  1
  F  F25  1  0.851535  0.846948  0.995941  1
  F  F26  1  0.148465  0.153052  0.004059  1
  F  F27  1  0.327239  0.617226  0.077872  1
  F  F28  1  0.672761  0.382774  0.922128  1
  F  F29  1  0.194088  0.397209  0.511418  1
  F  F30  1  0.805912  0.602791  0.488582  1
  F  F31  1  0.712946  0.143227  0.135044  1
  F  F32  1  0.287054  0.856773  0.864956  1
  F  F33  1  0.116990  0.592689  0.914399  1
  Cu  Cu34  1  0.186118  0.011082  0.181903  1
  Cu  Cu35  1  0.813882  0.988918  0.818097  1
  Cu  Cu36  1  0.100277  0.742114  0.026145  1
  Cu  Cu37  1  0.899723  0.257886  0.973855  1
  Cu  Cu38  1  0.297960  0.743898  0.728774  1
  Cu  Cu39  1  0.702040  0.256102  0.271226  1
  Cu  Cu40  1  0.739271  0.741399  0.620219  1
  Cu  Cu41  1  0.260729  0.258601  0.379781  1
  Cu  Cu42  1  0.817197  0.518782  0.293966  1
  Cu  Cu43  1  0.182803  0.481218  0.706034  1
  Cu  Cu44  1  0.000000  0.000000  0.500000  1
  Ba  Ba45  1  0.668442  0.657023  0.972228  1
  Ba  Ba46  1  0.331558  0.342977  0.027772  1
  Ba  Ba47  1  0.637542  0.910784  0.284899  1
  Ba  Ba48  1  0.362458  0.089216  0.715101  1
  Ba  Ba49  1  0.217897  0.637677  0.352861  1
  Ba  Ba50  1  0.782103  0.362323  0.647139  1
