# generated using pymatgen
data_Na4WO5
_symmetry_space_group_name_H-M   'P 1'
_cell_length_a   5.74220015
_cell_length_b   5.77678674
_cell_length_c   8.61041341
_cell_angle_alpha   109.21437965
_cell_angle_beta   101.32926927
_cell_angle_gamma   102.32052243
_symmetry_Int_Tables_number   1
_chemical_formula_structural   Na4WO5
_chemical_formula_sum   'Na8 W2 O10'
_cell_volume   252.24914113
_cell_formula_units_Z   2
loop_
 _symmetry_equiv_pos_site_id
 _symmetry_equiv_pos_as_xyz
  1  'x, y, z'
loop_
 _atom_site_type_symbol
 _atom_site_label
 _atom_site_symmetry_multiplicity
 _atom_site_fract_x
 _atom_site_fract_y
 _atom_site_fract_z
 _atom_site_occupancy
  O  O0  1  0.604134  0.629281  0.844161  1
  O  O1  1  0.395866  0.370719  0.155839  1
  O  O2  1  0.692326  0.821579  0.600666  1
  O  O3  1  0.307674  0.178421  0.399334  1
  O  O4  1  0.805278  0.020009  0.241769  1
  O  O5  1  0.194722  0.979991  0.758231  1
  O  O6  1  0.886146  0.154161  0.963422  1
  O  O7  1  0.113854  0.845839  0.036578  1
  O  O8  1  0.055123  0.523460  0.314483  1
  O  O9  1  0.944877  0.476540  0.685517  1
  Na  Na10  1  0.210507  0.414661  0.902239  1
  Na  Na11  1  0.412302  0.800211  0.292849  1
  Na  Na12  1  0.699975  0.395031  0.397918  1
  Na  Na13  1  0.300025  0.604969  0.602082  1
  Na  Na14  1  0.789493  0.585339  0.097761  1
  Na  Na15  1  0.000000  0.000000  0.500000  1
  Na  Na16  1  0.500000  0.000000  0.000000  1
  Na  Na17  1  0.587698  0.199789  0.707151  1
  W  W18  1  0.896568  0.798199  0.795099  1
  W  W19  1  0.103432  0.201801  0.204901  1
