# generated using pymatgen
data_Mo3W(SeS)4
_symmetry_space_group_name_H-M   'P 1'
_cell_length_a   3.25277561
_cell_length_b   3.25274796
_cell_length_c   36.86233575
_cell_angle_alpha   89.99963967
_cell_angle_beta   90.00000000
_cell_angle_gamma   120.00028106
_symmetry_Int_Tables_number   1
_chemical_formula_structural   Mo3W(SeS)4
_chemical_formula_sum   'Mo3 W1 Se4 S4'
_cell_volume   337.76665318
_cell_formula_units_Z   1
loop_
 _symmetry_equiv_pos_site_id
 _symmetry_equiv_pos_as_xyz
  1  'x, y, z'
loop_
 _atom_site_type_symbol
 _atom_site_label
 _atom_site_symmetry_multiplicity
 _atom_site_fract_x
 _atom_site_fract_y
 _atom_site_fract_z
 _atom_site_occupancy
  Mo  Mo0  1  0.333311  0.666623  0.093909  1
  Mo  Mo1  1  0.666688  0.333376  0.281788  1
  Mo  Mo2  1  0.666692  0.333384  0.657552  1
  W  W3  1  0.333311  0.666622  0.469668  1
  Se  Se4  1  0.333352  0.666705  0.327860  1
  Se  Se5  1  0.333352  0.666705  0.703645  1
  Se  Se6  1  0.333351  0.666703  0.235699  1
  Se  Se7  1  0.333360  0.666721  0.611462  1
  S  S8  1  0.666647  0.333292  0.051990  1
  S  S9  1  0.666641  0.333281  0.427634  1
  S  S10  1  0.666647  0.333294  0.135841  1
  S  S11  1  0.666647  0.333294  0.511701  1
