# generated using pymatgen
data_PrGe3Rh
_symmetry_space_group_name_H-M   'P 1'
_cell_length_a   4.43944358
_cell_length_b   4.43944358
_cell_length_c   5.98326129
_cell_angle_alpha   111.77660029
_cell_angle_beta   111.77660026
_cell_angle_gamma   90.00000004
_symmetry_Int_Tables_number   1
_chemical_formula_structural   PrGe3Rh
_chemical_formula_sum   'Pr1 Ge3 Rh1'
_cell_volume   100.38865593
_cell_formula_units_Z   1
loop_
 _symmetry_equiv_pos_site_id
 _symmetry_equiv_pos_as_xyz
  1  'x, y, z'
loop_
 _atom_site_type_symbol
 _atom_site_label
 _atom_site_symmetry_multiplicity
 _atom_site_fract_x
 _atom_site_fract_y
 _atom_site_fract_z
 _atom_site_occupancy
  Ge  Ge0  1  0.260690  0.760690  0.521380  1
  Ge  Ge1  1  0.760690  0.260690  0.521380  1
  Ge  Ge2  1  0.420562  0.420562  0.841123  1
  Rh  Rh3  1  0.657464  0.657464  0.314929  1
  Pr  Pr4  1  0.997214  0.997214  0.994428  1
