# generated using pymatgen
data_HgTe
_symmetry_space_group_name_H-M   'P 1'
_cell_length_a   4.57982155
_cell_length_b   4.57982155
_cell_length_c   5.79815730
_cell_angle_alpha   90.00000000
_cell_angle_beta   90.00000000
_cell_angle_gamma   98.40103539
_symmetry_Int_Tables_number   1
_chemical_formula_structural   HgTe
_chemical_formula_sum   'Hg2 Te2'
_cell_volume   120.31002326
_cell_formula_units_Z   2
loop_
 _symmetry_equiv_pos_site_id
 _symmetry_equiv_pos_as_xyz
  1  'x, y, z'
loop_
 _atom_site_type_symbol
 _atom_site_label
 _atom_site_symmetry_multiplicity
 _atom_site_fract_x
 _atom_site_fract_y
 _atom_site_fract_z
 _atom_site_occupancy
  Te  Te0  1  0.784809  0.215191  0.250000  1
  Te  Te1  1  0.215191  0.784809  0.750000  1
  Hg  Hg2  1  0.343050  0.656950  0.250000  1
  Hg  Hg3  1  0.656950  0.343050  0.750000  1
