# generated using pymatgen
data_Ce3ZrO8
_symmetry_space_group_name_H-M   'P 1'
_cell_length_a   7.66004738
_cell_length_b   7.66004738
_cell_length_c   5.43495377
_cell_angle_alpha   90.09378583
_cell_angle_beta   90.09378583
_cell_angle_gamma   90.22012457
_symmetry_Int_Tables_number   1
_chemical_formula_structural   Ce3ZrO8
_chemical_formula_sum   'Ce6 Zr2 O16'
_cell_volume   318.89990691
_cell_formula_units_Z   2
loop_
 _symmetry_equiv_pos_site_id
 _symmetry_equiv_pos_as_xyz
  1  'x, y, z'
loop_
 _atom_site_type_symbol
 _atom_site_label
 _atom_site_symmetry_multiplicity
 _atom_site_fract_x
 _atom_site_fract_y
 _atom_site_fract_z
 _atom_site_occupancy
  Ce  Ce0  1  0.007012  0.002902  0.009495  1
  Ce  Ce1  1  0.000361  0.499639  0.000000  1
  Ce  Ce2  1  0.252922  0.757025  0.509434  1
  Ce  Ce3  1  0.742975  0.247079  0.490566  1
  Ce  Ce4  1  0.497098  0.492988  0.990505  1
  Ce  Ce5  1  0.749641  0.750359  0.500000  1
  Zr  Zr6  1  0.242879  0.257121  0.500000  1
  Zr  Zr7  1  0.507049  0.992951  0.000000  1
  O  O8  1  0.239372  0.019501  0.305297  1
  O  O9  1  0.993314  0.258014  0.237546  1
  O  O10  1  0.018458  0.239102  0.726837  1
  O  O11  1  0.269523  0.989372  0.805278  1
  O  O12  1  0.260898  0.481542  0.273163  1
  O  O13  1  0.010776  0.744010  0.247783  1
  O  O14  1  0.994051  0.760831  0.747798  1
  O  O15  1  0.241986  0.506686  0.762454  1
  O  O16  1  0.756820  0.992063  0.262639  1
  O  O17  1  0.510628  0.230477  0.194722  1
  O  O18  1  0.480499  0.260628  0.694703  1
  O  O19  1  0.731455  0.010808  0.773282  1
  O  O20  1  0.739169  0.505949  0.252202  1
  O  O21  1  0.489192  0.768545  0.226718  1
  O  O22  1  0.507937  0.743180  0.737361  1
  O  O23  1  0.755990  0.489224  0.752216  1
