# generated using pymatgen
data_MgSiO3
_symmetry_space_group_name_H-M   'P 1'
_cell_length_a   18.64141189
_cell_length_b   8.90002826
_cell_length_c   5.35252073
_cell_angle_alpha   90.00000000
_cell_angle_beta   91.20404012
_cell_angle_gamma   90.00000000
_symmetry_Int_Tables_number   1
_chemical_formula_structural   MgSiO3
_chemical_formula_sum   'Mg16 Si16 O48'
_cell_volume   887.83578420
_cell_formula_units_Z   16
loop_
 _symmetry_equiv_pos_site_id
 _symmetry_equiv_pos_as_xyz
  1  'x, y, z'
loop_
 _atom_site_type_symbol
 _atom_site_label
 _atom_site_symmetry_multiplicity
 _atom_site_fract_x
 _atom_site_fract_y
 _atom_site_fract_z
 _atom_site_occupancy
  Mg  Mg0  1  0.000000  0.600053  0.750000  1
  Mg  Mg1  1  0.000000  0.399947  0.250000  1
  Mg  Mg2  1  0.000000  0.757376  0.250000  1
  Mg  Mg3  1  0.000000  0.242624  0.750000  1
  Mg  Mg4  1  0.249540  0.099107  0.722601  1
  Mg  Mg5  1  0.750460  0.099107  0.777399  1
  Mg  Mg6  1  0.750460  0.900893  0.277399  1
  Mg  Mg7  1  0.249540  0.900893  0.222601  1
  Mg  Mg8  1  0.252147  0.741967  0.723302  1
  Mg  Mg9  1  0.747853  0.741967  0.776698  1
  Mg  Mg10  1  0.747853  0.258033  0.276698  1
  Mg  Mg11  1  0.252147  0.258033  0.223302  1
  Mg  Mg12  1  0.500000  0.403382  0.250000  1
  Mg  Mg13  1  0.500000  0.596618  0.750000  1
  Mg  Mg14  1  0.500000  0.761028  0.250000  1
  Mg  Mg15  1  0.500000  0.238972  0.750000  1
  Si  Si16  1  0.895851  0.088901  0.450771  1
  Si  Si17  1  0.104149  0.088901  0.049229  1
  Si  Si18  1  0.104149  0.911099  0.549229  1
  Si  Si19  1  0.895851  0.911099  0.950771  1
  Si  Si20  1  0.852215  0.589336  0.408767  1
  Si  Si21  1  0.147785  0.589336  0.091233  1
  Si  Si22  1  0.147785  0.410664  0.591233  1
  Si  Si23  1  0.852215  0.410664  0.908767  1
  Si  Si24  1  0.397166  0.090563  0.420861  1
  Si  Si25  1  0.602834  0.090563  0.079139  1
  Si  Si26  1  0.602834  0.909437  0.579139  1
  Si  Si27  1  0.397166  0.909437  0.920861  1
  Si  Si28  1  0.352884  0.410180  0.918465  1
  Si  Si29  1  0.647116  0.410180  0.581535  1
  Si  Si30  1  0.647116  0.589820  0.081535  1
  Si  Si31  1  0.352884  0.589820  0.418465  1
  O  O32  1  0.808216  0.091818  0.446412  1
  O  O33  1  0.191784  0.091818  0.053588  1
  O  O34  1  0.191784  0.908182  0.553588  1
  O  O35  1  0.808216  0.908182  0.946412  1
  O  O36  1  0.939728  0.243219  0.428609  1
  O  O37  1  0.060272  0.243219  0.071391  1
  O  O38  1  0.060272  0.756781  0.571391  1
  O  O39  1  0.939728  0.756781  0.928609  1
  O  O40  1  0.922994  0.965483  0.238932  1
  O  O41  1  0.077006  0.965483  0.261068  1
  O  O42  1  0.077006  0.034517  0.761068  1
  O  O43  1  0.922994  0.034517  0.738932  1
  O  O44  1  0.940112  0.592492  0.417209  1
  O  O45  1  0.059888  0.592492  0.082791  1
  O  O46  1  0.059888  0.407508  0.582791  1
  O  O47  1  0.940112  0.407508  0.917209  1
  O  O48  1  0.809771  0.742563  0.472206  1
  O  O49  1  0.190229  0.742563  0.027794  1
  O  O50  1  0.190229  0.257437  0.527794  1
  O  O51  1  0.809771  0.257437  0.972206  1
  O  O52  1  0.824927  0.469296  0.627323  1
  O  O53  1  0.175073  0.469296  0.872677  1
  O  O54  1  0.175073  0.530704  0.372677  1
  O  O55  1  0.824927  0.530704  0.127323  1
  O  O56  1  0.309851  0.092156  0.401488  1
  O  O57  1  0.690149  0.092156  0.098512  1
  O  O58  1  0.690149  0.907844  0.598512  1
  O  O59  1  0.309851  0.907844  0.901488  1
  O  O60  1  0.439222  0.248346  0.425306  1
  O  O61  1  0.560778  0.248346  0.074694  1
  O  O62  1  0.560778  0.751654  0.574694  1
  O  O63  1  0.439222  0.751654  0.925306  1
  O  O64  1  0.425980  0.022524  0.697492  1
  O  O65  1  0.574020  0.022524  0.802508  1
  O  O66  1  0.574020  0.977476  0.302508  1
  O  O67  1  0.425980  0.977476  0.197492  1
  O  O68  1  0.440421  0.408912  0.914935  1
  O  O69  1  0.559579  0.408912  0.585065  1
  O  O70  1  0.559579  0.591088  0.085065  1
  O  O71  1  0.440421  0.591088  0.414935  1
  O  O72  1  0.312395  0.251035  0.907389  1
  O  O73  1  0.687605  0.251035  0.592611  1
  O  O74  1  0.687605  0.748965  0.092611  1
  O  O75  1  0.312395  0.748965  0.407389  1
  O  O76  1  0.323400  0.471723  0.196283  1
  O  O77  1  0.676600  0.471723  0.303717  1
  O  O78  1  0.676600  0.528277  0.803717  1
  O  O79  1  0.323400  0.528277  0.696283  1
