# generated using pymatgen
data_Te4MoW
_symmetry_space_group_name_H-M   'P 1'
_cell_length_a   3.55689715
_cell_length_b   3.55651948
_cell_length_c   40.13600556
_cell_angle_alpha   90.00005085
_cell_angle_beta   90.00000000
_cell_angle_gamma   120.00351274
_symmetry_Int_Tables_number   1
_chemical_formula_structural   Te4MoW
_chemical_formula_sum   'Te8 Mo2 W2'
_cell_volume   439.68930854
_cell_formula_units_Z   2
loop_
 _symmetry_equiv_pos_site_id
 _symmetry_equiv_pos_as_xyz
  1  'x, y, z'
loop_
 _atom_site_type_symbol
 _atom_site_label
 _atom_site_symmetry_multiplicity
 _atom_site_fract_x
 _atom_site_fract_y
 _atom_site_fract_z
 _atom_site_occupancy
  Te  Te0  1  0.333344  0.666689  0.327005  1
  Te  Te1  1  0.333347  0.666696  0.702815  1
  Te  Te2  1  0.666653  0.333304  0.048643  1
  Te  Te3  1  0.666656  0.333311  0.424453  1
  Te  Te4  1  0.666655  0.333308  0.139230  1
  Te  Te5  1  0.666655  0.333310  0.514863  1
  Te  Te6  1  0.333345  0.666690  0.236595  1
  Te  Te7  1  0.333345  0.666692  0.612228  1
  Mo  Mo8  1  0.333293  0.666586  0.469660  1
  Mo  Mo9  1  0.666707  0.333414  0.281798  1
  W  W10  1  0.333293  0.666585  0.093921  1
  W  W11  1  0.666707  0.333415  0.657537  1
