# generated using pymatgen
data_SrBeB2O5
_symmetry_space_group_name_H-M   'P 1'
_cell_length_a   5.27556989
_cell_length_b   3.88849064
_cell_length_c   17.66021649
_cell_angle_alpha   90.00000000
_cell_angle_beta   97.65971328
_cell_angle_gamma   90.00000000
_symmetry_Int_Tables_number   1
_chemical_formula_structural   SrBeB2O5
_chemical_formula_sum   'Sr4 Be4 B8 O20'
_cell_volume   359.04917410
_cell_formula_units_Z   4
loop_
 _symmetry_equiv_pos_site_id
 _symmetry_equiv_pos_as_xyz
  1  'x, y, z'
loop_
 _atom_site_type_symbol
 _atom_site_label
 _atom_site_symmetry_multiplicity
 _atom_site_fract_x
 _atom_site_fract_y
 _atom_site_fract_z
 _atom_site_occupancy
  Sr  Sr0  1  0.712362  0.646920  0.928284  1
  Sr  Sr1  1  0.212362  0.853080  0.428284  1
  Sr  Sr2  1  0.287638  0.353080  0.071716  1
  Sr  Sr3  1  0.787638  0.146920  0.571716  1
  Be  Be4  1  0.605708  0.763186  0.713688  1
  Be  Be5  1  0.105708  0.736814  0.213688  1
  Be  Be6  1  0.394292  0.236814  0.286312  1
  Be  Be7  1  0.894292  0.263186  0.786312  1
  B  B8  1  0.198207  0.011574  0.900644  1
  B  B9  1  0.698207  0.488426  0.400644  1
  B  B10  1  0.801793  0.988426  0.099356  1
  B  B11  1  0.301793  0.511574  0.599356  1
  B  B12  1  0.382680  0.278669  0.785589  1
  B  B13  1  0.882680  0.221331  0.285589  1
  B  B14  1  0.617320  0.721331  0.214411  1
  B  B15  1  0.117320  0.778669  0.714411  1
  O  O16  1  0.405566  0.129065  0.864647  1
  O  O17  1  0.905566  0.370935  0.364647  1
  O  O18  1  0.594434  0.870935  0.135353  1
  O  O19  1  0.094434  0.629065  0.635353  1
  O  O20  1  0.620475  0.466588  0.779567  1
  O  O21  1  0.120475  0.033412  0.279567  1
  O  O22  1  0.379525  0.533412  0.220433  1
  O  O23  1  0.879525  0.966588  0.720433  1
  O  O24  1  0.954296  0.116777  0.872578  1
  O  O25  1  0.454296  0.383223  0.372578  1
  O  O26  1  0.045704  0.883223  0.127422  1
  O  O27  1  0.545704  0.616777  0.627422  1
  O  O28  1  0.351582  0.001114  0.726286  1
  O  O29  1  0.851582  0.498886  0.226286  1
  O  O30  1  0.648418  0.998886  0.273714  1
  O  O31  1  0.148418  0.501114  0.773714  1
  O  O32  1  0.246598  0.805965  0.963731  1
  O  O33  1  0.746598  0.694035  0.463731  1
  O  O34  1  0.753402  0.194035  0.036269  1
  O  O35  1  0.253402  0.305965  0.536269  1
