# generated using pymatgen
data_SrCdP2O7
_symmetry_space_group_name_H-M   'P 1'
_cell_length_a   5.50838641
_cell_length_b   8.67225454
_cell_length_c   13.15695618
_cell_angle_alpha   90.00000000
_cell_angle_beta   90.17067521
_cell_angle_gamma   90.00000000
_symmetry_Int_Tables_number   1
_chemical_formula_structural   SrCdP2O7
_chemical_formula_sum   'Sr4 Cd4 P8 O28'
_cell_volume   628.50670572
_cell_formula_units_Z   4
loop_
 _symmetry_equiv_pos_site_id
 _symmetry_equiv_pos_as_xyz
  1  'x, y, z'
loop_
 _atom_site_type_symbol
 _atom_site_label
 _atom_site_symmetry_multiplicity
 _atom_site_fract_x
 _atom_site_fract_y
 _atom_site_fract_z
 _atom_site_occupancy
  O  O0  1  0.873695  0.116420  0.593424  1
  O  O1  1  0.626305  0.616420  0.906576  1
  O  O2  1  0.126305  0.883580  0.406576  1
  O  O3  1  0.373695  0.383580  0.093424  1
  O  O4  1  0.434313  0.174467  0.543532  1
  O  O5  1  0.065687  0.674467  0.956468  1
  O  O6  1  0.565687  0.825533  0.456468  1
  O  O7  1  0.934313  0.325533  0.043532  1
  O  O8  1  0.783700  0.213339  0.415460  1
  O  O9  1  0.716300  0.713339  0.084540  1
  O  O10  1  0.216300  0.786661  0.584540  1
  O  O11  1  0.283700  0.286661  0.915460  1
  O  O12  1  0.994621  0.446564  0.721486  1
  O  O13  1  0.505379  0.946564  0.778514  1
  O  O14  1  0.005379  0.553436  0.278514  1
  O  O15  1  0.494621  0.053436  0.221486  1
  O  O16  1  0.243958  0.106666  0.061900  1
  O  O17  1  0.256042  0.606666  0.438100  1
  O  O18  1  0.756042  0.893334  0.938100  1
  O  O19  1  0.743958  0.393334  0.561900  1
  O  O20  1  0.169078  0.863021  0.159042  1
  O  O21  1  0.330922  0.363021  0.340958  1
  O  O22  1  0.830922  0.136979  0.840958  1
  O  O23  1  0.669078  0.636979  0.659042  1
  O  O24  1  0.040941  0.111727  0.236913  1
  O  O25  1  0.459059  0.611727  0.263087  1
  O  O26  1  0.959059  0.888273  0.763087  1
  O  O27  1  0.540941  0.388273  0.736913  1
  P  P28  1  0.702824  0.216376  0.526737  1
  P  P29  1  0.797176  0.716376  0.973263  1
  P  P30  1  0.297176  0.783624  0.473263  1
  P  P31  1  0.202824  0.283624  0.026737  1
  P  P32  1  0.742012  0.468836  0.675107  1
  P  P33  1  0.757988  0.968836  0.824893  1
  P  P34  1  0.257988  0.531164  0.324893  1
  P  P35  1  0.242012  0.031164  0.175107  1
  Sr  Sr36  1  0.716904  0.324161  0.229852  1
  Sr  Sr37  1  0.783096  0.824161  0.270148  1
  Sr  Sr38  1  0.283096  0.675839  0.770148  1
  Sr  Sr39  1  0.216904  0.175839  0.729852  1
  Cd  Cd40  1  0.686725  0.355364  0.906370  1
  Cd  Cd41  1  0.813275  0.855364  0.593630  1
  Cd  Cd42  1  0.313275  0.644636  0.093630  1
  Cd  Cd43  1  0.186725  0.144636  0.406370  1
