# generated using pymatgen
data_Yb5Si3SO12
_symmetry_space_group_name_H-M   'P 1'
_cell_length_a   9.33892242
_cell_length_b   9.33892242
_cell_length_c   7.02850992
_cell_angle_alpha   90.00000000
_cell_angle_beta   90.00000000
_cell_angle_gamma   120.00000003
_symmetry_Int_Tables_number   1
_chemical_formula_structural   Yb5Si3SO12
_chemical_formula_sum   'Yb10 Si6 S2 O24'
_cell_volume   530.86907778
_cell_formula_units_Z   2
loop_
 _symmetry_equiv_pos_site_id
 _symmetry_equiv_pos_as_xyz
  1  'x, y, z'
loop_
 _atom_site_type_symbol
 _atom_site_label
 _atom_site_symmetry_multiplicity
 _atom_site_fract_x
 _atom_site_fract_y
 _atom_site_fract_z
 _atom_site_occupancy
  O  O0  1  0.304149  0.219479  0.434139  1
  O  O1  1  0.084670  0.304149  0.934139  1
  O  O2  1  0.219479  0.915330  0.934139  1
  O  O3  1  0.780521  0.084670  0.434139  1
  O  O4  1  0.915330  0.695851  0.434139  1
  O  O5  1  0.695851  0.780521  0.934139  1
  O  O6  1  0.695851  0.780521  0.565861  1
  O  O7  1  0.915330  0.695851  0.065861  1
  O  O8  1  0.780521  0.084670  0.065861  1
  O  O9  1  0.219479  0.915330  0.565861  1
  O  O10  1  0.084670  0.304149  0.565861  1
  O  O11  1  0.304149  0.219479  0.065861  1
  O  O12  1  0.429989  0.556100  0.750000  1
  O  O13  1  0.873889  0.429989  0.250000  1
  O  O14  1  0.556100  0.126111  0.250000  1
  O  O15  1  0.443900  0.873889  0.750000  1
  O  O16  1  0.126111  0.570011  0.750000  1
  O  O17  1  0.570011  0.443900  0.250000  1
  O  O18  1  0.299965  0.478309  0.250000  1
  O  O19  1  0.821656  0.299965  0.750000  1
  O  O20  1  0.478309  0.178344  0.750000  1
  O  O21  1  0.521691  0.821656  0.250000  1
  O  O22  1  0.178344  0.700035  0.250000  1
  O  O23  1  0.700035  0.521691  0.750000  1
  Si  Si24  1  0.632983  0.651689  0.750000  1
  Si  Si25  1  0.981294  0.632983  0.250000  1
  Si  Si26  1  0.651689  0.018706  0.250000  1
  Si  Si27  1  0.348311  0.981294  0.750000  1
  Si  Si28  1  0.018706  0.367017  0.750000  1
  Si  Si29  1  0.367017  0.348311  0.250000  1
  S  S30  1  0.000000  0.000000  0.000000  1
  S  S31  1  0.000000  0.000000  0.500000  1
  Yb  Yb32  1  0.722294  0.007779  0.750000  1
  Yb  Yb33  1  0.714516  0.722294  0.250000  1
  Yb  Yb34  1  0.007779  0.285484  0.250000  1
  Yb  Yb35  1  0.992221  0.714516  0.750000  1
  Yb  Yb36  1  0.285484  0.277706  0.750000  1
  Yb  Yb37  1  0.277706  0.992221  0.250000  1
  Yb  Yb38  1  0.333333  0.666667  0.498057  1
  Yb  Yb39  1  0.666667  0.333333  0.998057  1
  Yb  Yb40  1  0.666667  0.333333  0.501943  1
  Yb  Yb41  1  0.333333  0.666667  0.001943  1
