# generated using pymatgen
data_Na3Sc2(PO4)3
_symmetry_space_group_name_H-M   'P 1'
_cell_length_a   8.99237146
_cell_length_b   8.99237146
_cell_length_c   9.22010245
_cell_angle_alpha   61.55081358
_cell_angle_beta   61.55081360
_cell_angle_gamma   60.21585467
_symmetry_Int_Tables_number   1
_chemical_formula_structural   Na3Sc2(PO4)3
_chemical_formula_sum   'Na6 Sc4 P6 O24'
_cell_volume   540.12715651
_cell_formula_units_Z   2
loop_
 _symmetry_equiv_pos_site_id
 _symmetry_equiv_pos_as_xyz
  1  'x, y, z'
loop_
 _atom_site_type_symbol
 _atom_site_label
 _atom_site_symmetry_multiplicity
 _atom_site_fract_x
 _atom_site_fract_y
 _atom_site_fract_z
 _atom_site_occupancy
  O  O0  1  0.780168  0.057643  0.735288  1
  O  O1  1  0.057643  0.780168  0.235288  1
  O  O2  1  0.224490  0.922797  0.257815  1
  O  O3  1  0.922797  0.224490  0.757815  1
  O  O4  1  0.375188  0.740669  0.934131  1
  O  O5  1  0.740669  0.375188  0.434131  1
  O  O6  1  0.627701  0.260956  0.064876  1
  O  O7  1  0.260956  0.627701  0.564876  1
  O  O8  1  0.485002  0.751865  0.618533  1
  O  O9  1  0.751865  0.485002  0.118533  1
  O  O10  1  0.513095  0.257443  0.376761  1
  O  O11  1  0.257443  0.513095  0.876761  1
  O  O12  1  0.568851  0.925320  0.706007  1
  O  O13  1  0.925320  0.568851  0.206007  1
  O  O14  1  0.441763  0.071208  0.295386  1
  O  O15  1  0.071208  0.441763  0.795386  1
  O  O16  1  0.706606  0.586087  0.781966  1
  O  O17  1  0.586087  0.706606  0.281966  1
  O  O18  1  0.293016  0.413505  0.216779  1
  O  O19  1  0.413505  0.293016  0.716779  1
  O  O20  1  0.989638  0.883494  0.913285  1
  O  O21  1  0.883494  0.989638  0.413285  1
  O  O22  1  0.011315  0.113661  0.083482  1
  O  O23  1  0.113661  0.011315  0.583482  1
  Na  Na24  1  0.040612  0.337307  0.440049  1
  Na  Na25  1  0.337307  0.040612  0.940049  1
  Na  Na26  1  0.603956  0.382570  0.764480  1
  Na  Na27  1  0.382570  0.603956  0.264480  1
  Na  Na28  1  0.902988  0.753930  0.678748  1
  Na  Na29  1  0.753930  0.902988  0.178748  1
  P  P30  1  0.532383  0.752080  0.758589  1
  P  P31  1  0.752080  0.532383  0.258589  1
  P  P32  1  0.469053  0.250068  0.237792  1
  P  P33  1  0.250068  0.469053  0.737792  1
  P  P34  1  0.953204  0.042229  0.749354  1
  P  P35  1  0.042229  0.953204  0.249354  1
  Sc  Sc36  1  0.854510  0.348453  0.944525  1
  Sc  Sc37  1  0.348453  0.854510  0.444525  1
  Sc  Sc38  1  0.154984  0.649392  0.047353  1
  Sc  Sc39  1  0.649392  0.154984  0.547353  1
