# generated using pymatgen
data_Ba3Ca2(SiN3)2
_symmetry_space_group_name_H-M   'P 1'
_cell_length_a   6.14088025
_cell_length_b   6.14088025
_cell_length_c   13.46306233
_cell_angle_alpha   80.15660358
_cell_angle_beta   80.15660358
_cell_angle_gamma   68.08872708
_symmetry_Int_Tables_number   1
_chemical_formula_structural   Ba3Ca2(SiN3)2
_chemical_formula_sum   'Ba6 Ca4 Si4 N12'
_cell_volume   460.88893515
_cell_formula_units_Z   2
loop_
 _symmetry_equiv_pos_site_id
 _symmetry_equiv_pos_as_xyz
  1  'x, y, z'
loop_
 _atom_site_type_symbol
 _atom_site_label
 _atom_site_symmetry_multiplicity
 _atom_site_fract_x
 _atom_site_fract_y
 _atom_site_fract_z
 _atom_site_occupancy
  Ba  Ba0  1  0.402308  0.597692  0.250000  1
  Ba  Ba1  1  0.597692  0.402308  0.750000  1
  Ba  Ba2  1  0.797460  0.321904  0.006897  1
  Ba  Ba3  1  0.678096  0.202540  0.493103  1
  Ba  Ba4  1  0.202540  0.678096  0.993103  1
  Ba  Ba5  1  0.321904  0.797460  0.506897  1
  Ca  Ca6  1  0.088635  0.214603  0.281472  1
  Ca  Ca7  1  0.785397  0.911365  0.218528  1
  Ca  Ca8  1  0.911365  0.785397  0.718528  1
  Ca  Ca9  1  0.214603  0.088635  0.781472  1
  Si  Si10  1  0.927242  0.631215  0.420700  1
  Si  Si11  1  0.368785  0.072758  0.079300  1
  Si  Si12  1  0.072758  0.368785  0.579300  1
  Si  Si13  1  0.631215  0.927242  0.920700  1
  N  N14  1  0.982825  0.890360  0.369906  1
  N  N15  1  0.109640  0.017175  0.130094  1
  N  N16  1  0.017175  0.109640  0.630094  1
  N  N17  1  0.890360  0.982825  0.869906  1
  N  N18  1  0.195162  0.376691  0.445792  1
  N  N19  1  0.623309  0.804838  0.054208  1
  N  N20  1  0.804838  0.623309  0.554208  1
  N  N21  1  0.376691  0.195162  0.945792  1
  N  N22  1  0.767414  0.567842  0.339906  1
  N  N23  1  0.432158  0.232586  0.160094  1
  N  N24  1  0.232586  0.432158  0.660094  1
  N  N25  1  0.567842  0.767414  0.839906  1
