# generated using pymatgen
data_Yb2AlSi2
_symmetry_space_group_name_H-M   'P 1'
_cell_length_a   4.57876630
_cell_length_b   6.81435147
_cell_length_c   6.81435147
_cell_angle_alpha   90.00000000
_cell_angle_beta   90.00000000
_cell_angle_gamma   90.00000000
_symmetry_Int_Tables_number   1
_chemical_formula_structural   Yb2AlSi2
_chemical_formula_sum   'Yb4 Al2 Si4'
_cell_volume   212.61678035
_cell_formula_units_Z   2
loop_
 _symmetry_equiv_pos_site_id
 _symmetry_equiv_pos_as_xyz
  1  'x, y, z'
loop_
 _atom_site_type_symbol
 _atom_site_label
 _atom_site_symmetry_multiplicity
 _atom_site_fract_x
 _atom_site_fract_y
 _atom_site_fract_z
 _atom_site_occupancy
  Al  Al0  1  0.000000  0.500000  0.500000  1
  Al  Al1  1  0.000000  0.000000  0.000000  1
  Si  Si2  1  0.000000  0.876734  0.623266  1
  Si  Si3  1  0.000000  0.376734  0.876734  1
  Si  Si4  1  0.000000  0.123266  0.376734  1
  Si  Si5  1  0.000000  0.623266  0.123266  1
  Yb  Yb6  1  0.500000  0.825382  0.325382  1
  Yb  Yb7  1  0.500000  0.674618  0.825382  1
  Yb  Yb8  1  0.500000  0.325382  0.174618  1
  Yb  Yb9  1  0.500000  0.174618  0.674618  1
