# generated using pymatgen
data_Nd4MnSe6O
_symmetry_space_group_name_H-M   'P 1'
_cell_length_a   9.71456066
_cell_length_b   9.71456066
_cell_length_c   7.04739154
_cell_angle_alpha   90.00000000
_cell_angle_beta   90.00000000
_cell_angle_gamma   119.99999999
_symmetry_Int_Tables_number   1
_chemical_formula_structural   Nd4MnSe6O
_chemical_formula_sum   'Nd8 Mn2 Se12 O2'
_cell_volume   575.97729179
_cell_formula_units_Z   2
loop_
 _symmetry_equiv_pos_site_id
 _symmetry_equiv_pos_as_xyz
  1  'x, y, z'
loop_
 _atom_site_type_symbol
 _atom_site_label
 _atom_site_symmetry_multiplicity
 _atom_site_fract_x
 _atom_site_fract_y
 _atom_site_fract_z
 _atom_site_occupancy
  O  O0  1  0.333333  0.666667  0.958142  1
  O  O1  1  0.666667  0.333333  0.458142  1
  Mn  Mn2  1  0.000000  0.000000  0.502312  1
  Mn  Mn3  1  0.000000  0.000000  0.002312  1
  Se  Se4  1  0.468894  0.937787  0.555490  1
  Se  Se5  1  0.531106  0.062212  0.055490  1
  Se  Se6  1  0.937787  0.468894  0.055490  1
  Se  Se7  1  0.468894  0.531106  0.555490  1
  Se  Se8  1  0.062212  0.531106  0.555490  1
  Se  Se9  1  0.531106  0.468894  0.055490  1
  Se  Se10  1  0.872005  0.127995  0.734955  1
  Se  Se11  1  0.744009  0.872005  0.234955  1
  Se  Se12  1  0.127995  0.255991  0.234955  1
  Se  Se13  1  0.872005  0.744009  0.734955  1
  Se  Se14  1  0.255991  0.127995  0.734955  1
  Se  Se15  1  0.127995  0.872005  0.234955  1
  Nd  Nd16  1  0.333333  0.666667  0.293511  1
  Nd  Nd17  1  0.666667  0.333333  0.793511  1
  Nd  Nd18  1  0.798842  0.201158  0.338847  1
  Nd  Nd19  1  0.597685  0.798842  0.838847  1
  Nd  Nd20  1  0.201158  0.402315  0.838847  1
  Nd  Nd21  1  0.798842  0.597685  0.338847  1
  Nd  Nd22  1  0.402315  0.201158  0.338847  1
  Nd  Nd23  1  0.201158  0.798842  0.838847  1
