# generated using pymatgen
data_Te4MoW3Se4
_symmetry_space_group_name_H-M   'P 1'
_cell_length_a   3.43881257
_cell_length_b   3.43879624
_cell_length_c   39.14759167
_cell_angle_alpha   89.99994227
_cell_angle_beta   90.00000000
_cell_angle_gamma   120.00015700
_symmetry_Int_Tables_number   1
_chemical_formula_structural   Te4MoW3Se4
_chemical_formula_sum   'Te4 Mo1 W3 Se4'
_cell_volume   400.91281917
_cell_formula_units_Z   1
loop_
 _symmetry_equiv_pos_site_id
 _symmetry_equiv_pos_as_xyz
  1  'x, y, z'
loop_
 _atom_site_type_symbol
 _atom_site_label
 _atom_site_symmetry_multiplicity
 _atom_site_fract_x
 _atom_site_fract_y
 _atom_site_fract_z
 _atom_site_occupancy
  Te  Te0  1  0.333369  0.666740  0.329418  1
  Te  Te1  1  0.333349  0.666698  0.705169  1
  Te  Te2  1  0.333358  0.666717  0.234163  1
  Te  Te3  1  0.333348  0.666698  0.609919  1
  Mo  Mo4  1  0.333309  0.666617  0.093932  1
  W  W5  1  0.333309  0.666619  0.469650  1
  W  W6  1  0.666688  0.333377  0.281805  1
  W  W7  1  0.666686  0.333371  0.657530  1
  Se  Se8  1  0.666645  0.333289  0.052161  1
  Se  Se9  1  0.666647  0.333293  0.427766  1
  Se  Se10  1  0.666645  0.333290  0.135681  1
  Se  Se11  1  0.666647  0.333292  0.511555  1
