# generated using pymatgen
data_MgSi2O5
_symmetry_space_group_name_H-M   'P 1'
_cell_length_a   5.36628604
_cell_length_b   6.75504283
_cell_length_c   7.78182346
_cell_angle_alpha   90.00000000
_cell_angle_beta   90.01560439
_cell_angle_gamma   90.00000000
_symmetry_Int_Tables_number   1
_chemical_formula_structural   MgSi2O5
_chemical_formula_sum   'Mg4 Si8 O20'
_cell_volume   282.08713714
_cell_formula_units_Z   4
loop_
 _symmetry_equiv_pos_site_id
 _symmetry_equiv_pos_as_xyz
  1  'x, y, z'
loop_
 _atom_site_type_symbol
 _atom_site_label
 _atom_site_symmetry_multiplicity
 _atom_site_fract_x
 _atom_site_fract_y
 _atom_site_fract_z
 _atom_site_occupancy
  Mg  Mg0  1  0.000093  0.857310  0.662903  1
  Mg  Mg1  1  0.999907  0.357310  0.837097  1
  Mg  Mg2  1  0.999907  0.142690  0.337097  1
  Mg  Mg3  1  0.000093  0.642690  0.162903  1
  Si  Si4  1  0.500063  0.889930  0.353592  1
  Si  Si5  1  0.499937  0.389930  0.146408  1
  Si  Si6  1  0.499937  0.110070  0.646408  1
  Si  Si7  1  0.500063  0.610070  0.853592  1
  Si  Si8  1  0.755397  0.499926  0.500011  1
  Si  Si9  1  0.244603  -0.000074  -0.000011  1
  Si  Si10  1  0.244603  0.500074  0.499989  1
  Si  Si11  1  0.755397  0.000074  0.000011  1
  O  O12  1  0.739731  0.886515  0.205679  1
  O  O13  1  0.260269  0.386515  0.294321  1
  O  O14  1  0.260269  0.113485  0.794321  1
  O  O15  1  0.739731  0.613485  0.705679  1
  O  O16  1  0.260579  0.614038  0.705408  1
  O  O17  1  0.739421  0.114038  0.794592  1
  O  O18  1  0.739421  0.385962  0.294592  1
  O  O19  1  0.260579  0.885962  0.205408  1
  O  O20  1  0.712296  0.999809  0.500291  1
  O  O21  1  0.287704  0.499809  0.999709  1
  O  O22  1  0.287704  0.000191  0.499709  1
  O  O23  1  0.712296  0.500191  0.000291  1
  O  O24  1  0.000102  0.340771  0.561575  1
  O  O25  1  -0.000102  0.840771  0.938425  1
  O  O26  1  -0.000102  0.659229  0.438425  1
  O  O27  1  0.000102  0.159229  0.061575  1
  O  O28  1  0.500109  0.655681  0.427353  1
  O  O29  1  0.499891  0.155681  0.072647  1
  O  O30  1  0.499891  0.344319  0.572647  1
  O  O31  1  0.500109  0.844319  0.927353  1
