# generated using pymatgen
data_Mn6AgP7O24
_symmetry_space_group_name_H-M   'P 1'
_cell_length_a   5.43810344
_cell_length_b   6.65636013
_cell_length_c   27.12596288
_cell_angle_alpha   90.00000000
_cell_angle_beta   90.00000000
_cell_angle_gamma   107.45384501
_symmetry_Int_Tables_number   1
_chemical_formula_structural   Mn6AgP7O24
_chemical_formula_sum   'Mn12 Ag2 P14 O48'
_cell_volume   936.69691786
_cell_formula_units_Z   2
loop_
 _symmetry_equiv_pos_site_id
 _symmetry_equiv_pos_as_xyz
  1  'x, y, z'
loop_
 _atom_site_type_symbol
 _atom_site_label
 _atom_site_symmetry_multiplicity
 _atom_site_fract_x
 _atom_site_fract_y
 _atom_site_fract_z
 _atom_site_occupancy
  O  O0  1  0.851687  0.630322  0.022623  1
  O  O1  1  0.148314  0.369678  0.522623  1
  O  O2  1  0.148314  0.369678  0.977377  1
  O  O3  1  0.851687  0.630322  0.477377  1
  O  O4  1  0.590200  0.825237  0.974234  1
  O  O5  1  0.409799  0.174763  0.474234  1
  O  O6  1  0.409799  0.174763  0.025766  1
  O  O7  1  0.590200  0.825237  0.525766  1
  O  O8  1  0.869090  0.002967  0.047689  1
  O  O9  1  0.130909  0.997033  0.547689  1
  O  O10  1  0.130909  0.997033  0.952311  1
  O  O11  1  0.869090  0.002967  0.452311  1
  O  O12  1  0.449517  0.712706  0.057457  1
  O  O13  1  0.550483  0.287296  0.557457  1
  O  O14  1  0.141447  0.397157  0.094879  1
  O  O15  1  0.449517  0.712706  0.442543  1
  O  O16  1  0.835976  0.201278  0.750000  1
  O  O17  1  0.164023  0.798721  0.250000  1
  O  O18  1  0.370095  0.226673  0.750000  1
  O  O19  1  0.629904  0.773327  0.250000  1
  O  O20  1  0.495527  0.934296  0.703758  1
  O  O21  1  0.504472  0.065703  0.203758  1
  O  O22  1  0.504472  0.065703  0.296243  1
  O  O23  1  0.495527  0.934296  0.796242  1
  O  O24  1  0.514411  0.614026  0.147369  1
  O  O25  1  0.485588  0.385974  0.647369  1
  O  O26  1  0.485588  0.385974  0.852631  1
  O  O27  1  0.514411  0.614026  0.352631  1
  O  O28  1  0.070987  0.947924  0.664752  1
  O  O29  1  0.929012  0.052076  0.164752  1
  O  O30  1  0.929012  0.052076  0.335248  1
  O  O31  1  0.070987  0.947924  0.835248  1
  O  O32  1  0.391268  0.792710  0.619972  1
  O  O33  1  0.608732  0.207290  0.119972  1
  O  O34  1  0.608732  0.207290  0.380028  1
  O  O35  1  0.391268  0.792710  0.880028  1
  O  O36  1  0.123131  0.599761  0.693748  1
  O  O37  1  0.876868  0.400238  0.193748  1
  O  O38  1  0.876868  0.400238  0.306252  1
  O  O39  1  0.123131  0.599761  0.806252  1
  O  O40  1  0.154483  0.766010  0.122730  1
  O  O41  1  0.845516  0.233990  0.622730  1
  O  O42  1  0.845516  0.233990  0.877270  1
  O  O43  1  0.154483  0.766010  0.377270  1
  O  O44  1  0.141447  0.397157  0.405121  1
  O  O45  1  0.858552  0.602843  0.905121  1
  O  O46  1  0.858552  0.602843  0.594879  1
  O  O47  1  0.550483  0.287296  0.942543  1
  P  P48  1  0.315375  0.618046  0.109004  1
  P  P49  1  0.684626  0.381953  0.609004  1
  P  P50  1  0.684626  0.381953  0.890996  1
  P  P51  1  0.315375  0.618046  0.390996  1
  P  P52  1  0.250564  0.809041  0.832167  1
  P  P53  1  0.749437  0.190959  0.332168  1
  P  P54  1  0.749437  0.190959  0.167832  1
  P  P55  1  0.250564  0.809041  0.667832  1
  P  P56  1  0.452201  0.912883  0.250000  1
  P  P57  1  0.547798  0.087116  0.750000  1
  P  P58  1  0.706436  0.795107  0.024460  1
  P  P59  1  0.293565  0.204893  0.975540  1
  P  P60  1  0.706436  0.795107  0.475540  1
  P  P61  1  0.293565  0.204893  0.524460  1
  Mn  Mn62  1  0.811638  0.314331  0.454846  1
  Mn  Mn63  1  0.188361  0.685669  0.954846  1
  Mn  Mn64  1  0.811638  0.314331  0.045154  1
  Mn  Mn65  1  0.188361  0.685669  0.545154  1
  Mn  Mn66  1  0.793693  0.913606  0.597665  1
  Mn  Mn67  1  0.206307  0.086394  0.097665  1
  Mn  Mn68  1  0.127593  0.279341  0.817132  1
  Mn  Mn69  1  0.206307  0.086394  0.402335  1
  Mn  Mn70  1  0.872407  0.720660  0.182868  1
  Mn  Mn71  1  0.127593  0.279341  0.682868  1
  Mn  Mn72  1  0.793693  0.913606  0.902335  1
  Mn  Mn73  1  0.872407  0.720660  0.317132  1
  Ag  Ag74  1  0.773602  0.586865  0.750000  1
  Ag  Ag75  1  0.226397  0.413134  0.250000  1
