# generated using pymatgen
data_Nd3GaO6
_symmetry_space_group_name_H-M   'P 1'
_cell_length_a   5.63602960
_cell_length_b   7.44100002
_cell_length_c   7.44100002
_cell_angle_alpha   102.84611237
_cell_angle_beta   90.00000000
_cell_angle_gamma   90.00000000
_symmetry_Int_Tables_number   1
_chemical_formula_structural   Nd3GaO6
_chemical_formula_sum   'Nd6 Ga2 O12'
_cell_volume   304.24780648
_cell_formula_units_Z   2
loop_
 _symmetry_equiv_pos_site_id
 _symmetry_equiv_pos_as_xyz
  1  'x, y, z'
loop_
 _atom_site_type_symbol
 _atom_site_label
 _atom_site_symmetry_multiplicity
 _atom_site_fract_x
 _atom_site_fract_y
 _atom_site_fract_z
 _atom_site_occupancy
  O  O0  1  0.824989  0.785336  0.214664  1
  O  O1  1  0.324989  0.214664  0.785336  1
  O  O2  1  0.365641  0.958082  0.041918  1
  O  O3  1  0.865641  0.041918  0.958082  1
  O  O4  1  0.301438  0.327515  0.353814  1
  O  O5  1  0.801438  0.672485  0.646186  1
  O  O6  1  0.301438  0.646186  0.672485  1
  O  O7  1  0.801438  0.353814  0.327515  1
  O  O8  1  0.829358  0.415299  0.893327  1
  O  O9  1  0.329358  0.584701  0.106673  1
  O  O10  1  0.829358  0.106673  0.584701  1
  O  O11  1  0.329358  0.893327  0.415299  1
  Ga  Ga12  1  0.497414  0.808056  0.191944  1
  Ga  Ga13  1  0.997414  0.191944  0.808056  1
  Nd  Nd14  1  0.075526  0.603484  0.396516  1
  Nd  Nd15  1  0.575526  0.396516  0.603484  1
  Nd  Nd16  1  0.031499  0.087146  0.299623  1
  Nd  Nd17  1  0.531499  0.912854  0.700377  1
  Nd  Nd18  1  0.031499  0.700377  0.912854  1
  Nd  Nd19  1  0.531499  0.299623  0.087146  1
