# generated using pymatgen
data_KSbS2
_symmetry_space_group_name_H-M   'P 1'
_cell_length_a   6.48603969
_cell_length_b   6.48603968
_cell_length_c   6.97694976
_cell_angle_alpha   111.02034442
_cell_angle_beta   111.02034445
_cell_angle_gamma   93.73826740
_symmetry_Int_Tables_number   1
_chemical_formula_structural   KSbS2
_chemical_formula_sum   'K2 Sb2 S4'
_cell_volume   249.33622356
_cell_formula_units_Z   2
loop_
 _symmetry_equiv_pos_site_id
 _symmetry_equiv_pos_as_xyz
  1  'x, y, z'
loop_
 _atom_site_type_symbol
 _atom_site_label
 _atom_site_symmetry_multiplicity
 _atom_site_fract_x
 _atom_site_fract_y
 _atom_site_fract_z
 _atom_site_occupancy
  S  S0  1  0.219544  0.373347  0.279881  1
  S  S1  1  0.626653  0.780456  0.220119  1
  S  S2  1  0.373347  0.219544  0.779881  1
  S  S3  1  0.780456  0.626653  0.720119  1
  K  K4  1  0.857827  0.142173  0.750000  1
  K  K5  1  0.142173  0.857827  0.250000  1
  Sb  Sb6  1  0.585092  0.414908  0.250000  1
  Sb  Sb7  1  0.414908  0.585092  0.750000  1
