# generated using pymatgen
data_Sr4MoN4O
_symmetry_space_group_name_H-M   'P 1'
_cell_length_a   9.03217670
_cell_length_b   10.81229982
_cell_length_c   14.90988403
_cell_angle_alpha   90.00000000
_cell_angle_beta   90.00000000
_cell_angle_gamma   102.16645703
_symmetry_Int_Tables_number   1
_chemical_formula_structural   Sr4MoN4O
_chemical_formula_sum   'Sr32 Mo8 N32 O8'
_cell_volume   1423.37410624
_cell_formula_units_Z   8
loop_
 _symmetry_equiv_pos_site_id
 _symmetry_equiv_pos_as_xyz
  1  'x, y, z'
loop_
 _atom_site_type_symbol
 _atom_site_label
 _atom_site_symmetry_multiplicity
 _atom_site_fract_x
 _atom_site_fract_y
 _atom_site_fract_z
 _atom_site_occupancy
  N  N0  1  0.985800  0.980900  0.144745  1
  N  N1  1  0.854969  0.665894  0.250000  1
  N  N2  1  0.130944  0.213931  0.250000  1
  N  N3  1  0.869056  0.786069  0.750000  1
  N  N4  1  0.548260  0.751511  0.912033  1
  N  N5  1  0.451741  0.248489  0.412033  1
  N  N6  1  0.451741  0.248489  0.087967  1
  N  N7  1  0.548260  0.751511  0.587967  1
  N  N8  1  0.852969  0.431749  0.750000  1
  N  N9  1  0.147031  0.568251  0.250000  1
  N  N10  1  0.146016  0.576966  0.648777  1
  N  N11  1  0.853984  0.423034  0.148778  1
  N  N12  1  0.853984  0.423034  0.351222  1
  N  N13  1  0.146016  0.576966  0.851222  1
  N  N14  1  0.734327  0.052617  0.750000  1
  N  N15  1  0.265674  0.947383  0.250000  1
  N  N16  1  0.985800  0.980900  0.355254  1
  N  N17  1  0.014200  0.019100  0.855254  1
  N  N18  1  0.014200  0.019100  0.644745  1
  N  N19  1  0.687338  0.123888  0.993329  1
  N  N20  1  0.426721  0.199634  0.612465  1
  N  N21  1  0.573278  0.800366  0.112465  1
  N  N22  1  0.573278  0.800366  0.387535  1
  N  N23  1  0.426721  0.199634  0.887535  1
  N  N24  1  0.313182  0.587759  0.456204  1
  N  N25  1  0.686818  0.412241  0.956204  1
  N  N26  1  0.686818  0.412241  0.543797  1
  N  N27  1  0.313182  0.587759  0.043797  1
  N  N28  1  0.687338  0.123888  0.506670  1
  N  N29  1  0.312663  0.876112  0.006671  1
  N  N30  1  0.312663  0.876112  0.493329  1
  N  N31  1  0.145031  0.334106  0.750000  1
  O  O32  1  0.088062  0.292384  0.002548  1
  O  O33  1  0.911937  0.707616  0.502548  1
  O  O34  1  0.911937  0.707616  0.997452  1
  O  O35  1  0.088062  0.292384  0.497452  1
  O  O36  1  0.483432  0.486963  0.250000  1
  O  O37  1  0.516567  0.513037  0.750000  1
  O  O38  1  0.318372  0.902773  0.750000  1
  O  O39  1  0.681628  0.097227  0.250000  1
  Sr  Sr40  1  0.263235  0.391117  0.360383  1
  Sr  Sr41  1  0.736765  0.608883  0.860383  1
  Sr  Sr42  1  0.736765  0.608883  0.639617  1
  Sr  Sr43  1  0.263235  0.391117  0.139617  1
  Sr  Sr44  1  0.904879  0.223780  0.627321  1
  Sr  Sr45  1  0.095121  0.776220  0.127321  1
  Sr  Sr46  1  0.095121  0.776220  0.372678  1
  Sr  Sr47  1  0.904879  0.223780  0.872678  1
  Sr  Sr48  1  0.515273  0.983276  0.630854  1
  Sr  Sr49  1  0.484728  0.016724  0.130853  1
  Sr  Sr50  1  0.484728  0.016724  0.369147  1
  Sr  Sr51  1  0.515273  0.983276  0.869147  1
  Sr  Sr52  1  1.000000  0.500000  0.500000  1
  Sr  Sr53  1  1.000000  0.500000  0.000000  1
  Sr  Sr54  1  0.798595  0.893739  0.500264  1
  Sr  Sr55  1  0.201406  0.106261  0.000264  1
  Sr  Sr56  1  0.201406  0.106261  0.499736  1
  Sr  Sr57  1  0.798595  0.893739  0.999736  1
  Sr  Sr58  1  0.760053  0.873643  0.250000  1
  Sr  Sr59  1  0.239947  0.126357  0.750000  1
  Sr  Sr60  1  0.597786  0.305317  0.250000  1
  Sr  Sr61  1  0.672403  0.565550  0.103715  1
  Sr  Sr62  1  0.672403  0.565550  0.396285  1
  Sr  Sr63  1  0.327596  0.434450  0.896285  1
  Sr  Sr64  1  0.887142  0.197760  0.373788  1
  Sr  Sr65  1  0.112859  0.802240  0.873788  1
  Sr  Sr66  1  0.112859  0.802240  0.626212  1
  Sr  Sr67  1  0.887142  0.197760  0.126212  1
  Sr  Sr68  1  0.592196  0.316045  0.750000  1
  Sr  Sr69  1  0.407804  0.683955  0.250000  1
  Sr  Sr70  1  0.402214  0.694683  0.750000  1
  Sr  Sr71  1  0.327596  0.434450  0.603715  1
  Mo  Mo72  1  0.934603  0.517156  0.250000  1
  Mo  Mo73  1  0.065397  0.482844  0.750000  1
  Mo  Mo74  1  0.429750  0.747298  0.483321  1
  Mo  Mo75  1  0.570249  0.252701  0.983321  1
  Mo  Mo76  1  0.570249  0.252701  0.516679  1
  Mo  Mo77  1  0.429750  0.747298  0.016679  1
  Mo  Mo78  1  0.895857  0.962466  0.750000  1
  Mo  Mo79  1  0.104143  0.037534  0.250000  1
