# generated using pymatgen
data_Te2Mo3W(Se2S)2
_symmetry_space_group_name_H-M   'P 1'
_cell_length_a   3.34248813
_cell_length_b   3.34252711
_cell_length_c   39.92948630
_cell_angle_alpha   89.99947106
_cell_angle_beta   90.00000000
_cell_angle_gamma   119.99961433
_symmetry_Int_Tables_number   1
_chemical_formula_structural   Te2Mo3W(Se2S)2
_chemical_formula_sum   'Te2 Mo3 W1 Se4 S2'
_cell_volume   386.34104880
_cell_formula_units_Z   1
loop_
 _symmetry_equiv_pos_site_id
 _symmetry_equiv_pos_as_xyz
  1  'x, y, z'
loop_
 _atom_site_type_symbol
 _atom_site_label
 _atom_site_symmetry_multiplicity
 _atom_site_fract_x
 _atom_site_fract_y
 _atom_site_fract_z
 _atom_site_occupancy
  Te  Te0  1  0.666687  0.333372  0.422021  1
  Te  Te1  1  0.666691  0.333381  0.517016  1
  Mo  Mo2  1  0.333402  0.666804  0.093949  1
  Mo  Mo3  1  0.333356  0.666713  0.469508  1
  Mo  Mo4  1  0.666643  0.333286  0.280889  1
  W  W5  1  0.666555  0.333110  0.658590  1
  Se  Se6  1  0.333273  0.666546  0.322622  1
  Se  Se7  1  0.333285  0.666571  0.700525  1
  Se  Se8  1  0.333350  0.666700  0.239061  1
  Se  Se9  1  0.333188  0.666377  0.616701  1
  S  S10  1  0.666791  0.333581  0.055964  1
  S  S11  1  0.666780  0.333558  0.131903  1
