# generated using pymatgen
data_K7Nb(SO4)6
_symmetry_space_group_name_H-M   'P 1'
_cell_length_a   9.45984880
_cell_length_b   9.45984879
_cell_length_c   9.45984880
_cell_angle_alpha   109.45361719
_cell_angle_beta   109.45361725
_cell_angle_gamma   109.45361722
_symmetry_Int_Tables_number   1
_chemical_formula_structural   K7Nb(SO4)6
_chemical_formula_sum   'K7 Nb1 S6 O24'
_cell_volume   652.09883174
_cell_formula_units_Z   1
loop_
 _symmetry_equiv_pos_site_id
 _symmetry_equiv_pos_as_xyz
  1  'x, y, z'
loop_
 _atom_site_type_symbol
 _atom_site_label
 _atom_site_symmetry_multiplicity
 _atom_site_fract_x
 _atom_site_fract_y
 _atom_site_fract_z
 _atom_site_occupancy
  O  O0  1  0.571149  0.090177  0.832792  1
  O  O1  1  0.090176  0.832792  0.571147  1
  O  O2  1  0.832792  0.571147  0.090177  1
  O  O3  1  0.428852  0.909823  0.167208  1
  O  O4  1  0.909824  0.167208  0.428853  1
  O  O5  1  0.167208  0.428853  0.909824  1
  O  O6  1  0.686030  0.015036  0.639344  1
  O  O7  1  0.015037  0.639345  0.686030  1
  O  O8  1  0.639344  0.686030  0.015037  1
  O  O9  1  0.313971  0.984964  0.360657  1
  O  O10  1  0.984963  0.360655  0.313970  1
  O  O11  1  0.360656  0.313970  0.984964  1
  O  O12  1  0.234746  0.022906  0.107314  1
  O  O13  1  0.022905  0.107314  0.234745  1
  O  O14  1  0.353607  0.525821  0.212881  1
  O  O15  1  0.212881  0.353607  0.525821  1
  O  O16  1  0.525821  0.212882  0.353608  1
  O  O17  1  0.646393  0.474179  0.787120  1
  O  O18  1  0.787119  0.646393  0.474178  1
  O  O19  1  0.107314  0.234746  0.022905  1
  O  O20  1  0.892686  0.765254  0.977094  1
  O  O21  1  0.977094  0.892685  0.765254  1
  O  O22  1  0.765254  0.977094  0.892686  1
  O  O23  1  0.474178  0.787118  0.646392  1
  S  S24  1  0.032012  0.255693  0.383338  1
  S  S25  1  0.255693  0.383338  0.032011  1
  S  S26  1  0.383337  0.032011  0.255693  1
  S  S27  1  0.967989  0.744308  0.616662  1
  S  S28  1  0.744307  0.616662  0.967989  1
  S  S29  1  0.616663  0.967989  0.744307  1
  K  K30  1  0.500000  0.499999  0.500000  1
  K  K31  1  0.678023  0.837376  0.335350  1
  K  K32  1  0.664651  0.321978  0.162624  1
  K  K33  1  0.321978  0.162624  0.664651  1
  K  K34  1  0.837376  0.335349  0.678022  1
  K  K35  1  0.335350  0.678022  0.837377  1
  K  K36  1  0.162624  0.664651  0.321978  1
  Nb  Nb37  1  0.000000  0.000000  0.000000  1
