# generated using pymatgen
data_Te2Mo3W(Se2S)2
_symmetry_space_group_name_H-M   'P 1'
_cell_length_a   3.34436207
_cell_length_b   3.34455100
_cell_length_c   38.04925256
_cell_angle_alpha   90.00005972
_cell_angle_beta   90.00000000
_cell_angle_gamma   119.99813152
_symmetry_Int_Tables_number   1
_chemical_formula_structural   Te2Mo3W(Se2S)2
_chemical_formula_sum   'Te2 Mo3 W1 Se4 S2'
_cell_volume   368.58363578
_cell_formula_units_Z   1
loop_
 _symmetry_equiv_pos_site_id
 _symmetry_equiv_pos_as_xyz
  1  'x, y, z'
loop_
 _atom_site_type_symbol
 _atom_site_label
 _atom_site_symmetry_multiplicity
 _atom_site_fract_x
 _atom_site_fract_y
 _atom_site_fract_z
 _atom_site_occupancy
  Te  Te0  1  0.333353  0.666706  0.331663  1
  Te  Te1  1  0.333356  0.666713  0.231881  1
  Mo  Mo2  1  0.333292  0.666585  0.093914  1
  Mo  Mo3  1  0.333310  0.666620  0.469676  1
  Mo  Mo4  1  0.666693  0.333386  0.281759  1
  W  W5  1  0.666691  0.333382  0.657527  1
  Se  Se6  1  0.333352  0.666704  0.701514  1
  Se  Se7  1  0.666648  0.333295  0.425920  1
  Se  Se8  1  0.666650  0.333298  0.513475  1
  Se  Se9  1  0.333351  0.666702  0.613563  1
  S  S10  1  0.666647  0.333293  0.054067  1
  S  S11  1  0.666658  0.333315  0.133790  1
