# generated using pymatgen
data_Te4MoW3(SeS)2
_symmetry_space_group_name_H-M   'P 1'
_cell_length_a   3.39526541
_cell_length_b   3.39525591
_cell_length_c   38.85466716
_cell_angle_alpha   90.00008619
_cell_angle_beta   89.99991921
_cell_angle_gamma   119.99998934
_symmetry_Int_Tables_number   1
_chemical_formula_structural   Te4MoW3(SeS)2
_chemical_formula_sum   'Te4 Mo1 W3 Se2 S2'
_cell_volume   387.90029938
_cell_formula_units_Z   1
loop_
 _symmetry_equiv_pos_site_id
 _symmetry_equiv_pos_as_xyz
  1  'x, y, z'
loop_
 _atom_site_type_symbol
 _atom_site_label
 _atom_site_symmetry_multiplicity
 _atom_site_fract_x
 _atom_site_fract_y
 _atom_site_fract_z
 _atom_site_occupancy
  Te  Te0  1  0.666637  0.333272  0.045659  1
  Te  Te1  1  0.666647  0.333293  0.421162  1
  Te  Te2  1  0.666648  0.333296  0.142173  1
  Te  Te3  1  0.666649  0.333298  0.518211  1
  Mo  Mo4  1  0.333306  0.666611  0.093894  1
  W  W5  1  0.333312  0.666623  0.469665  1
  W  W6  1  0.666687  0.333375  0.281773  1
  W  W7  1  0.666694  0.333389  0.657530  1
  Se  Se8  1  0.333350  0.666701  0.324475  1
  Se  Se9  1  0.333355  0.666710  0.239125  1
  S  S10  1  0.333360  0.666722  0.696322  1
  S  S11  1  0.333356  0.666709  0.618760  1
