# generated using pymatgen
data_Ca(Al4Co)2
_symmetry_space_group_name_H-M   'P 1'
_cell_length_a   3.95568682
_cell_length_b   12.47225101
_cell_length_c   14.50604106
_cell_angle_alpha   90.00000000
_cell_angle_beta   90.00000000
_cell_angle_gamma   90.00000000
_symmetry_Int_Tables_number   1
_chemical_formula_structural   Ca(Al4Co)2
_chemical_formula_sum   'Ca4 Al32 Co8'
_cell_volume   715.67466823
_cell_formula_units_Z   4
loop_
 _symmetry_equiv_pos_site_id
 _symmetry_equiv_pos_as_xyz
  1  'x, y, z'
loop_
 _atom_site_type_symbol
 _atom_site_label
 _atom_site_symmetry_multiplicity
 _atom_site_fract_x
 _atom_site_fract_y
 _atom_site_fract_z
 _atom_site_occupancy
  Ca  Ca0  1  0.500000  0.158964  0.681085  1
  Ca  Ca1  1  0.500000  0.841036  0.318915  1
  Ca  Ca2  1  0.500000  0.658964  0.818915  1
  Ca  Ca3  1  0.500000  0.341036  0.181085  1
  Al  Al4  1  0.000000  0.736174  0.173516  1
  Al  Al5  1  0.500000  0.403457  0.745288  1
  Al  Al6  1  0.500000  0.161270  0.954787  1
  Al  Al7  1  0.000000  0.525665  0.133088  1
  Al  Al8  1  0.500000  0.500000  0.000000  1
  Al  Al9  1  0.500000  0.096543  0.245288  1
  Al  Al10  1  0.000000  0.451954  0.320651  1
  Al  Al11  1  0.500000  0.338730  0.454787  1
  Al  Al12  1  0.500000  0.903457  0.754712  1
  Al  Al13  1  0.000000  0.025665  0.366912  1
  Al  Al14  1  0.000000  0.168322  0.507011  1
  Al  Al15  1  0.000000  0.160681  0.118876  1
  Al  Al16  1  0.000000  0.236174  0.326484  1
  Al  Al17  1  0.000000  0.831678  0.492989  1
  Al  Al18  1  0.500000  0.838730  0.045213  1
  Al  Al19  1  0.000000  0.974335  0.633088  1
  Al  Al20  1  0.000000  0.763826  0.673516  1
  Al  Al21  1  0.000000  0.474335  0.866912  1
  Al  Al22  1  0.000000  0.660681  0.381124  1
  Al  Al23  1  0.000000  0.500000  0.500000  1
  Al  Al24  1  0.000000  0.839319  0.881124  1
  Al  Al25  1  0.000000  0.263826  0.826484  1
  Al  Al26  1  0.000000  0.951954  0.179349  1
  Al  Al27  1  0.000000  0.339319  0.618876  1
  Al  Al28  1  0.500000  0.596543  0.254712  1
  Al  Al29  1  0.000000  0.668322  0.992989  1
  Al  Al30  1  0.000000  0.331678  0.007011  1
  Al  Al31  1  0.500000  0.661270  0.545213  1
  Al  Al32  1  0.000000  0.000000  0.000000  1
  Al  Al33  1  0.000000  0.548046  0.679349  1
  Al  Al34  1  0.000000  0.048046  0.820651  1
  Al  Al35  1  0.500000  0.000000  0.500000  1
  Co  Co36  1  0.500000  0.850409  0.598366  1
  Co  Co37  1  0.500000  0.034511  0.092896  1
  Co  Co38  1  0.500000  0.149591  0.401634  1
  Co  Co39  1  0.500000  0.965489  0.907104  1
  Co  Co40  1  0.500000  0.534511  0.407104  1
  Co  Co41  1  0.500000  0.465489  0.592896  1
  Co  Co42  1  0.500000  0.649591  0.098366  1
  Co  Co43  1  0.500000  0.350409  0.901634  1
