# generated using pymatgen
data_YbCl3
_symmetry_space_group_name_H-M   'P 1'
_cell_length_a   5.76515156
_cell_length_b   6.70127019
_cell_length_c   7.86583120
_cell_angle_alpha   64.78770821
_cell_angle_beta   75.98832876
_cell_angle_gamma   55.36189609
_symmetry_Int_Tables_number   1
_chemical_formula_structural   YbCl3
_chemical_formula_sum   'Yb2 Cl6'
_cell_volume   226.20729409
_cell_formula_units_Z   2
loop_
 _symmetry_equiv_pos_site_id
 _symmetry_equiv_pos_as_xyz
  1  'x, y, z'
loop_
 _atom_site_type_symbol
 _atom_site_label
 _atom_site_symmetry_multiplicity
 _atom_site_fract_x
 _atom_site_fract_y
 _atom_site_fract_z
 _atom_site_occupancy
  Yb  Yb0  1  0.000000  0.159440  0.681120  1
  Yb  Yb1  1  1.000000  0.840560  0.318880  1
  Cl  Cl2  1  0.251388  0.071975  0.352060  1
  Cl  Cl3  1  0.748612  0.928025  0.647940  1
  Cl  Cl4  1  0.748612  0.575965  0.352060  1
  Cl  Cl5  1  0.251388  0.424035  0.647940  1
  Cl  Cl6  1  0.258693  0.745408  0.000000  1
  Cl  Cl7  1  0.741307  0.254592  1.000000  1
