# generated using pymatgen
data_CeSe2
_symmetry_space_group_name_H-M   'P 1'
_cell_length_a   4.18603422
_cell_length_b   4.18604070
_cell_length_c   25.69201173
_cell_angle_alpha   89.99882453
_cell_angle_beta   90.00100313
_cell_angle_gamma   119.99930281
_symmetry_Int_Tables_number   1
_chemical_formula_structural   CeSe2
_chemical_formula_sum   'Ce4 Se8'
_cell_volume   389.88633556
_cell_formula_units_Z   4
loop_
 _symmetry_equiv_pos_site_id
 _symmetry_equiv_pos_as_xyz
  1  'x, y, z'
loop_
 _atom_site_type_symbol
 _atom_site_label
 _atom_site_symmetry_multiplicity
 _atom_site_fract_x
 _atom_site_fract_y
 _atom_site_fract_z
 _atom_site_occupancy
  Ce  Ce0  1  0.999999  0.000004  0.499984  1
  Ce  Ce1  1  1.000000  1.000000  1.000017  1
  Ce  Ce2  1  0.999975  0.000022  0.749959  1
  Ce  Ce3  1  0.000029  0.999971  0.250040  1
  Se  Se4  1  0.666669  0.333332  0.559155  1
  Se  Se5  1  0.333330  0.666671  0.440872  1
  Se  Se6  1  0.333340  0.666660  0.059130  1
  Se  Se7  1  0.666656  0.333344  0.940846  1
  Se  Se8  1  0.333303  0.666696  0.685766  1
  Se  Se9  1  0.666691  0.333308  0.314237  1
  Se  Se10  1  0.666683  0.333317  0.185844  1
  Se  Se11  1  0.333324  0.666675  0.814150  1
