# generated using pymatgen
data_Ca2MnAlO5
_symmetry_space_group_name_H-M   'P 1'
_cell_length_a   5.35092660
_cell_length_b   5.61678934
_cell_length_c   8.37289784
_cell_angle_alpha   109.59585090
_cell_angle_beta   108.63501826
_cell_angle_gamma   90.00000004
_symmetry_Int_Tables_number   1
_chemical_formula_structural   Ca2MnAlO5
_chemical_formula_sum   'Ca4 Mn2 Al2 O10'
_cell_volume   223.01907257
_cell_formula_units_Z   2
loop_
 _symmetry_equiv_pos_site_id
 _symmetry_equiv_pos_as_xyz
  1  'x, y, z'
loop_
 _atom_site_type_symbol
 _atom_site_label
 _atom_site_symmetry_multiplicity
 _atom_site_fract_x
 _atom_site_fract_y
 _atom_site_fract_z
 _atom_site_occupancy
  O  O0  1  0.619634  0.395399  0.500005  1
  O  O1  1  0.119630  0.604601  0.499995  1
  O  O2  1  0.614458  0.721760  0.297166  1
  O  O3  1  0.317293  0.278240  0.702835  1
  O  O4  1  0.114478  0.075425  0.297190  1
  O  O5  1  0.817287  0.924575  0.702810  1
  O  O6  1  0.236270  0.739237  0.970875  1
  O  O7  1  0.265396  0.260763  0.029125  1
  O  O8  1  0.765426  0.268392  0.029174  1
  O  O9  1  0.736253  0.731608  0.970826  1
  Al  Al10  1  0.287193  0.323235  0.500011  1
  Al  Al11  1  0.787182  0.676765  0.499989  1
  Ca  Ca12  1  0.122118  0.641693  0.223332  1
  Ca  Ca13  1  0.398741  0.918354  0.776667  1
  Ca  Ca14  1  0.898786  0.358307  0.776668  1
  Ca  Ca15  1  0.622074  0.081646  0.223333  1
  Mn  Mn16  1  0.498999  0.500000  0.000000  1
  Mn  Mn17  1  0.998982  0.000000  0.000000  1
