# generated using pymatgen
data_BaVO3
_symmetry_space_group_name_H-M   'P 1'
_cell_length_a   5.77792957
_cell_length_b   5.77792957
_cell_length_c   11.74099691
_cell_angle_alpha   90.00000000
_cell_angle_beta   90.00000000
_cell_angle_gamma   120.00000004
_symmetry_Int_Tables_number   1
_chemical_formula_structural   BaVO3
_chemical_formula_sum   'Ba5 V5 O15'
_cell_volume   339.45334529
_cell_formula_units_Z   5
loop_
 _symmetry_equiv_pos_site_id
 _symmetry_equiv_pos_as_xyz
  1  'x, y, z'
loop_
 _atom_site_type_symbol
 _atom_site_label
 _atom_site_symmetry_multiplicity
 _atom_site_fract_x
 _atom_site_fract_y
 _atom_site_fract_z
 _atom_site_occupancy
  O  O0  1  0.850012  0.149989  0.399471  1
  O  O1  1  0.850011  0.700023  0.399471  1
  O  O2  1  0.299976  0.149989  0.399471  1
  O  O3  1  0.700024  0.850012  0.600528  1
  O  O4  1  0.149989  0.299978  0.600528  1
  O  O5  1  0.149988  0.850012  0.600528  1
  O  O6  1  0.833586  0.166413  0.800223  1
  O  O7  1  0.833586  0.667173  0.800223  1
  O  O8  1  0.332826  0.166413  0.800223  1
  O  O9  1  0.667173  0.833586  0.199777  1
  O  O10  1  0.500000  0.000000  0.000000  1
  O  O11  1  0.999999  0.500000  0.000000  1
  O  O12  1  0.166414  0.332827  0.199777  1
  O  O13  1  0.166413  0.833586  0.199777  1
  O  O14  1  0.500001  0.500000  0.000000  1
  V  V15  1  0.000000  0.000000  0.500000  1
  V  V16  1  0.666667  0.333334  0.908335  1
  V  V17  1  0.333334  0.666667  0.091665  1
  V  V18  1  0.000000  0.000000  0.276553  1
  V  V19  1  0.000000  0.000000  0.723446  1
  Ba  Ba20  1  0.666667  0.333334  0.594407  1
  Ba  Ba21  1  0.333334  0.666667  0.405593  1
  Ba  Ba22  1  0.666667  0.333334  0.210015  1
  Ba  Ba23  1  0.333334  0.666667  0.789985  1
  Ba  Ba24  1  0.000000  0.000000  0.000000  1
