# generated using pymatgen
data_Li5FeO4
_symmetry_space_group_name_H-M   'P 1'
_cell_length_a   9.26085221
_cell_length_b   9.30651675
_cell_length_c   9.31320793
_cell_angle_alpha   90.00000000
_cell_angle_beta   90.00000000
_cell_angle_gamma   90.00000000
_symmetry_Int_Tables_number   1
_chemical_formula_structural   Li5FeO4
_chemical_formula_sum   'Li40 Fe8 O32'
_cell_volume   802.67071107
_cell_formula_units_Z   8
loop_
 _symmetry_equiv_pos_site_id
 _symmetry_equiv_pos_as_xyz
  1  'x, y, z'
loop_
 _atom_site_type_symbol
 _atom_site_label
 _atom_site_symmetry_multiplicity
 _atom_site_fract_x
 _atom_site_fract_y
 _atom_site_fract_z
 _atom_site_occupancy
  Li  Li0  1  0.103484  0.617719  0.843921  1
  Li  Li1  1  0.603484  0.382281  0.656080  1
  Li  Li2  1  0.396516  0.117718  0.156079  1
  Li  Li3  1  0.896517  0.882281  0.343920  1
  Li  Li4  1  0.896517  0.382281  0.156079  1
  Li  Li5  1  0.396516  0.617719  0.343920  1
  Li  Li6  1  0.603484  0.882281  0.843921  1
  Li  Li7  1  0.103484  0.117718  0.656080  1
  Li  Li8  1  0.162245  0.390247  0.618533  1
  Li  Li9  1  0.662245  0.609753  0.881466  1
  Li  Li10  1  0.337755  0.890247  0.381467  1
  Li  Li11  1  0.837756  0.109752  0.118534  1
  Li  Li12  1  0.837756  0.609753  0.381467  1
  Li  Li13  1  0.337755  0.390247  0.118534  1
  Li  Li14  1  0.662245  0.109752  0.618533  1
  Li  Li15  1  0.162245  0.890247  0.881466  1
  Li  Li16  1  0.893075  0.627355  0.647023  1
  Li  Li17  1  0.393074  0.372645  0.852976  1
  Li  Li18  1  0.606926  0.127356  0.352977  1
  Li  Li19  1  0.875435  0.646391  0.120251  1
  Li  Li20  1  0.106926  0.372645  0.352977  1
  Li  Li21  1  0.606926  0.627355  0.147024  1
  Li  Li22  1  0.393074  0.872645  0.647023  1
  Li  Li23  1  0.893075  0.127356  0.852976  1
  Li  Li24  1  0.857279  0.388384  0.893068  1
  Li  Li25  1  0.357280  0.611615  0.606933  1
  Li  Li26  1  0.642721  0.888385  0.106932  1
  Li  Li27  1  0.142720  0.111616  0.393067  1
  Li  Li28  1  0.142720  0.611615  0.106932  1
  Li  Li29  1  0.642721  0.388384  0.393067  1
  Li  Li30  1  0.357280  0.111616  0.893068  1
  Li  Li31  1  0.857279  0.888385  0.606933  1
  Li  Li32  1  0.875435  0.146391  0.379748  1
  Li  Li33  1  0.375434  0.853609  0.120251  1
  Li  Li34  1  0.624566  0.646391  0.620251  1
  Li  Li35  1  0.124566  0.353609  0.879749  1
  Li  Li36  1  0.124566  0.853609  0.620251  1
  Li  Li37  1  0.624566  0.146391  0.879749  1
  Li  Li38  1  0.375434  0.353609  0.379748  1
  Li  Li39  1  0.106926  0.872645  0.147024  1
  O  O40  1  0.754380  0.493982  0.534151  1
  O  O41  1  0.254380  0.506018  0.965848  1
  O  O42  1  0.745620  0.993982  0.465849  1
  O  O43  1  0.245620  0.006018  0.034152  1
  O  O44  1  0.245620  0.506018  0.465849  1
  O  O45  1  0.745620  0.493982  0.034152  1
  O  O46  1  0.254380  0.006018  0.534151  1
  O  O47  1  0.754380  0.993982  0.965848  1
  O  O48  1  0.998939  0.467455  0.743547  1
  O  O49  1  0.498938  0.532544  0.756453  1
  O  O50  1  0.501062  0.967456  0.256453  1
  O  O51  1  0.001062  0.032545  0.243547  1
  O  O52  1  0.001062  0.532544  0.256453  1
  O  O53  1  0.501062  0.467455  0.243547  1
  O  O54  1  0.498938  0.032545  0.743547  1
  O  O55  1  0.998939  0.967456  0.756453  1
  O  O56  1  0.758990  0.251933  0.745939  1
  O  O57  1  0.258990  0.748067  0.754062  1
  O  O58  1  0.741010  0.751933  0.254061  1
  O  O59  1  0.241010  0.248067  0.245938  1
  O  O60  1  0.016695  0.749072  0.995783  1
  O  O61  1  0.741010  0.251933  0.245938  1
  O  O62  1  0.258990  0.248067  0.745939  1
  O  O63  1  0.758990  0.751933  0.754062  1
  O  O64  1  0.016695  0.249072  0.504216  1
  O  O65  1  0.516695  0.750928  0.995783  1
  O  O66  1  0.483306  0.749072  0.495784  1
  O  O67  1  0.983305  0.250928  0.004217  1
  O  O68  1  0.983305  0.750928  0.495784  1
  O  O69  1  0.483306  0.249072  0.004217  1
  O  O70  1  0.516695  0.250928  0.504216  1
  O  O71  1  0.241010  0.748067  0.254061  1
  Fe  Fe72  1  0.881957  0.354115  0.616370  1
  Fe  Fe73  1  0.381957  0.645885  0.883630  1
  Fe  Fe74  1  0.618043  0.854115  0.383630  1
  Fe  Fe75  1  0.118043  0.145886  0.116370  1
  Fe  Fe76  1  0.118043  0.645885  0.383630  1
  Fe  Fe77  1  0.618043  0.354115  0.116370  1
  Fe  Fe78  1  0.381957  0.145886  0.616370  1
  Fe  Fe79  1  0.881957  0.854115  0.883630  1
