# generated using pymatgen
data_K3SbO4
_symmetry_space_group_name_H-M   'P 1'
_cell_length_a   5.78026948
_cell_length_b   6.63620242
_cell_length_c   7.47660121
_cell_angle_alpha   90.00000000
_cell_angle_beta   90.00000000
_cell_angle_gamma   108.48442400
_symmetry_Int_Tables_number   1
_chemical_formula_structural   K3SbO4
_chemical_formula_sum   'K6 Sb2 O8'
_cell_volume   271.99943182
_cell_formula_units_Z   2
loop_
 _symmetry_equiv_pos_site_id
 _symmetry_equiv_pos_as_xyz
  1  'x, y, z'
loop_
 _atom_site_type_symbol
 _atom_site_label
 _atom_site_symmetry_multiplicity
 _atom_site_fract_x
 _atom_site_fract_y
 _atom_site_fract_z
 _atom_site_occupancy
  O  O0  1  0.994347  0.668535  0.912742  1
  O  O1  1  0.505653  0.331465  0.912742  1
  O  O2  1  0.571531  0.291495  0.295665  1
  O  O3  1  0.928469  0.708505  0.295665  1
  O  O4  1  0.428469  0.708505  0.704335  1
  O  O5  1  0.071531  0.291495  0.704335  1
  O  O6  1  0.005653  0.331465  0.087258  1
  O  O7  1  0.494347  0.668535  0.087258  1
  K  K8  1  0.750000  0.000000  0.374604  1
  K  K9  1  0.250000  0.000000  0.625396  1
  K  K10  1  0.250000  0.500000  0.388684  1
  K  K11  1  0.750000  0.500000  0.611316  1
  K  K12  1  0.250000  0.000000  0.108797  1
  K  K13  1  0.750000  0.000000  0.891203  1
  Sb  Sb14  1  0.750000  0.500000  0.113349  1
  Sb  Sb15  1  0.250000  0.500000  0.886651  1
