# generated using pymatgen
data_K2Co(SeO3)2
_symmetry_space_group_name_H-M   'P 1'
_cell_length_a   7.06334089
_cell_length_b   7.11765035
_cell_length_c   7.08149706
_cell_angle_alpha   46.39696741
_cell_angle_beta   46.77866832
_cell_angle_gamma   46.52884487
_symmetry_Int_Tables_number   1
_chemical_formula_structural   K2Co(SeO3)2
_chemical_formula_sum   'K2 Co1 Se2 O6'
_cell_volume   171.45432597
_cell_formula_units_Z   1
loop_
 _symmetry_equiv_pos_site_id
 _symmetry_equiv_pos_as_xyz
  1  'x, y, z'
loop_
 _atom_site_type_symbol
 _atom_site_label
 _atom_site_symmetry_multiplicity
 _atom_site_fract_x
 _atom_site_fract_y
 _atom_site_fract_z
 _atom_site_occupancy
  K  K0  1  0.805615  0.805102  0.805582  1
  K  K1  1  0.194386  0.194898  0.194418  1
  Co  Co2  1  0.000000  0.000000  0.000000  1
  Se  Se3  1  0.632080  0.631103  0.631120  1
  Se  Se4  1  0.367920  0.368899  0.368877  1
  O  O5  1  0.243530  0.731981  0.243619  1
  O  O6  1  0.756470  0.268019  0.756382  1
  O  O7  1  0.269824  0.752788  0.754545  1
  O  O8  1  0.730176  0.247212  0.245455  1
  O  O9  1  0.244907  0.246415  0.731022  1
  O  O10  1  0.755093  0.753584  0.268980  1
