# generated using pymatgen
data_K9Ni2O7
_symmetry_space_group_name_H-M   'P 1'
_cell_length_a   11.02154605
_cell_length_b   11.02154605
_cell_length_c   11.02154605
_cell_angle_alpha   90.00000000
_cell_angle_beta   90.00000000
_cell_angle_gamma   90.00000000
_symmetry_Int_Tables_number   1
_chemical_formula_structural   K9Ni2O7
_chemical_formula_sum   'K36 Ni8 O28'
_cell_volume   1338.83654582
_cell_formula_units_Z   4
loop_
 _symmetry_equiv_pos_site_id
 _symmetry_equiv_pos_as_xyz
  1  'x, y, z'
loop_
 _atom_site_type_symbol
 _atom_site_label
 _atom_site_symmetry_multiplicity
 _atom_site_fract_x
 _atom_site_fract_y
 _atom_site_fract_z
 _atom_site_occupancy
  O  O0  1  0.198209  0.301791  0.698209  1
  O  O1  1  0.301791  0.698209  0.198209  1
  O  O2  1  0.698209  0.198209  0.301791  1
  O  O3  1  0.801791  0.801791  0.801791  1
  O  O4  1  0.919753  0.557210  0.182567  1
  O  O5  1  0.419753  0.942790  0.817433  1
  O  O6  1  0.080247  0.057210  0.317433  1
  O  O7  1  0.942790  0.817433  0.419753  1
  O  O8  1  0.317433  0.080247  0.057210  1
  O  O9  1  0.817433  0.419753  0.942790  1
  O  O10  1  0.557210  0.182567  0.919753  1
  O  O11  1  0.182567  0.919753  0.557210  1
  O  O12  1  0.057210  0.317433  0.080247  1
  O  O13  1  0.442790  0.682567  0.580247  1
  O  O14  1  0.682567  0.580247  0.442790  1
  O  O15  1  0.580247  0.442790  0.682567  1
  O  O16  1  0.564911  0.658245  0.091588  1
  O  O17  1  0.064911  0.841756  0.908413  1
  O  O18  1  0.435088  0.158244  0.408413  1
  O  O19  1  0.841756  0.908413  0.064911  1
  O  O20  1  0.408413  0.435088  0.158244  1
  O  O21  1  0.908413  0.064911  0.841756  1
  O  O22  1  0.658245  0.091588  0.564911  1
  O  O23  1  0.091588  0.564911  0.658245  1
  O  O24  1  0.158244  0.408413  0.435088  1
  O  O25  1  0.341756  0.591588  0.935088  1
  O  O26  1  0.591588  0.935088  0.341756  1
  O  O27  1  0.935088  0.341756  0.591588  1
  K  K28  1  0.003646  0.289658  0.837943  1
  K  K29  1  0.461124  0.217512  0.666012  1
  K  K30  1  0.782488  0.166012  0.038876  1
  K  K31  1  0.282488  0.333988  0.961124  1
  K  K32  1  0.038876  0.782488  0.166012  1
  K  K33  1  0.333988  0.961124  0.282488  1
  K  K34  1  0.166012  0.038876  0.782488  1
  K  K35  1  0.666012  0.461124  0.217512  1
  K  K36  1  0.402266  0.402266  0.402266  1
  K  K37  1  0.097734  0.597734  0.902266  1
  K  K38  1  0.902266  0.097734  0.597734  1
  K  K39  1  0.597734  0.902266  0.097734  1
  K  K40  1  0.066098  0.066098  0.066098  1
  K  K41  1  0.433902  0.933902  0.566098  1
  K  K42  1  0.566098  0.433902  0.933902  1
  K  K43  1  0.933902  0.566098  0.433902  1
  K  K44  1  0.961124  0.282488  0.333988  1
  K  K45  1  0.538876  0.717512  0.833988  1
  K  K46  1  0.717512  0.833988  0.538876  1
  K  K47  1  0.833988  0.538876  0.717512  1
  K  K48  1  0.789658  0.662058  0.996354  1
  K  K49  1  0.289658  0.837943  0.003646  1
  K  K50  1  0.228619  0.228619  0.228619  1
  K  K51  1  0.837943  0.003646  0.289658  1
  K  K52  1  0.503646  0.210342  0.162057  1
  K  K53  1  0.217512  0.666012  0.461124  1
  K  K54  1  0.662058  0.996354  0.789658  1
  K  K55  1  0.996354  0.789658  0.662058  1
  K  K56  1  0.162057  0.503646  0.210342  1
  K  K57  1  0.337943  0.496354  0.710342  1
  K  K58  1  0.496354  0.710342  0.337943  1
  K  K59  1  0.710342  0.337943  0.496354  1
  K  K60  1  0.771381  0.728619  0.271381  1
  K  K61  1  0.728619  0.271381  0.771381  1
  K  K62  1  0.271381  0.771381  0.728619  1
  K  K63  1  0.210342  0.162057  0.503646  1
  Ni  Ni64  1  0.424905  0.075095  0.924905  1
  Ni  Ni65  1  0.075095  0.924905  0.424905  1
  Ni  Ni66  1  0.924905  0.424905  0.075095  1
  Ni  Ni67  1  0.575095  0.575095  0.575095  1
  Ni  Ni68  1  0.097042  0.402958  0.597042  1
  Ni  Ni69  1  0.402958  0.597042  0.097042  1
  Ni  Ni70  1  0.597042  0.097042  0.402958  1
  Ni  Ni71  1  0.902959  0.902959  0.902959  1
