# generated using pymatgen
data_TeW2SeS2
_symmetry_space_group_name_H-M   'P 1'
_cell_length_a   3.30645412
_cell_length_b   3.30646212
_cell_length_c   39.07753953
_cell_angle_alpha   90.00099538
_cell_angle_beta   90.00001280
_cell_angle_gamma   119.99992792
_symmetry_Int_Tables_number   1
_chemical_formula_structural   TeW2SeS2
_chemical_formula_sum   'Te2 W4 Se2 S4'
_cell_volume   369.98507998
_cell_formula_units_Z   2
loop_
 _symmetry_equiv_pos_site_id
 _symmetry_equiv_pos_as_xyz
  1  'x, y, z'
loop_
 _atom_site_type_symbol
 _atom_site_label
 _atom_site_symmetry_multiplicity
 _atom_site_fract_x
 _atom_site_fract_y
 _atom_site_fract_z
 _atom_site_occupancy
  Te  Te0  1  0.666689  0.333378  0.419653  1
  Te  Te1  1  0.666700  0.333400  0.518080  1
  W  W2  1  0.333324  0.666647  0.093917  1
  W  W3  1  0.333361  0.666722  0.468864  1
  W  W4  1  0.666695  0.333390  0.281126  1
  W  W5  1  0.666619  0.333238  0.659009  1
  Se  Se6  1  0.333298  0.666596  0.702196  1
  Se  Se7  1  0.333280  0.666561  0.615791  1
  S  S8  1  0.333376  0.666752  0.320373  1
  S  S9  1  0.666659  0.333317  0.054695  1
  S  S10  1  0.666653  0.333306  0.133143  1
  S  S11  1  0.333347  0.666694  0.241902  1
