# generated using pymatgen
data_Te2W3Se4
_symmetry_space_group_name_H-M   'P 1'
_cell_length_a   3.39983682
_cell_length_b   3.39978294
_cell_length_c   31.48266900
_cell_angle_alpha   90.00000000
_cell_angle_beta   90.00000000
_cell_angle_gamma   120.00052425
_symmetry_Int_Tables_number   1
_chemical_formula_structural   Te2W3Se4
_chemical_formula_sum   'Te2 W3 Se4'
_cell_volume   315.14407333
_cell_formula_units_Z   1
loop_
 _symmetry_equiv_pos_site_id
 _symmetry_equiv_pos_as_xyz
  1  'x, y, z'
loop_
 _atom_site_type_symbol
 _atom_site_label
 _atom_site_symmetry_multiplicity
 _atom_site_fract_x
 _atom_site_fract_y
 _atom_site_fract_z
 _atom_site_occupancy
  Te  Te0  1  0.333355  0.666710  0.406777  1
  Te  Te1  1  0.333355  0.666710  0.287188  1
  W  W2  1  0.333311  0.666622  0.115634  1
  W  W3  1  0.333311  0.666622  0.578331  1
  W  W4  1  0.666691  0.333381  0.346982  1
  Se  Se5  1  0.666642  0.333282  0.063022  1
  Se  Se6  1  0.666648  0.333295  0.525680  1
  Se  Se7  1  0.666648  0.333295  0.168285  1
  Se  Se8  1  0.666642  0.333282  0.630942  1
