# generated using pymatgen
data_Te4W3S2
_symmetry_space_group_name_H-M   'P 1'
_cell_length_a   3.42349853
_cell_length_b   3.42350880
_cell_length_c   31.69822019
_cell_angle_alpha   90.00000000
_cell_angle_beta   90.00000000
_cell_angle_gamma   119.99990088
_symmetry_Int_Tables_number   1
_chemical_formula_structural   Te4W3S2
_chemical_formula_sum   'Te4 W3 S2'
_cell_volume   321.74183714
_cell_formula_units_Z   1
loop_
 _symmetry_equiv_pos_site_id
 _symmetry_equiv_pos_as_xyz
  1  'x, y, z'
loop_
 _atom_site_type_symbol
 _atom_site_label
 _atom_site_symmetry_multiplicity
 _atom_site_fract_x
 _atom_site_fract_y
 _atom_site_fract_z
 _atom_site_occupancy
  Te  Te0  1  0.666648  0.333294  0.056606  1
  Te  Te1  1  0.666646  0.333292  0.519233  1
  Te  Te2  1  0.666646  0.333292  0.174732  1
  Te  Te3  1  0.666648  0.333294  0.637358  1
  W  W4  1  0.333311  0.666622  0.115652  1
  W  W5  1  0.333311  0.666622  0.578313  1
  W  W6  1  0.666687  0.333374  0.346982  1
  S  S7  1  0.333352  0.666705  0.394300  1
  S  S8  1  0.333352  0.666705  0.299665  1
