# generated using pymatgen
data_CaPSe3
_symmetry_space_group_name_H-M   'P 1'
_cell_length_a   6.96027947
_cell_length_b   7.60847250
_cell_length_c   9.72318848
_cell_angle_alpha   90.00000000
_cell_angle_beta   92.23506435
_cell_angle_gamma   90.00000000
_symmetry_Int_Tables_number   1
_chemical_formula_structural   CaPSe3
_chemical_formula_sum   'Ca4 P4 Se12'
_cell_volume   514.52008909
_cell_formula_units_Z   4
loop_
 _symmetry_equiv_pos_site_id
 _symmetry_equiv_pos_as_xyz
  1  'x, y, z'
loop_
 _atom_site_type_symbol
 _atom_site_label
 _atom_site_symmetry_multiplicity
 _atom_site_fract_x
 _atom_site_fract_y
 _atom_site_fract_z
 _atom_site_occupancy
  P  P0  1  0.064278  0.893282  0.435953  1
  P  P1  1  0.935722  0.106718  0.564047  1
  P  P2  1  0.435722  0.393282  0.064047  1
  P  P3  1  0.564278  0.606718  0.935953  1
  Ca  Ca4  1  0.962929  0.385257  0.247248  1
  Ca  Ca5  1  0.462929  0.114743  0.747248  1
  Ca  Ca6  1  0.537071  0.885257  0.252752  1
  Ca  Ca7  1  0.037071  0.614743  0.752752  1
  Se  Se8  1  0.122954  0.012294  0.234484  1
  Se  Se9  1  0.676065  0.203774  0.449161  1
  Se  Se10  1  0.823935  0.703774  0.050839  1
  Se  Se11  1  0.323935  0.796226  0.550839  1
  Se  Se12  1  0.338422  0.810865  0.935712  1
  Se  Se13  1  0.161578  0.310865  0.564288  1
  Se  Se14  1  0.661578  0.189135  0.064288  1
  Se  Se15  1  0.838422  0.689135  0.435712  1
  Se  Se16  1  0.377046  0.512294  0.265516  1
  Se  Se17  1  0.877046  0.987706  0.765516  1
  Se  Se18  1  0.622954  0.487706  0.734484  1
  Se  Se19  1  0.176065  0.296226  0.949161  1
