# generated using pymatgen
data_Ba2NaNb5O15
_symmetry_space_group_name_H-M   'P 1'
_cell_length_a   4.08927983
_cell_length_b   12.73157181
_cell_length_c   12.73157181
_cell_angle_alpha   90.00000000
_cell_angle_beta   90.00000000
_cell_angle_gamma   90.00000000
_symmetry_Int_Tables_number   1
_chemical_formula_structural   Ba2NaNb5O15
_chemical_formula_sum   'Ba4 Na2 Nb10 O30'
_cell_volume   662.84331142
_cell_formula_units_Z   2
loop_
 _symmetry_equiv_pos_site_id
 _symmetry_equiv_pos_as_xyz
  1  'x, y, z'
loop_
 _atom_site_type_symbol
 _atom_site_label
 _atom_site_symmetry_multiplicity
 _atom_site_fract_x
 _atom_site_fract_y
 _atom_site_fract_z
 _atom_site_occupancy
  O  O0  1  0.220095  0.500000  0.000000  1
  O  O1  1  0.220095  0.000000  0.500000  1
  O  O2  1  0.225436  0.421487  0.704794  1
  O  O3  1  0.225436  0.578513  0.295206  1
  O  O4  1  0.225436  0.704794  0.578513  1
  O  O5  1  0.225436  0.295206  0.421487  1
  O  O6  1  0.225436  0.795206  0.078513  1
  O  O7  1  0.225436  0.921486  0.795206  1
  O  O8  1  0.225436  0.078513  0.204794  1
  O  O9  1  0.225436  0.204794  0.921486  1
  O  O10  1  0.736524  0.067935  0.858584  1
  O  O11  1  0.736524  0.932065  0.141416  1
  O  O12  1  0.736524  0.858584  0.932065  1
  O  O13  1  0.736524  0.141416  0.067935  1
  O  O14  1  0.736524  0.641416  0.432065  1
  O  O15  1  0.736524  0.567935  0.641416  1
  O  O16  1  0.726929  0.156874  0.506691  1
  O  O17  1  0.726929  0.493310  0.156874  1
  O  O18  1  0.726929  0.506691  0.843126  1
  O  O19  1  0.726929  0.843126  0.493310  1
  O  O20  1  0.726929  0.343126  0.006690  1
  O  O21  1  0.726929  0.656875  0.993310  1
  O  O22  1  0.726929  0.993310  0.343126  1
  O  O23  1  0.736524  0.432065  0.358584  1
  O  O24  1  0.721433  0.280715  0.780715  1
  O  O25  1  0.721433  0.219286  0.280715  1
  O  O26  1  0.721433  0.780715  0.719286  1
  O  O27  1  0.721433  0.719286  0.219286  1
  O  O28  1  0.736524  0.358584  0.567935  1
  O  O29  1  0.726929  0.006690  0.656875  1
  Na  Na30  1  0.142142  0.500000  0.500000  1
  Na  Na31  1  0.142142  0.000000  0.000000  1
  Nb  Nb32  1  0.687311  0.075536  0.208622  1
  Nb  Nb33  1  0.682019  0.000000  0.500000  1
  Nb  Nb34  1  0.687311  0.924465  0.791378  1
  Nb  Nb35  1  0.682019  0.500000  0.000000  1
  Nb  Nb36  1  0.687311  0.791378  0.075536  1
  Nb  Nb37  1  0.687311  0.208622  0.924465  1
  Nb  Nb38  1  0.687311  0.291378  0.424464  1
  Nb  Nb39  1  0.687311  0.424464  0.708622  1
  Nb  Nb40  1  0.687311  0.575536  0.291378  1
  Nb  Nb41  1  0.687311  0.708622  0.575536  1
  Ba  Ba42  1  0.190591  0.829076  0.329076  1
  Ba  Ba43  1  0.190591  0.670924  0.829076  1
  Ba  Ba44  1  0.190591  0.329076  0.170923  1
  Ba  Ba45  1  0.190591  0.170923  0.670924  1
