# generated using pymatgen
data_CeZr3O8
_symmetry_space_group_name_H-M   'P 1'
_cell_length_a   7.42354805
_cell_length_b   7.42352305
_cell_length_c   5.31916718
_cell_angle_alpha   89.35911220
_cell_angle_beta   90.64083353
_cell_angle_gamma   89.63599945
_symmetry_Int_Tables_number   1
_chemical_formula_structural   CeZr3O8
_chemical_formula_sum   'Ce2 Zr6 O16'
_cell_volume   293.09052306
_cell_formula_units_Z   2
loop_
 _symmetry_equiv_pos_site_id
 _symmetry_equiv_pos_as_xyz
  1  'x, y, z'
loop_
 _atom_site_type_symbol
 _atom_site_label
 _atom_site_symmetry_multiplicity
 _atom_site_fract_x
 _atom_site_fract_y
 _atom_site_fract_z
 _atom_site_occupancy
  Ce  Ce0  1  0.994673  0.994676  0.999996  1
  Ce  Ce1  1  0.255328  0.255332  0.500004  1
  Zr  Zr2  1  0.003082  0.500655  0.998142  1
  Zr  Zr3  1  0.246880  0.749350  0.501870  1
  Zr  Zr4  1  0.500654  0.003083  0.001863  1
  Zr  Zr5  1  0.749350  0.246879  0.498124  1
  Zr  Zr6  1  0.506487  0.506487  0.999999  1
  Zr  Zr7  1  0.743485  0.743485  0.500001  1
  O  O8  1  0.247102  0.981648  0.275380  1
  O  O9  1  0.002919  0.268337  0.224617  1
  O  O10  1  0.981646  0.247102  0.724620  1
  O  O11  1  0.268339  0.002919  0.775382  1
  O  O12  1  0.269986  0.520202  0.281061  1
  O  O13  1  0.980061  0.729796  0.218974  1
  O  O14  1  0.007408  0.756564  0.702053  1
  O  O15  1  0.242573  0.493438  0.797978  1
  O  O16  1  0.756563  0.007406  0.297947  1
  O  O17  1  0.493441  0.242574  0.202027  1
  O  O18  1  0.520205  0.269988  0.718944  1
  O  O19  1  0.729794  0.980057  0.781024  1
  O  O20  1  0.723410  0.490609  0.310158  1
  O  O21  1  0.526638  0.759368  0.189827  1
  O  O22  1  0.490608  0.723404  0.689839  1
  O  O23  1  0.759369  0.526641  0.810172  1
