# generated using pymatgen
data_K2SN2O5
_symmetry_space_group_name_H-M   'P 1'
_cell_length_a   10.11494629
_cell_length_b   8.24090750
_cell_length_c   7.21728128
_cell_angle_alpha   90.00000000
_cell_angle_beta   90.00000000
_cell_angle_gamma   90.00000000
_symmetry_Int_Tables_number   1
_chemical_formula_structural   K2SN2O5
_chemical_formula_sum   'K8 S4 N8 O20'
_cell_volume   601.60612875
_cell_formula_units_Z   4
loop_
 _symmetry_equiv_pos_site_id
 _symmetry_equiv_pos_as_xyz
  1  'x, y, z'
loop_
 _atom_site_type_symbol
 _atom_site_label
 _atom_site_symmetry_multiplicity
 _atom_site_fract_x
 _atom_site_fract_y
 _atom_site_fract_z
 _atom_site_occupancy
  K  K0  1  0.810294  0.488360  0.553537  1
  K  K1  1  0.310294  0.011640  0.946463  1
  K  K2  1  0.189706  0.988360  0.446463  1
  K  K3  1  0.689706  0.511640  0.053537  1
  K  K4  1  0.189706  0.511640  0.446463  1
  K  K5  1  0.689706  0.988360  0.053537  1
  K  K6  1  0.810294  0.011640  0.553537  1
  K  K7  1  0.310294  0.488360  0.946463  1
  S  S8  1  0.503074  0.250000  0.355697  1
  S  S9  1  0.003074  0.250000  0.144303  1
  S  S10  1  0.496926  0.750000  0.644303  1
  S  S11  1  0.996926  0.750000  0.855697  1
  N  N12  1  0.464511  0.250000  0.598135  1
  N  N13  1  0.964511  0.250000  0.901865  1
  N  N14  1  0.535489  0.750000  0.401865  1
  N  N15  1  0.035489  0.750000  0.098135  1
  N  N16  1  0.563529  0.250000  0.714195  1
  N  N17  1  0.063529  0.250000  0.785805  1
  N  N18  1  0.436471  0.750000  0.285805  1
  N  N19  1  0.936471  0.750000  0.214195  1
  O  O20  1  0.647785  0.250000  0.344070  1
  O  O21  1  0.147785  0.250000  0.155930  1
  O  O22  1  0.352215  0.750000  0.655930  1
  O  O23  1  0.852215  0.750000  0.844070  1
  O  O24  1  0.441146  0.398844  0.289344  1
  O  O25  1  0.941146  0.101156  0.210656  1
  O  O26  1  0.558854  0.898844  0.710656  1
  O  O27  1  0.058854  0.601156  0.789344  1
  O  O28  1  0.558854  0.601156  0.710656  1
  O  O29  1  0.058854  0.898844  0.789344  1
  O  O30  1  0.441146  0.101156  0.289344  1
  O  O31  1  0.941146  0.398844  0.210656  1
  O  O32  1  0.338871  0.250000  0.639531  1
  O  O33  1  0.838871  0.250000  0.860469  1
  O  O34  1  0.661129  0.750000  0.360469  1
  O  O35  1  0.161129  0.750000  0.139531  1
  O  O36  1  0.527550  0.250000  0.886741  1
  O  O37  1  0.027550  0.250000  0.613259  1
  O  O38  1  0.472450  0.750000  0.113259  1
  O  O39  1  0.972450  0.750000  0.386741  1
