# generated using pymatgen
data_Ho2Si3Rh
_symmetry_space_group_name_H-M   'P 1'
_cell_length_a   8.16276025
_cell_length_b   8.16276025
_cell_length_c   7.85216951
_cell_angle_alpha   90.00000000
_cell_angle_beta   90.00000000
_cell_angle_gamma   120.00000004
_symmetry_Int_Tables_number   1
_chemical_formula_structural   Ho2Si3Rh
_chemical_formula_sum   'Ho8 Si12 Rh4'
_cell_volume   453.10033150
_cell_formula_units_Z   4
loop_
 _symmetry_equiv_pos_site_id
 _symmetry_equiv_pos_as_xyz
  1  'x, y, z'
loop_
 _atom_site_type_symbol
 _atom_site_label
 _atom_site_symmetry_multiplicity
 _atom_site_fract_x
 _atom_site_fract_y
 _atom_site_fract_z
 _atom_site_occupancy
  Si  Si0  1  0.166683  0.833317  0.499680  1
  Si  Si1  1  0.166683  0.333365  0.499680  1
  Si  Si2  1  0.666635  0.833317  0.499680  1
  Si  Si3  1  0.333365  0.166683  0.999680  1
  Si  Si4  1  0.833317  0.666635  0.500320  1
  Si  Si5  1  0.833317  0.166683  0.999680  1
  Si  Si6  1  0.833317  0.666635  0.999680  1
  Si  Si7  1  0.166683  0.333365  0.000320  1
  Si  Si8  1  0.666635  0.833317  0.000320  1
  Si  Si9  1  0.333365  0.166683  0.500320  1
  Si  Si10  1  0.833317  0.166683  0.500320  1
  Si  Si11  1  0.166683  0.833317  0.000320  1
  Rh  Rh12  1  0.333333  0.666667  0.031931  1
  Rh  Rh13  1  0.666667  0.333333  0.968069  1
  Rh  Rh14  1  0.666667  0.333333  0.531931  1
  Rh  Rh15  1  0.333333  0.666667  0.468069  1
  Ho  Ho16  1  0.983231  0.491616  0.250000  1
  Ho  Ho17  1  0.508384  0.491616  0.250000  1
  Ho  Ho18  1  0.491616  0.983231  0.750000  1
  Ho  Ho19  1  0.016769  0.508384  0.750000  1
  Ho  Ho20  1  0.491616  0.508384  0.750000  1
  Ho  Ho21  1  0.508384  0.016769  0.250000  1
  Ho  Ho22  1  0.000000  0.000000  0.750000  1
  Ho  Ho23  1  0.000000  0.000000  0.250000  1
