# generated using pymatgen
data_Te6MoW3Se2
_symmetry_space_group_name_H-M   'P 1'
_cell_length_a   3.50075503
_cell_length_b   3.50074889
_cell_length_c   39.66022698
_cell_angle_alpha   90.00017597
_cell_angle_beta   90.00000000
_cell_angle_gamma   120.00005816
_symmetry_Int_Tables_number   1
_chemical_formula_structural   Te6MoW3Se2
_chemical_formula_sum   'Te6 Mo1 W3 Se2'
_cell_volume   420.92842393
_cell_formula_units_Z   1
loop_
 _symmetry_equiv_pos_site_id
 _symmetry_equiv_pos_as_xyz
  1  'x, y, z'
loop_
 _atom_site_type_symbol
 _atom_site_label
 _atom_site_symmetry_multiplicity
 _atom_site_fract_x
 _atom_site_fract_y
 _atom_site_fract_z
 _atom_site_occupancy
  Te  Te0  1  0.333367  0.666735  0.328227  1
  Te  Te1  1  0.333353  0.666707  0.703973  1
  Te  Te2  1  0.666649  0.333296  0.423228  1
  Te  Te3  1  0.666648  0.333295  0.516096  1
  Te  Te4  1  0.333357  0.666715  0.235347  1
  Te  Te5  1  0.333352  0.666705  0.611089  1
  Mo  Mo6  1  0.333309  0.666617  0.093924  1
  W  W7  1  0.333313  0.666625  0.469655  1
  W  W8  1  0.666691  0.333382  0.281769  1
  W  W9  1  0.666688  0.333375  0.657549  1
  Se  Se10  1  0.666642  0.333283  0.053113  1
  Se  Se11  1  0.666632  0.333263  0.134779  1
