# generated using pymatgen
data_TeMoWSeS2
_symmetry_space_group_name_H-M   'P 1'
_cell_length_a   3.30823297
_cell_length_b   3.30837787
_cell_length_c   38.31166352
_cell_angle_alpha   89.99316327
_cell_angle_beta   90.00000000
_cell_angle_gamma   119.99855125
_symmetry_Int_Tables_number   1
_chemical_formula_structural   TeMoWSeS2
_chemical_formula_sum   'Te2 Mo2 W2 Se2 S4'
_cell_volume   363.14424876
_cell_formula_units_Z   2
loop_
 _symmetry_equiv_pos_site_id
 _symmetry_equiv_pos_as_xyz
  1  'x, y, z'
loop_
 _atom_site_type_symbol
 _atom_site_label
 _atom_site_symmetry_multiplicity
 _atom_site_fract_x
 _atom_site_fract_y
 _atom_site_fract_z
 _atom_site_occupancy
  Te  Te0  1  0.333372  0.666746  0.710332  1
  Te  Te1  1  0.333343  0.666686  0.609825  1
  Mo  Mo2  1  0.333336  0.666672  0.467524  1
  Mo  Mo3  1  0.666692  0.333384  0.281575  1
  W  W4  1  0.333268  0.666537  0.093737  1
  W  W5  1  0.666674  0.333348  0.660053  1
  Se  Se6  1  0.666598  0.333196  0.423667  1
  Se  Se7  1  0.666689  0.333377  0.511333  1
  S  S8  1  0.333480  0.666961  0.321492  1
  S  S9  1  0.666566  0.333132  0.053700  1
  S  S10  1  0.666653  0.333306  0.133778  1
  S  S11  1  0.333327  0.666655  0.241731  1
