# generated using pymatgen
data_Al4CN3O
_symmetry_space_group_name_H-M   'P 1'
_cell_length_a   5.39663138
_cell_length_b   5.39663137
_cell_length_c   9.06709765
_cell_angle_alpha   90.00000000
_cell_angle_beta   90.00000000
_cell_angle_gamma   112.03264854
_symmetry_Int_Tables_number   1
_chemical_formula_structural   Al4CN3O
_chemical_formula_sum   'Al8 C2 N6 O2'
_cell_volume   244.78206472
_cell_formula_units_Z   2
loop_
 _symmetry_equiv_pos_site_id
 _symmetry_equiv_pos_as_xyz
  1  'x, y, z'
loop_
 _atom_site_type_symbol
 _atom_site_label
 _atom_site_symmetry_multiplicity
 _atom_site_fract_x
 _atom_site_fract_y
 _atom_site_fract_z
 _atom_site_occupancy
  C  C0  1  0.196387  0.803613  0.004916  1
  C  C1  1  0.803613  0.196387  0.504916  1
  N  N2  1  0.678814  0.830838  0.207649  1
  N  N3  1  0.321186  0.169162  0.707649  1
  N  N4  1  0.181990  0.818010  0.336909  1
  N  N5  1  0.830838  0.678814  0.707649  1
  N  N6  1  0.818010  0.181990  0.836909  1
  N  N7  1  0.169162  0.321186  0.207649  1
  O  O8  1  0.435737  0.564263  0.476830  1
  O  O9  1  0.564263  0.435737  0.976830  1
  Al  Al10  1  0.895378  0.548780  0.891131  1
  Al  Al11  1  0.451220  0.104622  0.891131  1
  Al  Al12  1  0.104622  0.451220  0.391131  1
  Al  Al13  1  0.548780  0.895378  0.391131  1
  Al  Al14  1  0.048879  0.951121  0.176896  1
  Al  Al15  1  0.951121  0.048879  0.676896  1
  Al  Al16  1  0.403436  0.596564  0.092410  1
  Al  Al17  1  0.596564  0.403436  0.592410  1
