# generated using pymatgen
data_KAg(NO3)2
_symmetry_space_group_name_H-M   'P 1'
_cell_length_a   5.03485426
_cell_length_b   8.44685557
_cell_length_c   14.45032572
_cell_angle_alpha   99.72399386
_cell_angle_beta   90.00000000
_cell_angle_gamma   90.00000000
_symmetry_Int_Tables_number   1
_chemical_formula_structural   KAg(NO3)2
_chemical_formula_sum   'K4 Ag4 N8 O24'
_cell_volume   605.72397938
_cell_formula_units_Z   4
loop_
 _symmetry_equiv_pos_site_id
 _symmetry_equiv_pos_as_xyz
  1  'x, y, z'
loop_
 _atom_site_type_symbol
 _atom_site_label
 _atom_site_symmetry_multiplicity
 _atom_site_fract_x
 _atom_site_fract_y
 _atom_site_fract_z
 _atom_site_occupancy
  N  N0  1  0.142020  0.562188  0.664515  1
  N  N1  1  0.642020  0.437812  0.835485  1
  N  N2  1  0.857980  0.437812  0.335485  1
  N  N3  1  0.357980  0.562188  0.164515  1
  N  N4  1  0.053835  0.938031  0.599971  1
  N  N5  1  0.553835  0.061969  0.900029  1
  N  N6  1  0.946165  0.061969  0.400029  1
  N  N7  1  0.446165  0.938031  0.099971  1
  O  O8  1  0.458260  0.676284  0.222205  1
  O  O9  1  0.958260  0.323716  0.277795  1
  O  O10  1  0.541740  0.323716  0.777795  1
  O  O11  1  0.041740  0.676284  0.722205  1
  O  O12  1  0.473632  0.429841  0.141517  1
  O  O13  1  0.973632  0.570159  0.358483  1
  O  O14  1  0.526368  0.570159  0.858483  1
  O  O15  1  0.026368  0.429841  0.641517  1
  O  O16  1  0.611738  0.009663  0.161407  1
  O  O17  1  0.111738  0.990337  0.338593  1
  O  O18  1  0.388262  0.990337  0.838593  1
  O  O19  1  0.888262  0.009663  0.661407  1
  O  O20  1  0.204514  0.979733  0.104832  1
  O  O21  1  0.704514  0.020267  0.395168  1
  O  O22  1  0.795486  0.020267  0.895168  1
  O  O23  1  0.295486  0.979733  0.604832  1
  O  O24  1  0.527076  0.827247  0.037214  1
  O  O25  1  0.027076  0.172753  0.462786  1
  O  O26  1  0.472924  0.172753  0.962786  1
  O  O27  1  0.972924  0.827247  0.537214  1
  O  O28  1  0.127780  0.582093  0.128843  1
  O  O29  1  0.627780  0.417907  0.371157  1
  O  O30  1  0.872220  0.417907  0.871157  1
  O  O31  1  0.372220  0.582093  0.628843  1
  K  K32  1  0.547956  0.263984  0.567905  1
  K  K33  1  0.047956  0.736016  0.932095  1
  K  K34  1  0.452044  0.736016  0.432095  1
  K  K35  1  0.952044  0.263984  0.067905  1
  Ag  Ag36  1  0.085802  0.192504  0.785483  1
  Ag  Ag37  1  0.585802  0.807496  0.714517  1
  Ag  Ag38  1  0.914198  0.807496  0.214517  1
  Ag  Ag39  1  0.414198  0.192504  0.285483  1
