# generated using pymatgen
data_ErAg(WO4)2
_symmetry_space_group_name_H-M   'P 1'
_cell_length_a   7.28112170
_cell_length_b   7.36090074
_cell_length_c   7.36090074
_cell_angle_alpha   94.35465091
_cell_angle_beta   114.02314739
_cell_angle_gamma   114.02314743
_symmetry_Int_Tables_number   1
_chemical_formula_structural   ErAg(WO4)2
_chemical_formula_sum   'Er2 Ag2 W4 O16'
_cell_volume   315.01631318
_cell_formula_units_Z   2
loop_
 _symmetry_equiv_pos_site_id
 _symmetry_equiv_pos_as_xyz
  1  'x, y, z'
loop_
 _atom_site_type_symbol
 _atom_site_label
 _atom_site_symmetry_multiplicity
 _atom_site_fract_x
 _atom_site_fract_y
 _atom_site_fract_z
 _atom_site_occupancy
  O  O0  1  0.341092  0.022530  0.022530  1
  O  O1  1  0.658907  0.977469  0.977469  1
  O  O2  1  0.912695  0.962067  0.700302  1
  O  O3  1  0.087304  0.299698  0.037933  1
  O  O4  1  0.087304  0.037933  0.299697  1
  O  O5  1  0.912697  0.700303  0.962068  1
  O  O6  1  0.135565  0.444005  0.444004  1
  O  O7  1  0.864434  0.555995  0.555995  1
  O  O8  1  0.757883  0.354385  0.102237  1
  O  O9  1  0.242118  0.897764  0.645615  1
  O  O10  1  0.242117  0.645615  0.897763  1
  O  O11  1  0.757883  0.102237  0.354385  1
  O  O12  1  0.652120  0.219295  0.686279  1
  O  O13  1  0.347880  0.780705  0.313721  1
  O  O14  1  0.347880  0.313722  0.780705  1
  O  O15  1  0.652119  0.686278  0.219294  1
  Ag  Ag16  1  0.518315  0.682657  0.682656  1
  Ag  Ag17  1  0.481686  0.317343  0.317344  1
  Er  Er18  1  0.999999  0.303498  0.696500  1
  Er  Er19  1  1.000000  0.696502  0.303498  1
  W  W20  1  0.030381  0.789966  0.789966  1
  W  W21  1  0.969618  0.210034  0.210034  1
  W  W22  1  0.500000  0.835237  0.164764  1
  W  W23  1  0.500000  0.164763  0.835236  1
