# generated using pymatgen
data_Ba4Ir3O10
_symmetry_space_group_name_H-M   'P 1'
_cell_length_a   5.83852016
_cell_length_b   7.31173942
_cell_length_c   13.51752349
_cell_angle_alpha   90.00000000
_cell_angle_beta   90.00000000
_cell_angle_gamma   113.53171196
_symmetry_Int_Tables_number   1
_chemical_formula_structural   Ba4Ir3O10
_chemical_formula_sum   'Ba8 Ir6 O20'
_cell_volume   529.07082411
_cell_formula_units_Z   2
loop_
 _symmetry_equiv_pos_site_id
 _symmetry_equiv_pos_as_xyz
  1  'x, y, z'
loop_
 _atom_site_type_symbol
 _atom_site_label
 _atom_site_symmetry_multiplicity
 _atom_site_fract_x
 _atom_site_fract_y
 _atom_site_fract_z
 _atom_site_occupancy
  O  O0  1  0.352163  0.204326  0.750000  1
  O  O1  1  0.147837  0.795674  0.250000  1
  O  O2  1  0.647837  0.795674  0.250000  1
  O  O3  1  0.852163  0.204326  0.750000  1
  O  O4  1  0.768557  0.537114  0.664478  1
  O  O5  1  0.231443  0.462886  0.335522  1
  O  O6  1  0.731443  0.462886  0.164478  1
  O  O7  1  0.268557  0.537114  0.835522  1
  O  O8  1  0.159014  0.774775  0.466058  1
  O  O9  1  0.384239  0.225225  0.533942  1
  O  O10  1  0.340986  0.225225  0.966058  1
  O  O11  1  0.115761  0.774775  0.033942  1
  O  O12  1  0.840986  0.225225  0.533942  1
  O  O13  1  0.615761  0.774775  0.466058  1
  O  O14  1  0.959790  0.919579  0.853010  1
  O  O15  1  0.040210  0.080421  0.146990  1
  O  O16  1  0.540210  0.080421  0.353010  1
  O  O17  1  0.459790  0.919579  0.646990  1
  O  O18  1  0.884239  0.225225  0.966058  1
  O  O19  1  0.659014  0.774775  0.033942  1
  Ba  Ba20  1  0.757302  0.514603  0.879184  1
  Ba  Ba21  1  0.242698  0.485397  0.120816  1
  Ba  Ba22  1  0.742698  0.485397  0.379184  1
  Ba  Ba23  1  0.257302  0.514603  0.620816  1
  Ba  Ba24  1  0.460673  0.921347  0.860330  1
  Ba  Ba25  1  0.539327  0.078653  0.139670  1
  Ba  Ba26  1  0.960673  0.921347  0.639670  1
  Ba  Ba27  1  0.039327  0.078653  0.360330  1
  Ir  Ir28  1  0.000000  0.000000  0.000000  1
  Ir  Ir29  1  0.500000  0.000000  0.500000  1
  Ir  Ir30  1  0.120462  0.240923  0.850447  1
  Ir  Ir31  1  0.879538  0.759077  0.149553  1
  Ir  Ir32  1  0.379538  0.759077  0.350447  1
  Ir  Ir33  1  0.620462  0.240923  0.649553  1
