# generated using pymatgen
data_ErGaCo
_symmetry_space_group_name_H-M   'P 1'
_cell_length_a   4.08057487
_cell_length_b   6.67198046
_cell_length_c   7.62891502
_cell_angle_alpha   90.00000000
_cell_angle_beta   90.00000000
_cell_angle_gamma   90.00000000
_symmetry_Int_Tables_number   1
_chemical_formula_structural   ErGaCo
_chemical_formula_sum   'Er4 Ga4 Co4'
_cell_volume   207.70114640
_cell_formula_units_Z   4
loop_
 _symmetry_equiv_pos_site_id
 _symmetry_equiv_pos_as_xyz
  1  'x, y, z'
loop_
 _atom_site_type_symbol
 _atom_site_label
 _atom_site_symmetry_multiplicity
 _atom_site_fract_x
 _atom_site_fract_y
 _atom_site_fract_z
 _atom_site_occupancy
  Co  Co0  1  0.750000  0.228880  0.380662  1
  Co  Co1  1  0.250000  0.771120  0.619338  1
  Co  Co2  1  0.750000  0.728880  0.119338  1
  Co  Co3  1  0.250000  0.271120  0.880662  1
  Ga  Ga4  1  0.750000  0.347302  0.063663  1
  Ga  Ga5  1  0.250000  0.152698  0.563663  1
  Ga  Ga6  1  0.250000  0.652698  0.936337  1
  Ga  Ga7  1  0.750000  0.847302  0.436337  1
  Er  Er8  1  0.250000  0.526567  0.315575  1
  Er  Er9  1  0.250000  0.026567  0.184425  1
  Er  Er10  1  0.750000  0.973433  0.815575  1
  Er  Er11  1  0.750000  0.473433  0.684425  1
