# generated using pymatgen
data_Sr2GdRuO6
_symmetry_space_group_name_H-M   'P 1'
_cell_length_a   5.83740127
_cell_length_b   5.91895177
_cell_length_c   8.28860261
_cell_angle_alpha   90.00000000
_cell_angle_beta   90.46488462
_cell_angle_gamma   90.00000000
_symmetry_Int_Tables_number   1
_chemical_formula_structural   Sr2GdRuO6
_chemical_formula_sum   'Sr4 Gd2 Ru2 O12'
_cell_volume   286.37254061
_cell_formula_units_Z   2
loop_
 _symmetry_equiv_pos_site_id
 _symmetry_equiv_pos_as_xyz
  1  'x, y, z'
loop_
 _atom_site_type_symbol
 _atom_site_label
 _atom_site_symmetry_multiplicity
 _atom_site_fract_x
 _atom_site_fract_y
 _atom_site_fract_z
 _atom_site_occupancy
  O  O0  1  0.920187  0.522660  0.732182  1
  O  O1  1  0.579813  0.022660  0.767818  1
  O  O2  1  0.079813  0.477340  0.267818  1
  O  O3  1  0.420187  0.977340  0.232182  1
  O  O4  1  0.807110  0.771765  0.455970  1
  O  O5  1  0.692890  0.271765  0.044030  1
  O  O6  1  0.192890  0.228235  0.544030  1
  O  O7  1  0.307110  0.728235  0.955970  1
  O  O8  1  0.229565  0.196384  0.958918  1
  O  O9  1  0.270435  0.696384  0.541082  1
  O  O10  1  0.770435  0.803616  0.041082  1
  O  O11  1  0.729565  0.303616  0.458918  1
  Sr  Sr12  1  0.509843  0.539686  0.249361  1
  Sr  Sr13  1  0.990157  0.039686  0.250639  1
  Sr  Sr14  1  0.009843  0.960314  0.749361  1
  Sr  Sr15  1  0.490157  0.460314  0.750639  1
  Ru  Ru16  1  0.500000  0.000000  0.000000  1
  Ru  Ru17  1  0.000000  0.500000  0.500000  1
  Gd  Gd18  1  0.500000  0.000000  0.500000  1
  Gd  Gd19  1  0.000000  0.500000  0.000000  1
