# generated using pymatgen
data_Na3V2(GeO4)3
_symmetry_space_group_name_H-M   'P 1'
_cell_length_a   10.66190848
_cell_length_b   10.66190817
_cell_length_c   10.66190880
_cell_angle_alpha   109.47122004
_cell_angle_beta   109.47121947
_cell_angle_gamma   109.47121989
_symmetry_Int_Tables_number   1
_chemical_formula_structural   Na3V2(GeO4)3
_chemical_formula_sum   'Na12 V8 Ge12 O48'
_cell_volume   933.00285726
_cell_formula_units_Z   4
loop_
 _symmetry_equiv_pos_site_id
 _symmetry_equiv_pos_as_xyz
  1  'x, y, z'
loop_
 _atom_site_type_symbol
 _atom_site_label
 _atom_site_symmetry_multiplicity
 _atom_site_fract_x
 _atom_site_fract_y
 _atom_site_fract_z
 _atom_site_occupancy
  Na  Na0  1  0.625000  0.250000  0.875000  1
  Na  Na1  1  0.875000  0.750000  0.625000  1
  Na  Na2  1  0.750000  0.625000  0.875000  1
  Na  Na3  1  0.250000  0.875000  0.625000  1
  Na  Na4  1  0.875000  0.625000  0.250000  1
  Na  Na5  1  0.625000  0.875000  0.750000  1
  Na  Na6  1  0.375000  0.750000  0.125000  1
  Na  Na7  1  0.125000  0.250000  0.375000  1
  Na  Na8  1  0.250000  0.375000  0.125000  1
  Na  Na9  1  0.750000  0.125000  0.375000  1
  Na  Na10  1  0.125000  0.375000  0.750000  1
  Na  Na11  1  0.375000  0.125000  0.250000  1
  V  V12  1  0.500000  0.500000  0.500000  1
  V  V13  1  0.500000  0.500000  0.000000  1
  V  V14  1  0.500000  0.000000  0.500000  1
  V  V15  1  0.000000  0.500000  0.500000  1
  V  V16  1  0.500000  0.000000  0.000000  1
  V  V17  1  0.000000  0.000000  0.500000  1
  V  V18  1  0.000000  0.500000  0.000000  1
  V  V19  1  0.000000  0.000000  0.000000  1
  Ge  Ge20  1  0.875000  0.125000  0.750000  1
  Ge  Ge21  1  0.125000  0.875000  0.250000  1
  Ge  Ge22  1  0.250000  0.625000  0.375000  1
  Ge  Ge23  1  0.125000  0.750000  0.875000  1
  Ge  Ge24  1  0.750000  0.875000  0.125000  1
  Ge  Ge25  1  0.375000  0.250000  0.625000  1
  Ge  Ge26  1  0.625000  0.750000  0.375000  1
  Ge  Ge27  1  0.875000  0.250000  0.125000  1
  Ge  Ge28  1  0.250000  0.125000  0.875000  1
  Ge  Ge29  1  0.750000  0.375000  0.625000  1
  Ge  Ge30  1  0.375000  0.625000  0.750000  1
  Ge  Ge31  1  0.625000  0.375000  0.250000  1
  O  O32  1  0.808265  0.420201  0.818945  1
  O  O33  1  0.079799  0.888065  0.398744  1
  O  O34  1  0.681055  0.101256  0.989320  1
  O  O35  1  0.691735  0.510680  0.611935  1
  O  O36  1  0.691735  0.681055  0.079799  1
  O  O37  1  0.510680  0.611935  0.691735  1
  O  O38  1  0.101256  0.611935  0.420201  1
  O  O39  1  0.611935  0.691735  0.510680  1
  O  O40  1  0.398744  0.818945  0.510680  1
  O  O41  1  0.888065  0.989320  0.808265  1
  O  O42  1  0.989320  0.808265  0.888065  1
  O  O43  1  0.079799  0.691735  0.681055  1
  O  O44  1  0.611935  0.420201  0.101256  1
  O  O45  1  0.510680  0.398744  0.818945  1
  O  O46  1  0.681055  0.079799  0.691735  1
  O  O47  1  0.420201  0.101256  0.611935  1
  O  O48  1  0.818945  0.510680  0.398744  1
  O  O49  1  0.398744  0.079799  0.888065  1
  O  O50  1  0.101256  0.989320  0.681055  1
  O  O51  1  0.601256  0.181055  0.489320  1
  O  O52  1  0.989320  0.681055  0.101256  1
  O  O53  1  0.818945  0.808265  0.420201  1
  O  O54  1  0.888065  0.398744  0.079799  1
  O  O55  1  0.808265  0.888065  0.989320  1
  O  O56  1  0.191735  0.579799  0.181055  1
  O  O57  1  0.920201  0.111935  0.601256  1
  O  O58  1  0.318945  0.898744  0.010680  1
  O  O59  1  0.308265  0.489320  0.388065  1
  O  O60  1  0.308265  0.318945  0.920201  1
  O  O61  1  0.489320  0.388065  0.308265  1
  O  O62  1  0.898744  0.388065  0.579799  1
  O  O63  1  0.388065  0.308265  0.489320  1
  O  O64  1  0.191735  0.111935  0.010680  1
  O  O65  1  0.111935  0.601256  0.920201  1
  O  O66  1  0.181055  0.191735  0.579799  1
  O  O67  1  0.579799  0.181055  0.191735  1
  O  O68  1  0.010680  0.318945  0.898744  1
  O  O69  1  0.898744  0.010680  0.318945  1
  O  O70  1  0.601256  0.920201  0.111935  1
  O  O71  1  0.181055  0.489320  0.601256  1
  O  O72  1  0.579799  0.898744  0.388065  1
  O  O73  1  0.318945  0.920201  0.308265  1
  O  O74  1  0.489320  0.601256  0.181055  1
  O  O75  1  0.388065  0.579799  0.898744  1
  O  O76  1  0.920201  0.308265  0.318945  1
  O  O77  1  0.010680  0.191735  0.111935  1
  O  O78  1  0.111935  0.010680  0.191735  1
  O  O79  1  0.420201  0.818945  0.808265  1
