# generated using pymatgen
data_Te2MoW3(SeS2)2
_symmetry_space_group_name_H-M   'P 1'
_cell_length_a   3.30896811
_cell_length_b   3.30863135
_cell_length_c   40.41864403
_cell_angle_alpha   89.99261889
_cell_angle_beta   90.00000000
_cell_angle_gamma   120.00336692
_symmetry_Int_Tables_number   1
_chemical_formula_structural   Te2MoW3(SeS2)2
_chemical_formula_sum   'Te2 Mo1 W3 Se2 S4'
_cell_volume   383.21155224
_cell_formula_units_Z   1
loop_
 _symmetry_equiv_pos_site_id
 _symmetry_equiv_pos_as_xyz
  1  'x, y, z'
loop_
 _atom_site_type_symbol
 _atom_site_label
 _atom_site_symmetry_multiplicity
 _atom_site_fract_x
 _atom_site_fract_y
 _atom_site_fract_z
 _atom_site_occupancy
  Te  Te0  1  0.333220  0.666441  0.327673  1
  Te  Te1  1  0.333330  0.666662  0.232475  1
  Mo  Mo2  1  0.333373  0.666746  0.092890  1
  W  W3  1  0.333307  0.666614  0.472074  1
  W  W4  1  0.666628  0.333256  0.280058  1
  W  W5  1  0.666687  0.333373  0.657861  1
  Se  Se6  1  0.666702  0.333404  0.430333  1
  Se  Se7  1  0.666516  0.333031  0.513799  1
  S  S8  1  0.333314  0.666629  0.695774  1
  S  S9  1  0.666807  0.333613  0.055169  1
  S  S10  1  0.666700  0.333399  0.130677  1
  S  S11  1  0.333415  0.666831  0.619966  1
