# generated using pymatgen
data_Te2Mo3W(SeS2)2
_symmetry_space_group_name_H-M   'P 1'
_cell_length_a   3.30847920
_cell_length_b   3.30850991
_cell_length_c   37.57493746
_cell_angle_alpha   89.99953116
_cell_angle_beta   89.99998337
_cell_angle_gamma   119.99860672
_symmetry_Int_Tables_number   1
_chemical_formula_structural   Te2Mo3W(SeS2)2
_chemical_formula_sum   'Te2 Mo3 W1 Se2 S4'
_cell_volume   356.20158214
_cell_formula_units_Z   1
loop_
 _symmetry_equiv_pos_site_id
 _symmetry_equiv_pos_as_xyz
  1  'x, y, z'
loop_
 _atom_site_type_symbol
 _atom_site_label
 _atom_site_symmetry_multiplicity
 _atom_site_fract_x
 _atom_site_fract_y
 _atom_site_fract_z
 _atom_site_occupancy
  Te  Te0  1  0.666645  0.333289  0.043018  1
  Te  Te1  1  0.666639  0.333278  0.144776  1
  Mo  Mo2  1  0.333307  0.666615  0.093884  1
  Mo  Mo3  1  0.333307  0.666615  0.469649  1
  Mo  Mo4  1  0.666714  0.333417  0.281833  1
  W  W5  1  0.666697  0.333392  0.657550  1
  Se  Se6  1  0.333357  0.666716  0.702453  1
  Se  Se7  1  0.333361  0.666724  0.612636  1
  S  S8  1  0.333343  0.666690  0.322455  1
  S  S9  1  0.666644  0.333287  0.428985  1
  S  S10  1  0.666641  0.333280  0.510328  1
  S  S11  1  0.333346  0.666696  0.241179  1
