# generated using pymatgen
data_Tl5Te3
_symmetry_space_group_name_H-M   'P 1'
_cell_length_a   9.07350846
_cell_length_b   9.07350847
_cell_length_c   9.15788570
_cell_angle_alpha   119.69568119
_cell_angle_beta   119.69568125
_cell_angle_gamma   90.00000000
_symmetry_Int_Tables_number   1
_chemical_formula_structural   Tl5Te3
_chemical_formula_sum   'Tl10 Te6'
_cell_volume   537.99423135
_cell_formula_units_Z   2
loop_
 _symmetry_equiv_pos_site_id
 _symmetry_equiv_pos_as_xyz
  1  'x, y, z'
loop_
 _atom_site_type_symbol
 _atom_site_label
 _atom_site_symmetry_multiplicity
 _atom_site_fract_x
 _atom_site_fract_y
 _atom_site_fract_z
 _atom_site_occupancy
  Te  Te0  1  0.157387  0.342387  0.000000  1
  Te  Te1  1  0.657613  0.157387  0.000000  1
  Te  Te2  1  0.342387  0.842613  0.000000  1
  Te  Te3  1  0.842613  0.657613  0.000000  1
  Te  Te4  1  0.750108  0.750108  0.500216  1
  Te  Te5  1  0.249892  0.249892  0.499784  1
  Tl  Tl6  1  0.695044  0.195133  0.687645  1
  Tl  Tl7  1  0.195133  0.992601  0.687645  1
  Tl  Tl8  1  0.500000  0.500000  0.000000  1
  Tl  Tl9  1  0.000000  0.000000  0.000000  1
  Tl  Tl10  1  0.992601  0.492512  0.687645  1
  Tl  Tl11  1  0.492512  0.695044  0.687645  1
  Tl  Tl12  1  0.804867  0.007399  0.312355  1
  Tl  Tl13  1  0.304956  0.804867  0.312355  1
  Tl  Tl14  1  0.007399  0.507488  0.312355  1
  Tl  Tl15  1  0.507488  0.304956  0.312355  1
