# generated using pymatgen
data_Ba(SiRh)2
_symmetry_space_group_name_H-M   'P 1'
_cell_length_a   6.77461073
_cell_length_b   7.74912959
_cell_length_c   7.98333941
_cell_angle_alpha   91.29478502
_cell_angle_beta   90.00000000
_cell_angle_gamma   90.00000000
_symmetry_Int_Tables_number   1
_chemical_formula_structural   Ba(SiRh)2
_chemical_formula_sum   'Ba4 Si8 Rh8'
_cell_volume   418.99704578
_cell_formula_units_Z   4
loop_
 _symmetry_equiv_pos_site_id
 _symmetry_equiv_pos_as_xyz
  1  'x, y, z'
loop_
 _atom_site_type_symbol
 _atom_site_label
 _atom_site_symmetry_multiplicity
 _atom_site_fract_x
 _atom_site_fract_y
 _atom_site_fract_z
 _atom_site_occupancy
  Si  Si0  1  0.578280  0.627574  0.925256  1
  Si  Si1  1  0.078280  0.872426  0.074744  1
  Si  Si2  1  0.421720  0.372426  0.074744  1
  Si  Si3  1  0.921720  0.127574  0.925256  1
  Si  Si4  1  0.350258  0.685368  0.435614  1
  Si  Si5  1  0.850258  0.814632  0.564386  1
  Si  Si6  1  0.649742  0.314632  0.564386  1
  Si  Si7  1  0.149742  0.185368  0.435614  1
  Rh  Rh8  1  0.896184  0.113612  0.621537  1
  Rh  Rh9  1  0.396184  0.386388  0.378463  1
  Rh  Rh10  1  0.103816  0.886388  0.378463  1
  Rh  Rh11  1  0.603816  0.613612  0.621537  1
  Rh  Rh12  1  0.167994  0.171300  0.138279  1
  Rh  Rh13  1  0.667994  0.328700  0.861721  1
  Rh  Rh14  1  0.832006  0.828700  0.861721  1
  Rh  Rh15  1  0.332006  0.671300  0.138279  1
  Ba  Ba16  1  0.617144  0.997163  0.237156  1
  Ba  Ba17  1  0.117144  0.502837  0.762844  1
  Ba  Ba18  1  0.382856  0.002837  0.762844  1
  Ba  Ba19  1  0.882856  0.497163  0.237156  1
