# generated using pymatgen
data_Te2Mo3W(Se2S)2
_symmetry_space_group_name_H-M   'P 1'
_cell_length_a   3.34081925
_cell_length_b   3.34081057
_cell_length_c   38.01442802
_cell_angle_alpha   90.00014265
_cell_angle_beta   90.00000000
_cell_angle_gamma   120.00008608
_symmetry_Int_Tables_number   1
_chemical_formula_structural   Te2Mo3W(Se2S)2
_chemical_formula_sum   'Te2 Mo3 W1 Se4 S2'
_cell_volume   367.43755732
_cell_formula_units_Z   1
loop_
 _symmetry_equiv_pos_site_id
 _symmetry_equiv_pos_as_xyz
  1  'x, y, z'
loop_
 _atom_site_type_symbol
 _atom_site_label
 _atom_site_symmetry_multiplicity
 _atom_site_fract_x
 _atom_site_fract_y
 _atom_site_fract_z
 _atom_site_occupancy
  Te  Te0  1  0.333351  0.666703  0.707399  1
  Te  Te1  1  0.333350  0.666701  0.607710  1
  Mo  Mo2  1  0.333308  0.666615  0.093908  1
  Mo  Mo3  1  0.333308  0.666617  0.469647  1
  Mo  Mo4  1  0.666688  0.333376  0.657581  1
  W  W5  1  0.666693  0.333386  0.281806  1
  Se  Se6  1  0.666646  0.333290  0.050093  1
  Se  Se7  1  0.666647  0.333294  0.425812  1
  Se  Se8  1  0.666646  0.333291  0.137739  1
  Se  Se9  1  0.666649  0.333296  0.513461  1
  S  S10  1  0.333354  0.666710  0.321846  1
  S  S11  1  0.333360  0.666721  0.241746  1
