# generated using pymatgen
data_TeMo2Se2S
_symmetry_space_group_name_H-M   'P 1'
_cell_length_a   3.34494761
_cell_length_b   3.34503339
_cell_length_c   38.03378252
_cell_angle_alpha   90.00062266
_cell_angle_beta   89.99999729
_cell_angle_gamma   119.99912187
_symmetry_Int_Tables_number   1
_chemical_formula_structural   TeMo2Se2S
_chemical_formula_sum   'Te2 Mo4 Se4 S2'
_cell_volume   368.54775546
_cell_formula_units_Z   2
loop_
 _symmetry_equiv_pos_site_id
 _symmetry_equiv_pos_as_xyz
  1  'x, y, z'
loop_
 _atom_site_type_symbol
 _atom_site_label
 _atom_site_symmetry_multiplicity
 _atom_site_fract_x
 _atom_site_fract_y
 _atom_site_fract_z
 _atom_site_occupancy
  Te  Te0  1  0.333369  0.666739  0.707431  1
  Te  Te1  1  0.333348  0.666697  0.607711  1
  Mo  Mo2  1  0.333294  0.666587  0.093925  1
  Mo  Mo3  1  0.333311  0.666621  0.469631  1
  Mo  Mo4  1  0.666688  0.333377  0.281805  1
  Mo  Mo5  1  0.666689  0.333378  0.657596  1
  Se  Se6  1  0.333351  0.666703  0.325645  1
  Se  Se7  1  0.666649  0.333297  0.425762  1
  Se  Se8  1  0.666650  0.333300  0.513490  1
  Se  Se9  1  0.333348  0.666697  0.237906  1
  S  S10  1  0.666651  0.333301  0.054051  1
  S  S11  1  0.666652  0.333304  0.133794  1
