# generated using pymatgen
data_NdCuS2
_symmetry_space_group_name_H-M   'P 1'
_cell_length_a   6.51150994
_cell_length_b   6.88912744
_cell_length_c   7.20356974
_cell_angle_alpha   90.00000000
_cell_angle_beta   90.00000000
_cell_angle_gamma   97.54384136
_symmetry_Int_Tables_number   1
_chemical_formula_structural   NdCuS2
_chemical_formula_sum   'Nd4 Cu4 S8'
_cell_volume   320.34531668
_cell_formula_units_Z   4
loop_
 _symmetry_equiv_pos_site_id
 _symmetry_equiv_pos_as_xyz
  1  'x, y, z'
loop_
 _atom_site_type_symbol
 _atom_site_label
 _atom_site_symmetry_multiplicity
 _atom_site_fract_x
 _atom_site_fract_y
 _atom_site_fract_z
 _atom_site_occupancy
  S  S0  1  0.915205  0.001271  0.726040  1
  S  S1  1  0.084795  0.498729  0.226040  1
  S  S2  1  0.084795  0.998729  0.273960  1
  S  S3  1  0.915205  0.501271  0.773960  1
  S  S4  1  0.589770  0.777639  0.114253  1
  S  S5  1  0.589770  0.277639  0.385747  1
  S  S6  1  0.410230  0.222361  0.885747  1
  S  S7  1  0.410230  0.722361  0.614253  1
  Cu  Cu8  1  0.574336  0.048858  0.663852  1
  Cu  Cu9  1  0.425664  0.951142  0.336148  1
  Cu  Cu10  1  0.425664  0.451142  0.163852  1
  Cu  Cu11  1  0.574336  0.548858  0.836148  1
  Nd  Nd12  1  0.190901  0.799793  0.949877  1
  Nd  Nd13  1  0.809099  0.700207  0.449877  1
  Nd  Nd14  1  0.809099  0.200207  0.050123  1
  Nd  Nd15  1  0.190901  0.299793  0.550123  1
