# generated using pymatgen
data_Ca2MgWO6
_symmetry_space_group_name_H-M   'P 1'
_cell_length_a   5.47486927
_cell_length_b   5.63732390
_cell_length_c   7.81867850
_cell_angle_alpha   90.00000000
_cell_angle_beta   90.17839416
_cell_angle_gamma   90.00000000
_symmetry_Int_Tables_number   1
_chemical_formula_structural   Ca2MgWO6
_chemical_formula_sum   'Ca4 Mg2 W2 O12'
_cell_volume   241.31148517
_cell_formula_units_Z   2
loop_
 _symmetry_equiv_pos_site_id
 _symmetry_equiv_pos_as_xyz
  1  'x, y, z'
loop_
 _atom_site_type_symbol
 _atom_site_label
 _atom_site_symmetry_multiplicity
 _atom_site_fract_x
 _atom_site_fract_y
 _atom_site_fract_z
 _atom_site_occupancy
  O  O0  1  0.712308  0.695305  0.545000  1
  O  O1  1  0.787692  0.195305  0.955000  1
  O  O2  1  0.287692  0.304695  0.455000  1
  O  O3  1  0.212308  0.804695  0.045000  1
  O  O4  1  0.191749  0.784653  0.448470  1
  O  O5  1  0.308251  0.284653  0.051530  1
  O  O6  1  0.808251  0.215347  0.551530  1
  O  O7  1  0.691749  0.715347  0.948470  1
  O  O8  1  0.092177  0.530583  0.740719  1
  O  O9  1  0.407823  0.030583  0.759281  1
  O  O10  1  0.907823  0.469417  0.259281  1
  O  O11  1  0.592177  0.969417  0.240719  1
  Mg  Mg12  1  0.000000  0.500000  0.000000  1
  Mg  Mg13  1  0.500000  0.000000  0.500000  1
  Ca  Ca14  1  0.987977  0.949175  0.752488  1
  Ca  Ca15  1  0.512023  0.449175  0.747512  1
  Ca  Ca16  1  0.487977  0.550825  0.252488  1
  Ca  Ca17  1  0.012023  0.050825  0.247512  1
  W  W18  1  0.500000  0.000000  0.000000  1
  W  W19  1  0.000000  0.500000  0.500000  1
