# generated using pymatgen
data_HoMg2Cu9
_symmetry_space_group_name_H-M   'P 1'
_cell_length_a   4.99248936
_cell_length_b   4.99248937
_cell_length_c   16.17753534
_cell_angle_alpha   90.00000000
_cell_angle_beta   90.00000000
_cell_angle_gamma   119.99999996
_symmetry_Int_Tables_number   1
_chemical_formula_structural   HoMg2Cu9
_chemical_formula_sum   'Ho2 Mg4 Cu18'
_cell_volume   349.20245276
_cell_formula_units_Z   2
loop_
 _symmetry_equiv_pos_site_id
 _symmetry_equiv_pos_as_xyz
  1  'x, y, z'
loop_
 _atom_site_type_symbol
 _atom_site_label
 _atom_site_symmetry_multiplicity
 _atom_site_fract_x
 _atom_site_fract_y
 _atom_site_fract_z
 _atom_site_occupancy
  Mg  Mg0  1  0.666667  0.333333  0.467136  1
  Mg  Mg1  1  0.333333  0.666667  0.967136  1
  Mg  Mg2  1  0.666667  0.333333  0.032864  1
  Mg  Mg3  1  0.333333  0.666667  0.532864  1
  Cu  Cu4  1  0.333333  0.666667  0.250000  1
  Cu  Cu5  1  0.666667  0.333333  0.750000  1
  Cu  Cu6  1  0.168057  0.831943  0.376630  1
  Cu  Cu7  1  0.168057  0.336114  0.376630  1
  Cu  Cu8  1  0.000000  0.000000  0.750000  1
  Cu  Cu9  1  0.000000  0.000000  0.250000  1
  Cu  Cu10  1  0.000000  0.000000  0.000000  1
  Cu  Cu11  1  0.000000  0.000000  0.500000  1
  Cu  Cu12  1  0.168057  0.336114  0.123370  1
  Cu  Cu13  1  0.831943  0.168057  0.623370  1
  Cu  Cu14  1  0.336114  0.168057  0.623370  1
  Cu  Cu15  1  0.663886  0.831943  0.123370  1
  Cu  Cu16  1  0.168057  0.831943  0.123370  1
  Cu  Cu17  1  0.831943  0.663886  0.876630  1
  Cu  Cu18  1  0.831943  0.168057  0.876630  1
  Cu  Cu19  1  0.831943  0.663886  0.623370  1
  Cu  Cu20  1  0.336114  0.168057  0.876630  1
  Cu  Cu21  1  0.663886  0.831943  0.376630  1
  Ho  Ho22  1  0.666667  0.333333  0.250000  1
  Ho  Ho23  1  0.333333  0.666667  0.750000  1
