# generated using pymatgen
data_ErGeRu
_symmetry_space_group_name_H-M   'P 1'
_cell_length_a   4.39550164
_cell_length_b   6.99815623
_cell_length_c   7.25655269
_cell_angle_alpha   90.00000000
_cell_angle_beta   90.00000000
_cell_angle_gamma   90.00000000
_symmetry_Int_Tables_number   1
_chemical_formula_structural   ErGeRu
_chemical_formula_sum   'Er4 Ge4 Ru4'
_cell_volume   223.21451551
_cell_formula_units_Z   4
loop_
 _symmetry_equiv_pos_site_id
 _symmetry_equiv_pos_as_xyz
  1  'x, y, z'
loop_
 _atom_site_type_symbol
 _atom_site_label
 _atom_site_symmetry_multiplicity
 _atom_site_fract_x
 _atom_site_fract_y
 _atom_site_fract_z
 _atom_site_occupancy
  Ge  Ge0  1  0.250000  0.795705  0.107102  1
  Ge  Ge1  1  0.750000  0.204295  0.892898  1
  Ge  Ge2  1  0.250000  0.295705  0.392898  1
  Ge  Ge3  1  0.750000  0.704295  0.607102  1
  Ru  Ru4  1  0.750000  0.844087  0.937309  1
  Ru  Ru5  1  0.250000  0.155913  0.062691  1
  Ru  Ru6  1  0.750000  0.344087  0.562691  1
  Ru  Ru7  1  0.250000  0.655913  0.437309  1
  Er  Er8  1  0.250000  0.487843  0.807806  1
  Er  Er9  1  0.750000  0.512157  0.192194  1
  Er  Er10  1  0.250000  0.987843  0.692194  1
  Er  Er11  1  0.750000  0.012157  0.307806  1
