# generated using pymatgen
data_K2LiB(PO4)2
_symmetry_space_group_name_H-M   'P 1'
_cell_length_a   8.47403882
_cell_length_b   8.89592805
_cell_length_c   9.99991820
_cell_angle_alpha   90.00000000
_cell_angle_beta   95.23432530
_cell_angle_gamma   90.00000000
_symmetry_Int_Tables_number   1
_chemical_formula_structural   K2LiB(PO4)2
_chemical_formula_sum   'K8 Li4 B4 P8 O32'
_cell_volume   750.69466587
_cell_formula_units_Z   4
loop_
 _symmetry_equiv_pos_site_id
 _symmetry_equiv_pos_as_xyz
  1  'x, y, z'
loop_
 _atom_site_type_symbol
 _atom_site_label
 _atom_site_symmetry_multiplicity
 _atom_site_fract_x
 _atom_site_fract_y
 _atom_site_fract_z
 _atom_site_occupancy
  K  K0  1  0.455734  0.275158  0.178828  1
  K  K1  1  0.955734  0.224842  0.678828  1
  K  K2  1  0.544266  0.724842  0.821172  1
  K  K3  1  0.044266  0.775158  0.321172  1
  K  K4  1  0.475616  0.776520  0.412884  1
  K  K5  1  0.975616  0.723480  0.912884  1
  K  K6  1  0.524384  0.223480  0.587116  1
  K  K7  1  0.024384  0.276520  0.087116  1
  Li  Li8  1  0.311586  0.583646  0.119793  1
  Li  Li9  1  0.811586  0.916354  0.619793  1
  Li  Li10  1  0.688414  0.416354  0.880207  1
  Li  Li11  1  0.188414  0.083646  0.380207  1
  B  B12  1  0.158864  0.586402  0.625835  1
  B  B13  1  0.658864  0.913598  0.125835  1
  B  B14  1  0.841136  0.413598  0.374165  1
  B  B15  1  0.341136  0.086402  0.874165  1
  P  P16  1  0.317028  0.923067  0.107775  1
  P  P17  1  0.817028  0.576933  0.607775  1
  P  P18  1  0.682972  0.076933  0.892225  1
  P  P19  1  0.182972  0.423067  0.392225  1
  P  P20  1  0.299751  0.394932  0.829983  1
  P  P21  1  0.799751  0.105068  0.329983  1
  P  P22  1  0.700249  0.605068  0.170017  1
  P  P23  1  0.200249  0.894932  0.670017  1
  O  O24  1  0.259347  0.219528  0.810875  1
  O  O25  1  0.759347  0.280472  0.310875  1
  O  O26  1  0.740653  0.780472  0.189125  1
  O  O27  1  0.240653  0.719528  0.689125  1
  O  O28  1  0.265022  0.443040  0.970465  1
  O  O29  1  0.765022  0.056960  0.470465  1
  O  O30  1  0.734978  0.556960  0.029535  1
  O  O31  1  0.234978  0.943040  0.529535  1
  O  O32  1  0.167000  0.461300  0.722887  1
  O  O33  1  0.667000  0.038700  0.222887  1
  O  O34  1  0.833000  0.538700  0.277113  1
  O  O35  1  0.333000  0.961300  0.777113  1
  O  O36  1  0.465272  0.429190  0.791694  1
  O  O37  1  0.965272  0.070810  0.291694  1
  O  O38  1  0.534728  0.570810  0.208306  1
  O  O39  1  0.034728  0.929190  0.708306  1
  O  O40  1  0.263435  0.048286  0.998098  1
  O  O41  1  0.763435  0.451714  0.498098  1
  O  O42  1  0.736565  0.951714  0.001902  1
  O  O43  1  0.236565  0.548286  0.501902  1
  O  O44  1  0.311293  0.994060  0.245135  1
  O  O45  1  0.811293  0.505940  0.745135  1
  O  O46  1  0.688707  0.005940  0.754865  1
  O  O47  1  0.188707  0.494060  0.254865  1
  O  O48  1  0.215751  0.782547  0.085903  1
  O  O49  1  0.715751  0.717453  0.585903  1
  O  O50  1  0.784249  0.217453  0.914097  1
  O  O51  1  0.284249  0.282547  0.414097  1
  O  O52  1  0.491882  0.874581  0.082917  1
  O  O53  1  0.991882  0.625419  0.582917  1
  O  O54  1  0.508118  0.125419  0.917083  1
  O  O55  1  0.008118  0.374581  0.417083  1
