# generated using pymatgen
data_Te2MoWS2
_symmetry_space_group_name_H-M   'P 1'
_cell_length_a   3.35565656
_cell_length_b   3.35565981
_cell_length_c   38.31834622
_cell_angle_alpha   90.00040160
_cell_angle_beta   90.00000000
_cell_angle_gamma   119.99996796
_symmetry_Int_Tables_number   1
_chemical_formula_structural   Te2MoWS2
_chemical_formula_sum   'Te4 Mo2 W2 S4'
_cell_volume   373.67406917
_cell_formula_units_Z   2
loop_
 _symmetry_equiv_pos_site_id
 _symmetry_equiv_pos_as_xyz
  1  'x, y, z'
loop_
 _atom_site_type_symbol
 _atom_site_label
 _atom_site_symmetry_multiplicity
 _atom_site_fract_x
 _atom_site_fract_y
 _atom_site_fract_z
 _atom_site_occupancy
  Te  Te0  1  0.333358  0.666716  0.706950  1
  Te  Te1  1  0.666642  0.333284  0.044508  1
  Te  Te2  1  0.666650  0.333300  0.143299  1
  Te  Te3  1  0.333350  0.666700  0.608159  1
  Mo  Mo4  1  0.333312  0.666623  0.093889  1
  Mo  Mo5  1  0.666688  0.333377  0.657569  1
  W  W6  1  0.333305  0.666611  0.469648  1
  W  W7  1  0.666695  0.333389  0.281810  1
  S  S8  1  0.333357  0.666714  0.321444  1
  S  S9  1  0.666643  0.333286  0.430014  1
  S  S10  1  0.666644  0.333288  0.509291  1
  S  S11  1  0.333356  0.666713  0.242167  1
