# generated using pymatgen
data_CaAl2SiO6
_symmetry_space_group_name_H-M   'P 1'
_cell_length_a   9.75308701
_cell_length_b   8.73883155
_cell_length_c   5.33049943
_cell_angle_alpha   90.24352223
_cell_angle_beta   106.28885845
_cell_angle_gamma   89.76390451
_symmetry_Int_Tables_number   1
_chemical_formula_structural   CaAl2SiO6
_chemical_formula_sum   'Ca4 Al8 Si4 O24'
_cell_volume   436.07907780
_cell_formula_units_Z   4
loop_
 _symmetry_equiv_pos_site_id
 _symmetry_equiv_pos_as_xyz
  1  'x, y, z'
loop_
 _atom_site_type_symbol
 _atom_site_label
 _atom_site_symmetry_multiplicity
 _atom_site_fract_x
 _atom_site_fract_y
 _atom_site_fract_z
 _atom_site_occupancy
  Ca  Ca0  1  0.003761  0.309592  0.247013  1
  Ca  Ca1  1  0.486837  0.813827  0.244138  1
  Ca  Ca2  1  0.003526  0.687486  0.747257  1
  Ca  Ca3  1  0.486449  0.188482  0.743810  1
  Al  Al4  1  0.287776  0.096857  0.208312  1
  Al  Al5  1  0.217185  0.402721  0.790737  1
  Al  Al6  1  0.289313  0.901647  0.708562  1
  Al  Al7  1  0.784896  0.401569  0.709849  1
  Al  Al8  1  0.002374  0.909850  0.252125  1
  Al  Al9  1  0.495595  0.407197  0.259706  1
  Al  Al10  1  0.004667  0.093530  0.751927  1
  Al  Al11  1  0.498499  0.588837  0.760023  1
  Si  Si12  1  0.791775  0.596617  0.216595  1
  Si  Si13  1  0.714496  0.094523  0.282374  1
  Si  Si14  1  0.209113  0.596377  0.285761  1
  Si  Si15  1  0.713004  0.902410  0.780919  1
  O  O16  1  0.097348  0.072838  0.117084  1
  O  O17  1  0.363377  0.274742  0.320067  1
  O  O18  1  0.364518  0.024972  0.973571  1
  O  O19  1  0.614805  0.585056  0.132591  1
  O  O20  1  0.863388  0.764049  0.307667  1
  O  O21  1  0.854411  0.524650  0.986070  1
  O  O22  1  0.889041  0.081410  0.368473  1
  O  O23  1  0.636758  0.258139  0.208677  1
  O  O24  1  0.655178  0.010601  0.511280  1
  O  O25  1  0.386660  0.588950  0.373979  1
  O  O26  1  0.133696  0.762023  0.194010  1
  O  O27  1  0.146676  0.524336  0.514369  1
  O  O28  1  0.887986  0.906852  0.875191  1
  O  O29  1  0.630754  0.742617  0.695212  1
  O  O30  1  0.653545  0.988226  0.010303  1
  O  O31  1  0.405931  0.418494  0.894004  1
  O  O32  1  0.129214  0.232332  0.681461  1
  O  O33  1  0.144374  0.487198  0.026558  1
  O  O34  1  0.096744  0.918406  0.616911  1
  O  O35  1  0.369799  0.726042  0.825254  1
  O  O36  1  0.364232  0.975538  0.473649  1
  O  O37  1  0.597128  0.427469  0.618132  1
  O  O38  1  0.868271  0.227667  0.813276  1
  O  O39  1  0.856900  0.485869  0.473105  1
