# generated using pymatgen
data_Cs3BO3
_symmetry_space_group_name_H-M   'P 1'
_cell_length_a   11.12575163
_cell_length_b   11.17693288
_cell_length_c   10.62452856
_cell_angle_alpha   90.00000000
_cell_angle_beta   90.00000000
_cell_angle_gamma   90.00000000
_symmetry_Int_Tables_number   1
_chemical_formula_structural   Cs3BO3
_chemical_formula_sum   'Cs24 B8 O24'
_cell_volume   1321.17902968
_cell_formula_units_Z   8
loop_
 _symmetry_equiv_pos_site_id
 _symmetry_equiv_pos_as_xyz
  1  'x, y, z'
loop_
 _atom_site_type_symbol
 _atom_site_label
 _atom_site_symmetry_multiplicity
 _atom_site_fract_x
 _atom_site_fract_y
 _atom_site_fract_z
 _atom_site_occupancy
  Cs  Cs0  1  0.753173  0.256333  0.249456  1
  Cs  Cs1  1  0.246827  0.743667  0.249456  1
  Cs  Cs2  1  0.253173  0.243667  0.750544  1
  Cs  Cs3  1  0.746827  0.756333  0.750544  1
  Cs  Cs4  1  0.246827  0.743667  0.750544  1
  Cs  Cs5  1  0.753173  0.256333  0.750544  1
  Cs  Cs6  1  0.746827  0.756333  0.249456  1
  Cs  Cs7  1  0.253173  0.243667  0.249456  1
  Cs  Cs8  1  0.668530  0.482246  0.500000  1
  Cs  Cs9  1  0.331470  0.517754  0.500000  1
  Cs  Cs10  1  0.168530  0.017754  0.500000  1
  Cs  Cs11  1  0.831470  0.982246  0.500000  1
  Cs  Cs12  1  0.521721  0.168630  0.000000  1
  Cs  Cs13  1  0.478279  0.831370  0.000000  1
  Cs  Cs14  1  0.021721  0.331370  0.000000  1
  Cs  Cs15  1  0.978279  0.668630  0.000000  1
  Cs  Cs16  1  0.500000  -0.000000  0.315481  1
  Cs  Cs17  1  -0.000000  0.500000  0.684519  1
  Cs  Cs18  1  0.500000  -0.000000  0.684519  1
  Cs  Cs19  1  -0.000000  0.500000  0.315481  1
  Cs  Cs20  1  0.500000  0.500000  0.184135  1
  Cs  Cs21  1  -0.000000  -0.000000  0.815865  1
  Cs  Cs22  1  0.500000  0.500000  0.815865  1
  Cs  Cs23  1  -0.000000  -0.000000  0.184135  1
  B  B24  1  0.756225  0.466832  0.000000  1
  B  B25  1  0.243775  0.533168  0.000000  1
  B  B26  1  0.256225  0.033168  0.000000  1
  B  B27  1  0.743775  0.966832  0.000000  1
  B  B28  1  0.966319  0.244067  0.500000  1
  B  B29  1  0.033681  0.755933  0.500000  1
  B  B30  1  0.466319  0.255933  0.500000  1
  B  B31  1  0.533681  0.744067  0.500000  1
  O  O32  1  0.697088  0.008448  0.115561  1
  O  O33  1  0.302912  0.991552  0.115561  1
  O  O34  1  0.197088  0.491552  0.884439  1
  O  O35  1  0.802912  0.508448  0.884439  1
  O  O36  1  0.302912  0.991552  0.884439  1
  O  O37  1  0.697088  0.008448  0.884439  1
  O  O38  1  0.802912  0.508448  0.115561  1
  O  O39  1  0.197088  0.491552  0.115561  1
  O  O40  1  0.665030  0.380297  0.000000  1
  O  O41  1  0.334970  0.619703  0.000000  1
  O  O42  1  0.165030  0.119703  0.000000  1
  O  O43  1  0.834970  0.880297  0.000000  1
  O  O44  1  0.881130  0.336549  0.500000  1
  O  O45  1  0.118870  0.663451  0.500000  1
  O  O46  1  0.381130  0.163451  0.500000  1
  O  O47  1  0.618870  0.836549  0.500000  1
  O  O48  1  0.507306  0.303526  0.384603  1
  O  O49  1  0.492694  0.696474  0.384603  1
  O  O50  1  0.007306  0.196474  0.615397  1
  O  O51  1  0.992694  0.803526  0.615397  1
  O  O52  1  0.492694  0.696474  0.615397  1
  O  O53  1  0.507306  0.303526  0.615397  1
  O  O54  1  0.992694  0.803526  0.384603  1
  O  O55  1  0.007306  0.196474  0.384603  1
