# generated using pymatgen
data_Ni3(AsO4)2
_symmetry_space_group_name_H-M   'P 1'
_cell_length_a   5.83966967
_cell_length_b   9.69616013
_cell_length_c   10.33994854
_cell_angle_alpha   90.00000000
_cell_angle_beta   92.93069938
_cell_angle_gamma   90.00000000
_symmetry_Int_Tables_number   1
_chemical_formula_structural   Ni3(AsO4)2
_chemical_formula_sum   'Ni12 As8 O32'
_cell_volume   584.70667938
_cell_formula_units_Z   4
loop_
 _symmetry_equiv_pos_site_id
 _symmetry_equiv_pos_as_xyz
  1  'x, y, z'
loop_
 _atom_site_type_symbol
 _atom_site_label
 _atom_site_symmetry_multiplicity
 _atom_site_fract_x
 _atom_site_fract_y
 _atom_site_fract_z
 _atom_site_occupancy
  O  O0  1  0.117350  0.992113  0.634685  1
  O  O1  1  0.882650  0.492113  0.865315  1
  O  O2  1  0.882650  0.007887  0.365315  1
  O  O3  1  0.117350  0.507887  0.134685  1
  O  O4  1  0.116077  0.504304  0.632166  1
  O  O5  1  0.883923  0.004304  0.867834  1
  O  O6  1  0.883923  0.495696  0.367834  1
  O  O7  1  0.116077  0.995696  0.132166  1
  O  O8  1  0.868123  0.265509  0.694150  1
  O  O9  1  0.131877  0.765509  0.805850  1
  O  O10  1  0.131877  0.734491  0.305850  1
  O  O11  1  0.868123  0.234491  0.194150  1
  O  O12  1  0.373819  0.011353  0.877790  1
  O  O13  1  0.626181  0.511353  0.622210  1
  O  O14  1  0.626181  0.988647  0.122210  1
  O  O15  1  0.373819  0.488647  0.377790  1
  O  O16  1  0.631655  0.479078  0.118271  1
  O  O17  1  0.368345  0.979078  0.381729  1
  O  O18  1  0.368345  0.520922  0.881729  1
  O  O19  1  0.631655  0.020922  0.618271  1
  O  O20  1  0.385556  0.225218  0.228749  1
  O  O21  1  0.614444  0.725218  0.271251  1
  O  O22  1  0.614444  0.774782  0.771251  1
  O  O23  1  0.385556  0.274782  0.728749  1
  O  O24  1  0.604386  0.245480  0.453305  1
  O  O25  1  0.395614  0.745480  0.046695  1
  O  O26  1  0.395614  0.754520  0.546695  1
  O  O27  1  0.604386  0.254520  0.953305  1
  O  O28  1  0.155931  0.232552  0.466565  1
  O  O29  1  0.844069  0.732552  0.033435  1
  O  O30  1  0.844069  0.767448  0.533435  1
  O  O31  1  0.155931  0.267448  0.966565  1
  Ni  Ni32  1  0.883995  0.135340  0.534046  1
  Ni  Ni33  1  0.116005  0.635340  0.965954  1
  Ni  Ni34  1  0.116005  0.864660  0.465954  1
  Ni  Ni35  1  0.883995  0.364660  0.034046  1
  Ni  Ni36  1  0.641900  0.136616  0.784091  1
  Ni  Ni37  1  0.358100  0.636616  0.715909  1
  Ni  Ni38  1  0.358100  0.863384  0.215909  1
  Ni  Ni39  1  0.641900  0.363384  0.284091  1
  Ni  Ni40  1  0.362192  0.376603  0.557970  1
  Ni  Ni41  1  0.637808  0.876603  0.942030  1
  Ni  Ni42  1  0.637808  0.623397  0.442030  1
  Ni  Ni43  1  0.362192  0.123397  0.057970  1
  As  As44  1  0.366755  0.155705  0.381314  1
  As  As45  1  0.633245  0.655705  0.118686  1
  As  As46  1  0.633245  0.844295  0.618686  1
  As  As47  1  0.366755  0.344295  0.881314  1
  As  As48  1  0.875232  0.056743  0.204728  1
  As  As49  1  0.124768  0.556743  0.295272  1
  As  As50  1  0.124768  0.943257  0.795272  1
  As  As51  1  0.875232  0.443257  0.704728  1
