# generated using pymatgen
data_Ce3Zr5O16
_symmetry_space_group_name_H-M   'P 1'
_cell_length_a   7.50114808
_cell_length_b   7.50119928
_cell_length_c   5.36292375
_cell_angle_alpha   90.00000000
_cell_angle_beta   90.00000000
_cell_angle_gamma   90.48173526
_symmetry_Int_Tables_number   1
_chemical_formula_structural   Ce3Zr5O16
_chemical_formula_sum   'Ce3 Zr5 O16'
_cell_volume   301.74821807
_cell_formula_units_Z   1
loop_
 _symmetry_equiv_pos_site_id
 _symmetry_equiv_pos_as_xyz
  1  'x, y, z'
loop_
 _atom_site_type_symbol
 _atom_site_label
 _atom_site_symmetry_multiplicity
 _atom_site_fract_x
 _atom_site_fract_y
 _atom_site_fract_z
 _atom_site_occupancy
  Ce  Ce0  1  0.006940  0.993058  0.999995  1
  Ce  Ce1  1  0.750000  0.250000  0.500007  1
  Ce  Ce2  1  0.493060  0.506942  0.999995  1
  Zr  Zr3  1  0.250000  0.250000  0.500046  1
  Zr  Zr4  1  0.997240  0.497233  0.000013  1
  Zr  Zr5  1  0.250000  0.750000  0.500002  1
  Zr  Zr6  1  0.502760  0.002767  0.000013  1
  Zr  Zr7  1  0.750000  0.750000  0.499941  1
  O  O8  1  0.231362  0.009723  0.307838  1
  O  O9  1  0.994287  0.269320  0.222203  1
  O  O10  1  0.020144  0.239088  0.723614  1
  O  O11  1  0.271361  0.974516  0.790105  1
  O  O12  1  0.268638  0.490277  0.307837  1
  O  O13  1  0.025475  0.728647  0.209891  1
  O  O14  1  0.990275  0.768657  0.692146  1
  O  O15  1  0.228639  0.525484  0.790105  1
  O  O16  1  0.760902  0.979862  0.276389  1
  O  O17  1  0.505713  0.230680  0.222203  1
  O  O18  1  0.479856  0.260912  0.723614  1
  O  O19  1  0.730668  0.005718  0.777808  1
  O  O20  1  0.739098  0.520138  0.276389  1
  O  O21  1  0.474525  0.771353  0.209891  1
  O  O22  1  0.509725  0.731343  0.692146  1
  O  O23  1  0.769332  0.494282  0.777808  1
