# generated using pymatgen
data_Hf3Pb
_symmetry_space_group_name_H-M   'P 1'
_cell_length_a   6.33899961
_cell_length_b   6.33900001
_cell_length_c   5.16345634
_cell_angle_alpha   90.00000000
_cell_angle_beta   90.00000000
_cell_angle_gamma   119.99999264
_symmetry_Int_Tables_number   1
_chemical_formula_structural   Hf3Pb
_chemical_formula_sum   'Hf6 Pb2'
_cell_volume   179.68534199
_cell_formula_units_Z   2
loop_
 _symmetry_equiv_pos_site_id
 _symmetry_equiv_pos_as_xyz
  1  'x, y, z'
loop_
 _atom_site_type_symbol
 _atom_site_label
 _atom_site_symmetry_multiplicity
 _atom_site_fract_x
 _atom_site_fract_y
 _atom_site_fract_z
 _atom_site_occupancy
  Hf  Hf0  1  0.163983  0.327965  0.250001  1
  Hf  Hf1  1  0.672035  0.836017  0.250001  1
  Hf  Hf2  1  0.163982  0.836017  0.250001  1
  Hf  Hf3  1  0.836017  0.672033  0.750000  1
  Hf  Hf4  1  0.327967  0.163984  0.750000  1
  Hf  Hf5  1  0.836017  0.163984  0.750000  1
  Pb  Pb6  1  0.333334  0.666668  0.750000  1
  Pb  Pb7  1  0.666668  0.333334  0.250001  1
