# generated using pymatgen
data_Ba2TaN3
_symmetry_space_group_name_H-M   'P 1'
_cell_length_a   6.23841540
_cell_length_b   6.75659363
_cell_length_c   13.40602320
_cell_angle_alpha   89.55488578
_cell_angle_beta   89.03579108
_cell_angle_gamma   62.50611869
_symmetry_Int_Tables_number   1
_chemical_formula_structural   Ba2TaN3
_chemical_formula_sum   'Ba8 Ta4 N12'
_cell_volume   501.17987155
_cell_formula_units_Z   4
loop_
 _symmetry_equiv_pos_site_id
 _symmetry_equiv_pos_as_xyz
  1  'x, y, z'
loop_
 _atom_site_type_symbol
 _atom_site_label
 _atom_site_symmetry_multiplicity
 _atom_site_fract_x
 _atom_site_fract_y
 _atom_site_fract_z
 _atom_site_occupancy
  N  N0  1  0.316617  0.819341  0.949486  1
  N  N1  1  0.864041  0.819341  0.550514  1
  N  N2  1  0.683383  0.180659  0.050514  1
  N  N3  1  0.135959  0.180659  0.449486  1
  N  N4  1  0.006377  0.987246  0.750000  1
  N  N5  1  0.993623  0.012754  0.250000  1
  N  N6  1  0.555080  0.889840  0.750000  1
  N  N7  1  0.444920  0.110160  0.250000  1
  N  N8  1  0.535888  0.316007  0.627567  1
  N  N9  1  0.851894  0.683993  0.127567  1
  N  N10  1  0.464112  0.683993  0.372433  1
  N  N11  1  0.148106  0.316007  0.872433  1
  Ba  Ba12  1  0.449622  0.606248  0.139974  1
  Ba  Ba13  1  0.643882  0.226938  0.422969  1
  Ba  Ba14  1  0.870820  0.773062  0.922969  1
  Ba  Ba15  1  0.356118  0.773062  0.577031  1
  Ba  Ba16  1  0.550378  0.393752  0.860026  1
  Ba  Ba17  1  0.055870  0.393752  0.639974  1
  Ba  Ba18  1  0.944130  0.606248  0.360026  1
  Ba  Ba19  1  0.129180  0.226938  0.077031  1
  Ta  Ta20  1  0.262846  0.991972  0.333830  1
  Ta  Ta21  1  0.745182  0.991972  0.166170  1
  Ta  Ta22  1  0.737154  0.008028  0.666170  1
  Ta  Ta23  1  0.254818  0.008028  0.833830  1
