# generated using pymatgen
data_Te2MoW3(Se2S)2
_symmetry_space_group_name_H-M   'P 1'
_cell_length_a   3.34300242
_cell_length_b   3.34299410
_cell_length_c   38.12419309
_cell_angle_alpha   89.99973627
_cell_angle_beta   90.00000000
_cell_angle_gamma   120.00008236
_symmetry_Int_Tables_number   1
_chemical_formula_structural   Te2MoW3(Se2S)2
_chemical_formula_sum   'Te2 Mo1 W3 Se4 S2'
_cell_volume   368.98034487
_cell_formula_units_Z   1
loop_
 _symmetry_equiv_pos_site_id
 _symmetry_equiv_pos_as_xyz
  1  'x, y, z'
loop_
 _atom_site_type_symbol
 _atom_site_label
 _atom_site_symmetry_multiplicity
 _atom_site_fract_x
 _atom_site_fract_y
 _atom_site_fract_z
 _atom_site_occupancy
  Te  Te0  1  0.666651  0.333301  0.419621  1
  Te  Te1  1  0.666649  0.333297  0.519673  1
  Mo  Mo2  1  0.666688  0.333375  0.281777  1
  W  W3  1  0.333312  0.666623  0.093937  1
  W  W4  1  0.333311  0.666623  0.469662  1
  W  W5  1  0.666694  0.333388  0.657571  1
  Se  Se6  1  0.333351  0.666704  0.325468  1
  Se  Se7  1  0.333352  0.666704  0.701467  1
  Se  Se8  1  0.333350  0.666701  0.238057  1
  Se  Se9  1  0.333356  0.666713  0.613651  1
  S  S10  1  0.666640  0.333279  0.053969  1
  S  S11  1  0.666646  0.333292  0.133895  1
