# generated using pymatgen
data_MoW3(Se3S)2
_symmetry_space_group_name_H-M   'P 1'
_cell_length_a   3.29307708
_cell_length_b   3.29310519
_cell_length_c   37.58798963
_cell_angle_alpha   89.99929120
_cell_angle_beta   90.00102078
_cell_angle_gamma   119.99846534
_symmetry_Int_Tables_number   1
_chemical_formula_structural   MoW3(Se3S)2
_chemical_formula_sum   'Mo1 W3 Se6 S2'
_cell_volume   353.01563906
_cell_formula_units_Z   1
loop_
 _symmetry_equiv_pos_site_id
 _symmetry_equiv_pos_as_xyz
  1  'x, y, z'
loop_
 _atom_site_type_symbol
 _atom_site_label
 _atom_site_symmetry_multiplicity
 _atom_site_fract_x
 _atom_site_fract_y
 _atom_site_fract_z
 _atom_site_occupancy
  Mo  Mo0  1  0.666735  0.333456  0.281807  1
  W  W1  1  0.333200  0.666453  0.093937  1
  W  W2  1  0.333357  0.666664  0.469627  1
  W  W3  1  0.666730  0.333438  0.657556  1
  Se  Se4  1  0.333387  0.666734  0.702611  1
  Se  Se5  1  0.666474  0.333052  0.048859  1
  Se  Se6  1  0.666685  0.333351  0.424575  1
  Se  Se7  1  0.666539  0.333167  0.139001  1
  Se  Se8  1  0.666693  0.333374  0.514696  1
  Se  Se9  1  0.333392  0.666745  0.612480  1
  S  S10  1  0.333403  0.666785  0.322605  1
  S  S11  1  0.333405  0.666782  0.240993  1
