# generated using pymatgen
data_SrMgP2O7
_symmetry_space_group_name_H-M   'P 1'
_cell_length_a   5.37309628
_cell_length_b   8.39069214
_cell_length_c   12.93955140
_cell_angle_alpha   90.00000000
_cell_angle_beta   90.75191471
_cell_angle_gamma   90.00000000
_symmetry_Int_Tables_number   1
_chemical_formula_structural   SrMgP2O7
_chemical_formula_sum   'Sr4 Mg4 P8 O28'
_cell_volume   583.31645870
_cell_formula_units_Z   4
loop_
 _symmetry_equiv_pos_site_id
 _symmetry_equiv_pos_as_xyz
  1  'x, y, z'
loop_
 _atom_site_type_symbol
 _atom_site_label
 _atom_site_symmetry_multiplicity
 _atom_site_fract_x
 _atom_site_fract_y
 _atom_site_fract_z
 _atom_site_occupancy
  O  O0  1  0.329986  0.095632  0.099481  1
  O  O1  1  0.170014  0.595632  0.400519  1
  O  O2  1  0.670014  0.904368  0.900519  1
  O  O3  1  0.829986  0.404368  0.599481  1
  O  O4  1  0.907106  0.170088  0.022643  1
  O  O5  1  0.592894  0.670088  0.477357  1
  O  O6  1  0.092894  0.829912  0.977357  1
  O  O7  1  0.407106  0.329912  0.522643  1
  O  O8  1  0.308217  0.195262  0.914198  1
  O  O9  1  0.191783  0.695262  0.585802  1
  O  O10  1  0.691783  0.804738  0.085802  1
  O  O11  1  0.808217  0.304738  0.414198  1
  O  O12  1  0.048145  0.384561  0.237675  1
  O  O13  1  0.451855  0.884561  0.262325  1
  O  O14  1  0.951855  0.615439  0.762325  1
  O  O15  1  0.548145  0.115439  0.737675  1
  O  O16  1  0.732139  0.114283  0.556293  1
  O  O17  1  0.767861  0.614283  0.943707  1
  O  O18  1  0.267861  0.885717  0.443707  1
  O  O19  1  0.232139  0.385717  0.056293  1
  O  O20  1  0.679076  0.859532  0.654719  1
  O  O21  1  0.820924  0.359532  0.845281  1
  O  O22  1  0.320924  0.140468  0.345281  1
  O  O23  1  0.179076  0.640468  0.154719  1
  O  O24  1  0.007393  0.061185  0.714112  1
  O  O25  1  0.492607  0.561185  0.785888  1
  O  O26  1  0.992607  0.938815  0.285888  1
  O  O27  1  0.507393  0.438815  0.214112  1
  Mg  Mg28  1  0.177862  0.349500  0.392662  1
  Mg  Mg29  1  0.677862  0.150500  0.892662  1
  Mg  Mg30  1  0.822138  0.650500  0.607338  1
  Mg  Mg31  1  0.322138  0.849500  0.107338  1
  P  P32  1  0.254366  0.965458  0.330199  1
  P  P33  1  0.188405  0.201578  0.020988  1
  P  P34  1  0.754366  0.534542  0.830199  1
  P  P35  1  0.745634  0.034542  0.669801  1
  P  P36  1  0.811595  0.798422  0.979012  1
  P  P37  1  0.688405  0.298422  0.520988  1
  P  P38  1  0.311595  0.701578  0.479012  1
  P  P39  1  0.245634  0.465458  0.169801  1
  Sr  Sr40  1  0.712415  0.164301  0.222076  1
  Sr  Sr41  1  0.787585  0.664301  0.277924  1
  Sr  Sr42  1  0.287585  0.835699  0.777924  1
  Sr  Sr43  1  0.212415  0.335699  0.722076  1
