# generated using pymatgen
data_SrLiBO3
_symmetry_space_group_name_H-M   'P 1'
_cell_length_a   6.66675210
_cell_length_b   6.70737862
_cell_length_c   6.93371850
_cell_angle_alpha   90.00000000
_cell_angle_beta   109.03854701
_cell_angle_gamma   90.00000000
_symmetry_Int_Tables_number   1
_chemical_formula_structural   SrLiBO3
_chemical_formula_sum   'Sr4 Li4 B4 O12'
_cell_volume   293.09113599
_cell_formula_units_Z   4
loop_
 _symmetry_equiv_pos_site_id
 _symmetry_equiv_pos_as_xyz
  1  'x, y, z'
loop_
 _atom_site_type_symbol
 _atom_site_label
 _atom_site_symmetry_multiplicity
 _atom_site_fract_x
 _atom_site_fract_y
 _atom_site_fract_z
 _atom_site_occupancy
  Li  Li0  1  0.600324  0.096615  0.691303  1
  Li  Li1  1  0.899676  0.596615  0.808697  1
  Li  Li2  1  0.399676  0.903385  0.308697  1
  Li  Li3  1  0.100324  0.403385  0.191303  1
  B  B4  1  0.312367  0.628847  0.073523  1
  B  B5  1  0.187633  0.128847  0.426477  1
  B  B6  1  0.687633  0.371153  0.926477  1
  B  B7  1  0.812367  0.871153  0.573523  1
  O  O8  1  0.652515  0.398402  0.717906  1
  O  O9  1  0.103924  0.294293  0.493009  1
  O  O10  1  0.896076  0.705707  0.506991  1
  O  O11  1  0.603924  0.205707  0.993009  1
  O  O12  1  0.191069  0.489483  0.935675  1
  O  O13  1  0.308931  0.989483  0.564325  1
  O  O14  1  0.808931  0.510517  0.064325  1
  O  O15  1  0.691069  0.010517  0.435675  1
  O  O16  1  0.347485  0.601598  0.282094  1
  O  O17  1  0.152515  0.101598  0.217906  1
  O  O18  1  0.396076  0.794293  0.006991  1
  O  O19  1  0.847485  0.898402  0.782094  1
  Sr  Sr20  1  0.707168  0.380410  0.370443  1
  Sr  Sr21  1  0.792832  0.880410  0.129557  1
  Sr  Sr22  1  0.292832  0.619590  0.629557  1
  Sr  Sr23  1  0.207168  0.119590  0.870443  1
