# generated using pymatgen
data_Ba3P4
_symmetry_space_group_name_H-M   'P 1'
_cell_length_a   6.23987231
_cell_length_b   8.13218249
_cell_length_c   9.72635779
_cell_angle_alpha   82.93098247
_cell_angle_beta   71.29042549
_cell_angle_gamma   67.43985808
_symmetry_Int_Tables_number   1
_chemical_formula_structural   Ba3P4
_chemical_formula_sum   'Ba6 P8'
_cell_volume   431.69908576
_cell_formula_units_Z   2
loop_
 _symmetry_equiv_pos_site_id
 _symmetry_equiv_pos_as_xyz
  1  'x, y, z'
loop_
 _atom_site_type_symbol
 _atom_site_label
 _atom_site_symmetry_multiplicity
 _atom_site_fract_x
 _atom_site_fract_y
 _atom_site_fract_z
 _atom_site_occupancy
  P  P0  1  0.420115  0.655500  0.493915  1
  P  P1  1  0.569530  0.344500  0.506085  1
  P  P2  1  0.825615  0.844500  0.993915  1
  P  P3  1  0.664030  0.155500  0.006085  1
  P  P4  1  0.348832  0.193661  0.651654  1
  P  P5  1  0.194147  0.806339  0.348346  1
  P  P6  1  0.750487  0.693661  0.848346  1
  P  P7  1  0.292493  0.306339  0.151654  1
  Ba  Ba8  1  0.591532  0.990879  0.337174  1
  Ba  Ba9  1  0.919585  0.009121  0.662826  1
  Ba  Ba10  1  0.332411  0.509121  0.837174  1
  Ba  Ba11  1  0.678706  0.490879  0.162826  1
  Ba  Ba12  1  0.003619  0.500000  0.500000  1
  Ba  Ba13  1  0.253619  0.000000  0.000000  1
