# generated using pymatgen
data_Te4Mo(WS)2
_symmetry_space_group_name_H-M   'P 1'
_cell_length_a   3.42008125
_cell_length_b   3.42002031
_cell_length_c   32.59550636
_cell_angle_alpha   89.99830377
_cell_angle_beta   89.99998559
_cell_angle_gamma   120.00044461
_symmetry_Int_Tables_number   1
_chemical_formula_structural   Te4Mo(WS)2
_chemical_formula_sum   'Te4 Mo1 W2 S2'
_cell_volume   330.18058038
_cell_formula_units_Z   1
loop_
 _symmetry_equiv_pos_site_id
 _symmetry_equiv_pos_as_xyz
  1  'x, y, z'
loop_
 _atom_site_type_symbol
 _atom_site_label
 _atom_site_symmetry_multiplicity
 _atom_site_fract_x
 _atom_site_fract_y
 _atom_site_fract_z
 _atom_site_occupancy
  Te  Te0  1  0.333358  0.666718  0.403350  1
  Te  Te1  1  0.666626  0.333252  0.521704  1
  Te  Te2  1  0.666578  0.333155  0.636684  1
  Te  Te3  1  0.333416  0.666833  0.289128  1
  Mo  Mo4  1  0.666722  0.333445  0.346184  1
  W  W5  1  0.333318  0.666636  0.115507  1
  W  W6  1  0.333267  0.666537  0.579195  1
  S  S7  1  0.666660  0.333315  0.069448  1
  S  S8  1  0.666655  0.333308  0.161642  1
