# generated using pymatgen
data_Te4MoW3(SeS)2
_symmetry_space_group_name_H-M   'P 1'
_cell_length_a   3.39579789
_cell_length_b   3.39580597
_cell_length_c   38.77738743
_cell_angle_alpha   90.00053674
_cell_angle_beta   90.00000000
_cell_angle_gamma   119.99992135
_symmetry_Int_Tables_number   1
_chemical_formula_structural   Te4MoW3(SeS)2
_chemical_formula_sum   'Te4 Mo1 W3 Se2 S2'
_cell_volume   387.25249429
_cell_formula_units_Z   1
loop_
 _symmetry_equiv_pos_site_id
 _symmetry_equiv_pos_as_xyz
  1  'x, y, z'
loop_
 _atom_site_type_symbol
 _atom_site_label
 _atom_site_symmetry_multiplicity
 _atom_site_fract_x
 _atom_site_fract_y
 _atom_site_fract_z
 _atom_site_occupancy
  Te  Te0  1  0.666644  0.333287  0.045578  1
  Te  Te1  1  0.666648  0.333294  0.421057  1
  Te  Te2  1  0.666649  0.333298  0.142291  1
  Te  Te3  1  0.666643  0.333286  0.518220  1
  Mo  Mo4  1  0.333306  0.666611  0.093898  1
  W  W5  1  0.333312  0.666624  0.469612  1
  W  W6  1  0.666692  0.333384  0.281781  1
  W  W7  1  0.666689  0.333379  0.657580  1
  Se  Se8  1  0.333352  0.666705  0.700327  1
  Se  Se9  1  0.333349  0.666699  0.614822  1
  S  S10  1  0.333362  0.666725  0.320614  1
  S  S11  1  0.333353  0.666707  0.242968  1
