# generated using pymatgen
data_MoW(SeS)2
_symmetry_space_group_name_H-M   'P 1'
_cell_length_a   3.25326868
_cell_length_b   3.25322724
_cell_length_c   36.89383657
_cell_angle_alpha   90.00020835
_cell_angle_beta   90.00000000
_cell_angle_gamma   120.00042139
_symmetry_Int_Tables_number   1
_chemical_formula_structural   MoW(SeS)2
_chemical_formula_sum   'Mo2 W2 Se4 S4'
_cell_volume   338.15587671
_cell_formula_units_Z   2
loop_
 _symmetry_equiv_pos_site_id
 _symmetry_equiv_pos_as_xyz
  1  'x, y, z'
loop_
 _atom_site_type_symbol
 _atom_site_label
 _atom_site_symmetry_multiplicity
 _atom_site_fract_x
 _atom_site_fract_y
 _atom_site_fract_z
 _atom_site_occupancy
  Mo  Mo0  1  0.333312  0.666624  0.093921  1
  Mo  Mo1  1  0.666688  0.333377  0.657543  1
  W  W2  1  0.333310  0.666621  0.469657  1
  W  W3  1  0.666689  0.333378  0.281801  1
  Se  Se4  1  0.333353  0.666708  0.703569  1
  Se  Se5  1  0.666647  0.333293  0.423302  1
  Se  Se6  1  0.666648  0.333294  0.516014  1
  Se  Se7  1  0.333353  0.666707  0.611535  1
  S  S8  1  0.333355  0.666711  0.323798  1
  S  S9  1  0.666642  0.333284  0.051983  1
  S  S10  1  0.666646  0.333292  0.135849  1
  S  S11  1  0.333355  0.666711  0.239775  1
