# generated using pymatgen
data_Te4Mo3WS4
_symmetry_space_group_name_H-M   'P 1'
_cell_length_a   3.35764458
_cell_length_b   3.35758048
_cell_length_c   38.28142581
_cell_angle_alpha   89.99996176
_cell_angle_beta   90.00000000
_cell_angle_gamma   120.00063150
_symmetry_Int_Tables_number   1
_chemical_formula_structural   Te4Mo3WS4
_chemical_formula_sum   'Te4 Mo3 W1 S4'
_cell_volume   373.74649380
_cell_formula_units_Z   1
loop_
 _symmetry_equiv_pos_site_id
 _symmetry_equiv_pos_as_xyz
  1  'x, y, z'
loop_
 _atom_site_type_symbol
 _atom_site_label
 _atom_site_symmetry_multiplicity
 _atom_site_fract_x
 _atom_site_fract_y
 _atom_site_fract_z
 _atom_site_occupancy
  Te  Te0  1  0.333352  0.666704  0.706957  1
  Te  Te1  1  0.666643  0.333286  0.044511  1
  Te  Te2  1  0.666649  0.333296  0.143342  1
  Te  Te3  1  0.333353  0.666707  0.608145  1
  Mo  Mo4  1  0.333312  0.666624  0.093896  1
  Mo  Mo5  1  0.666699  0.333398  0.281790  1
  Mo  Mo6  1  0.666691  0.333381  0.657569  1
  W  W7  1  0.333309  0.666618  0.469652  1
  S  S8  1  0.333351  0.666703  0.321304  1
  S  S9  1  0.666646  0.333291  0.429967  1
  S  S10  1  0.666646  0.333291  0.509331  1
  S  S11  1  0.333350  0.666701  0.242285  1
