# generated using pymatgen
data_CePO4
_symmetry_space_group_name_H-M   'P 1'
_cell_length_a   5.99686427
_cell_length_b   5.99686427
_cell_length_c   5.99686427
_cell_angle_alpha   105.94872705
_cell_angle_beta   105.94872705
_cell_angle_gamma   116.77229860
_symmetry_Int_Tables_number   1
_chemical_formula_structural   CePO4
_chemical_formula_sum   'Ce2 P2 O8'
_cell_volume   163.97000769
_cell_formula_units_Z   2
loop_
 _symmetry_equiv_pos_site_id
 _symmetry_equiv_pos_as_xyz
  1  'x, y, z'
loop_
 _atom_site_type_symbol
 _atom_site_label
 _atom_site_symmetry_multiplicity
 _atom_site_fract_x
 _atom_site_fract_y
 _atom_site_fract_z
 _atom_site_occupancy
  Ce  Ce0  1  0.125000  0.375000  0.250000  1
  Ce  Ce1  1  0.875000  0.625000  0.750000  1
  P  P2  1  0.375000  0.125000  0.750000  1
  P  P3  1  0.625000  0.875000  0.250000  1
  O  O4  1  0.357612  0.277516  0.580096  1
  O  O5  1  0.777516  0.197419  0.419904  1
  O  O6  1  0.777516  0.857612  0.080096  1
  O  O7  1  0.697419  0.277516  0.919904  1
  O  O8  1  0.642388  0.722484  0.419904  1
  O  O9  1  0.222484  0.802581  0.580096  1
  O  O10  1  0.222484  0.142388  0.919904  1
  O  O11  1  0.302581  0.722484  0.080096  1
