# generated using pymatgen
data_Sm3Si6N11
_symmetry_space_group_name_H-M   'P 1'
_cell_length_a   4.89353902
_cell_length_b   10.07025773
_cell_length_c   10.07025773
_cell_angle_alpha   90.00000000
_cell_angle_beta   90.00000000
_cell_angle_gamma   90.00000000
_symmetry_Int_Tables_number   1
_chemical_formula_structural   Sm3Si6N11
_chemical_formula_sum   'Sm6 Si12 N22'
_cell_volume   496.25423610
_cell_formula_units_Z   2
loop_
 _symmetry_equiv_pos_site_id
 _symmetry_equiv_pos_as_xyz
  1  'x, y, z'
loop_
 _atom_site_type_symbol
 _atom_site_label
 _atom_site_symmetry_multiplicity
 _atom_site_fract_x
 _atom_site_fract_y
 _atom_site_fract_z
 _atom_site_occupancy
  N  N0  1  0.071956  0.000000  0.500000  1
  N  N1  1  0.071956  0.500000  0.000000  1
  N  N2  1  0.697647  0.846205  0.346205  1
  N  N3  1  0.697647  0.653795  0.846205  1
  N  N4  1  0.697647  0.346205  0.153795  1
  N  N5  1  0.697647  0.153795  0.653795  1
  N  N6  1  0.178977  0.577800  0.726615  1
  N  N7  1  0.178977  0.422200  0.273385  1
  N  N8  1  0.178977  0.726615  0.422200  1
  N  N9  1  0.178977  0.273385  0.577800  1
  N  N10  1  0.178977  0.773385  0.922200  1
  N  N11  1  0.178977  0.077800  0.773385  1
  N  N12  1  0.178977  0.922200  0.226615  1
  N  N13  1  0.178977  0.226615  0.077800  1
  N  N14  1  0.648969  0.680343  0.579014  1
  N  N15  1  0.648969  0.319657  0.420986  1
  N  N16  1  0.648969  0.579014  0.319657  1
  N  N17  1  0.648969  0.420986  0.680343  1
  N  N18  1  0.648969  0.079014  0.180343  1
  N  N19  1  0.648969  0.819657  0.079014  1
  N  N20  1  0.648969  0.180343  0.920986  1
  N  N21  1  0.648969  0.920986  0.819657  1
  Si  Si22  1  0.044148  0.881809  0.381809  1
  Si  Si23  1  0.044148  0.618191  0.881809  1
  Si  Si24  1  0.044148  0.381809  0.118191  1
  Si  Si25  1  0.044148  0.118191  0.618191  1
  Si  Si26  1  0.532388  0.579838  0.708327  1
  Si  Si27  1  0.532388  0.420162  0.291673  1
  Si  Si28  1  0.532388  0.708327  0.420162  1
  Si  Si29  1  0.532388  0.291673  0.579838  1
  Si  Si30  1  0.532388  0.791673  0.920162  1
  Si  Si31  1  0.532388  0.079838  0.791673  1
  Si  Si32  1  0.532388  0.920162  0.208327  1
  Si  Si33  1  0.532388  0.208327  0.079838  1
  Sm  Sm34  1  0.981645  0.500000  0.500000  1
  Sm  Sm35  1  0.981645  0.000000  0.000000  1
  Sm  Sm36  1  0.995007  0.317569  0.817569  1
  Sm  Sm37  1  0.995007  0.182431  0.317569  1
  Sm  Sm38  1  0.995007  0.817569  0.682431  1
  Sm  Sm39  1  0.995007  0.682431  0.182431  1
