# generated using pymatgen
data_Ca(YS2)2
_symmetry_space_group_name_H-M   'P 1'
_cell_length_a   3.90903391
_cell_length_b   13.03352526
_cell_length_c   13.17932975
_cell_angle_alpha   90.00000000
_cell_angle_beta   90.00000000
_cell_angle_gamma   90.00000000
_symmetry_Int_Tables_number   1
_chemical_formula_structural   Ca(YS2)2
_chemical_formula_sum   'Ca4 Y8 S16'
_cell_volume   671.46697908
_cell_formula_units_Z   4
loop_
 _symmetry_equiv_pos_site_id
 _symmetry_equiv_pos_as_xyz
  1  'x, y, z'
loop_
 _atom_site_type_symbol
 _atom_site_label
 _atom_site_symmetry_multiplicity
 _atom_site_fract_x
 _atom_site_fract_y
 _atom_site_fract_z
 _atom_site_occupancy
  S  S0  1  0.250000  0.971185  0.882449  1
  S  S1  1  0.750000  0.028815  0.117551  1
  S  S2  1  0.250000  0.471185  0.617551  1
  S  S3  1  0.750000  0.528815  0.382449  1
  S  S4  1  0.750000  0.743950  0.974653  1
  S  S5  1  0.250000  0.256050  0.025347  1
  S  S6  1  0.750000  0.243950  0.525347  1
  S  S7  1  0.250000  0.756050  0.474654  1
  S  S8  1  0.250000  0.533221  0.117219  1
  S  S9  1  0.750000  0.466779  0.882781  1
  S  S10  1  0.250000  0.033221  0.382781  1
  S  S11  1  0.750000  0.966779  0.617219  1
  S  S12  1  0.750000  0.782285  0.236794  1
  S  S13  1  0.250000  0.217715  0.763206  1
  S  S14  1  0.750000  0.282285  0.263206  1
  S  S15  1  0.250000  0.717715  0.736794  1
  Ca  Ca16  1  0.750000  0.629719  0.581277  1
  Ca  Ca17  1  0.250000  0.370281  0.418723  1
  Ca  Ca18  1  0.750000  0.129719  0.918723  1
  Ca  Ca19  1  0.250000  0.870281  0.081277  1
  Y  Y20  1  0.750000  0.892067  0.416586  1
  Y  Y21  1  0.250000  0.107933  0.583414  1
  Y  Y22  1  0.750000  0.392067  0.083414  1
  Y  Y23  1  0.250000  0.607933  0.916586  1
  Y  Y24  1  0.250000  0.646350  0.296943  1
  Y  Y25  1  0.750000  0.353650  0.703057  1
  Y  Y26  1  0.250000  0.146350  0.203057  1
  Y  Y27  1  0.750000  0.853650  0.796943  1
