# generated using pymatgen
data_Rb3SbSe3
_symmetry_space_group_name_H-M   'P 1'
_cell_length_a   10.39194416
_cell_length_b   10.39194416
_cell_length_c   10.39194416
_cell_angle_alpha   90.00000000
_cell_angle_beta   90.00000000
_cell_angle_gamma   90.00000000
_symmetry_Int_Tables_number   1
_chemical_formula_structural   Rb3SbSe3
_chemical_formula_sum   'Rb12 Sb4 Se12'
_cell_volume   1122.25206529
_cell_formula_units_Z   4
loop_
 _symmetry_equiv_pos_site_id
 _symmetry_equiv_pos_as_xyz
  1  'x, y, z'
loop_
 _atom_site_type_symbol
 _atom_site_label
 _atom_site_symmetry_multiplicity
 _atom_site_fract_x
 _atom_site_fract_y
 _atom_site_fract_z
 _atom_site_occupancy
  Se  Se0  1  0.213075  0.598538  0.495766  1
  Se  Se1  1  0.495766  0.213075  0.598538  1
  Se  Se2  1  0.598538  0.495766  0.213075  1
  Se  Se3  1  0.901462  0.504234  0.713075  1
  Se  Se4  1  0.995766  0.286925  0.401462  1
  Se  Se5  1  0.401462  0.995766  0.286925  1
  Se  Se6  1  0.004234  0.786925  0.098538  1
  Se  Se7  1  0.504234  0.713075  0.901462  1
  Se  Se8  1  0.098538  0.004234  0.786925  1
  Se  Se9  1  0.713075  0.901462  0.504234  1
  Se  Se10  1  0.786925  0.098538  0.004234  1
  Se  Se11  1  0.286925  0.401462  0.995766  1
  Rb  Rb12  1  0.316057  0.316057  0.316057  1
  Rb  Rb13  1  0.183943  0.683943  0.816057  1
  Rb  Rb14  1  0.816057  0.183943  0.683943  1
  Rb  Rb15  1  0.683943  0.816057  0.183943  1
  Rb  Rb16  1  0.577390  0.577390  0.577390  1
  Rb  Rb17  1  0.922610  0.422610  0.077390  1
  Rb  Rb18  1  0.077390  0.922610  0.422610  1
  Rb  Rb19  1  0.422610  0.077390  0.922610  1
  Rb  Rb20  1  0.810960  0.810960  0.810960  1
  Rb  Rb21  1  0.689040  0.189040  0.310960  1
  Rb  Rb22  1  0.310960  0.689040  0.189040  1
  Rb  Rb23  1  0.189040  0.310960  0.689040  1
  Sb  Sb24  1  0.025403  0.025403  0.025403  1
  Sb  Sb25  1  0.474597  0.974597  0.525403  1
  Sb  Sb26  1  0.525403  0.474597  0.974597  1
  Sb  Sb27  1  0.974597  0.525403  0.474597  1
