# generated using pymatgen
data_ErCrO3
_symmetry_space_group_name_H-M   'P 1'
_cell_length_a   5.26613620
_cell_length_b   5.59261384
_cell_length_c   7.62086385
_cell_angle_alpha   90.00000000
_cell_angle_beta   90.00000000
_cell_angle_gamma   90.00000000
_symmetry_Int_Tables_number   1
_chemical_formula_structural   ErCrO3
_chemical_formula_sum   'Er4 Cr4 O12'
_cell_volume   224.44561406
_cell_formula_units_Z   4
loop_
 _symmetry_equiv_pos_site_id
 _symmetry_equiv_pos_as_xyz
  1  'x, y, z'
loop_
 _atom_site_type_symbol
 _atom_site_label
 _atom_site_symmetry_multiplicity
 _atom_site_fract_x
 _atom_site_fract_y
 _atom_site_fract_z
 _atom_site_occupancy
  O  O0  1  0.690021  0.304971  0.439618  1
  O  O1  1  0.190023  0.195028  0.560383  1
  O  O2  1  0.809977  0.804971  0.060383  1
  O  O3  1  0.309977  0.695028  0.939618  1
  O  O4  1  0.309977  0.695028  0.560383  1
  O  O5  1  0.809977  0.804971  0.439618  1
  O  O6  1  0.190023  0.195028  0.939618  1
  O  O7  1  0.690021  0.304971  0.060383  1
  O  O8  1  0.118435  0.455659  0.250001  1
  O  O9  1  0.618435  0.044342  0.750000  1
  O  O10  1  0.881564  0.544342  0.750000  1
  O  O11  1  0.381564  0.955659  0.250001  1
  Cr  Cr12  1  0.500000  0.000000  0.500000  1
  Cr  Cr13  1  0.000000  0.500000  0.500000  1
  Cr  Cr14  1  0.000000  0.500000  0.000000  1
  Cr  Cr15  1  0.500000  0.000000  0.000000  1
  Er  Er16  1  0.020798  0.929546  0.750000  1
  Er  Er17  1  0.520796  0.570453  0.250001  1
  Er  Er18  1  0.479203  0.429546  0.750000  1
  Er  Er19  1  0.979203  0.070455  0.250001  1
