# generated using pymatgen
data_Ni(PO3)2
_symmetry_space_group_name_H-M   'P 1'
_cell_length_a   7.21581417
_cell_length_b   7.21581417
_cell_length_c   9.77752730
_cell_angle_alpha   98.68999600
_cell_angle_beta   109.88593056
_cell_angle_gamma   109.53406821
_symmetry_Int_Tables_number   1
_chemical_formula_structural   Ni(PO3)2
_chemical_formula_sum   'Ni4 P8 O24'
_cell_volume   430.57061835
_cell_formula_units_Z   4
loop_
 _symmetry_equiv_pos_site_id
 _symmetry_equiv_pos_as_xyz
  1  'x, y, z'
loop_
 _atom_site_type_symbol
 _atom_site_label
 _atom_site_symmetry_multiplicity
 _atom_site_fract_x
 _atom_site_fract_y
 _atom_site_fract_z
 _atom_site_occupancy
  O  O0  1  0.747339  0.584462  0.094021  1
  O  O1  1  0.990441  0.653319  0.405978  1
  O  O2  1  0.252661  0.415539  0.905979  1
  O  O3  1  0.009559  0.346681  0.594021  1
  O  O4  1  0.391053  0.210069  0.082818  1
  O  O5  1  0.627251  0.308235  0.417182  1
  O  O6  1  0.608947  0.789931  0.917181  1
  O  O7  1  0.372749  0.691765  0.582819  1
  O  O8  1  0.793912  0.216720  0.175636  1
  O  O9  1  0.541083  0.618276  0.324364  1
  O  O10  1  0.206088  0.783280  0.824364  1
  O  O11  1  0.458917  0.381724  0.675637  1
  O  O12  1  0.688093  0.188187  0.653999  1
  O  O13  1  0.034187  0.034092  0.846001  1
  O  O14  1  0.311908  0.811814  0.346000  1
  O  O15  1  0.965813  0.965907  0.154000  1
  O  O16  1  0.278655  0.000456  0.565275  1
  O  O17  1  0.935180  0.713379  0.934725  1
  O  O18  1  0.191594  0.310031  0.348730  1
  O  O19  1  0.064820  0.286621  0.065275  1
  O  O20  1  0.538698  0.157135  0.848730  1
  O  O21  1  0.808405  0.689969  0.651270  1
  O  O22  1  0.461302  0.842865  0.151271  1
  O  O23  1  0.721345  0.999544  0.434724  1
  P  P24  1  0.206023  0.248623  0.976557  1
  P  P25  1  0.772066  0.229466  0.523442  1
  P  P26  1  0.793977  0.751376  0.023443  1
  P  P27  1  0.227934  0.770535  0.476558  1
  P  P28  1  0.008073  0.204840  0.196950  1
  P  P29  1  0.507890  0.811124  0.303050  1
  P  P30  1  0.492110  0.188876  0.696949  1
  P  P31  1  0.991927  0.795161  0.803051  1
  Ni  Ni32  1  0.695362  0.445362  0.250001  1
  Ni  Ni33  1  0.304638  0.554638  0.750000  1
  Ni  Ni34  1  0.500000  0.000000  0.000000  1
  Ni  Ni35  1  0.499999  0.499999  0.499999  1
