# generated using pymatgen
data_LiSm2IrO6
_symmetry_space_group_name_H-M   'P 1'
_cell_length_a   5.39348336
_cell_length_b   5.82053330
_cell_length_c   7.71308231
_cell_angle_alpha   90.00000000
_cell_angle_beta   90.70599457
_cell_angle_gamma   90.00000000
_symmetry_Int_Tables_number   1
_chemical_formula_structural   LiSm2IrO6
_chemical_formula_sum   'Li2 Sm4 Ir2 O12'
_cell_volume   242.11802187
_cell_formula_units_Z   2
loop_
 _symmetry_equiv_pos_site_id
 _symmetry_equiv_pos_as_xyz
  1  'x, y, z'
loop_
 _atom_site_type_symbol
 _atom_site_label
 _atom_site_symmetry_multiplicity
 _atom_site_fract_x
 _atom_site_fract_y
 _atom_site_fract_z
 _atom_site_occupancy
  Li  Li0  1  0.000000  0.000000  0.000000  1
  Li  Li1  1  0.500000  0.500000  0.500000  1
  O  O2  1  0.175577  0.291315  0.443201  1
  O  O3  1  0.324423  0.791315  0.056799  1
  O  O4  1  0.824423  0.708685  0.556799  1
  O  O5  1  0.675577  0.208685  0.943201  1
  O  O6  1  0.107499  0.034629  0.746212  1
  O  O7  1  0.392501  0.534629  0.753788  1
  O  O8  1  0.195952  0.314683  0.051662  1
  O  O9  1  0.304048  0.814683  0.448338  1
  O  O10  1  0.804048  0.685317  0.948338  1
  O  O11  1  0.695952  0.185317  0.551662  1
  O  O12  1  0.607499  0.465371  0.246212  1
  O  O13  1  0.892501  0.965371  0.253788  1
  Sm  Sm14  1  0.479328  0.077790  0.252122  1
  Sm  Sm15  1  0.020672  0.577790  0.247878  1
  Sm  Sm16  1  0.979328  0.422210  0.752122  1
  Sm  Sm17  1  0.520672  0.922210  0.747878  1
  Ir  Ir18  1  0.500000  0.500000  0.000000  1
  Ir  Ir19  1  0.000000  0.000000  0.500000  1
