# generated using pymatgen
data_BaPr2CoS5
_symmetry_space_group_name_H-M   'P 1'
_cell_length_a   7.92672404
_cell_length_b   7.92672403
_cell_length_c   8.78495289
_cell_angle_alpha   116.81771379
_cell_angle_beta   116.81771377
_cell_angle_gamma   89.99999999
_symmetry_Int_Tables_number   1
_chemical_formula_structural   BaPr2CoS5
_chemical_formula_sum   'Ba2 Pr4 Co2 S10'
_cell_volume   425.03565353
_cell_formula_units_Z   2
loop_
 _symmetry_equiv_pos_site_id
 _symmetry_equiv_pos_as_xyz
  1  'x, y, z'
loop_
 _atom_site_type_symbol
 _atom_site_label
 _atom_site_symmetry_multiplicity
 _atom_site_fract_x
 _atom_site_fract_y
 _atom_site_fract_z
 _atom_site_occupancy
  S  S0  1  0.490928  0.990928  0.272590  1
  S  S1  1  0.218338  0.718338  0.727410  1
  S  S2  1  0.509072  0.009072  0.727410  1
  S  S3  1  0.718338  0.509072  0.727410  1
  S  S4  1  0.009072  0.218338  0.727410  1
  S  S5  1  0.281662  0.490928  0.272590  1
  S  S6  1  0.990928  0.781662  0.272590  1
  S  S7  1  0.781662  0.281662  0.272590  1
  S  S8  1  0.000000  0.000000  0.000000  1
  S  S9  1  0.500000  0.500000  0.000000  1
  Co  Co10  1  0.750000  0.250000  0.500000  1
  Co  Co11  1  0.250000  0.750000  0.500000  1
  Ba  Ba12  1  0.750000  0.750000  0.500000  1
  Ba  Ba13  1  0.250000  0.250000  0.500000  1
  Pr  Pr14  1  0.663216  0.836784  0.000000  1
  Pr  Pr15  1  0.163216  0.663216  0.000000  1
  Pr  Pr16  1  0.836784  0.336784  0.000000  1
  Pr  Pr17  1  0.336784  0.163216  0.000000  1
