# generated using pymatgen
data_U2Mn12P7
_symmetry_space_group_name_H-M   'P 1'
_cell_length_a   9.25752597
_cell_length_b   9.25752597
_cell_length_c   3.57767831
_cell_angle_alpha   90.00000000
_cell_angle_beta   90.00000000
_cell_angle_gamma   119.99999999
_symmetry_Int_Tables_number   1
_chemical_formula_structural   U2Mn12P7
_chemical_formula_sum   'U2 Mn12 P7'
_cell_volume   265.53501496
_cell_formula_units_Z   1
loop_
 _symmetry_equiv_pos_site_id
 _symmetry_equiv_pos_as_xyz
  1  'x, y, z'
loop_
 _atom_site_type_symbol
 _atom_site_label
 _atom_site_symmetry_multiplicity
 _atom_site_fract_x
 _atom_site_fract_y
 _atom_site_fract_z
 _atom_site_occupancy
  P  P0  1  0.000000  0.000000  0.000000  1
  P  P1  1  0.595466  0.714264  0.500000  1
  P  P2  1  0.706143  0.113066  0.000000  1
  P  P3  1  0.886934  0.593078  0.000000  1
  P  P4  1  0.406922  0.293857  0.000000  1
  P  P5  1  0.285736  0.881201  0.500000  1
  P  P6  1  0.118799  0.404534  0.500000  1
  Mn  Mn7  1  0.123117  0.846638  0.000000  1
  Mn  Mn8  1  0.386169  0.440563  0.500000  1
  Mn  Mn9  1  0.723522  0.876883  0.000000  1
  Mn  Mn10  1  0.559437  0.945606  0.500000  1
  Mn  Mn11  1  0.230586  0.107695  0.500000  1
  Mn  Mn12  1  0.877109  0.769414  0.500000  1
  Mn  Mn13  1  0.892305  0.122891  0.500000  1
  Mn  Mn14  1  0.940486  0.373010  0.000000  1
  Mn  Mn15  1  0.626990  0.567477  0.000000  1
  Mn  Mn16  1  0.432523  0.059514  0.000000  1
  Mn  Mn17  1  0.054394  0.613831  0.500000  1
  Mn  Mn18  1  0.153362  0.276478  0.000000  1
  U  U19  1  0.666667  0.333333  0.500000  1
  U  U20  1  0.333333  0.666667  0.000000  1
