# generated using pymatgen
data_USO6
_symmetry_space_group_name_H-M   'P 1'
_cell_length_a   6.01857876
_cell_length_b   6.82681889
_cell_length_c   12.96566518
_cell_angle_alpha   103.26314302
_cell_angle_beta   90.00000000
_cell_angle_gamma   90.00000000
_symmetry_Int_Tables_number   1
_chemical_formula_structural   USO6
_chemical_formula_sum   'U4 S4 O24'
_cell_volume   518.52028355
_cell_formula_units_Z   4
loop_
 _symmetry_equiv_pos_site_id
 _symmetry_equiv_pos_as_xyz
  1  'x, y, z'
loop_
 _atom_site_type_symbol
 _atom_site_label
 _atom_site_symmetry_multiplicity
 _atom_site_fract_x
 _atom_site_fract_y
 _atom_site_fract_z
 _atom_site_occupancy
  O  O0  1  0.996677  0.753387  0.906091  1
  O  O1  1  0.496677  0.246613  0.593909  1
  O  O2  1  0.003323  0.246613  0.093909  1
  O  O3  1  0.503323  0.753387  0.406091  1
  O  O4  1  0.014223  0.409833  0.731018  1
  O  O5  1  0.514223  0.590167  0.768982  1
  O  O6  1  0.985777  0.590167  0.268982  1
  O  O7  1  0.485777  0.409833  0.231018  1
  O  O8  1  0.207044  0.379788  0.400837  1
  O  O9  1  0.707044  0.620212  0.099163  1
  O  O10  1  0.792956  0.620212  0.599163  1
  O  O11  1  0.292956  0.379788  0.900837  1
  O  O12  1  0.054839  0.774590  0.500129  1
  O  O13  1  0.554839  0.225410  0.999871  1
  O  O14  1  0.945161  0.225410  0.499871  1
  O  O15  1  0.445161  0.774590  0.000129  1
  O  O16  1  0.155012  0.019593  0.356612  1
  O  O17  1  0.655012  0.980407  0.143388  1
  O  O18  1  0.844988  0.980407  0.643388  1
  O  O19  1  0.344988  0.019593  0.856612  1
  O  O20  1  0.361216  0.764624  0.181016  1
  O  O21  1  0.861216  0.235376  0.318984  1
  O  O22  1  0.638784  0.235376  0.818984  1
  O  O23  1  0.138784  0.764624  0.681016  1
  S  S24  1  0.958231  0.785154  0.606147  1
  S  S25  1  0.458231  0.214846  0.893853  1
  S  S26  1  0.041769  0.214846  0.393853  1
  S  S27  1  0.541769  0.785154  0.106147  1
  U  U28  1  0.253473  0.678216  0.839291  1
  U  U29  1  0.753473  0.321784  0.660709  1
  U  U30  1  0.746527  0.321784  0.160709  1
  U  U31  1  0.246527  0.678216  0.339291  1
