# generated using pymatgen
data_Te2Mo(WS2)2
_symmetry_space_group_name_H-M   'P 1'
_cell_length_a   3.30294814
_cell_length_b   3.30287049
_cell_length_c   30.58254752
_cell_angle_alpha   90.00016073
_cell_angle_beta   90.00000000
_cell_angle_gamma   120.00077774
_symmetry_Int_Tables_number   1
_chemical_formula_structural   Te2Mo(WS2)2
_chemical_formula_sum   'Te2 Mo1 W2 S4'
_cell_volume   288.93103045
_cell_formula_units_Z   1
loop_
 _symmetry_equiv_pos_site_id
 _symmetry_equiv_pos_as_xyz
  1  'x, y, z'
loop_
 _atom_site_type_symbol
 _atom_site_label
 _atom_site_symmetry_multiplicity
 _atom_site_fract_x
 _atom_site_fract_y
 _atom_site_fract_z
 _atom_site_occupancy
  Te  Te0  1  0.333358  0.666716  0.410003  1
  Te  Te1  1  0.333349  0.666700  0.283922  1
  Mo  Mo2  1  0.333295  0.666591  0.115615  1
  W  W3  1  0.333310  0.666619  0.578367  1
  W  W4  1  0.666689  0.333378  0.346963  1
  S  S5  1  0.666655  0.333309  0.065596  1
  S  S6  1  0.666644  0.333288  0.528101  1
  S  S7  1  0.666656  0.333311  0.165671  1
  S  S8  1  0.666645  0.333288  0.628603  1
