# generated using pymatgen
data_NaSiSbO5
_symmetry_space_group_name_H-M   'P 1'
_cell_length_a   6.41377937
_cell_length_b   10.74717925
_cell_length_c   12.98715217
_cell_angle_alpha   90.00000000
_cell_angle_beta   90.00000000
_cell_angle_gamma   90.00000000
_symmetry_Int_Tables_number   1
_chemical_formula_structural   NaSiSbO5
_chemical_formula_sum   'Na8 Si8 Sb8 O40'
_cell_volume   895.20487388
_cell_formula_units_Z   8
loop_
 _symmetry_equiv_pos_site_id
 _symmetry_equiv_pos_as_xyz
  1  'x, y, z'
loop_
 _atom_site_type_symbol
 _atom_site_label
 _atom_site_symmetry_multiplicity
 _atom_site_fract_x
 _atom_site_fract_y
 _atom_site_fract_z
 _atom_site_occupancy
  O  O0  1  0.535711  0.857577  0.288348  1
  O  O1  1  0.464289  0.357577  0.711652  1
  O  O2  1  0.964289  0.857577  0.788348  1
  O  O3  1  0.035711  0.357577  0.211652  1
  O  O4  1  0.501057  0.116706  0.258866  1
  O  O5  1  0.498943  0.616706  0.741134  1
  O  O6  1  0.998943  0.116706  0.758866  1
  O  O7  1  0.001057  0.616706  0.241134  1
  O  O8  1  0.985619  0.868194  0.248470  1
  O  O9  1  0.014381  0.368194  0.751530  1
  O  O10  1  0.514381  0.868194  0.748470  1
  O  O11  1  0.485619  0.368194  0.251530  1
  O  O12  1  0.057390  0.101268  0.224553  1
  O  O13  1  0.942610  0.601268  0.775447  1
  O  O14  1  0.442610  0.101268  0.724553  1
  O  O15  1  0.669546  0.726734  0.917309  1
  O  O16  1  0.557390  0.601268  0.275447  1
  O  O17  1  0.782467  0.479403  0.603751  1
  O  O18  1  0.282467  0.979403  0.896249  1
  O  O19  1  0.717533  0.479403  0.103751  1
  O  O20  1  0.825569  0.038182  0.385919  1
  O  O21  1  0.174431  0.538182  0.614081  1
  O  O22  1  0.674431  0.038182  0.885919  1
  O  O23  1  0.325569  0.538182  0.114081  1
  O  O24  1  0.517446  0.155177  0.475084  1
  O  O25  1  0.482554  0.655177  0.524916  1
  O  O26  1  0.982554  0.155177  0.975084  1
  O  O27  1  0.017446  0.655177  0.024916  1
  O  O28  1  0.433788  0.397561  0.493142  1
  O  O29  1  0.566212  0.897561  0.506858  1
  O  O30  1  0.066212  0.397561  0.993142  1
  O  O31  1  0.933788  0.897561  0.006858  1
  O  O32  1  0.180905  0.256595  0.381686  1
  O  O33  1  0.819095  0.756595  0.618314  1
  O  O34  1  0.319095  0.256595  0.881686  1
  O  O35  1  0.680905  0.756595  0.118314  1
  O  O36  1  0.169546  0.226734  0.582691  1
  O  O37  1  0.830454  0.726734  0.417309  1
  O  O38  1  0.330454  0.226734  0.082691  1
  O  O39  1  0.217533  0.979403  0.396249  1
  Na  Na40  1  0.246004  0.573872  0.394065  1
  Na  Na41  1  0.753996  0.073872  0.605935  1
  Na  Na42  1  0.253996  0.573872  0.894065  1
  Na  Na43  1  0.746004  0.073872  0.105935  1
  Na  Na44  1  0.289831  0.776032  0.154949  1
  Na  Na45  1  0.710169  0.276032  0.845051  1
  Na  Na46  1  0.210169  0.776032  0.654949  1
  Na  Na47  1  0.789831  0.276032  0.345051  1
  Si  Si48  1  0.024705  0.995599  0.315617  1
  Si  Si49  1  0.975295  0.495599  0.684383  1
  Si  Si50  1  0.475295  0.995599  0.815617  1
  Si  Si51  1  0.524705  0.495599  0.184383  1
  Si  Si52  1  0.825927  0.757873  0.014242  1
  Si  Si53  1  0.174073  0.257873  0.985758  1
  Si  Si54  1  0.674073  0.757873  0.514242  1
  Si  Si55  1  0.325927  0.257873  0.485758  1
  Sb  Sb56  1  0.768655  0.737291  0.267230  1
  Sb  Sb57  1  0.231345  0.237291  0.732770  1
  Sb  Sb58  1  0.731345  0.737291  0.767230  1
  Sb  Sb59  1  0.268655  0.237291  0.232770  1
  Sb  Sb60  1  0.020094  0.502837  0.117966  1
  Sb  Sb61  1  0.979906  0.002837  0.882034  1
  Sb  Sb62  1  0.479906  0.502837  0.617966  1
  Sb  Sb63  1  0.520094  0.002837  0.382034  1
