# generated using pymatgen
data_BaCr(Si2O5)2
_symmetry_space_group_name_H-M   'P 1'
_cell_length_a   7.64082816
_cell_length_b   7.64082816
_cell_length_c   16.43155814
_cell_angle_alpha   90.00000000
_cell_angle_beta   90.00000000
_cell_angle_gamma   90.00000000
_symmetry_Int_Tables_number   1
_chemical_formula_structural   BaCr(Si2O5)2
_chemical_formula_sum   'Ba4 Cr4 Si16 O40'
_cell_volume   959.31141689
_cell_formula_units_Z   4
loop_
 _symmetry_equiv_pos_site_id
 _symmetry_equiv_pos_as_xyz
  1  'x, y, z'
loop_
 _atom_site_type_symbol
 _atom_site_label
 _atom_site_symmetry_multiplicity
 _atom_site_fract_x
 _atom_site_fract_y
 _atom_site_fract_z
 _atom_site_occupancy
  O  O0  1  0.020874  0.386022  0.591189  1
  O  O1  1  0.479126  0.113978  0.591189  1
  O  O2  1  0.886022  0.520874  0.908811  1
  O  O3  1  0.386022  0.479126  0.591189  1
  O  O4  1  0.113978  0.020874  0.591189  1
  O  O5  1  0.979126  0.886022  0.908811  1
  O  O6  1  0.520874  0.613978  0.908811  1
  O  O7  1  0.613978  0.979126  0.908811  1
  O  O8  1  0.979126  0.613978  0.408811  1
  O  O9  1  0.520874  0.886022  0.408811  1
  O  O10  1  0.113978  0.479126  0.091189  1
  O  O11  1  0.613978  0.520874  0.408811  1
  O  O12  1  0.886022  0.979126  0.408811  1
  O  O13  1  0.020874  0.113978  0.091189  1
  O  O14  1  0.479126  0.386022  0.091189  1
  O  O15  1  0.004341  0.280296  0.362250  1
  O  O16  1  0.386022  0.020874  0.091189  1
  O  O17  1  0.504341  0.780296  0.637750  1
  O  O18  1  0.219704  0.495659  0.862250  1
  O  O19  1  0.719704  0.504341  0.637750  1
  O  O20  1  0.780296  0.995659  0.637750  1
  O  O21  1  0.004341  0.219704  0.862250  1
  O  O22  1  0.495659  0.280296  0.862250  1
  O  O23  1  0.280296  0.004341  0.862250  1
  O  O24  1  0.470847  0.970847  0.250000  1
  O  O25  1  0.529153  0.470847  0.250000  1
  O  O26  1  0.970847  0.029153  0.250000  1
  O  O27  1  0.029153  0.529153  0.250000  1
  O  O28  1  0.529153  0.029153  0.750000  1
  O  O29  1  0.470847  0.529153  0.750000  1
  O  O30  1  0.029153  0.970847  0.750000  1
  O  O31  1  0.970847  0.470847  0.750000  1
  O  O32  1  0.719704  0.995659  0.137750  1
  O  O33  1  0.504341  0.719704  0.137750  1
  O  O34  1  0.995659  0.780296  0.137750  1
  O  O35  1  0.219704  0.004341  0.362250  1
  O  O36  1  0.280296  0.495659  0.362250  1
  O  O37  1  0.780296  0.504341  0.137750  1
  O  O38  1  0.495659  0.219704  0.362250  1
  O  O39  1  0.995659  0.719704  0.637750  1
  Si  Si40  1  0.932181  0.517184  0.655130  1
  Si  Si41  1  0.567819  0.982816  0.655130  1
  Si  Si42  1  0.017184  0.432181  0.844870  1
  Si  Si43  1  0.517184  0.567819  0.655130  1
  Si  Si44  1  0.982816  0.932181  0.655130  1
  Si  Si45  1  0.067819  0.017184  0.844870  1
  Si  Si46  1  0.432181  0.482816  0.844870  1
  Si  Si47  1  0.482816  0.067819  0.844870  1
  Si  Si48  1  0.067819  0.482816  0.344870  1
  Si  Si49  1  0.432181  0.017184  0.344870  1
  Si  Si50  1  0.982816  0.567819  0.155130  1
  Si  Si51  1  0.482816  0.432181  0.344870  1
  Si  Si52  1  0.017184  0.067819  0.344870  1
  Si  Si53  1  0.932181  0.982816  0.155130  1
  Si  Si54  1  0.567819  0.517184  0.155130  1
  Si  Si55  1  0.517184  0.932181  0.155130  1
  Cr  Cr56  1  0.250000  0.250000  0.594331  1
  Cr  Cr57  1  0.750000  0.750000  0.905669  1
  Cr  Cr58  1  0.750000  0.750000  0.405669  1
  Cr  Cr59  1  0.250000  0.250000  0.094331  1
  Ba  Ba60  1  0.250000  0.750000  0.500000  1
  Ba  Ba61  1  0.750000  0.250000  0.500000  1
  Ba  Ba62  1  0.750000  0.250000  0.000000  1
  Ba  Ba63  1  0.250000  0.750000  0.000000  1
