# generated using pymatgen
data_Te2MoW3(SeS2)2
_symmetry_space_group_name_H-M   'P 1'
_cell_length_a   3.30765500
_cell_length_b   3.30767564
_cell_length_c   37.65261547
_cell_angle_alpha   89.99986087
_cell_angle_beta   90.00000000
_cell_angle_gamma   119.99979358
_symmetry_Int_Tables_number   1
_chemical_formula_structural   Te2MoW3(SeS2)2
_chemical_formula_sum   'Te2 Mo1 W3 Se2 S4'
_cell_volume   356.75478245
_cell_formula_units_Z   1
loop_
 _symmetry_equiv_pos_site_id
 _symmetry_equiv_pos_as_xyz
  1  'x, y, z'
loop_
 _atom_site_type_symbol
 _atom_site_label
 _atom_site_symmetry_multiplicity
 _atom_site_fract_x
 _atom_site_fract_y
 _atom_site_fract_z
 _atom_site_occupancy
  Te  Te0  1  0.333356  0.666712  0.708646  1
  Te  Te1  1  0.333356  0.666713  0.606466  1
  Mo  Mo2  1  0.333312  0.666623  0.093918  1
  W  W3  1  0.333311  0.666621  0.469630  1
  W  W4  1  0.666692  0.333383  0.281802  1
  W  W5  1  0.666692  0.333383  0.657581  1
  Se  Se6  1  0.666637  0.333273  0.049277  1
  Se  Se7  1  0.666643  0.333284  0.138558  1
  S  S8  1  0.333355  0.666712  0.322529  1
  S  S9  1  0.666644  0.333288  0.428920  1
  S  S10  1  0.666648  0.333295  0.510353  1
  S  S11  1  0.333355  0.666712  0.241068  1
