# generated using pymatgen
data_LuCrO4
_symmetry_space_group_name_H-M   'P 1'
_cell_length_a   5.88650738
_cell_length_b   5.88650739
_cell_length_c   5.88650739
_cell_angle_alpha   106.15773446
_cell_angle_beta   106.15773451
_cell_angle_gamma   116.32323502
_symmetry_Int_Tables_number   1
_chemical_formula_structural   LuCrO4
_chemical_formula_sum   'Lu2 Cr2 O8'
_cell_volume   155.31495894
_cell_formula_units_Z   2
loop_
 _symmetry_equiv_pos_site_id
 _symmetry_equiv_pos_as_xyz
  1  'x, y, z'
loop_
 _atom_site_type_symbol
 _atom_site_label
 _atom_site_symmetry_multiplicity
 _atom_site_fract_x
 _atom_site_fract_y
 _atom_site_fract_z
 _atom_site_occupancy
  O  O0  1  0.303104  0.239808  0.436704  1
  O  O1  1  0.866399  0.303103  0.563295  1
  O  O2  1  0.239808  0.303104  0.936705  1
  O  O3  1  0.303103  0.866399  0.063296  1
  O  O4  1  0.133600  0.696896  0.436703  1
  O  O5  1  0.696896  0.760191  0.563294  1
  O  O6  1  0.760192  0.696897  0.063296  1
  O  O7  1  0.696897  0.133602  0.936705  1
  Cr  Cr8  1  0.874999  0.125000  0.750001  1
  Cr  Cr9  1  0.125001  0.875001  0.250000  1
  Lu  Lu10  1  0.375001  0.625000  0.750001  1
  Lu  Lu11  1  0.624999  0.374999  0.249999  1
