# generated using pymatgen
data_Co(PdSe)2
_symmetry_space_group_name_H-M   'P 1'
_cell_length_a   5.04260456
_cell_length_b   6.04421456
_cell_length_c   6.61953790
_cell_angle_alpha   117.16429251
_cell_angle_beta   112.38869570
_cell_angle_gamma   89.99999997
_symmetry_Int_Tables_number   1
_chemical_formula_structural   Co(PdSe)2
_chemical_formula_sum   'Co2 Pd4 Se4'
_cell_volume   162.21990962
_cell_formula_units_Z   2
loop_
 _symmetry_equiv_pos_site_id
 _symmetry_equiv_pos_as_xyz
  1  'x, y, z'
loop_
 _atom_site_type_symbol
 _atom_site_label
 _atom_site_symmetry_multiplicity
 _atom_site_fract_x
 _atom_site_fract_y
 _atom_site_fract_z
 _atom_site_occupancy
  Co  Co0  1  0.750000  0.000000  0.000000  1
  Co  Co1  1  0.250000  0.000000  0.000000  1
  Se  Se2  1  0.641278  0.931374  0.282556  1
  Se  Se3  1  0.358722  0.068626  0.717444  1
  Se  Se4  1  0.141278  0.351182  0.282556  1
  Se  Se5  1  0.858722  0.648818  0.717444  1
  Pd  Pd6  1  0.887196  0.262957  0.774393  1
  Pd  Pd7  1  0.112804  0.737043  0.225607  1
  Pd  Pd8  1  0.612804  0.488565  0.225607  1
  Pd  Pd9  1  0.387196  0.511435  0.774393  1
