# generated using pymatgen
data_Sr2CdWO6
_symmetry_space_group_name_H-M   'P 1'
_cell_length_a   5.80763975
_cell_length_b   5.95888518
_cell_length_c   8.25613022
_cell_angle_alpha   90.00000000
_cell_angle_beta   89.95151566
_cell_angle_gamma   90.00000000
_symmetry_Int_Tables_number   1
_chemical_formula_structural   Sr2CdWO6
_chemical_formula_sum   'Sr4 Cd2 W2 O12'
_cell_volume   285.72027890
_cell_formula_units_Z   2
loop_
 _symmetry_equiv_pos_site_id
 _symmetry_equiv_pos_as_xyz
  1  'x, y, z'
loop_
 _atom_site_type_symbol
 _atom_site_label
 _atom_site_symmetry_multiplicity
 _atom_site_fract_x
 _atom_site_fract_y
 _atom_site_fract_z
 _atom_site_occupancy
  O  O0  1  0.680228  0.230338  0.551166  1
  O  O1  1  0.819772  0.730338  0.948834  1
  O  O2  1  0.319772  0.769662  0.448834  1
  O  O3  1  0.180228  0.269662  0.051166  1
  O  O4  1  0.772751  0.684916  0.540823  1
  O  O5  1  0.727249  0.184916  0.959177  1
  O  O6  1  0.227249  0.315084  0.459177  1
  O  O7  1  0.272751  0.815084  0.040823  1
  O  O8  1  0.087402  0.031673  0.771926  1
  O  O9  1  0.412598  0.531673  0.728074  1
  O  O10  1  0.912598  0.968327  0.228074  1
  O  O11  1  0.587402  0.468327  0.271926  1
  Sr  Sr12  1  0.510206  0.953672  0.751979  1
  Sr  Sr13  1  0.989794  0.453672  0.748021  1
  Sr  Sr14  1  0.489794  0.046328  0.248021  1
  Sr  Sr15  1  0.010206  0.546328  0.251979  1
  Cd  Cd16  1  0.000000  0.000000  0.500000  1
  Cd  Cd17  1  0.500000  0.500000  0.000000  1
  W  W18  1  0.500000  0.500000  0.500000  1
  W  W19  1  0.000000  0.000000  0.000000  1
