# generated using pymatgen
data_TeMoWSe3
_symmetry_space_group_name_H-M   'P 1'
_cell_length_a   3.38079466
_cell_length_b   3.38073055
_cell_length_c   38.51732573
_cell_angle_alpha   90.00064353
_cell_angle_beta   90.00000000
_cell_angle_gamma   120.00062733
_symmetry_Int_Tables_number   1
_chemical_formula_structural   TeMoWSe3
_chemical_formula_sum   'Te2 Mo2 W2 Se6'
_cell_volume   381.25308293
_cell_formula_units_Z   2
loop_
 _symmetry_equiv_pos_site_id
 _symmetry_equiv_pos_as_xyz
  1  'x, y, z'
loop_
 _atom_site_type_symbol
 _atom_site_label
 _atom_site_symmetry_multiplicity
 _atom_site_fract_x
 _atom_site_fract_y
 _atom_site_fract_z
 _atom_site_occupancy
  Te  Te0  1  0.333350  0.666701  0.330668  1
  Te  Te1  1  0.333353  0.666706  0.232921  1
  Mo  Mo2  1  0.333304  0.666608  0.093925  1
  Mo  Mo3  1  0.666695  0.333391  0.281802  1
  W  W4  1  0.333315  0.666630  0.469675  1
  W  W5  1  0.666694  0.333388  0.657530  1
  Se  Se6  1  0.333357  0.666715  0.700693  1
  Se  Se7  1  0.666639  0.333278  0.050904  1
  Se  Se8  1  0.666656  0.333311  0.426506  1
  Se  Se9  1  0.666634  0.333267  0.136948  1
  Se  Se10  1  0.666650  0.333299  0.512825  1
  Se  Se11  1  0.333352  0.666705  0.614352  1
