# generated using pymatgen
data_NaSr4(SbO4)3
_symmetry_space_group_name_H-M   'P 1'
_cell_length_a   8.20589060
_cell_length_b   8.23106646
_cell_length_c   8.23325328
_cell_angle_alpha   90.63597477
_cell_angle_beta   90.00000000
_cell_angle_gamma   90.00000000
_symmetry_Int_Tables_number   1
_chemical_formula_structural   NaSr4(SbO4)3
_chemical_formula_sum   'Na2 Sr8 Sb6 O24'
_cell_volume   556.06627018
_cell_formula_units_Z   2
loop_
 _symmetry_equiv_pos_site_id
 _symmetry_equiv_pos_as_xyz
  1  'x, y, z'
loop_
 _atom_site_type_symbol
 _atom_site_label
 _atom_site_symmetry_multiplicity
 _atom_site_fract_x
 _atom_site_fract_y
 _atom_site_fract_z
 _atom_site_occupancy
  O  O0  1  0.538496  0.250348  0.039422  1
  O  O1  1  0.038496  0.249652  0.460578  1
  O  O2  1  0.461504  0.749652  0.960578  1
  O  O3  1  0.961504  0.750348  0.539422  1
  O  O4  1  0.749831  0.048614  0.529385  1
  O  O5  1  0.249831  0.451386  0.970615  1
  O  O6  1  0.250169  0.951386  0.470615  1
  O  O7  1  0.750169  0.548614  0.029385  1
  O  O8  1  0.541322  0.962601  0.249516  1
  O  O9  1  0.041322  0.537399  0.250484  1
  O  O10  1  0.458678  0.037399  0.750484  1
  O  O11  1  0.958678  0.462601  0.749516  1
  O  O12  1  0.772068  0.475110  0.456403  1
  O  O13  1  0.272068  0.024890  0.043597  1
  O  O14  1  0.227932  0.524890  0.543597  1
  O  O15  1  0.727932  0.975110  0.956403  1
  O  O16  1  0.039083  0.726738  0.964948  1
  O  O17  1  0.539083  0.773262  0.535052  1
  O  O18  1  0.960917  0.273262  0.035052  1
  O  O19  1  0.460917  0.226738  0.464948  1
  O  O20  1  0.036180  0.035063  0.727723  1
  O  O21  1  0.536180  0.464937  0.772277  1
  O  O22  1  0.963820  0.964937  0.272277  1
  O  O23  1  0.463820  0.535063  0.227723  1
  Na  Na24  1  0.500000  0.500000  0.500000  1
  Na  Na25  1  0.000000  0.000000  0.000000  1
  Sr  Sr26  1  0.254939  0.268313  0.236576  1
  Sr  Sr27  1  0.754939  0.231687  0.263424  1
  Sr  Sr28  1  0.745755  0.734017  0.277132  1
  Sr  Sr29  1  0.245755  0.765983  0.222868  1
  Sr  Sr30  1  0.745061  0.731687  0.763424  1
  Sr  Sr31  1  0.245061  0.768313  0.736576  1
  Sr  Sr32  1  0.754245  0.234017  0.777132  1
  Sr  Sr33  1  0.254245  0.265983  0.722868  1
  Sb  Sb34  1  0.000000  0.000000  0.500000  1
  Sb  Sb35  1  0.500000  0.500000  0.000000  1
  Sb  Sb36  1  0.000000  0.500000  0.500000  1
  Sb  Sb37  1  0.500000  0.000000  0.000000  1
  Sb  Sb38  1  0.000000  0.500000  0.000000  1
  Sb  Sb39  1  0.500000  0.000000  0.500000  1
