# generated using pymatgen
data_Ca2Ta2O7
_symmetry_space_group_name_H-M   'P 1'
_cell_length_a   7.44953454
_cell_length_b   7.44953454
_cell_length_c   7.44953454
_cell_angle_alpha   60.00000000
_cell_angle_beta   60.00000001
_cell_angle_gamma   59.99999997
_symmetry_Int_Tables_number   1
_chemical_formula_structural   Ca2Ta2O7
_chemical_formula_sum   'Ca4 Ta4 O14'
_cell_volume   292.32934706
_cell_formula_units_Z   2
loop_
 _symmetry_equiv_pos_site_id
 _symmetry_equiv_pos_as_xyz
  1  'x, y, z'
loop_
 _atom_site_type_symbol
 _atom_site_label
 _atom_site_symmetry_multiplicity
 _atom_site_fract_x
 _atom_site_fract_y
 _atom_site_fract_z
 _atom_site_occupancy
  O  O0  1  0.066882  0.683118  0.683118  1
  O  O1  1  0.316882  0.933118  0.933118  1
  O  O2  1  0.683118  0.066882  0.683118  1
  O  O3  1  0.683118  0.683118  0.066882  1
  O  O4  1  0.066882  0.066882  0.683118  1
  O  O5  1  0.066882  0.683118  0.066882  1
  O  O6  1  0.316882  0.933118  0.316882  1
  O  O7  1  0.933118  0.316882  0.933118  1
  O  O8  1  0.375000  0.375000  0.375000  1
  O  O9  1  0.625000  0.625000  0.625000  1
  O  O10  1  0.683118  0.066882  0.066882  1
  O  O11  1  0.933118  0.933118  0.316882  1
  O  O12  1  0.316882  0.316882  0.933118  1
  O  O13  1  0.933118  0.316882  0.316882  1
  Ca  Ca14  1  0.500000  0.000000  0.500000  1
  Ca  Ca15  1  0.000000  0.500000  0.500000  1
  Ca  Ca16  1  0.500000  0.500000  0.000000  1
  Ca  Ca17  1  0.500000  0.500000  0.500000  1
  Ta  Ta18  1  0.000000  0.500000  0.000000  1
  Ta  Ta19  1  0.500000  0.000000  0.000000  1
  Ta  Ta20  1  0.000000  0.000000  0.500000  1
  Ta  Ta21  1  0.000000  0.000000  0.000000  1
