# generated using pymatgen
data_BaMnO3
_symmetry_space_group_name_H-M   'P 1'
_cell_length_a   10.04567401
_cell_length_b   10.04567401
_cell_length_c   5.03394896
_cell_angle_alpha   90.00000000
_cell_angle_beta   90.00000000
_cell_angle_gamma   119.99999998
_symmetry_Int_Tables_number   1
_chemical_formula_structural   BaMnO3
_chemical_formula_sum   'Ba6 Mn6 O18'
_cell_volume   439.94420473
_cell_formula_units_Z   6
loop_
 _symmetry_equiv_pos_site_id
 _symmetry_equiv_pos_as_xyz
  1  'x, y, z'
loop_
 _atom_site_type_symbol
 _atom_site_label
 _atom_site_symmetry_multiplicity
 _atom_site_fract_x
 _atom_site_fract_y
 _atom_site_fract_z
 _atom_site_occupancy
  O  O0  1  0.333006  0.813908  0.163591  1
  O  O1  1  0.186092  0.519099  0.163591  1
  O  O2  1  0.480902  0.666993  0.163591  1
  O  O3  1  0.519098  0.333007  0.663591  1
  O  O4  1  0.666993  0.186092  0.663591  1
  O  O5  1  0.813908  0.480901  0.663591  1
  O  O6  1  0.333007  0.519099  0.663591  1
  O  O7  1  0.813909  0.333007  0.163591  1
  O  O8  1  0.519098  0.186092  0.163591  1
  O  O9  1  0.480902  0.813908  0.663591  1
  O  O10  1  0.186091  0.666993  0.663591  1
  O  O11  1  0.666993  0.480901  0.163591  1
  O  O12  1  0.000000  0.147391  0.318478  1
  O  O13  1  0.852609  0.000000  0.818478  1
  O  O14  1  0.147391  0.147391  0.818478  1
  O  O15  1  1.000000  0.852609  0.818478  1
  O  O16  1  0.147390  0.000000  0.318478  1
  O  O17  1  0.852610  0.852609  0.318478  1
  Mn  Mn18  1  0.333333  0.666666  0.916388  1
  Mn  Mn19  1  0.666667  0.333334  0.416387  1
  Mn  Mn20  1  0.333333  0.666666  0.416387  1
  Mn  Mn21  1  0.666667  0.333334  0.916388  1
  Mn  Mn22  1  0.000000  0.000000  0.565252  1
  Mn  Mn23  1  0.000000  0.000000  0.065253  1
  Ba  Ba24  1  0.666044  0.666044  0.734331  1
  Ba  Ba25  1  0.000000  0.666044  0.234331  1
  Ba  Ba26  1  0.666043  0.000000  0.234331  1
  Ba  Ba27  1  0.333956  0.000000  0.734331  1
  Ba  Ba28  1  1.000000  0.333956  0.734331  1
  Ba  Ba29  1  0.333957  0.333956  0.234331  1
