# generated using pymatgen
data_ErSiPd
_symmetry_space_group_name_H-M   'P 1'
_cell_length_a   4.31588685
_cell_length_b   7.44681296
_cell_length_c   13.85322243
_cell_angle_alpha   90.00000000
_cell_angle_beta   90.00000000
_cell_angle_gamma   90.00000000
_symmetry_Int_Tables_number   1
_chemical_formula_structural   ErSiPd
_chemical_formula_sum   'Er8 Si8 Pd8'
_cell_volume   445.23705710
_cell_formula_units_Z   8
loop_
 _symmetry_equiv_pos_site_id
 _symmetry_equiv_pos_as_xyz
  1  'x, y, z'
loop_
 _atom_site_type_symbol
 _atom_site_label
 _atom_site_symmetry_multiplicity
 _atom_site_fract_x
 _atom_site_fract_y
 _atom_site_fract_z
 _atom_site_occupancy
  Si  Si0  1  0.250000  0.091574  0.842894  1
  Si  Si1  1  0.750000  0.908426  0.157106  1
  Si  Si2  1  0.250000  0.091574  0.657106  1
  Si  Si3  1  0.750000  0.908426  0.342894  1
  Si  Si4  1  0.250000  0.407481  0.394896  1
  Si  Si5  1  0.750000  0.592519  0.605104  1
  Si  Si6  1  0.250000  0.407481  0.105104  1
  Si  Si7  1  0.750000  0.592519  0.894896  1
  Pd  Pd8  1  0.750000  0.923968  0.858515  1
  Pd  Pd9  1  0.250000  0.076032  0.141485  1
  Pd  Pd10  1  0.750000  0.923968  0.641485  1
  Pd  Pd11  1  0.250000  0.076032  0.358515  1
  Pd  Pd12  1  0.750000  0.581789  0.406566  1
  Pd  Pd13  1  0.250000  0.418211  0.593434  1
  Pd  Pd14  1  0.750000  0.581789  0.093434  1
  Pd  Pd15  1  0.250000  0.418211  0.906566  1
  Er  Er16  1  0.250000  0.699754  0.250000  1
  Er  Er17  1  0.750000  0.300246  0.750000  1
  Er  Er18  1  0.250000  0.706932  0.750000  1
  Er  Er19  1  0.750000  0.293068  0.250000  1
  Er  Er20  1  0.250000  0.790451  0.498706  1
  Er  Er21  1  0.750000  0.209549  0.501294  1
  Er  Er22  1  0.250000  0.790451  0.001294  1
  Er  Er23  1  0.750000  0.209549  0.998706  1
