# generated using pymatgen
data_Te4Mo(WS)2
_symmetry_space_group_name_H-M   'P 1'
_cell_length_a   3.41745807
_cell_length_b   3.41745844
_cell_length_c   31.78352303
_cell_angle_alpha   90.00039750
_cell_angle_beta   90.00000000
_cell_angle_gamma   119.99999651
_symmetry_Int_Tables_number   1
_chemical_formula_structural   Te4Mo(WS)2
_chemical_formula_sum   'Te4 Mo1 W2 S2'
_cell_volume   321.46901409
_cell_formula_units_Z   1
loop_
 _symmetry_equiv_pos_site_id
 _symmetry_equiv_pos_as_xyz
  1  'x, y, z'
loop_
 _atom_site_type_symbol
 _atom_site_label
 _atom_site_symmetry_multiplicity
 _atom_site_fract_x
 _atom_site_fract_y
 _atom_site_fract_z
 _atom_site_occupancy
  Te  Te0  1  0.333352  0.666704  0.406084  1
  Te  Te1  1  0.666647  0.333293  0.056900  1
  Te  Te2  1  0.666650  0.333299  0.174295  1
  Te  Te3  1  0.333350  0.666702  0.288038  1
  Mo  Mo4  1  0.333313  0.666625  0.115548  1
  W  W5  1  0.333312  0.666624  0.578286  1
  W  W6  1  0.666687  0.333375  0.347047  1
  S  S7  1  0.666645  0.333289  0.531111  1
  S  S8  1  0.666645  0.333289  0.625532  1
