# generated using pymatgen
data_Yb2Cu4As3
_symmetry_space_group_name_H-M   'P 1'
_cell_length_a   13.21826306
_cell_length_b   13.21826307
_cell_length_c   4.07713855
_cell_angle_alpha   90.00000000
_cell_angle_beta   90.00000000
_cell_angle_gamma   119.99999999
_symmetry_Int_Tables_number   1
_chemical_formula_structural   Yb2Cu4As3
_chemical_formula_sum   'Yb8 Cu16 As12'
_cell_volume   616.92857033
_cell_formula_units_Z   4
loop_
 _symmetry_equiv_pos_site_id
 _symmetry_equiv_pos_as_xyz
  1  'x, y, z'
loop_
 _atom_site_type_symbol
 _atom_site_label
 _atom_site_symmetry_multiplicity
 _atom_site_fract_x
 _atom_site_fract_y
 _atom_site_fract_z
 _atom_site_occupancy
  Cu  Cu0  1  0.118191  0.481565  0.500000  1
  Cu  Cu1  1  0.481565  0.118191  0.500000  1
  Cu  Cu2  1  0.881809  0.363374  0.500000  1
  Cu  Cu3  1  0.636626  0.518435  0.500000  1
  Cu  Cu4  1  0.518435  0.636626  0.500000  1
  Cu  Cu5  1  0.363374  0.881809  0.500000  1
  Cu  Cu6  1  0.375208  0.189882  0.000000  1
  Cu  Cu7  1  0.810118  0.185326  0.000000  1
  Cu  Cu8  1  0.000000  0.000000  0.000000  1
  Cu  Cu9  1  0.724797  0.000000  0.500000  1
  Cu  Cu10  1  0.275203  0.275203  0.500000  1
  Cu  Cu11  1  0.000000  0.724797  0.500000  1
  Cu  Cu12  1  0.189882  0.375208  0.000000  1
  Cu  Cu13  1  0.185326  0.810118  0.000000  1
  Cu  Cu14  1  0.624792  0.814674  0.000000  1
  Cu  Cu15  1  0.814674  0.624792  0.000000  1
  As  As16  1  0.641977  0.641977  0.000000  1
  As  As17  1  0.000000  0.358023  0.000000  1
  As  As18  1  0.481600  0.306042  0.500000  1
  As  As19  1  0.306042  0.481600  0.500000  1
  As  As20  1  0.175558  0.693958  0.500000  1
  As  As21  1  0.518400  0.824442  0.500000  1
  As  As22  1  0.824442  0.518400  0.500000  1
  As  As23  1  0.693958  0.175558  0.500000  1
  As  As24  1  0.822821  0.000000  0.000000  1
  As  As25  1  0.177179  0.177179  0.000000  1
  As  As26  1  0.000000  0.822821  0.000000  1
  As  As27  1  0.358023  0.000000  0.000000  1
  Yb  Yb28  1  0.000000  0.570846  0.000000  1
  Yb  Yb29  1  0.429154  0.429154  0.000000  1
  Yb  Yb30  1  0.570846  0.000000  0.000000  1
  Yb  Yb31  1  0.000000  0.189400  0.500000  1
  Yb  Yb32  1  0.810600  0.810600  0.500000  1
  Yb  Yb33  1  0.189400  0.000000  0.500000  1
  Yb  Yb34  1  0.666667  0.333333  0.000000  1
  Yb  Yb35  1  0.333333  0.666667  0.000000  1
