# generated using pymatgen
data_NaNdSiO4
_symmetry_space_group_name_H-M   'P 1'
_cell_length_a   5.56223932
_cell_length_b   9.37183241
_cell_length_c   21.10563973
_cell_angle_alpha   90.00000000
_cell_angle_beta   90.00000000
_cell_angle_gamma   90.00000000
_symmetry_Int_Tables_number   1
_chemical_formula_structural   NaNdSiO4
_chemical_formula_sum   'Na12 Nd12 Si12 O48'
_cell_volume   1100.20269679
_cell_formula_units_Z   12
loop_
 _symmetry_equiv_pos_site_id
 _symmetry_equiv_pos_as_xyz
  1  'x, y, z'
loop_
 _atom_site_type_symbol
 _atom_site_label
 _atom_site_symmetry_multiplicity
 _atom_site_fract_x
 _atom_site_fract_y
 _atom_site_fract_z
 _atom_site_occupancy
  O  O0  1  0.450229  0.429773  0.608774  1
  O  O1  1  0.950229  0.570227  0.391226  1
  O  O2  1  0.450229  0.070227  0.108774  1
  O  O3  1  0.950229  0.929773  0.891226  1
  O  O4  1  0.075873  0.442278  0.498625  1
  O  O5  1  0.575873  0.557722  0.501375  1
  O  O6  1  0.075873  0.057722  0.998625  1
  O  O7  1  0.575873  0.942278  0.001375  1
  O  O8  1  0.773940  0.192366  0.916222  1
  O  O9  1  0.273940  0.807634  0.083778  1
  O  O10  1  0.773940  0.307634  0.416222  1
  O  O11  1  0.273940  0.692366  0.583778  1
  O  O12  1  0.253887  0.158330  0.893968  1
  O  O13  1  0.753887  0.841670  0.106032  1
  O  O14  1  0.253887  0.341670  0.393968  1
  O  O15  1  0.753887  0.658330  0.606032  1
  O  O16  1  0.569280  0.074838  0.774045  1
  O  O17  1  0.069280  0.925162  0.225955  1
  O  O18  1  0.569280  0.425162  0.274045  1
  O  O19  1  0.069280  0.574838  0.725955  1
  O  O20  1  0.929325  0.057661  0.667168  1
  O  O21  1  0.933845  0.440320  0.832151  1
  O  O22  1  0.933845  0.059680  0.332151  1
  O  O23  1  0.433845  0.940320  0.667849  1
  O  O24  1  0.229864  0.304458  0.747041  1
  O  O25  1  0.729864  0.695542  0.252959  1
  O  O26  1  0.229864  0.195542  0.247041  1
  O  O27  1  0.729864  0.804458  0.752959  1
  O  O28  1  0.754094  0.354054  0.726428  1
  O  O29  1  0.254094  0.645946  0.273572  1
  O  O30  1  0.754094  0.145946  0.226428  1
  O  O31  1  0.254094  0.854054  0.773572  1
  O  O32  1  0.462648  0.428988  0.943997  1
  O  O33  1  0.962648  0.571012  0.056003  1
  O  O34  1  0.462648  0.071012  0.443997  1
  O  O35  1  0.962648  0.928988  0.556003  1
  O  O36  1  0.729865  0.664619  0.923129  1
  O  O37  1  0.229865  0.335381  0.076871  1
  O  O38  1  0.729865  0.835381  0.423129  1
  O  O39  1  0.229865  0.164619  0.576871  1
  O  O40  1  0.247783  0.689408  0.931178  1
  O  O41  1  0.747783  0.310592  0.068822  1
  O  O42  1  0.247783  0.810592  0.431178  1
  O  O43  1  0.747783  0.189408  0.568822  1
  O  O44  1  0.429325  0.557661  0.832832  1
  O  O45  1  0.929325  0.442339  0.167168  1
  O  O46  1  0.429325  0.942339  0.332832  1
  O  O47  1  0.433845  0.559680  0.167849  1
  Na  Na48  1  0.955784  0.432581  0.943948  1
  Na  Na49  1  0.455784  0.567419  0.056052  1
  Na  Na50  1  0.955784  0.067419  0.443948  1
  Na  Na51  1  0.455784  0.932581  0.556052  1
  Na  Na52  1  0.015945  0.074207  0.776432  1
  Na  Na53  1  0.515945  0.925793  0.223568  1
  Na  Na54  1  0.015945  0.425793  0.276432  1
  Na  Na55  1  0.515945  0.574207  0.723568  1
  Na  Na56  1  0.006318  0.426777  0.608738  1
  Na  Na57  1  0.506318  0.573223  0.391262  1
  Na  Na58  1  0.006318  0.073223  0.108738  1
  Na  Na59  1  0.506318  0.926777  0.891262  1
  Si  Si60  1  0.007174  0.086038  0.923346  1
  Si  Si61  1  0.507174  0.913962  0.076654  1
  Si  Si62  1  0.007174  0.413962  0.423346  1
  Si  Si63  1  0.507174  0.586038  0.576654  1
  Si  Si64  1  0.005442  0.416950  0.756763  1
  Si  Si65  1  0.505442  0.583050  0.243237  1
  Si  Si66  1  0.005442  0.083050  0.256763  1
  Si  Si67  1  0.505442  0.916950  0.743237  1
  Si  Si68  1  0.971534  0.086301  0.590999  1
  Si  Si69  1  0.471534  0.913699  0.409001  1
  Si  Si70  1  0.971534  0.413699  0.090999  1
  Si  Si71  1  0.471534  0.586301  0.909001  1
  Nd  Nd72  1  0.527922  0.303175  0.833871  1
  Nd  Nd73  1  0.027922  0.696825  0.166129  1
  Nd  Nd74  1  0.527922  0.196825  0.333871  1
  Nd  Nd75  1  0.027922  0.803175  0.666129  1
  Nd  Nd76  1  0.510853  0.199165  0.667468  1
  Nd  Nd77  1  0.010853  0.800835  0.332532  1
  Nd  Nd78  1  0.510853  0.300835  0.167468  1
  Nd  Nd79  1  0.010853  0.699165  0.832532  1
  Nd  Nd80  1  0.462393  0.303664  0.500641  1
  Nd  Nd81  1  0.962393  0.696336  0.499359  1
  Nd  Nd82  1  0.462393  0.196336  0.000641  1
  Nd  Nd83  1  0.962393  0.803664  0.999359  1
