# generated using pymatgen
data_SmHSO5
_symmetry_space_group_name_H-M   'P 1'
_cell_length_a   4.49364766
_cell_length_b   12.34664299
_cell_length_c   6.85414992
_cell_angle_alpha   90.00058304
_cell_angle_beta   106.47835496
_cell_angle_gamma   89.99899913
_symmetry_Int_Tables_number   1
_chemical_formula_structural   SmHSO5
_chemical_formula_sum   'Sm4 H4 S4 O20'
_cell_volume   364.65908391
_cell_formula_units_Z   4
loop_
 _symmetry_equiv_pos_site_id
 _symmetry_equiv_pos_as_xyz
  1  'x, y, z'
loop_
 _atom_site_type_symbol
 _atom_site_label
 _atom_site_symmetry_multiplicity
 _atom_site_fract_x
 _atom_site_fract_y
 _atom_site_fract_z
 _atom_site_occupancy
  Sm  Sm0  1  0.141709  0.563179  0.302107  1
  Sm  Sm1  1  0.358290  0.063179  0.197891  1
  Sm  Sm2  1  0.858292  0.436822  0.697893  1
  Sm  Sm3  1  0.641710  0.936821  0.802109  1
  H  H4  1  0.272196  0.342147  0.484088  1
  H  H5  1  0.772193  0.157855  0.984086  1
  H  H6  1  0.727805  0.657853  0.515912  1
  H  H7  1  0.227806  0.842145  0.015915  1
  S  S8  1  0.981571  0.853486  0.386028  1
  S  S9  1  0.518446  0.353499  0.113956  1
  S  S10  1  0.018430  0.146515  0.613971  1
  S  S11  1  0.481557  0.646501  0.886043  1
  O  O12  1  0.693055  0.585223  0.454631  1
  O  O13  1  0.806945  0.085221  0.045371  1
  O  O14  1  0.306945  0.414777  0.545370  1
  O  O15  1  0.193055  0.914779  0.954629  1
  O  O16  1  0.745306  0.901718  0.210498  1
  O  O17  1  0.754694  0.401716  0.289504  1
  O  O18  1  0.254694  0.098281  0.789502  1
  O  O19  1  0.245308  0.598284  0.710497  1
  O  O20  1  0.102779  0.752571  0.321797  1
  O  O21  1  0.397213  0.252560  0.178212  1
  O  O22  1  0.897220  0.247429  0.678203  1
  O  O23  1  0.602789  0.747439  0.821789  1
  O  O24  1  0.248333  0.933473  0.452204  1
  O  O25  1  0.251674  0.433470  0.047800  1
  O  O26  1  0.751667  0.066527  0.547796  1
  O  O27  1  0.748327  0.566530  0.952201  1
  O  O28  1  0.853469  0.831855  0.556478  1
  O  O29  1  0.646529  0.331854  0.943534  1
  O  O30  1  0.146530  0.168144  0.443522  1
  O  O31  1  0.353472  0.668147  0.056468  1
