# generated using pymatgen
data_TlV3O8
_symmetry_space_group_name_H-M   'P 1'
_cell_length_a   5.10101261
_cell_length_b   7.93266253
_cell_length_c   8.56023416
_cell_angle_alpha   90.00000000
_cell_angle_beta   90.00000000
_cell_angle_gamma   97.26602044
_symmetry_Int_Tables_number   1
_chemical_formula_structural   TlV3O8
_chemical_formula_sum   'Tl2 V6 O16'
_cell_volume   343.60493612
_cell_formula_units_Z   2
loop_
 _symmetry_equiv_pos_site_id
 _symmetry_equiv_pos_as_xyz
  1  'x, y, z'
loop_
 _atom_site_type_symbol
 _atom_site_label
 _atom_site_symmetry_multiplicity
 _atom_site_fract_x
 _atom_site_fract_y
 _atom_site_fract_z
 _atom_site_occupancy
  Tl  Tl0  1  0.957401  0.060023  0.250000  1
  Tl  Tl1  1  0.042599  0.939977  0.750000  1
  V  V2  1  0.560284  0.317409  0.946209  1
  V  V3  1  0.439716  0.682591  0.446209  1
  V  V4  1  0.927025  0.578010  0.250000  1
  V  V5  1  0.072975  0.421990  0.750000  1
  V  V6  1  0.439716  0.682591  0.053791  1
  V  V7  1  0.560284  0.317409  0.553791  1
  O  O8  1  0.114323  0.729825  0.399638  1
  O  O9  1  0.885677  0.270175  0.600362  1
  O  O10  1  0.114323  0.729825  0.100362  1
  O  O11  1  0.567539  0.831531  0.935017  1
  O  O12  1  0.883366  0.573168  0.750000  1
  O  O13  1  0.116634  0.426832  0.250000  1
  O  O14  1  0.317785  0.493562  0.586989  1
  O  O15  1  0.682215  0.506438  0.413011  1
  O  O16  1  0.682215  0.506438  0.086989  1
  O  O17  1  0.317785  0.493562  0.913011  1
  O  O18  1  0.432461  0.168469  0.064983  1
  O  O19  1  0.584139  0.755696  0.250000  1
  O  O20  1  0.567539  0.831531  0.564983  1
  O  O21  1  0.885677  0.270175  0.899638  1
  O  O22  1  0.432461  0.168469  0.435017  1
  O  O23  1  0.415861  0.244304  0.750000  1
