# generated using pymatgen
data_TmCu(BO2)5
_symmetry_space_group_name_H-M   'P 1'
_cell_length_a   6.30615508
_cell_length_b   8.27216139
_cell_length_c   8.27216139
_cell_angle_alpha   62.24523417
_cell_angle_beta   67.59399252
_cell_angle_gamma   67.59399247
_symmetry_Int_Tables_number   1
_chemical_formula_structural   TmCu(BO2)5
_chemical_formula_sum   'Tm2 Cu2 B10 O20'
_cell_volume   341.93181954
_cell_formula_units_Z   2
loop_
 _symmetry_equiv_pos_site_id
 _symmetry_equiv_pos_as_xyz
  1  'x, y, z'
loop_
 _atom_site_type_symbol
 _atom_site_label
 _atom_site_symmetry_multiplicity
 _atom_site_fract_x
 _atom_site_fract_y
 _atom_site_fract_z
 _atom_site_occupancy
  B  B0  1  0.542047  0.533587  0.150247  1
  B  B1  1  0.308724  0.691276  0.691276  1
  B  B2  1  0.808724  0.191276  0.191276  1
  B  B3  1  0.343525  0.732348  0.348821  1
  B  B4  1  0.575306  0.348821  0.732348  1
  B  B5  1  0.774120  0.150247  0.533587  1
  B  B6  1  0.274120  0.033587  0.650247  1
  B  B7  1  0.042047  0.650247  0.033587  1
  B  B8  1  0.843525  0.848821  0.232348  1
  B  B9  1  0.075306  0.232348  0.848821  1
  O  O10  1  0.385030  0.897611  0.210492  1
  O  O11  1  0.885030  0.710492  0.397611  1
  O  O12  1  0.006868  0.397611  0.710492  1
  O  O13  1  0.506868  0.210492  0.897611  1
  O  O14  1  0.610612  0.671778  0.984911  1
  O  O15  1  0.732698  0.984911  0.671778  1
  O  O16  1  0.232698  0.171778  0.484911  1
  O  O17  1  0.110612  0.484911  0.171778  1
  O  O18  1  0.595076  0.349205  0.161119  1
  O  O19  1  0.894599  0.161119  0.349205  1
  O  O20  1  0.394599  0.849205  0.661119  1
  O  O21  1  0.095076  0.661119  0.849205  1
  O  O22  1  0.910972  0.815167  0.067374  1
  O  O23  1  0.206487  0.067374  0.815167  1
  O  O24  1  0.706487  0.315167  0.567374  1
  O  O25  1  0.410972  0.567374  0.315167  1
  O  O26  1  0.723082  0.033132  0.221695  1
  O  O27  1  0.022092  0.221695  0.033132  1
  O  O28  1  0.522092  0.533132  0.721695  1
  O  O29  1  0.223082  0.721695  0.533132  1
  Cu  Cu30  1  0.058830  0.441170  0.441170  1
  Cu  Cu31  1  0.558830  0.941170  0.941170  1
  Tm  Tm32  1  0.808763  0.691237  0.691237  1
  Tm  Tm33  1  0.308763  0.191237  0.191237  1
