# generated using pymatgen
data_Te2MoW2(SeS)2
_symmetry_space_group_name_H-M   'P 1'
_cell_length_a   3.34510314
_cell_length_b   3.34511283
_cell_length_c   30.97612089
_cell_angle_alpha   90.00034039
_cell_angle_beta   90.00001328
_cell_angle_gamma   119.99986578
_symmetry_Int_Tables_number   1
_chemical_formula_structural   Te2MoW2(SeS)2
_chemical_formula_sum   'Te2 Mo1 W2 Se2 S2'
_cell_volume   300.17777488
_cell_formula_units_Z   1
loop_
 _symmetry_equiv_pos_site_id
 _symmetry_equiv_pos_as_xyz
  1  'x, y, z'
loop_
 _atom_site_type_symbol
 _atom_site_label
 _atom_site_symmetry_multiplicity
 _atom_site_fract_x
 _atom_site_fract_y
 _atom_site_fract_z
 _atom_site_occupancy
  Te  Te0  1  0.666644  0.333287  0.054505  1
  Te  Te1  1  0.666652  0.333303  0.176792  1
  Mo  Mo2  1  0.333313  0.666624  0.115634  1
  W  W3  1  0.333306  0.666612  0.578304  1
  W  W4  1  0.666692  0.333386  0.346995  1
  Se  Se5  1  0.666635  0.333269  0.524302  1
  Se  Se6  1  0.666645  0.333290  0.632328  1
  S  S7  1  0.333358  0.666717  0.396106  1
  S  S8  1  0.333356  0.666712  0.297876  1
