# generated using pymatgen
data_Sr2FeWO6
_symmetry_space_group_name_H-M   'P 1'
_cell_length_a   5.66991159
_cell_length_b   5.73570028
_cell_length_c   8.13988441
_cell_angle_alpha   90.12299273
_cell_angle_beta   90.00000000
_cell_angle_gamma   90.00000000
_symmetry_Int_Tables_number   1
_chemical_formula_structural   Sr2FeWO6
_chemical_formula_sum   'Sr4 Fe2 W2 O12'
_cell_volume   264.71586653
_cell_formula_units_Z   2
loop_
 _symmetry_equiv_pos_site_id
 _symmetry_equiv_pos_as_xyz
  1  'x, y, z'
loop_
 _atom_site_type_symbol
 _atom_site_label
 _atom_site_symmetry_multiplicity
 _atom_site_fract_x
 _atom_site_fract_y
 _atom_site_fract_z
 _atom_site_occupancy
  O  O0  1  0.712412  0.266673  0.532866  1
  O  O1  1  0.212412  0.233327  0.967134  1
  O  O2  1  0.287588  0.733327  0.467134  1
  O  O3  1  0.787588  0.766673  0.032866  1
  O  O4  1  0.769916  0.793819  0.465934  1
  O  O5  1  0.269916  0.706181  0.034066  1
  O  O6  1  0.230084  0.206181  0.534066  1
  O  O7  1  0.730084  0.293819  0.965934  1
  O  O8  1  0.510849  0.936098  0.735480  1
  O  O9  1  0.010849  0.563902  0.764520  1
  O  O10  1  0.489151  0.063902  0.264520  1
  O  O11  1  0.989151  0.436098  0.235480  1
  Fe  Fe12  1  0.500000  0.000000  0.000000  1
  Fe  Fe13  1  0.000000  0.500000  0.500000  1
  Sr  Sr14  1  0.974327  0.004045  0.752060  1
  Sr  Sr15  1  0.474327  0.495955  0.747940  1
  Sr  Sr16  1  0.525673  0.504045  0.252060  1
  Sr  Sr17  1  0.025673  0.995955  0.247940  1
  W  W18  1  0.000000  0.500000  0.000000  1
  W  W19  1  0.500000  0.000000  0.500000  1
