# generated using pymatgen
data_BaPr2ZnS5
_symmetry_space_group_name_H-M   'P 1'
_cell_length_a   7.96063820
_cell_length_b   7.96063820
_cell_length_c   8.88369355
_cell_angle_alpha   116.61849981
_cell_angle_beta   116.61849978
_cell_angle_gamma   90.00000001
_symmetry_Int_Tables_number   1
_chemical_formula_structural   BaPr2ZnS5
_chemical_formula_sum   'Ba2 Pr4 Zn2 S10'
_cell_volume   435.53567768
_cell_formula_units_Z   2
loop_
 _symmetry_equiv_pos_site_id
 _symmetry_equiv_pos_as_xyz
  1  'x, y, z'
loop_
 _atom_site_type_symbol
 _atom_site_label
 _atom_site_symmetry_multiplicity
 _atom_site_fract_x
 _atom_site_fract_y
 _atom_site_fract_z
 _atom_site_occupancy
  S  S0  1  0.485504  0.985504  0.268362  1
  S  S1  1  0.217143  0.717143  0.731638  1
  S  S2  1  0.514496  0.014496  0.731638  1
  S  S3  1  0.717143  0.514496  0.731638  1
  S  S4  1  0.014496  0.217143  0.731638  1
  S  S5  1  0.282857  0.485504  0.268362  1
  S  S6  1  0.985504  0.782857  0.268362  1
  S  S7  1  0.782857  0.282857  0.268362  1
  S  S8  1  0.000000  0.000000  0.000000  1
  S  S9  1  0.500000  0.500000  0.000000  1
  Zn  Zn10  1  0.750000  0.250000  0.500000  1
  Zn  Zn11  1  0.250000  0.750000  0.500000  1
  Ba  Ba12  1  0.750000  0.750000  0.500000  1
  Ba  Ba13  1  0.250000  0.250000  0.500000  1
  Pr  Pr14  1  0.662233  0.837767  0.000000  1
  Pr  Pr15  1  0.162233  0.662233  0.000000  1
  Pr  Pr16  1  0.837767  0.337767  0.000000  1
  Pr  Pr17  1  0.337767  0.162233  0.000000  1
