# generated using pymatgen
data_MoW2(Se2S)2
_symmetry_space_group_name_H-M   'P 1'
_cell_length_a   3.27454766
_cell_length_b   3.27450623
_cell_length_c   30.21704799
_cell_angle_alpha   90.00011743
_cell_angle_beta   90.00000179
_cell_angle_gamma   120.00041143
_symmetry_Int_Tables_number   1
_chemical_formula_structural   MoW2(Se2S)2
_chemical_formula_sum   'Mo1 W2 Se4 S2'
_cell_volume   280.59375558
_cell_formula_units_Z   1
loop_
 _symmetry_equiv_pos_site_id
 _symmetry_equiv_pos_as_xyz
  1  'x, y, z'
loop_
 _atom_site_type_symbol
 _atom_site_label
 _atom_site_symmetry_multiplicity
 _atom_site_fract_x
 _atom_site_fract_y
 _atom_site_fract_z
 _atom_site_occupancy
  Mo  Mo0  1  0.333311  0.666623  0.115646  1
  W  W1  1  0.333312  0.666624  0.578321  1
  W  W2  1  0.666689  0.333378  0.346985  1
  Se  Se3  1  0.666645  0.333290  0.059728  1
  Se  Se4  1  0.666645  0.333290  0.522021  1
  Se  Se5  1  0.666647  0.333294  0.171567  1
  Se  Se6  1  0.666643  0.333284  0.634625  1
  S  S7  1  0.333355  0.666710  0.398094  1
  S  S8  1  0.333353  0.666708  0.295854  1
