# generated using pymatgen
data_Ca3Ga8
_symmetry_space_group_name_H-M   'P 1'
_cell_length_a   4.31554433
_cell_length_b   4.34339413
_cell_length_c   13.28963291
_cell_angle_alpha   99.40504724
_cell_angle_beta   99.34420004
_cell_angle_gamma   90.00000005
_symmetry_Int_Tables_number   1
_chemical_formula_structural   Ca3Ga8
_chemical_formula_sum   'Ca3 Ga8'
_cell_volume   242.40279354
_cell_formula_units_Z   1
loop_
 _symmetry_equiv_pos_site_id
 _symmetry_equiv_pos_as_xyz
  1  'x, y, z'
loop_
 _atom_site_type_symbol
 _atom_site_label
 _atom_site_symmetry_multiplicity
 _atom_site_fract_x
 _atom_site_fract_y
 _atom_site_fract_z
 _atom_site_occupancy
  Ca  Ca0  1  0.000000  0.000000  0.000000  1
  Ca  Ca1  1  0.354818  0.854818  0.709637  1
  Ca  Ca2  1  0.645182  0.145182  0.290363  1
  Ga  Ga3  1  0.249698  0.249698  0.499397  1
  Ga  Ga4  1  0.750302  0.750302  0.500603  1
  Ga  Ga5  1  0.451805  0.451805  0.903609  1
  Ga  Ga6  1  0.548195  0.548195  0.096391  1
  Ga  Ga7  1  0.094580  0.594580  0.189160  1
  Ga  Ga8  1  0.905420  0.405420  0.810840  1
  Ga  Ga9  1  0.190773  0.690773  0.381545  1
  Ga  Ga10  1  0.809227  0.309227  0.618455  1
