# generated using pymatgen
data_ReN2
_symmetry_space_group_name_H-M   'P 1'
_cell_length_a   2.92899866
_cell_length_b   2.92905747
_cell_length_c   7.78205627
_cell_angle_alpha   90.00000000
_cell_angle_beta   90.00000000
_cell_angle_gamma   119.99933577
_symmetry_Int_Tables_number   1
_chemical_formula_structural   ReN2
_chemical_formula_sum   'Re2 N4'
_cell_volume   57.81958521
_cell_formula_units_Z   2
loop_
 _symmetry_equiv_pos_site_id
 _symmetry_equiv_pos_as_xyz
  1  'x, y, z'
loop_
 _atom_site_type_symbol
 _atom_site_label
 _atom_site_symmetry_multiplicity
 _atom_site_fract_x
 _atom_site_fract_y
 _atom_site_fract_z
 _atom_site_occupancy
  Re  Re0  1  0.666701  0.333401  0.250000  1
  Re  Re1  1  0.333299  0.666599  0.750000  1
  N  N2  1  0.000008  0.000016  0.413532  1
  N  N3  1  0.999992  0.999984  0.586468  1
  N  N4  1  0.999992  0.999984  0.913532  1
  N  N5  1  0.000008  0.000016  0.086468  1
