# generated using pymatgen
data_TeMoWSeS2
_symmetry_space_group_name_H-M   'P 1'
_cell_length_a   3.31043457
_cell_length_b   3.31032493
_cell_length_c   37.65767613
_cell_angle_alpha   89.99984702
_cell_angle_beta   90.00000384
_cell_angle_gamma   120.00143354
_symmetry_Int_Tables_number   1
_chemical_formula_structural   TeMoWSeS2
_chemical_formula_sum   'Te2 Mo2 W2 Se2 S4'
_cell_volume   357.38268482
_cell_formula_units_Z   2
loop_
 _symmetry_equiv_pos_site_id
 _symmetry_equiv_pos_as_xyz
  1  'x, y, z'
loop_
 _atom_site_type_symbol
 _atom_site_label
 _atom_site_symmetry_multiplicity
 _atom_site_fract_x
 _atom_site_fract_y
 _atom_site_fract_z
 _atom_site_occupancy
  Te  Te0  1  0.333352  0.666703  0.332909  1
  Te  Te1  1  0.333356  0.666713  0.230687  1
  Mo  Mo2  1  0.333304  0.666607  0.093897  1
  Mo  Mo3  1  0.333312  0.666626  0.469693  1
  W  W4  1  0.666694  0.333390  0.281800  1
  W  W5  1  0.666691  0.333384  0.657531  1
  Se  Se6  1  0.333348  0.666695  0.702373  1
  Se  Se7  1  0.333365  0.666730  0.612684  1
  S  S8  1  0.666651  0.333301  0.053348  1
  S  S9  1  0.666640  0.333277  0.429118  1
  S  S10  1  0.666650  0.333300  0.134460  1
  S  S11  1  0.666638  0.333274  0.510247  1
