# generated using pymatgen
data_SmGe2Pt
_symmetry_space_group_name_H-M   'P 1'
_cell_length_a   4.41211421
_cell_length_b   8.81404924
_cell_length_c   9.61045482
_cell_angle_alpha   117.29459126
_cell_angle_beta   103.27044020
_cell_angle_gamma   90.00000000
_symmetry_Int_Tables_number   1
_chemical_formula_structural   SmGe2Pt
_chemical_formula_sum   'Sm4 Ge8 Pt4'
_cell_volume   320.85395111
_cell_formula_units_Z   4
loop_
 _symmetry_equiv_pos_site_id
 _symmetry_equiv_pos_as_xyz
  1  'x, y, z'
loop_
 _atom_site_type_symbol
 _atom_site_label
 _atom_site_symmetry_multiplicity
 _atom_site_fract_x
 _atom_site_fract_y
 _atom_site_fract_z
 _atom_site_occupancy
  Sm  Sm0  1  -0.000000  0.241243  -0.000000  1
  Sm  Sm1  1  -0.000000  0.758757  -0.000000  1
  Sm  Sm2  1  0.202874  0.202874  0.405746  1
  Sm  Sm3  1  0.797127  0.797127  0.594254  1
  Ge  Ge4  1  0.574261  0.074260  0.148521  1
  Ge  Ge5  1  0.574332  0.574331  0.148662  1
  Ge  Ge6  1  0.198002  0.547760  0.396004  1
  Ge  Ge7  1  0.198002  0.848243  0.396004  1
  Ge  Ge8  1  0.802000  0.151756  0.603996  1
  Ge  Ge9  1  0.802000  0.452240  0.603996  1
  Ge  Ge10  1  0.425669  0.425669  0.851338  1
  Ge  Ge11  1  0.425740  0.925740  0.851480  1
  Pt  Pt12  1  0.648919  0.400112  0.297836  1
  Pt  Pt13  1  0.648919  0.897725  0.297836  1
  Pt  Pt14  1  0.351082  0.102276  0.702165  1
  Pt  Pt15  1  0.351082  0.599889  0.702165  1
