# generated using pymatgen
data_Na5Y(WO4)4
_symmetry_space_group_name_H-M   'P 1'
_cell_length_a   10.03547184
_cell_length_b   10.03547184
_cell_length_c   10.03547183
_cell_angle_alpha   108.88574236
_cell_angle_beta   108.88574229
_cell_angle_gamma   110.64863200
_symmetry_Int_Tables_number   1
_chemical_formula_structural   Na5Y(WO4)4
_chemical_formula_sum   'Na10 Y2 W8 O32'
_cell_volume   777.77432887
_cell_formula_units_Z   2
loop_
 _symmetry_equiv_pos_site_id
 _symmetry_equiv_pos_as_xyz
  1  'x, y, z'
loop_
 _atom_site_type_symbol
 _atom_site_label
 _atom_site_symmetry_multiplicity
 _atom_site_fract_x
 _atom_site_fract_y
 _atom_site_fract_z
 _atom_site_occupancy
  O  O0  1  0.303034  0.671268  0.927791  1
  O  O1  1  0.171268  0.743477  0.368234  1
  O  O2  1  0.875243  0.803034  0.131766  1
  O  O3  1  0.243477  0.375243  0.572209  1
  O  O4  1  0.696966  0.328732  0.072209  1
  O  O5  1  0.828732  0.256523  0.631766  1
  O  O6  1  0.124757  0.196966  0.868234  1
  O  O7  1  0.756523  0.624757  0.427791  1
  O  O8  1  0.637527  0.984958  0.006703  1
  O  O9  1  0.484958  0.978255  0.347431  1
  O  O10  1  0.130824  0.137527  0.152569  1
  O  O11  1  0.478255  0.630824  0.493297  1
  O  O12  1  0.362473  0.015042  0.993297  1
  O  O13  1  0.515042  0.021745  0.652569  1
  O  O14  1  0.869176  0.862473  0.847431  1
  O  O15  1  0.521745  0.369176  0.506703  1
  O  O16  1  0.348533  0.773009  0.697124  1
  O  O17  1  0.273009  0.075885  0.424476  1
  O  O18  1  0.151408  0.848533  0.075524  1
  O  O19  1  0.575885  0.651408  0.802876  1
  O  O20  1  0.514715  0.663957  0.218430  1
  O  O21  1  0.163957  0.445527  0.149242  1
  O  O22  1  0.796285  0.014715  0.350758  1
  O  O23  1  0.945527  0.296285  0.281570  1
  O  O24  1  0.485285  0.336043  0.781570  1
  O  O25  1  0.836043  0.554473  0.850758  1
  O  O26  1  0.203715  0.985285  0.649242  1
  O  O27  1  0.054473  0.703715  0.718430  1
  O  O28  1  0.424115  0.348592  0.197124  1
  O  O29  1  0.848592  0.151467  0.924476  1
  O  O30  1  0.726991  0.924115  0.575524  1
  O  O31  1  0.651467  0.226991  0.302876  1
  Na  Na32  1  0.199600  0.535726  0.425053  1
  Na  Na33  1  0.035726  0.110673  0.336126  1
  Na  Na34  1  0.274547  0.699600  0.163874  1
  Na  Na35  1  0.610673  0.774547  0.074947  1
  Na  Na36  1  0.800400  0.464274  0.574947  1
  Na  Na37  1  0.125000  0.375000  0.750000  1
  Na  Na38  1  0.725453  0.300400  0.836126  1
  Na  Na39  1  0.389327  0.225453  0.925053  1
  Na  Na40  1  0.875000  0.625000  0.250000  1
  Na  Na41  1  0.964274  0.889327  0.663874  1
  Y  Y42  1  0.625000  0.875000  0.750000  1
  Y  Y43  1  0.375000  0.125000  0.250000  1
  W  W44  1  0.727853  0.201651  0.158701  1
  W  W45  1  0.069152  0.227853  0.026202  1
  W  W46  1  0.701651  0.042950  0.473798  1
  W  W47  1  0.542950  0.569152  0.341299  1
  W  W48  1  0.457050  0.430848  0.658701  1
  W  W49  1  0.930848  0.772147  0.973798  1
  W  W50  1  0.298349  0.957050  0.526202  1
  W  W51  1  0.272147  0.798349  0.841299  1
