# generated using pymatgen
data_Ce2Ga10Pd
_symmetry_space_group_name_H-M   'P 1'
_cell_length_a   4.41982175
_cell_length_b   4.41982175
_cell_length_c   13.45576563
_cell_angle_alpha   99.45281082
_cell_angle_beta   99.45281079
_cell_angle_gamma   90.00000003
_symmetry_Int_Tables_number   1
_chemical_formula_structural   Ce2Ga10Pd
_chemical_formula_sum   'Ce2 Ga10 Pd1'
_cell_volume   255.66765548
_cell_formula_units_Z   1
loop_
 _symmetry_equiv_pos_site_id
 _symmetry_equiv_pos_as_xyz
  1  'x, y, z'
loop_
 _atom_site_type_symbol
 _atom_site_label
 _atom_site_symmetry_multiplicity
 _atom_site_fract_x
 _atom_site_fract_y
 _atom_site_fract_z
 _atom_site_occupancy
  Ga  Ga0  1  0.802382  0.802382  0.604764  1
  Ga  Ga1  1  0.197618  0.197618  0.395236  1
  Ga  Ga2  1  0.894551  0.894551  0.789101  1
  Ga  Ga3  1  0.750000  0.250000  0.500000  1
  Ga  Ga4  1  0.250000  0.750000  0.500000  1
  Ga  Ga5  1  0.447963  0.947963  0.895926  1
  Ga  Ga6  1  0.947963  0.447963  0.895926  1
  Ga  Ga7  1  0.552037  0.052037  0.104074  1
  Ga  Ga8  1  0.052037  0.552037  0.104074  1
  Ga  Ga9  1  0.105449  0.105449  0.210899  1
  Pd  Pd10  1  0.500000  0.500000  0.000000  1
  Ce  Ce11  1  0.644239  0.644239  0.288477  1
  Ce  Ce12  1  0.355762  0.355762  0.711523  1
