# generated using pymatgen
data_K2Mn(SeO3)2
_symmetry_space_group_name_H-M   'P 1'
_cell_length_a   7.14513913
_cell_length_b   7.14513914
_cell_length_c   7.14513913
_cell_angle_alpha   47.14250127
_cell_angle_beta   47.14250129
_cell_angle_gamma   47.14250128
_symmetry_Int_Tables_number   1
_chemical_formula_structural   K2Mn(SeO3)2
_chemical_formula_sum   'K2 Mn1 Se2 O6'
_cell_volume   179.23796007
_cell_formula_units_Z   1
loop_
 _symmetry_equiv_pos_site_id
 _symmetry_equiv_pos_as_xyz
  1  'x, y, z'
loop_
 _atom_site_type_symbol
 _atom_site_label
 _atom_site_symmetry_multiplicity
 _atom_site_fract_x
 _atom_site_fract_y
 _atom_site_fract_z
 _atom_site_occupancy
  O  O0  1  0.250360  0.250358  0.727571  1
  O  O1  1  0.250359  0.727571  0.250359  1
  O  O2  1  0.727572  0.250358  0.250360  1
  O  O3  1  0.272429  0.749641  0.749641  1
  O  O4  1  0.749641  0.749641  0.272430  1
  O  O5  1  0.749641  0.272430  0.749641  1
  K  K6  1  0.195526  0.195527  0.195527  1
  K  K7  1  0.804473  0.804474  0.804472  1
  Mn  Mn8  1  0.000000  0.000000  0.000000  1
  Se  Se9  1  0.628271  0.628272  0.628271  1
  Se  Se10  1  0.371728  0.371729  0.371727  1
