# generated using pymatgen
data_Te2W3S4
_symmetry_space_group_name_H-M   'P 1'
_cell_length_a   3.30011874
_cell_length_b   3.30010782
_cell_length_c   30.55128026
_cell_angle_alpha   90.00000000
_cell_angle_beta   90.00000000
_cell_angle_gamma   120.00010942
_symmetry_Int_Tables_number   1
_chemical_formula_structural   Te2W3S4
_chemical_formula_sum   'Te2 W3 S4'
_cell_volume   288.14909715
_cell_formula_units_Z   1
loop_
 _symmetry_equiv_pos_site_id
 _symmetry_equiv_pos_as_xyz
  1  'x, y, z'
loop_
 _atom_site_type_symbol
 _atom_site_label
 _atom_site_symmetry_multiplicity
 _atom_site_fract_x
 _atom_site_fract_y
 _atom_site_fract_z
 _atom_site_occupancy
  Te  Te0  1  0.333355  0.666712  0.409922  1
  Te  Te1  1  0.333355  0.666712  0.284043  1
  W  W2  1  0.333310  0.666619  0.115612  1
  W  W3  1  0.333310  0.666619  0.578353  1
  W  W4  1  0.666689  0.333378  0.346982  1
  S  S5  1  0.666644  0.333288  0.065365  1
  S  S6  1  0.666646  0.333292  0.528073  1
  S  S7  1  0.666646  0.333292  0.165892  1
  S  S8  1  0.666644  0.333288  0.628599  1
