# generated using pymatgen
data_Ba3(InP2)2
_symmetry_space_group_name_H-M   'P 1'
_cell_length_a   7.17690935
_cell_length_b   8.95361660
_cell_length_c   8.95361660
_cell_angle_alpha   75.64605208
_cell_angle_beta   89.88478702
_cell_angle_gamma   89.88478698
_symmetry_Int_Tables_number   1
_chemical_formula_structural   Ba3(InP2)2
_chemical_formula_sum   'Ba6 In4 P8'
_cell_volume   557.39033211
_cell_formula_units_Z   2
loop_
 _symmetry_equiv_pos_site_id
 _symmetry_equiv_pos_as_xyz
  1  'x, y, z'
loop_
 _atom_site_type_symbol
 _atom_site_label
 _atom_site_symmetry_multiplicity
 _atom_site_fract_x
 _atom_site_fract_y
 _atom_site_fract_z
 _atom_site_occupancy
  P  P0  1  0.068519  0.256848  0.427577  1
  P  P1  1  0.431481  0.572423  0.743152  1
  P  P2  1  0.931481  0.743152  0.572423  1
  P  P3  1  0.568519  0.427577  0.256848  1
  P  P4  1  0.473398  0.941566  0.290889  1
  P  P5  1  0.026602  0.709111  0.058434  1
  P  P6  1  0.973398  0.290889  0.941566  1
  P  P7  1  0.526602  0.058434  0.709111  1
  In  In8  1  0.084542  0.580770  0.826173  1
  In  In9  1  0.415458  0.173827  0.419229  1
  In  In10  1  0.915458  0.419229  0.173827  1
  In  In11  1  0.584542  0.826173  0.580770  1
  Ba  Ba12  1  0.250000  0.598305  0.401695  1
  Ba  Ba13  1  0.750000  0.401695  0.598305  1
  Ba  Ba14  1  0.955051  0.994281  0.252843  1
  Ba  Ba15  1  0.544949  0.747157  0.005719  1
  Ba  Ba16  1  0.044949  0.005719  0.747157  1
  Ba  Ba17  1  0.455051  0.252843  0.994281  1
