# generated using pymatgen
data_CsSn
_symmetry_space_group_name_H-M   'P 1'
_cell_length_a   12.35956383
_cell_length_b   12.35956382
_cell_length_c   13.36129449
_cell_angle_alpha   117.54943207
_cell_angle_beta   117.54943208
_cell_angle_gamma   90.00000001
_symmetry_Int_Tables_number   1
_chemical_formula_structural   CsSn
_chemical_formula_sum   'Cs16 Sn16'
_cell_volume   1543.88298415
_cell_formula_units_Z   16
loop_
 _symmetry_equiv_pos_site_id
 _symmetry_equiv_pos_as_xyz
  1  'x, y, z'
loop_
 _atom_site_type_symbol
 _atom_site_label
 _atom_site_symmetry_multiplicity
 _atom_site_fract_x
 _atom_site_fract_y
 _atom_site_fract_z
 _atom_site_occupancy
  Sn  Sn0  1  0.133886  0.718112  0.144710  1
  Sn  Sn1  1  0.573402  0.489176  0.355290  1
  Sn  Sn2  1  0.781888  0.366114  0.355290  1
  Sn  Sn3  1  0.489176  0.781888  0.855290  1
  Sn  Sn4  1  0.366114  0.573402  0.855290  1
  Sn  Sn5  1  0.926598  0.133886  0.644710  1
  Sn  Sn6  1  0.718112  0.010824  0.644710  1
  Sn  Sn7  1  0.010824  0.926598  0.144710  1
  Sn  Sn8  1  0.866114  0.281888  0.855290  1
  Sn  Sn9  1  0.426598  0.510824  0.644710  1
  Sn  Sn10  1  0.218112  0.633886  0.644710  1
  Sn  Sn11  1  0.510824  0.218112  0.144710  1
  Sn  Sn12  1  0.633886  0.426598  0.144710  1
  Sn  Sn13  1  0.073402  0.866114  0.355290  1
  Sn  Sn14  1  0.281888  0.989176  0.355290  1
  Sn  Sn15  1  0.989176  0.073402  0.855290  1
  Cs  Cs16  1  0.254002  0.004002  0.750000  1
  Cs  Cs17  1  0.245998  0.254002  0.250000  1
  Cs  Cs18  1  0.004002  0.495998  0.250000  1
  Cs  Cs19  1  0.495998  0.245998  0.750000  1
  Cs  Cs20  1  0.745998  0.995998  0.250000  1
  Cs  Cs21  1  0.754002  0.745998  0.750000  1
  Cs  Cs22  1  0.995998  0.504002  0.750000  1
  Cs  Cs23  1  0.504002  0.754002  0.250000  1
  Cs  Cs24  1  0.609545  0.250000  0.500000  1
  Cs  Cs25  1  0.750000  0.609545  0.000000  1
  Cs  Cs26  1  0.250000  0.890455  0.000000  1
  Cs  Cs27  1  0.890455  0.750000  0.500000  1
  Cs  Cs28  1  0.390455  0.750000  0.500000  1
  Cs  Cs29  1  0.250000  0.390455  0.000000  1
  Cs  Cs30  1  0.750000  0.109545  0.000000  1
  Cs  Cs31  1  0.109545  0.250000  0.500000  1
