# generated using pymatgen
data_Hf(PS3)2
_symmetry_space_group_name_H-M   'P 1'
_cell_length_a   7.13910691
_cell_length_b   7.13910691
_cell_length_c   11.66192631
_cell_angle_alpha   101.75492406
_cell_angle_beta   101.75492407
_cell_angle_gamma   109.53705198
_symmetry_Int_Tables_number   1
_chemical_formula_structural   Hf(PS3)2
_chemical_formula_sum   'Hf2 P4 S12'
_cell_volume   524.05844360
_cell_formula_units_Z   2
loop_
 _symmetry_equiv_pos_site_id
 _symmetry_equiv_pos_as_xyz
  1  'x, y, z'
loop_
 _atom_site_type_symbol
 _atom_site_label
 _atom_site_symmetry_multiplicity
 _atom_site_fract_x
 _atom_site_fract_y
 _atom_site_fract_z
 _atom_site_occupancy
  P  P0  1  0.731744  0.855757  0.374446  1
  P  P1  1  0.605757  0.981744  0.874446  1
  P  P2  1  0.268689  0.892702  0.874446  1
  P  P3  1  0.642702  0.518689  0.374446  1
  S  S4  1  0.667425  0.720082  0.854988  1
  S  S5  1  0.187564  0.134906  0.854988  1
  S  S6  1  0.960524  0.011391  0.538163  1
  S  S7  1  0.577639  0.526772  0.538163  1
  S  S8  1  0.276772  0.827639  0.038163  1
  S  S9  1  0.761391  0.210524  0.038163  1
  S  S10  1  0.387616  0.323382  0.233293  1
  S  S11  1  0.845677  0.909910  0.233293  1
  S  S12  1  0.659910  0.095677  0.733293  1
  S  S13  1  0.073382  0.637616  0.733293  1
  S  S14  1  0.470082  0.917425  0.354988  1
  S  S15  1  0.884906  0.437564  0.354988  1
  Hf  Hf16  1  0.851011  0.851011  0.702021  1
  Hf  Hf17  1  0.601011  0.101011  0.202021  1
