# generated using pymatgen
data_SrTh2Se5
_symmetry_space_group_name_H-M   'P 1'
_cell_length_a   7.96907401
_cell_length_b   8.80346416
_cell_length_c   12.66900801
_cell_angle_alpha   90.00314656
_cell_angle_beta   90.00000000
_cell_angle_gamma   90.00000000
_symmetry_Int_Tables_number   1
_chemical_formula_structural   SrTh2Se5
_chemical_formula_sum   'Sr4 Th8 Se20'
_cell_volume   888.80005152
_cell_formula_units_Z   4
loop_
 _symmetry_equiv_pos_site_id
 _symmetry_equiv_pos_as_xyz
  1  'x, y, z'
loop_
 _atom_site_type_symbol
 _atom_site_label
 _atom_site_symmetry_multiplicity
 _atom_site_fract_x
 _atom_site_fract_y
 _atom_site_fract_z
 _atom_site_occupancy
  Se  Se0  1  0.839617  0.043861  0.601590  1
  Se  Se1  1  0.827303  0.224066  0.315185  1
  Se  Se2  1  0.672697  0.224066  0.815185  1
  Se  Se3  1  0.172697  0.775934  0.684815  1
  Se  Se4  1  0.542658  0.778611  0.501737  1
  Se  Se5  1  0.042658  0.221389  0.998263  1
  Se  Se6  1  0.457342  0.221389  0.498263  1
  Se  Se7  1  0.957342  0.778611  0.001737  1
  Se  Se8  1  0.198277  0.235475  0.716836  1
  Se  Se9  1  0.698277  0.764525  0.783164  1
  Se  Se10  1  0.801723  0.764525  0.283164  1
  Se  Se11  1  0.660383  0.043861  0.101590  1
  Se  Se12  1  0.828866  0.458460  0.589225  1
  Se  Se13  1  0.328866  0.541540  0.910775  1
  Se  Se14  1  0.171134  0.541540  0.410775  1
  Se  Se15  1  0.671134  0.458460  0.089225  1
  Se  Se16  1  0.301723  0.235475  0.216836  1
  Se  Se17  1  0.339617  0.956139  0.898410  1
  Se  Se18  1  0.160383  0.956139  0.398410  1
  Se  Se19  1  0.327303  0.775934  0.184815  1
  Sr  Sr20  1  0.966227  0.494563  0.825295  1
  Sr  Sr21  1  0.466227  0.505437  0.674705  1
  Sr  Sr22  1  0.033773  0.505437  0.174705  1
  Sr  Sr23  1  0.533773  0.494563  0.325295  1
  Th  Th24  1  0.574723  0.748760  0.008825  1
  Th  Th25  1  0.925277  0.748760  0.508825  1
  Th  Th26  1  0.425277  0.251240  0.991175  1
  Th  Th27  1  0.074723  0.251240  0.491175  1
  Th  Th28  1  0.517650  0.998048  0.320236  1
  Th  Th29  1  0.017650  0.001952  0.179764  1
  Th  Th30  1  0.482350  0.001952  0.679764  1
  Th  Th31  1  0.982350  0.998048  0.820236  1
