# generated using pymatgen
data_RbTa(CuSe2)2
_symmetry_space_group_name_H-M   'P 1'
_cell_length_a   5.75022601
_cell_length_b   7.86322100
_cell_length_c   10.25263177
_cell_angle_alpha   90.00000000
_cell_angle_beta   106.28568082
_cell_angle_gamma   90.00000000
_symmetry_Int_Tables_number   1
_chemical_formula_structural   RbTa(CuSe2)2
_chemical_formula_sum   'Rb2 Ta2 Cu4 Se8'
_cell_volume   444.97500869
_cell_formula_units_Z   2
loop_
 _symmetry_equiv_pos_site_id
 _symmetry_equiv_pos_as_xyz
  1  'x, y, z'
loop_
 _atom_site_type_symbol
 _atom_site_label
 _atom_site_symmetry_multiplicity
 _atom_site_fract_x
 _atom_site_fract_y
 _atom_site_fract_z
 _atom_site_occupancy
  Cu  Cu0  1  0.558992  0.500000  0.000000  1
  Cu  Cu1  1  0.558992  0.000000  0.000000  1
  Cu  Cu2  1  0.148331  0.750000  0.208496  1
  Cu  Cu3  1  0.939835  0.250000  0.791504  1
  Se  Se4  1  0.090336  0.250000  0.589318  1
  Se  Se5  1  0.302247  0.750000  0.006072  1
  Se  Se6  1  0.895947  0.002771  0.209508  1
  Se  Se7  1  0.686439  0.997229  0.790492  1
  Se  Se8  1  0.895947  0.497229  0.209508  1
  Se  Se9  1  0.686439  0.502771  0.790492  1
  Se  Se10  1  0.296175  0.250000  0.993928  1
  Se  Se11  1  0.501018  0.750000  0.410682  1
  Rb  Rb12  1  0.485630  0.250000  0.367684  1
  Rb  Rb13  1  0.117946  0.750000  0.632316  1
  Ta  Ta14  1  0.438596  0.250000  0.787944  1
  Ta  Ta15  1  0.650651  0.750000  0.212056  1
