# generated using pymatgen
data_HoGa
_symmetry_space_group_name_H-M   'P 1'
_cell_length_a   4.06925626
_cell_length_b   4.32344729
_cell_length_c   5.83591689
_cell_angle_alpha   111.74134574
_cell_angle_beta   90.00000000
_cell_angle_gamma   90.00000000
_symmetry_Int_Tables_number   1
_chemical_formula_structural   HoGa
_chemical_formula_sum   'Ho2 Ga2'
_cell_volume   95.36898187
_cell_formula_units_Z   2
loop_
 _symmetry_equiv_pos_site_id
 _symmetry_equiv_pos_as_xyz
  1  'x, y, z'
loop_
 _atom_site_type_symbol
 _atom_site_label
 _atom_site_symmetry_multiplicity
 _atom_site_fract_x
 _atom_site_fract_y
 _atom_site_fract_z
 _atom_site_occupancy
  Ho  Ho0  1  0.250000  0.137984  0.275967  1
  Ho  Ho1  1  0.750000  0.862016  0.724033  1
  Ga  Ga2  1  0.250000  0.423460  0.846920  1
  Ga  Ga3  1  0.750000  0.576540  0.153080  1
