# generated using pymatgen
data_CrN2
_symmetry_space_group_name_H-M   'P 1'
_cell_length_a   10.06924859
_cell_length_b   10.06924919
_cell_length_c   10.06924859
_cell_angle_alpha   94.51172426
_cell_angle_beta   94.51172685
_cell_angle_gamma   94.51172426
_symmetry_Int_Tables_number   1
_chemical_formula_structural   CrN2
_chemical_formula_sum   'Cr12 N24'
_cell_volume   1010.89670614
_cell_formula_units_Z   12
loop_
 _symmetry_equiv_pos_site_id
 _symmetry_equiv_pos_as_xyz
  1  'x, y, z'
loop_
 _atom_site_type_symbol
 _atom_site_label
 _atom_site_symmetry_multiplicity
 _atom_site_fract_x
 _atom_site_fract_y
 _atom_site_fract_z
 _atom_site_occupancy
  Cr  Cr0  1  0.123820  0.667596  0.895857  1
  Cr  Cr1  1  0.667596  0.895857  0.123820  1
  Cr  Cr2  1  0.895857  0.123820  0.667596  1
  Cr  Cr3  1  0.123820  0.895857  0.667596  1
  Cr  Cr4  1  0.895857  0.667596  0.123820  1
  Cr  Cr5  1  0.667596  0.123820  0.895857  1
  Cr  Cr6  1  0.876060  0.332443  0.104234  1
  Cr  Cr7  1  0.332443  0.104234  0.876060  1
  Cr  Cr8  1  0.104234  0.876060  0.332443  1
  Cr  Cr9  1  0.876060  0.104234  0.332443  1
  Cr  Cr10  1  0.104234  0.332443  0.876060  1
  Cr  Cr11  1  0.332443  0.876060  0.104234  1
  N  N12  1  0.108694  0.754941  0.754941  1
  N  N13  1  0.754941  0.754941  0.108694  1
  N  N14  1  0.754941  0.108694  0.754941  1
  N  N15  1  0.891407  0.245211  0.245211  1
  N  N16  1  0.245211  0.245211  0.891407  1
  N  N17  1  0.245211  0.891407  0.245211  1
  N  N18  1  0.142521  0.500077  0.857430  1
  N  N19  1  0.500077  0.857430  0.142521  1
  N  N20  1  0.857430  0.142521  0.500077  1
  N  N21  1  0.142521  0.857430  0.500077  1
  N  N22  1  0.857430  0.500077  0.142521  1
  N  N23  1  0.500077  0.142521  0.857430  1
  N  N24  1  0.985388  0.678952  0.985388  1
  N  N25  1  0.678952  0.985388  0.985388  1
  N  N26  1  0.985388  0.985388  0.678952  1
  N  N27  1  0.014346  0.321165  0.014346  1
  N  N28  1  0.321165  0.014346  0.014346  1
  N  N29  1  0.014346  0.014346  0.321165  1
  N  N30  1  0.258269  0.741538  0.000060  1
  N  N31  1  0.741538  0.000060  0.258269  1
  N  N32  1  0.000060  0.258269  0.741538  1
  N  N33  1  0.258269  0.000060  0.741538  1
  N  N34  1  0.000060  0.741538  0.258269  1
  N  N35  1  0.741538  0.258269  0.000060  1
