# generated using pymatgen
data_K2SrBe2F8
_symmetry_space_group_name_H-M   'P 1'
_cell_length_a   7.60743849
_cell_length_b   7.60743849
_cell_length_c   7.60743849
_cell_angle_alpha   42.33660916
_cell_angle_beta   42.33660922
_cell_angle_gamma   42.33660914
_symmetry_Int_Tables_number   1
_chemical_formula_structural   K2SrBe2F8
_chemical_formula_sum   'K2 Sr1 Be2 F8'
_cell_volume   180.76205174
_cell_formula_units_Z   1
loop_
 _symmetry_equiv_pos_site_id
 _symmetry_equiv_pos_as_xyz
  1  'x, y, z'
loop_
 _atom_site_type_symbol
 _atom_site_label
 _atom_site_symmetry_multiplicity
 _atom_site_fract_x
 _atom_site_fract_y
 _atom_site_fract_z
 _atom_site_occupancy
  Be  Be0  1  0.598616  0.598616  0.598616  1
  Be  Be1  1  0.401384  0.401384  0.401384  1
  F  F2  1  0.261540  0.730587  0.730587  1
  F  F3  1  0.730587  0.261540  0.730587  1
  F  F4  1  0.730587  0.730587  0.261540  1
  F  F5  1  0.326621  0.326621  0.326621  1
  F  F6  1  0.673379  0.673379  0.673379  1
  F  F7  1  0.269413  0.738460  0.269413  1
  F  F8  1  0.269413  0.269413  0.738460  1
  F  F9  1  0.738460  0.269413  0.269413  1
  K  K10  1  0.202263  0.202263  0.202263  1
  K  K11  1  0.797737  0.797737  0.797737  1
  Sr  Sr12  1  0.000000  0.000000  0.000000  1
