# generated using pymatgen
data_Te4Mo3W(SeS)2
_symmetry_space_group_name_H-M   'P 1'
_cell_length_a   3.39829250
_cell_length_b   3.39848837
_cell_length_c   40.19722304
_cell_angle_alpha   89.99859275
_cell_angle_beta   90.00000000
_cell_angle_gamma   119.99809351
_symmetry_Int_Tables_number   1
_chemical_formula_structural   Te4Mo3W(SeS)2
_chemical_formula_sum   'Te4 Mo3 W1 Se2 S2'
_cell_volume   402.05139265
_cell_formula_units_Z   1
loop_
 _symmetry_equiv_pos_site_id
 _symmetry_equiv_pos_as_xyz
  1  'x, y, z'
loop_
 _atom_site_type_symbol
 _atom_site_label
 _atom_site_symmetry_multiplicity
 _atom_site_fract_x
 _atom_site_fract_y
 _atom_site_fract_z
 _atom_site_occupancy
  Te  Te0  1  0.333302  0.666605  0.327195  1
  Te  Te1  1  0.666683  0.333365  0.423658  1
  Te  Te2  1  0.666661  0.333321  0.517409  1
  Te  Te3  1  0.333302  0.666605  0.233883  1
  Mo  Mo4  1  0.333263  0.666525  0.093907  1
  Mo  Mo5  1  0.666657  0.333314  0.280523  1
  Mo  Mo6  1  0.666710  0.333421  0.657951  1
  W  W7  1  0.333318  0.666635  0.470545  1
  Se  Se8  1  0.333360  0.666721  0.698999  1
  Se  Se9  1  0.333386  0.666774  0.616847  1
  S  S10  1  0.666684  0.333368  0.056510  1
  S  S11  1  0.666673  0.333345  0.131320  1
