# generated using pymatgen
data_TeMoWSeS2
_symmetry_space_group_name_H-M   'P 1'
_cell_length_a   3.30646479
_cell_length_b   3.30646959
_cell_length_c   37.62163142
_cell_angle_alpha   90.00014688
_cell_angle_beta   90.00000000
_cell_angle_gamma   119.99995212
_symmetry_Int_Tables_number   1
_chemical_formula_structural   TeMoWSeS2
_chemical_formula_sum   'Te2 Mo2 W2 Se2 S4'
_cell_volume   356.20244829
_cell_formula_units_Z   2
loop_
 _symmetry_equiv_pos_site_id
 _symmetry_equiv_pos_as_xyz
  1  'x, y, z'
loop_
 _atom_site_type_symbol
 _atom_site_label
 _atom_site_symmetry_multiplicity
 _atom_site_fract_x
 _atom_site_fract_y
 _atom_site_fract_z
 _atom_site_occupancy
  Te  Te0  1  0.333354  0.666709  0.708329  1
  Te  Te1  1  0.333352  0.666705  0.606845  1
  Mo  Mo2  1  0.333309  0.666618  0.093926  1
  Mo  Mo3  1  0.666691  0.333382  0.657605  1
  W  W4  1  0.333310  0.666620  0.469620  1
  W  W5  1  0.666690  0.333379  0.281800  1
  Se  Se6  1  0.666650  0.333299  0.424781  1
  Se  Se7  1  0.666647  0.333293  0.514427  1
  S  S8  1  0.333352  0.666706  0.322532  1
  S  S9  1  0.666645  0.333289  0.053284  1
  S  S10  1  0.666648  0.333294  0.134575  1
  S  S11  1  0.333353  0.666708  0.241025  1
