# generated using pymatgen
data_Li2WO4
_symmetry_space_group_name_H-M   'P 1'
_cell_length_a   9.07303471
_cell_length_b   9.07303450
_cell_length_c   9.07303415
_cell_angle_alpha   107.85091178
_cell_angle_beta   107.85091142
_cell_angle_gamma   107.85091525
_symmetry_Int_Tables_number   1
_chemical_formula_structural   Li2WO4
_chemical_formula_sum   'Li12 W6 O24'
_cell_volume   607.00182639
_cell_formula_units_Z   6
loop_
 _symmetry_equiv_pos_site_id
 _symmetry_equiv_pos_as_xyz
  1  'x, y, z'
loop_
 _atom_site_type_symbol
 _atom_site_label
 _atom_site_symmetry_multiplicity
 _atom_site_fract_x
 _atom_site_fract_y
 _atom_site_fract_z
 _atom_site_occupancy
  Li  Li0  1  0.892436  0.127193  0.722999  1
  Li  Li1  1  0.277001  0.107564  0.872807  1
  Li  Li2  1  0.608967  0.433302  0.203561  1
  Li  Li3  1  0.391033  0.566698  0.796439  1
  Li  Li4  1  0.203561  0.608967  0.433302  1
  Li  Li5  1  0.872807  0.277001  0.107564  1
  Li  Li6  1  0.566698  0.796439  0.391033  1
  Li  Li7  1  0.722999  0.892436  0.127193  1
  Li  Li8  1  0.127193  0.722999  0.892436  1
  Li  Li9  1  0.433302  0.203561  0.608967  1
  Li  Li10  1  0.796439  0.391033  0.566698  1
  Li  Li11  1  0.107564  0.872807  0.277001  1
  W  W12  1  0.768317  0.536848  0.945460  1
  W  W13  1  0.536848  0.945460  0.768317  1
  W  W14  1  0.945460  0.768317  0.536848  1
  W  W15  1  0.231683  0.463152  0.054540  1
  W  W16  1  0.054540  0.231683  0.463152  1
  W  W17  1  0.463152  0.054540  0.231683  1
  O  O18  1  0.307374  0.971224  0.008411  1
  O  O19  1  0.721625  0.682908  0.382879  1
  O  O20  1  0.692626  0.028776  0.991589  1
  O  O21  1  0.347998  0.042056  0.363157  1
  O  O22  1  0.682908  0.382879  0.721625  1
  O  O23  1  0.246833  0.576610  0.922202  1
  O  O24  1  0.922202  0.246833  0.576610  1
  O  O25  1  0.363157  0.347998  0.042056  1
  O  O26  1  0.028776  0.991589  0.692626  1
  O  O27  1  0.957944  0.636843  0.652002  1
  O  O28  1  0.317092  0.617121  0.278375  1
  O  O29  1  0.636843  0.652002  0.957944  1
  O  O30  1  0.617121  0.278375  0.317092  1
  O  O31  1  0.576610  0.922202  0.246833  1
  O  O32  1  0.382879  0.721625  0.682908  1
  O  O33  1  0.423390  0.077798  0.753167  1
  O  O34  1  0.042056  0.363157  0.347998  1
  O  O35  1  0.652002  0.957944  0.636843  1
  O  O36  1  0.008411  0.307374  0.971224  1
  O  O37  1  0.077798  0.753167  0.423390  1
  O  O38  1  0.753167  0.423390  0.077798  1
  O  O39  1  0.278375  0.317092  0.617121  1
  O  O40  1  0.971224  0.008411  0.307374  1
  O  O41  1  0.991589  0.692626  0.028776  1
