# generated using pymatgen
data_Ti3NiS6
_symmetry_space_group_name_H-M   'P 1'
_cell_length_a   5.86780084
_cell_length_b   5.86780084
_cell_length_c   11.35800766
_cell_angle_alpha   90.00000000
_cell_angle_beta   90.00000000
_cell_angle_gamma   120.00000001
_symmetry_Int_Tables_number   1
_chemical_formula_structural   Ti3NiS6
_chemical_formula_sum   'Ti6 Ni2 S12'
_cell_volume   338.67529573
_cell_formula_units_Z   2
loop_
 _symmetry_equiv_pos_site_id
 _symmetry_equiv_pos_as_xyz
  1  'x, y, z'
loop_
 _atom_site_type_symbol
 _atom_site_label
 _atom_site_symmetry_multiplicity
 _atom_site_fract_x
 _atom_site_fract_y
 _atom_site_fract_z
 _atom_site_occupancy
  S  S0  1  0.669098  0.664521  0.871987  1
  S  S1  1  0.335479  0.004577  0.871987  1
  S  S2  1  0.995423  0.330902  0.871987  1
  S  S3  1  0.335479  0.330902  0.628013  1
  S  S4  1  0.995423  0.664521  0.628013  1
  S  S5  1  0.669098  0.004577  0.628013  1
  S  S6  1  0.330902  0.335479  0.128013  1
  S  S7  1  0.664521  0.995423  0.128013  1
  S  S8  1  0.330902  0.995423  0.371987  1
  S  S9  1  0.004577  0.335479  0.371987  1
  S  S10  1  0.664521  0.669098  0.371987  1
  S  S11  1  0.004577  0.669098  0.128013  1
  Ti  Ti12  1  0.666667  0.333333  0.494303  1
  Ti  Ti13  1  0.666667  0.333333  0.005697  1
  Ti  Ti14  1  0.333333  0.666667  0.505697  1
  Ti  Ti15  1  0.333333  0.666667  0.994303  1
  Ti  Ti16  1  0.000000  0.000000  0.500000  1
  Ti  Ti17  1  0.000000  0.000000  0.000000  1
  Ni  Ni18  1  0.666667  0.333333  0.750000  1
  Ni  Ni19  1  0.333333  0.666667  0.250000  1
