# generated using pymatgen
data_CsSi
_symmetry_space_group_name_H-M   'P 1'
_cell_length_a   13.71990378
_cell_length_b   13.71990378
_cell_length_c   13.71990378
_cell_angle_alpha   90.00000000
_cell_angle_beta   90.00000000
_cell_angle_gamma   90.00000000
_symmetry_Int_Tables_number   1
_chemical_formula_structural   CsSi
_chemical_formula_sum   'Cs32 Si32'
_cell_volume   2582.57651148
_cell_formula_units_Z   32
loop_
 _symmetry_equiv_pos_site_id
 _symmetry_equiv_pos_as_xyz
  1  'x, y, z'
loop_
 _atom_site_type_symbol
 _atom_site_label
 _atom_site_symmetry_multiplicity
 _atom_site_fract_x
 _atom_site_fract_y
 _atom_site_fract_z
 _atom_site_occupancy
  Si  Si0  1  0.558554  0.932441  0.811863  1
  Si  Si1  1  0.558554  0.067559  0.188137  1
  Si  Si2  1  0.932441  0.811863  0.558554  1
  Si  Si3  1  0.067559  0.811863  0.441446  1
  Si  Si4  1  0.811863  0.558554  0.932441  1
  Si  Si5  1  0.188137  0.441446  0.932441  1
  Si  Si6  1  0.941446  0.688137  0.432441  1
  Si  Si7  1  0.941446  0.311863  0.567559  1
  Si  Si8  1  0.058554  0.688137  0.567559  1
  Si  Si9  1  0.311863  0.567559  0.941446  1
  Si  Si10  1  0.567559  0.058554  0.688137  1
  Si  Si11  1  0.567559  0.941446  0.311863  1
  Si  Si12  1  0.688137  0.432441  0.941446  1
  Si  Si13  1  0.432441  0.941446  0.688137  1
  Si  Si14  1  0.688137  0.567559  0.058554  1
  Si  Si15  1  0.062779  0.062779  0.062779  1
  Si  Si16  1  0.432441  0.058554  0.311863  1
  Si  Si17  1  0.188137  0.558554  0.067559  1
  Si  Si18  1  0.811863  0.441446  0.067559  1
  Si  Si19  1  0.932441  0.188137  0.441446  1
  Si  Si20  1  0.067559  0.188137  0.558554  1
  Si  Si21  1  0.441446  0.067559  0.811863  1
  Si  Si22  1  0.441446  0.932441  0.188137  1
  Si  Si23  1  0.058554  0.311863  0.432441  1
  Si  Si24  1  0.562779  0.562779  0.562779  1
  Si  Si25  1  0.937221  0.062779  0.937221  1
  Si  Si26  1  0.062779  0.937221  0.937221  1
  Si  Si27  1  0.937221  0.937221  0.062779  1
  Si  Si28  1  0.562779  0.437221  0.437221  1
  Si  Si29  1  0.437221  0.437221  0.562779  1
  Si  Si30  1  0.437221  0.562779  0.437221  1
  Si  Si31  1  0.311863  0.432441  0.058554  1
  Cs  Cs32  1  0.067747  0.338492  0.139940  1
  Cs  Cs33  1  0.838492  0.432253  0.360060  1
  Cs  Cs34  1  0.567747  0.639940  0.838492  1
  Cs  Cs35  1  0.432253  0.639940  0.161508  1
  Cs  Cs36  1  0.639940  0.838492  0.567747  1
  Cs  Cs37  1  0.360060  0.161508  0.567747  1
  Cs  Cs38  1  0.661508  0.860060  0.067747  1
  Cs  Cs39  1  0.661508  0.139940  0.932253  1
  Cs  Cs40  1  0.338492  0.860060  0.932253  1
  Cs  Cs41  1  0.139940  0.932253  0.661508  1
  Cs  Cs42  1  0.932253  0.338492  0.860060  1
  Cs  Cs43  1  0.932253  0.661508  0.139940  1
  Cs  Cs44  1  0.860060  0.067747  0.661508  1
  Cs  Cs45  1  0.067747  0.661508  0.860060  1
  Cs  Cs46  1  0.860060  0.932253  0.338492  1
  Cs  Cs47  1  0.139940  0.067747  0.338492  1
  Cs  Cs48  1  0.838492  0.567747  0.639940  1
  Cs  Cs49  1  0.360060  0.838492  0.432253  1
  Cs  Cs50  1  0.639940  0.161508  0.432253  1
  Cs  Cs51  1  0.567747  0.360060  0.161508  1
  Cs  Cs52  1  0.432253  0.360060  0.838492  1
  Cs  Cs53  1  0.161508  0.432253  0.639940  1
  Cs  Cs54  1  0.161508  0.567747  0.360060  1
  Cs  Cs55  1  0.338492  0.139940  0.067747  1
  Cs  Cs56  1  0.834954  0.834954  0.834954  1
  Cs  Cs57  1  0.665046  0.334954  0.665046  1
  Cs  Cs58  1  0.334954  0.665046  0.665046  1
  Cs  Cs59  1  0.665046  0.665046  0.334954  1
  Cs  Cs60  1  0.834954  0.165046  0.165046  1
  Cs  Cs61  1  0.165046  0.165046  0.834954  1
  Cs  Cs62  1  0.165046  0.834954  0.165046  1
  Cs  Cs63  1  0.334954  0.334954  0.334954  1
