# generated using pymatgen
data_Pr2(ZnGe2)3
_symmetry_space_group_name_H-M   'P 1'
_cell_length_a   5.98998318
_cell_length_b   5.99905018
_cell_length_c   12.82144705
_cell_angle_alpha   103.52949589
_cell_angle_beta   90.00000000
_cell_angle_gamma   90.00000000
_symmetry_Int_Tables_number   1
_chemical_formula_structural   Pr2(ZnGe2)3
_chemical_formula_sum   'Pr4 Zn6 Ge12'
_cell_volume   447.94317142
_cell_formula_units_Z   2
loop_
 _symmetry_equiv_pos_site_id
 _symmetry_equiv_pos_as_xyz
  1  'x, y, z'
loop_
 _atom_site_type_symbol
 _atom_site_label
 _atom_site_symmetry_multiplicity
 _atom_site_fract_x
 _atom_site_fract_y
 _atom_site_fract_z
 _atom_site_occupancy
  Zn  Zn0  1  0.000000  0.734946  0.000000  1
  Zn  Zn1  1  0.750000  0.159949  0.319898  1
  Zn  Zn2  1  0.500000  0.734946  0.000000  1
  Zn  Zn3  1  0.000000  0.265054  0.000000  1
  Zn  Zn4  1  0.250000  0.840051  0.680102  1
  Zn  Zn5  1  0.500000  0.265054  0.000000  1
  Ge  Ge6  1  0.034005  0.485200  0.402198  1
  Ge  Ge7  1  0.534005  0.514800  0.597802  1
  Ge  Ge8  1  0.034005  0.916997  0.402198  1
  Ge  Ge9  1  0.534005  0.083003  0.597802  1
  Ge  Ge10  1  0.965995  0.514800  0.597802  1
  Ge  Ge11  1  0.465995  0.485200  0.402198  1
  Ge  Ge12  1  0.965995  0.083003  0.597802  1
  Ge  Ge13  1  0.250000  0.941956  0.883911  1
  Ge  Ge14  1  0.750000  0.430856  0.861712  1
  Ge  Ge15  1  0.250000  0.569144  0.138288  1
  Ge  Ge16  1  0.750000  0.058044  0.116089  1
  Ge  Ge17  1  0.465995  0.916997  0.402198  1
  Pr  Pr18  1  0.750000  0.606248  0.212497  1
  Pr  Pr19  1  0.250000  0.393752  0.787503  1
  Pr  Pr20  1  0.250000  0.105779  0.211559  1
  Pr  Pr21  1  0.750000  0.894221  0.788441  1
