# generated using pymatgen
data_Mo3W(Se3S)2
_symmetry_space_group_name_H-M   'P 1'
_cell_length_a   3.29164257
_cell_length_b   3.29165013
_cell_length_c   37.40000425
_cell_angle_alpha   89.99954169
_cell_angle_beta   90.00000000
_cell_angle_gamma   119.99992391
_symmetry_Int_Tables_number   1
_chemical_formula_structural   Mo3W(Se3S)2
_chemical_formula_sum   'Mo3 W1 Se6 S2'
_cell_volume   350.93683462
_cell_formula_units_Z   1
loop_
 _symmetry_equiv_pos_site_id
 _symmetry_equiv_pos_as_xyz
  1  'x, y, z'
loop_
 _atom_site_type_symbol
 _atom_site_label
 _atom_site_symmetry_multiplicity
 _atom_site_fract_x
 _atom_site_fract_y
 _atom_site_fract_z
 _atom_site_occupancy
  Mo  Mo0  1  0.333312  0.666624  0.093910  1
  Mo  Mo1  1  0.333315  0.666630  0.469655  1
  Mo  Mo2  1  0.666686  0.333371  0.281776  1
  W  W3  1  0.666683  0.333366  0.657568  1
  Se  Se4  1  0.333369  0.666739  0.326861  1
  Se  Se5  1  0.333349  0.666699  0.702871  1
  Se  Se6  1  0.666649  0.333298  0.424591  1
  Se  Se7  1  0.666649  0.333297  0.514707  1
  Se  Se8  1  0.333348  0.666698  0.236721  1
  Se  Se9  1  0.333349  0.666699  0.612259  1
  S  S10  1  0.666645  0.333290  0.052915  1
  S  S11  1  0.666645  0.333290  0.134915  1
