# generated using pymatgen
data_TmTe3
_symmetry_space_group_name_H-M   'P 1'
_cell_length_a   3.94904601
_cell_length_b   4.64156401
_cell_length_c   14.13695381
_cell_angle_alpha   90.00000000
_cell_angle_beta   98.02881108
_cell_angle_gamma   90.00000000
_symmetry_Int_Tables_number   1
_chemical_formula_structural   TmTe3
_chemical_formula_sum   'Tm2 Te6'
_cell_volume   256.58685535
_cell_formula_units_Z   2
loop_
 _symmetry_equiv_pos_site_id
 _symmetry_equiv_pos_as_xyz
  1  'x, y, z'
loop_
 _atom_site_type_symbol
 _atom_site_label
 _atom_site_symmetry_multiplicity
 _atom_site_fract_x
 _atom_site_fract_y
 _atom_site_fract_z
 _atom_site_occupancy
  Tm  Tm0  1  0.950406  0.250000  0.900812  1
  Tm  Tm1  1  0.049594  0.750000  0.099188  1
  Te  Te2  1  0.837605  0.250000  0.675210  1
  Te  Te3  1  0.162395  0.750000  0.324790  1
  Te  Te4  1  0.685413  0.250000  0.370827  1
  Te  Te5  1  0.314587  0.750000  0.629173  1
  Te  Te6  1  0.551033  0.250000  0.102066  1
  Te  Te7  1  0.448967  0.750000  0.897934  1
