# generated using pymatgen
data_Ba5Nd8Mn4O21
_symmetry_space_group_name_H-M   'P 1'
_cell_length_a   5.94772908
_cell_length_b   10.61288802
_cell_length_c   10.61288802
_cell_angle_alpha   85.49655255
_cell_angle_beta   73.72710854
_cell_angle_gamma   73.72710852
_symmetry_Int_Tables_number   1
_chemical_formula_structural   Ba5Nd8Mn4O21
_chemical_formula_sum   'Ba5 Nd8 Mn4 O21'
_cell_volume   617.31195736
_cell_formula_units_Z   1
loop_
 _symmetry_equiv_pos_site_id
 _symmetry_equiv_pos_as_xyz
  1  'x, y, z'
loop_
 _atom_site_type_symbol
 _atom_site_label
 _atom_site_symmetry_multiplicity
 _atom_site_fract_x
 _atom_site_fract_y
 _atom_site_fract_z
 _atom_site_occupancy
  O  O0  1  0.098423  0.888600  0.406798  1
  O  O1  1  0.505221  0.593202  0.888600  1
  O  O2  1  0.987023  0.406798  0.111400  1
  O  O3  1  0.393820  0.111400  0.593202  1
  O  O4  1  0.901577  0.111400  0.593202  1
  O  O5  1  0.494779  0.406798  0.111400  1
  O  O6  1  0.012977  0.593202  0.888600  1
  O  O7  1  0.606180  0.888600  0.406798  1
  O  O8  1  0.931505  0.867101  0.774822  1
  O  O9  1  0.706327  0.225178  0.867101  1
  O  O10  1  0.798606  0.774822  0.132899  1
  O  O11  1  0.573428  0.132899  0.225178  1
  O  O12  1  0.068495  0.132899  0.225178  1
  O  O13  1  0.293673  0.774822  0.132899  1
  O  O14  1  0.201394  0.225178  0.867101  1
  O  O15  1  0.426572  0.867101  0.774822  1
  O  O16  1  0.377081  0.655033  0.590806  1
  O  O17  1  0.500000  0.000000  0.000000  1
  O  O18  1  0.622919  0.344967  0.409194  1
  O  O19  1  0.032113  0.590806  0.344967  1
  O  O20  1  0.967887  0.409194  0.655033  1
  Mn  Mn21  1  0.959659  0.788250  0.292432  1
  Mn  Mn22  1  0.252091  0.707568  0.788250  1
  Mn  Mn23  1  0.747909  0.292432  0.211750  1
  Mn  Mn24  1  0.040341  0.211750  0.707568  1
  Ba  Ba25  1  0.469258  0.395076  0.666409  1
  Ba  Ba26  1  0.135667  0.333591  0.395076  1
  Ba  Ba27  1  0.864333  0.666409  0.604924  1
  Ba  Ba28  1  0.530742  0.604924  0.333591  1
  Ba  Ba29  1  0.000000  0.000000  0.000000  1
  Nd  Nd30  1  0.589066  0.053888  0.767980  1
  Nd  Nd31  1  0.357046  0.232020  0.053888  1
  Nd  Nd32  1  0.642954  0.767980  0.946112  1
  Nd  Nd33  1  0.410934  0.946112  0.232020  1
  Nd  Nd34  1  0.752849  0.078588  0.415713  1
  Nd  Nd35  1  0.168563  0.584287  0.078588  1
  Nd  Nd36  1  0.831437  0.415713  0.921412  1
  Nd  Nd37  1  0.247151  0.921412  0.584287  1
