# generated using pymatgen
data_Te4Mo3WSe4
_symmetry_space_group_name_H-M   'P 1'
_cell_length_a   3.44186545
_cell_length_b   3.44183080
_cell_length_c   39.07145022
_cell_angle_alpha   90.00029028
_cell_angle_beta   90.00000000
_cell_angle_gamma   120.00033314
_symmetry_Int_Tables_number   1
_chemical_formula_structural   Te4Mo3WSe4
_chemical_formula_sum   'Te4 Mo3 W1 Se4'
_cell_volume   400.84097535
_cell_formula_units_Z   1
loop_
 _symmetry_equiv_pos_site_id
 _symmetry_equiv_pos_as_xyz
  1  'x, y, z'
loop_
 _atom_site_type_symbol
 _atom_site_label
 _atom_site_symmetry_multiplicity
 _atom_site_fract_x
 _atom_site_fract_y
 _atom_site_fract_z
 _atom_site_occupancy
  Te  Te0  1  0.333355  0.666711  0.329595  1
  Te  Te1  1  0.333357  0.666714  0.704943  1
  Te  Te2  1  0.333353  0.666706  0.233998  1
  Te  Te3  1  0.333352  0.666704  0.610117  1
  Mo  Mo4  1  0.333312  0.666623  0.093912  1
  Mo  Mo5  1  0.333313  0.666625  0.469660  1
  Mo  Mo6  1  0.666695  0.333389  0.657530  1
  W  W7  1  0.666691  0.333382  0.281797  1
  Se  Se8  1  0.666640  0.333279  0.052061  1
  Se  Se9  1  0.666648  0.333296  0.427783  1
  Se  Se10  1  0.666647  0.333293  0.135806  1
  Se  Se11  1  0.666640  0.333279  0.511546  1
