# generated using pymatgen
data_USiIr
_symmetry_space_group_name_H-M   'P 1'
_cell_length_a   4.26719117
_cell_length_b   6.74068577
_cell_length_c   7.49139162
_cell_angle_alpha   90.00000000
_cell_angle_beta   90.00000000
_cell_angle_gamma   90.00000000
_symmetry_Int_Tables_number   1
_chemical_formula_structural   USiIr
_chemical_formula_sum   'U4 Si4 Ir4'
_cell_volume   215.48085131
_cell_formula_units_Z   4
loop_
 _symmetry_equiv_pos_site_id
 _symmetry_equiv_pos_as_xyz
  1  'x, y, z'
loop_
 _atom_site_type_symbol
 _atom_site_label
 _atom_site_symmetry_multiplicity
 _atom_site_fract_x
 _atom_site_fract_y
 _atom_site_fract_z
 _atom_site_occupancy
  Si  Si0  1  0.250000  0.315624  0.914368  1
  Si  Si1  1  0.750000  0.684376  0.085632  1
  Si  Si2  1  0.250000  0.815624  0.585632  1
  Si  Si3  1  0.750000  0.184376  0.414368  1
  Ir  Ir4  1  0.750000  0.783134  0.414076  1
  Ir  Ir5  1  0.250000  0.216866  0.585924  1
  Ir  Ir6  1  0.750000  0.283134  0.085924  1
  Ir  Ir7  1  0.250000  0.716866  0.914076  1
  U  U8  1  0.250000  0.491600  0.297148  1
  U  U9  1  0.750000  0.508400  0.702852  1
  U  U10  1  0.250000  0.991600  0.202852  1
  U  U11  1  0.750000  0.008400  0.797148  1
