# generated using pymatgen
data_Te2Mo(WS2)3
_symmetry_space_group_name_H-M   'P 1'
_cell_length_a   3.27321334
_cell_length_b   3.27321457
_cell_length_c   37.24775750
_cell_angle_alpha   89.99994703
_cell_angle_beta   90.00000000
_cell_angle_gamma   119.99998761
_symmetry_Int_Tables_number   1
_chemical_formula_structural   Te2Mo(WS2)3
_chemical_formula_sum   'Te2 Mo1 W3 S6'
_cell_volume   345.60467194
_cell_formula_units_Z   1
loop_
 _symmetry_equiv_pos_site_id
 _symmetry_equiv_pos_as_xyz
  1  'x, y, z'
loop_
 _atom_site_type_symbol
 _atom_site_label
 _atom_site_symmetry_multiplicity
 _atom_site_fract_x
 _atom_site_fract_y
 _atom_site_fract_z
 _atom_site_occupancy
  Te  Te0  1  0.666638  0.333274  0.417554  1
  Te  Te1  1  0.666642  0.333284  0.521728  1
  Mo  Mo2  1  0.666706  0.333412  0.281753  1
  W  W3  1  0.333311  0.666622  0.093925  1
  W  W4  1  0.333309  0.666617  0.469647  1
  W  W5  1  0.666693  0.333387  0.657604  1
  S  S6  1  0.333350  0.666700  0.323071  1
  S  S7  1  0.333353  0.666707  0.699061  1
  S  S8  1  0.666648  0.333296  0.052429  1
  S  S9  1  0.666647  0.333292  0.135419  1
  S  S10  1  0.333350  0.666700  0.240464  1
  S  S11  1  0.333354  0.666710  0.616094  1
