# generated using pymatgen
data_BaLi(B3O5)3
_symmetry_space_group_name_H-M   'P 1'
_cell_length_a   8.64252472
_cell_length_b   8.64252473
_cell_length_c   8.64252473
_cell_angle_alpha   80.65567383
_cell_angle_beta   80.65567384
_cell_angle_gamma   80.65567384
_symmetry_Int_Tables_number   1
_chemical_formula_structural   BaLi(B3O5)3
_chemical_formula_sum   'Ba2 Li2 B18 O30'
_cell_volume   622.35755557
_cell_formula_units_Z   2
loop_
 _symmetry_equiv_pos_site_id
 _symmetry_equiv_pos_as_xyz
  1  'x, y, z'
loop_
 _atom_site_type_symbol
 _atom_site_label
 _atom_site_symmetry_multiplicity
 _atom_site_fract_x
 _atom_site_fract_y
 _atom_site_fract_z
 _atom_site_occupancy
  Li  Li0  1  0.246394  0.246394  0.246394  1
  Li  Li1  1  0.746394  0.746394  0.746394  1
  B  B2  1  0.743182  0.606227  0.080829  1
  B  B3  1  0.250124  0.680286  0.819216  1
  B  B4  1  0.750124  0.319216  0.180286  1
  B  B5  1  0.319216  0.180286  0.750124  1
  B  B6  1  0.106227  0.243182  0.580829  1
  B  B7  1  0.243182  0.580829  0.106227  1
  B  B8  1  0.580829  0.106227  0.243182  1
  B  B9  1  0.819216  0.250124  0.680286  1
  B  B10  1  0.080829  0.743182  0.606227  1
  B  B11  1  0.606227  0.080829  0.743182  1
  B  B12  1  0.918734  0.256519  0.393598  1
  B  B13  1  0.256519  0.393598  0.918734  1
  B  B14  1  0.393598  0.918734  0.256519  1
  B  B15  1  0.893598  0.756519  0.418734  1
  B  B16  1  0.756519  0.418734  0.893598  1
  B  B17  1  0.418734  0.893598  0.756519  1
  B  B18  1  0.680286  0.819216  0.250124  1
  B  B19  1  0.180286  0.750124  0.319216  1
  O  O20  1  0.756765  0.755632  0.102201  1
  O  O21  1  0.755632  0.102201  0.756765  1
  O  O22  1  0.487376  0.203304  0.721608  1
  O  O23  1  0.721608  0.487376  0.203304  1
  O  O24  1  0.102201  0.756765  0.755632  1
  O  O25  1  0.703304  0.987376  0.221608  1
  O  O26  1  0.221608  0.703304  0.987376  1
  O  O27  1  0.987376  0.221608  0.703304  1
  O  O28  1  0.242960  0.244018  0.897919  1
  O  O29  1  0.897919  0.242960  0.244018  1
  O  O30  1  0.244018  0.897919  0.242960  1
  O  O31  1  0.744018  0.742960  0.397919  1
  O  O32  1  0.397919  0.744018  0.742960  1
  O  O33  1  0.742960  0.397919  0.744018  1
  O  O34  1  0.602201  0.255632  0.256765  1
  O  O35  1  0.255632  0.256765  0.602201  1
  O  O36  1  0.796130  0.278458  0.512213  1
  O  O37  1  0.278458  0.512213  0.796130  1
  O  O38  1  0.512213  0.796130  0.278458  1
  O  O39  1  0.012213  0.778458  0.296130  1
  O  O40  1  0.778458  0.296130  0.012213  1
  O  O41  1  0.296130  0.012213  0.778458  1
  O  O42  1  0.075960  0.249617  0.423767  1
  O  O43  1  0.249617  0.423767  0.075960  1
  O  O44  1  0.423767  0.075960  0.249617  1
  O  O45  1  0.923767  0.749617  0.575960  1
  O  O46  1  0.749617  0.575960  0.923767  1
  O  O47  1  0.575960  0.923767  0.749617  1
  O  O48  1  0.203304  0.721608  0.487376  1
  O  O49  1  0.256765  0.602201  0.255632  1
  Ba  Ba50  1  0.497962  0.497962  0.497962  1
  Ba  Ba51  1  0.997962  0.997962  0.997962  1
