# generated using pymatgen
data_Ho4(B2O5)3
_symmetry_space_group_name_H-M   'P 1'
_cell_length_a   4.39843796
_cell_length_b   6.25543923
_cell_length_c   18.88972246
_cell_angle_alpha   96.02219360
_cell_angle_beta   90.00000000
_cell_angle_gamma   110.58331677
_symmetry_Int_Tables_number   1
_chemical_formula_structural   Ho4(B2O5)3
_chemical_formula_sum   'Ho8 B12 O30'
_cell_volume   483.49097483
_cell_formula_units_Z   2
loop_
 _symmetry_equiv_pos_site_id
 _symmetry_equiv_pos_as_xyz
  1  'x, y, z'
loop_
 _atom_site_type_symbol
 _atom_site_label
 _atom_site_symmetry_multiplicity
 _atom_site_fract_x
 _atom_site_fract_y
 _atom_site_fract_z
 _atom_site_occupancy
  B  B0  1  0.021846  0.661384  0.025834  1
  B  B1  1  0.360462  0.338616  0.474166  1
  B  B2  1  0.978154  0.338616  0.974166  1
  B  B3  1  0.639538  0.661384  0.525834  1
  B  B4  1  0.659242  0.864344  0.305713  1
  B  B5  1  0.794897  0.135656  0.194287  1
  B  B6  1  0.340758  0.135656  0.694287  1
  B  B7  1  0.205103  0.864344  0.805713  1
  B  B8  1  0.609220  0.805887  0.087488  1
  B  B9  1  0.803334  0.194113  0.412512  1
  B  B10  1  0.390780  0.194113  0.912512  1
  B  B11  1  0.196666  0.805887  0.587488  1
  O  O12  1  0.438449  0.361601  0.861228  1
  O  O13  1  0.561551  0.638399  0.138772  1
  O  O14  1  0.505545  0.417000  0.549260  1
  O  O15  1  0.088545  0.583000  0.950740  1
  O  O16  1  0.494455  0.583000  0.450740  1
  O  O17  1  0.911455  0.417000  0.049260  1
  O  O18  1  0.190152  0.028179  0.621505  1
  O  O19  1  0.161973  0.971821  0.878495  1
  O  O20  1  0.923152  0.361601  0.361228  1
  O  O21  1  0.838027  0.028179  0.121505  1
  O  O22  1  0.533449  0.868689  0.803183  1
  O  O23  1  0.664759  0.131311  0.696817  1
  O  O24  1  0.466551  0.131311  0.196817  1
  O  O25  1  0.335241  0.868689  0.303183  1
  O  O26  1  0.541172  0.829360  0.570626  1
  O  O27  1  0.711812  0.170640  0.929374  1
  O  O28  1  0.458828  0.170640  0.429374  1
  O  O29  1  0.288188  0.829360  0.070626  1
  O  O30  1  0.007420  0.254499  0.478967  1
  O  O31  1  0.752921  0.745501  0.021033  1
  O  O32  1  0.992580  0.745501  0.521033  1
  O  O33  1  0.247079  0.254499  0.978967  1
  O  O34  1  0.314351  0.363017  0.703471  1
  O  O35  1  0.951334  0.636983  0.796529  1
  O  O36  1  0.685649  0.636983  0.296529  1
  O  O37  1  0.048666  0.363017  0.203471  1
  O  O38  1  0.866688  0.000000  0.250000  1
  O  O39  1  0.133312  0.000000  0.750000  1
  O  O40  1  0.809848  0.971821  0.378495  1
  O  O41  1  0.076848  0.638399  0.638772  1
  Ho  Ho42  1  0.332278  0.267656  0.099060  1
  Ho  Ho43  1  0.064622  0.732344  0.400940  1
  Ho  Ho44  1  0.667722  0.732344  0.900940  1
  Ho  Ho45  1  0.935378  0.267656  0.599060  1
  Ho  Ho46  1  0.072907  0.725681  0.197079  1
  Ho  Ho47  1  0.347226  0.274319  0.302921  1
  Ho  Ho48  1  0.927093  0.274319  0.802921  1
  Ho  Ho49  1  0.652774  0.725681  0.697079  1
