# generated using pymatgen
data_Te2MoWSe2
_symmetry_space_group_name_H-M   'P 1'
_cell_length_a   3.43840350
_cell_length_b   3.43838013
_cell_length_c   39.14142179
_cell_angle_alpha   90.00029829
_cell_angle_beta   90.00000000
_cell_angle_gamma   120.00022487
_symmetry_Int_Tables_number   1
_chemical_formula_structural   Te2MoWSe2
_chemical_formula_sum   'Te4 Mo2 W2 Se4'
_cell_volume   400.75317604
_cell_formula_units_Z   2
loop_
 _symmetry_equiv_pos_site_id
 _symmetry_equiv_pos_as_xyz
  1  'x, y, z'
loop_
 _atom_site_type_symbol
 _atom_site_label
 _atom_site_symmetry_multiplicity
 _atom_site_fract_x
 _atom_site_fract_y
 _atom_site_fract_z
 _atom_site_occupancy
  Te  Te0  1  0.333354  0.666709  0.704930  1
  Te  Te1  1  0.666641  0.333281  0.421928  1
  Te  Te2  1  0.666648  0.333296  0.517318  1
  Te  Te3  1  0.333358  0.666718  0.610174  1
  Mo  Mo4  1  0.333309  0.666619  0.093927  1
  Mo  Mo5  1  0.666691  0.333383  0.657583  1
  W  W6  1  0.333310  0.666621  0.469651  1
  W  W7  1  0.666690  0.333379  0.281814  1
  Se  Se8  1  0.333354  0.666710  0.323716  1
  Se  Se9  1  0.666646  0.333291  0.052097  1
  Se  Se10  1  0.666646  0.333291  0.135744  1
  Se  Se11  1  0.333351  0.666702  0.239866  1
