# generated using pymatgen
data_DySi2
_symmetry_space_group_name_H-M   'P 1'
_cell_length_a   3.92829651
_cell_length_b   3.92829651
_cell_length_c   7.97880954
_cell_angle_alpha   104.25102255
_cell_angle_beta   104.25102252
_cell_angle_gamma   89.99999997
_symmetry_Int_Tables_number   1
_chemical_formula_structural   DySi2
_chemical_formula_sum   'Dy2 Si4'
_cell_volume   115.42281558
_cell_formula_units_Z   2
loop_
 _symmetry_equiv_pos_site_id
 _symmetry_equiv_pos_as_xyz
  1  'x, y, z'
loop_
 _atom_site_type_symbol
 _atom_site_label
 _atom_site_symmetry_multiplicity
 _atom_site_fract_x
 _atom_site_fract_y
 _atom_site_fract_z
 _atom_site_occupancy
  Si  Si0  1  0.706296  0.956296  0.912592  1
  Si  Si1  1  0.456296  0.206296  0.412592  1
  Si  Si2  1  0.543704  0.793704  0.587408  1
  Si  Si3  1  0.293704  0.043704  0.087408  1
  Dy  Dy4  1  0.875000  0.625000  0.250000  1
  Dy  Dy5  1  0.125000  0.375000  0.750000  1
