# generated using pymatgen
data_Zn11Ni2
_symmetry_space_group_name_H-M   'P 1'
_cell_length_a   7.76265513
_cell_length_b   7.76265513
_cell_length_c   7.76265512
_cell_angle_alpha   109.47122064
_cell_angle_beta   109.47122064
_cell_angle_gamma   109.47122063
_symmetry_Int_Tables_number   1
_chemical_formula_structural   Zn11Ni2
_chemical_formula_sum   'Zn22 Ni4'
_cell_volume   360.08827898
_cell_formula_units_Z   2
loop_
 _symmetry_equiv_pos_site_id
 _symmetry_equiv_pos_as_xyz
  1  'x, y, z'
loop_
 _atom_site_type_symbol
 _atom_site_label
 _atom_site_symmetry_multiplicity
 _atom_site_fract_x
 _atom_site_fract_y
 _atom_site_fract_z
 _atom_site_occupancy
  Ni  Ni0  1  0.656291  0.656291  0.656291  1
  Ni  Ni1  1  0.343709  0.000000  0.000000  1
  Ni  Ni2  1  0.000000  0.343709  0.000000  1
  Ni  Ni3  1  0.000000  0.000000  0.343709  1
  Zn  Zn4  1  0.208828  0.208828  0.208828  1
  Zn  Zn5  1  0.791172  0.000000  0.000000  1
  Zn  Zn6  1  0.000000  0.791172  0.000000  1
  Zn  Zn7  1  0.000000  0.000000  0.791172  1
  Zn  Zn8  1  0.000000  0.355508  0.355508  1
  Zn  Zn9  1  0.644492  0.000000  0.644492  1
  Zn  Zn10  1  0.355508  0.000000  0.355508  1
  Zn  Zn11  1  0.355508  0.355508  0.000000  1
  Zn  Zn12  1  0.644492  0.644492  0.000000  1
  Zn  Zn13  1  0.000000  0.644492  0.644492  1
  Zn  Zn14  1  0.351358  0.351358  0.612684  1
  Zn  Zn15  1  0.648642  0.261327  0.000000  1
  Zn  Zn16  1  0.261327  0.648642  0.000000  1
  Zn  Zn17  1  0.000000  0.261327  0.648642  1
  Zn  Zn18  1  0.387316  0.738673  0.738673  1
  Zn  Zn19  1  0.738673  0.387316  0.738673  1
  Zn  Zn20  1  0.261327  0.000000  0.648642  1
  Zn  Zn21  1  0.648642  0.000000  0.261327  1
  Zn  Zn22  1  0.000000  0.648642  0.261327  1
  Zn  Zn23  1  0.612684  0.351358  0.351358  1
  Zn  Zn24  1  0.351358  0.612684  0.351358  1
  Zn  Zn25  1  0.738673  0.738673  0.387316  1
