# generated using pymatgen
data_LaNO4
_symmetry_space_group_name_H-M   'P 1'
_cell_length_a   7.32903024
_cell_length_b   5.59687926
_cell_length_c   9.64602229
_cell_angle_alpha   90.00000000
_cell_angle_beta   90.00000000
_cell_angle_gamma   90.00000000
_symmetry_Int_Tables_number   1
_chemical_formula_structural   LaNO4
_chemical_formula_sum   'La4 N4 O16'
_cell_volume   395.67691493
_cell_formula_units_Z   4
loop_
 _symmetry_equiv_pos_site_id
 _symmetry_equiv_pos_as_xyz
  1  'x, y, z'
loop_
 _atom_site_type_symbol
 _atom_site_label
 _atom_site_symmetry_multiplicity
 _atom_site_fract_x
 _atom_site_fract_y
 _atom_site_fract_z
 _atom_site_occupancy
  La  La0  1  0.683314  0.250000  0.331982  1
  La  La1  1  0.183314  0.250000  0.168018  1
  La  La2  1  0.316686  0.750000  0.668018  1
  La  La3  1  0.816686  0.750000  0.831982  1
  N  N4  1  0.705888  0.250000  0.662866  1
  N  N5  1  0.205888  0.250000  0.837134  1
  N  N6  1  0.294112  0.750000  0.337134  1
  N  N7  1  0.794112  0.750000  0.162866  1
  O  O8  1  0.670241  0.053965  0.602363  1
  O  O9  1  0.170241  0.446035  0.897637  1
  O  O10  1  0.329759  0.553965  0.397637  1
  O  O11  1  0.829759  0.946035  0.102363  1
  O  O12  1  0.329759  0.946035  0.397637  1
  O  O13  1  0.829759  0.553965  0.102363  1
  O  O14  1  0.670241  0.446035  0.602363  1
  O  O15  1  0.170241  0.053965  0.897637  1
  O  O16  1  0.779017  0.250000  0.781957  1
  O  O17  1  0.279017  0.250000  0.718043  1
  O  O18  1  0.220983  0.750000  0.218043  1
  O  O19  1  0.720983  0.750000  0.281957  1
  O  O20  1  0.974695  0.250000  0.326227  1
  O  O21  1  0.474695  0.250000  0.173773  1
  O  O22  1  0.025305  0.750000  0.673773  1
  O  O23  1  0.525305  0.750000  0.826227  1
