# generated using pymatgen
data_CeSe2
_symmetry_space_group_name_H-M   'P 1'
_cell_length_a   4.24770191
_cell_length_b   7.72026511
_cell_length_c   7.72061137
_cell_angle_alpha   119.99851934
_cell_angle_beta   90.00000000
_cell_angle_gamma   90.00000000
_symmetry_Int_Tables_number   1
_chemical_formula_structural   CeSe2
_chemical_formula_sum   'Ce3 Se6'
_cell_volume   219.26789601
_cell_formula_units_Z   3
loop_
 _symmetry_equiv_pos_site_id
 _symmetry_equiv_pos_as_xyz
  1  'x, y, z'
loop_
 _atom_site_type_symbol
 _atom_site_label
 _atom_site_symmetry_multiplicity
 _atom_site_fract_x
 _atom_site_fract_y
 _atom_site_fract_z
 _atom_site_occupancy
  Ce  Ce0  1  0.500000  0.333323  0.666679  1
  Ce  Ce1  1  0.500000  0.666644  0.333321  1
  Ce  Ce2  1  0.000000  0.999994  0.000000  1
  Se  Se3  1  0.500000  0.259104  0.000000  1
  Se  Se4  1  0.500000  0.740837  0.740843  1
  Se  Se5  1  0.500000  0.999994  0.259157  1
  Se  Se6  1  0.000000  0.595499  1.000000  1
  Se  Se7  1  0.000000  0.404501  0.404497  1
  Se  Se8  1  0.000000  0.000004  0.595503  1
