# generated using pymatgen
data_NaSnAu
_symmetry_space_group_name_H-M   'P 1'
_cell_length_a   4.63720406
_cell_length_b   7.60806561
_cell_length_c   8.26895444
_cell_angle_alpha   90.00000000
_cell_angle_beta   90.00000000
_cell_angle_gamma   90.00000000
_symmetry_Int_Tables_number   1
_chemical_formula_structural   NaSnAu
_chemical_formula_sum   'Na4 Sn4 Au4'
_cell_volume   291.72997561
_cell_formula_units_Z   4
loop_
 _symmetry_equiv_pos_site_id
 _symmetry_equiv_pos_as_xyz
  1  'x, y, z'
loop_
 _atom_site_type_symbol
 _atom_site_label
 _atom_site_symmetry_multiplicity
 _atom_site_fract_x
 _atom_site_fract_y
 _atom_site_fract_z
 _atom_site_occupancy
  Na  Na0  1  0.500000  0.016597  0.172890  1
  Na  Na1  1  0.500000  0.516597  0.327110  1
  Na  Na2  1  0.000000  0.483403  0.672890  1
  Na  Na3  1  0.000000  0.983403  0.827110  1
  Sn  Sn4  1  0.500000  0.659566  0.938115  1
  Sn  Sn5  1  0.500000  0.159566  0.561885  1
  Sn  Sn6  1  0.000000  0.840434  0.438115  1
  Sn  Sn7  1  0.000000  0.340434  0.061885  1
  Au  Au8  1  0.000000  0.709882  0.125595  1
  Au  Au9  1  0.500000  0.290118  0.874405  1
  Au  Au10  1  0.500000  0.790118  0.625595  1
  Au  Au11  1  0.000000  0.209882  0.374405  1
