# generated using pymatgen
data_TeMoWSe2S
_symmetry_space_group_name_H-M   'P 1'
_cell_length_a   3.34275001
_cell_length_b   3.34286547
_cell_length_c   38.09599825
_cell_angle_alpha   89.99998018
_cell_angle_beta   90.00000000
_cell_angle_gamma   119.99885752
_symmetry_Int_Tables_number   1
_chemical_formula_structural   TeMoWSe2S
_chemical_formula_sum   'Te2 Mo2 W2 Se4 S2'
_cell_volume   368.66999073
_cell_formula_units_Z   2
loop_
 _symmetry_equiv_pos_site_id
 _symmetry_equiv_pos_as_xyz
  1  'x, y, z'
loop_
 _atom_site_type_symbol
 _atom_site_label
 _atom_site_symmetry_multiplicity
 _atom_site_fract_x
 _atom_site_fract_y
 _atom_site_fract_z
 _atom_site_occupancy
  Te  Te0  1  0.666647  0.333293  0.419859  1
  Te  Te1  1  0.666647  0.333293  0.519454  1
  Mo  Mo2  1  0.333290  0.666581  0.093935  1
  Mo  Mo3  1  0.333308  0.666617  0.469655  1
  W  W4  1  0.666691  0.333381  0.281753  1
  W  W5  1  0.666695  0.333391  0.657579  1
  Se  Se6  1  0.333354  0.666709  0.325708  1
  Se  Se7  1  0.333349  0.666700  0.701510  1
  Se  Se8  1  0.333346  0.666694  0.237809  1
  Se  Se9  1  0.333360  0.666721  0.613614  1
  S  S10  1  0.666655  0.333310  0.054059  1
  S  S11  1  0.666656  0.333312  0.133813  1
