# generated using pymatgen
data_Te2MoWS2
_symmetry_space_group_name_H-M   'P 1'
_cell_length_a   3.36449666
_cell_length_b   3.36466321
_cell_length_c   40.08220340
_cell_angle_alpha   90.00068920
_cell_angle_beta   90.00000000
_cell_angle_gamma   119.99836259
_symmetry_Int_Tables_number   1
_chemical_formula_structural   Te2MoWS2
_chemical_formula_sum   'Te4 Mo2 W2 S4'
_cell_volume   392.96247951
_cell_formula_units_Z   2
loop_
 _symmetry_equiv_pos_site_id
 _symmetry_equiv_pos_as_xyz
  1  'x, y, z'
loop_
 _atom_site_type_symbol
 _atom_site_label
 _atom_site_symmetry_multiplicity
 _atom_site_fract_x
 _atom_site_fract_y
 _atom_site_fract_z
 _atom_site_occupancy
  Te  Te0  1  0.333362  0.666725  0.327388  1
  Te  Te1  1  0.666638  0.333275  0.424070  1
  Te  Te2  1  0.666671  0.333341  0.518744  1
  Te  Te3  1  0.333329  0.666659  0.232714  1
  Mo  Mo4  1  0.333322  0.666645  0.093812  1
  Mo  Mo5  1  0.666678  0.333355  0.657646  1
  W  W6  1  0.333337  0.666675  0.471400  1
  W  W7  1  0.666663  0.333325  0.280058  1
  S  S8  1  0.333386  0.666774  0.695335  1
  S  S9  1  0.666614  0.333226  0.056123  1
  S  S10  1  0.666635  0.333269  0.131580  1
  S  S11  1  0.333365  0.666731  0.619878  1
