# generated using pymatgen
data_SrCu2GeS4
_symmetry_space_group_name_H-M   'P 1'
_cell_length_a   6.18227759
_cell_length_b   6.18227758
_cell_length_c   15.30418061
_cell_angle_alpha   90.00000000
_cell_angle_beta   90.00000000
_cell_angle_gamma   120.00000002
_symmetry_Int_Tables_number   1
_chemical_formula_structural   SrCu2GeS4
_chemical_formula_sum   'Sr3 Cu6 Ge3 S12'
_cell_volume   506.56795851
_cell_formula_units_Z   3
loop_
 _symmetry_equiv_pos_site_id
 _symmetry_equiv_pos_as_xyz
  1  'x, y, z'
loop_
 _atom_site_type_symbol
 _atom_site_label
 _atom_site_symmetry_multiplicity
 _atom_site_fract_x
 _atom_site_fract_y
 _atom_site_fract_z
 _atom_site_occupancy
  S  S0  1  0.100153  0.330317  0.251239  1
  S  S1  1  0.230165  0.899847  0.584572  1
  S  S2  1  0.669683  0.769835  0.917905  1
  S  S3  1  0.436077  0.002274  0.247827  1
  S  S4  1  0.566197  0.563923  0.581161  1
  S  S5  1  0.997726  0.433803  0.914494  1
  S  S6  1  0.296725  0.137619  0.031335  1
  S  S7  1  0.840894  0.703275  0.364668  1
  S  S8  1  0.370435  0.174853  0.801025  1
  S  S9  1  0.804418  0.629565  0.134358  1
  S  S10  1  0.825147  0.195582  0.467691  1
  S  S11  1  0.862381  0.159106  0.698001  1
  Cu  Cu12  1  0.682549  0.092408  0.838247  1
  Cu  Cu13  1  0.257091  0.241696  0.660857  1
  Cu  Cu14  1  0.758304  0.015395  0.327523  1
  Cu  Cu15  1  0.409859  0.317451  0.171580  1
  Cu  Cu16  1  0.907592  0.590141  0.504914  1
  Cu  Cu17  1  0.984605  0.742909  0.994190  1
  Ge  Ge18  1  0.047107  0.666301  0.249564  1
  Ge  Ge19  1  0.333699  0.380806  0.916230  1
  Ge  Ge20  1  0.619194  0.952893  0.582897  1
  Sr  Sr21  1  0.780426  0.113381  0.082874  1
  Sr  Sr22  1  0.332955  0.219574  0.416207  1
  Sr  Sr23  1  0.886619  0.667045  0.749541  1
