# generated using pymatgen
data_Ho2SiSO4
_symmetry_space_group_name_H-M   'P 1'
_cell_length_a   6.11400181
_cell_length_b   6.92184345
_cell_length_c   10.69514858
_cell_angle_alpha   90.00000000
_cell_angle_beta   90.00000000
_cell_angle_gamma   90.00000000
_symmetry_Int_Tables_number   1
_chemical_formula_structural   Ho2SiSO4
_chemical_formula_sum   'Ho8 Si4 S4 O16'
_cell_volume   452.62043530
_cell_formula_units_Z   4
loop_
 _symmetry_equiv_pos_site_id
 _symmetry_equiv_pos_as_xyz
  1  'x, y, z'
loop_
 _atom_site_type_symbol
 _atom_site_label
 _atom_site_symmetry_multiplicity
 _atom_site_fract_x
 _atom_site_fract_y
 _atom_site_fract_z
 _atom_site_occupancy
  O  O0  1  0.285028  0.433486  0.028865  1
  O  O1  1  0.285028  0.066514  0.971135  1
  O  O2  1  0.714972  0.933486  0.471135  1
  O  O3  1  0.714972  0.566514  0.528865  1
  O  O4  1  0.714972  0.566514  0.971135  1
  O  O5  1  0.714972  0.933486  0.028865  1
  O  O6  1  0.285028  0.066514  0.528865  1
  O  O7  1  0.285028  0.433486  0.471135  1
  O  O8  1  0.039334  0.737780  0.122684  1
  O  O9  1  0.039334  0.737780  0.377316  1
  O  O10  1  0.960666  0.237780  0.377316  1
  O  O11  1  0.960666  0.262220  0.622684  1
  O  O12  1  0.960666  0.262220  0.877316  1
  O  O13  1  0.960666  0.237780  0.122684  1
  O  O14  1  0.039334  0.762220  0.622684  1
  O  O15  1  0.039334  0.762220  0.877316  1
  Si  Si16  1  0.122017  0.250000  0.000000  1
  Si  Si17  1  0.877983  0.750000  0.000000  1
  Si  Si18  1  0.877983  0.750000  0.500000  1
  Si  Si19  1  0.122017  0.250000  0.500000  1
  S  S20  1  0.523329  0.813215  0.750000  1
  S  S21  1  0.523329  0.686785  0.250000  1
  S  S22  1  0.476671  0.313215  0.750000  1
  S  S23  1  0.476671  0.186785  0.250000  1
  Ho  Ho24  1  0.383826  0.750000  0.500000  1
  Ho  Ho25  1  0.383826  0.750000  0.000000  1
  Ho  Ho26  1  0.616174  0.250000  0.500000  1
  Ho  Ho27  1  0.616174  0.250000  0.000000  1
  Ho  Ho28  1  0.843857  0.527974  0.750000  1
  Ho  Ho29  1  0.843857  0.972026  0.250000  1
  Ho  Ho30  1  0.156143  0.027974  0.750000  1
  Ho  Ho31  1  0.156143  0.472026  0.250000  1
