# generated using pymatgen
data_TiSCl
_symmetry_space_group_name_H-M   'P 1'
_cell_length_a   4.83423945
_cell_length_b   7.57864176
_cell_length_c   3.43905247
_cell_angle_alpha   89.24157532
_cell_angle_beta   90.02335769
_cell_angle_gamma   89.99997312
_symmetry_Int_Tables_number   1
_chemical_formula_structural   TiSCl
_chemical_formula_sum   'Ti2 S2 Cl2'
_cell_volume   125.98540997
_cell_formula_units_Z   2
loop_
 _symmetry_equiv_pos_site_id
 _symmetry_equiv_pos_as_xyz
  1  'x, y, z'
loop_
 _atom_site_type_symbol
 _atom_site_label
 _atom_site_symmetry_multiplicity
 _atom_site_fract_x
 _atom_site_fract_y
 _atom_site_fract_z
 _atom_site_occupancy
  Ti  Ti0  1  0.500007  0.896221  0.002840  1
  Ti  Ti1  1  0.999994  0.103774  0.497158  1
  S  S2  1  0.499992  0.125435  0.495954  1
  S  S3  1  0.000006  0.874540  0.004054  1
  Cl  Cl4  1  0.500012  0.664587  0.509654  1
  Cl  Cl5  1  0.999990  0.335442  0.990341  1
