# generated using pymatgen
data_CsEr2Cu3S5
_symmetry_space_group_name_H-M   'P 1'
_cell_length_a   3.94562369
_cell_length_b   7.29792203
_cell_length_c   16.70246845
_cell_angle_alpha   90.00000000
_cell_angle_beta   90.00000000
_cell_angle_gamma   105.68361594
_symmetry_Int_Tables_number   1
_chemical_formula_structural   CsEr2Cu3S5
_chemical_formula_sum   'Cs2 Er4 Cu6 S10'
_cell_volume   463.03911458
_cell_formula_units_Z   2
loop_
 _symmetry_equiv_pos_site_id
 _symmetry_equiv_pos_as_xyz
  1  'x, y, z'
loop_
 _atom_site_type_symbol
 _atom_site_label
 _atom_site_symmetry_multiplicity
 _atom_site_fract_x
 _atom_site_fract_y
 _atom_site_fract_z
 _atom_site_occupancy
  S  S0  1  0.170196  0.340393  0.068235  1
  S  S1  1  0.562773  0.125545  0.891532  1
  S  S2  1  0.562773  0.125545  0.608468  1
  S  S3  1  0.437227  0.874455  0.391532  1
  S  S4  1  0.768360  0.536721  0.250000  1
  S  S5  1  0.231640  0.463279  0.750000  1
  S  S6  1  0.437227  0.874455  0.108468  1
  S  S7  1  0.829804  0.659607  0.931765  1
  S  S8  1  0.829804  0.659607  0.568235  1
  S  S9  1  0.170196  0.340393  0.431765  1
  Cu  Cu10  1  0.415717  0.831433  0.536110  1
  Cu  Cu11  1  0.415717  0.831433  0.963890  1
  Cu  Cu12  1  0.584283  0.168567  0.036110  1
  Cu  Cu13  1  0.656069  0.312139  0.750000  1
  Cu  Cu14  1  0.343931  0.687861  0.250000  1
  Cu  Cu15  1  0.584283  0.168567  0.463890  1
  Cs  Cs16  1  0.063770  0.127539  0.250000  1
  Cs  Cs17  1  0.936230  0.872461  0.750000  1
  Er  Er18  1  0.807944  0.615888  0.408232  1
  Er  Er19  1  0.807944  0.615888  0.091768  1
  Er  Er20  1  0.192056  0.384112  0.591768  1
  Er  Er21  1  0.192056  0.384112  0.908232  1
