# generated using pymatgen
data_TeMoWSeS2
_symmetry_space_group_name_H-M   'P 1'
_cell_length_a   3.30829611
_cell_length_b   3.30827811
_cell_length_c   37.63205613
_cell_angle_alpha   89.99955178
_cell_angle_beta   90.00000000
_cell_angle_gamma   120.00017991
_symmetry_Int_Tables_number   1
_chemical_formula_structural   TeMoWSeS2
_chemical_formula_sum   'Te2 Mo2 W2 Se2 S4'
_cell_volume   356.69266406
_cell_formula_units_Z   2
loop_
 _symmetry_equiv_pos_site_id
 _symmetry_equiv_pos_as_xyz
  1  'x, y, z'
loop_
 _atom_site_type_symbol
 _atom_site_label
 _atom_site_symmetry_multiplicity
 _atom_site_fract_x
 _atom_site_fract_y
 _atom_site_fract_z
 _atom_site_occupancy
  Te  Te0  1  0.666649  0.333297  0.418575  1
  Te  Te1  1  0.666645  0.333289  0.520722  1
  Mo  Mo2  1  0.333307  0.666614  0.093932  1
  Mo  Mo3  1  0.666704  0.333407  0.281786  1
  W  W4  1  0.333311  0.666623  0.469649  1
  W  W5  1  0.666689  0.333378  0.657561  1
  Se  Se6  1  0.666647  0.333293  0.049360  1
  Se  Se7  1  0.666638  0.333275  0.138490  1
  S  S8  1  0.333347  0.666696  0.322410  1
  S  S9  1  0.333359  0.666718  0.698292  1
  S  S10  1  0.333348  0.666697  0.241162  1
  S  S11  1  0.333357  0.666715  0.616810  1
