# generated using pymatgen
data_Li3Pr2(BO3)3
_symmetry_space_group_name_H-M   'P 1'
_cell_length_a   5.88563598
_cell_length_b   8.96591587
_cell_length_c   14.27751593
_cell_angle_alpha   90.00000000
_cell_angle_beta   90.00000000
_cell_angle_gamma   103.90873396
_symmetry_Int_Tables_number   1
_chemical_formula_structural   Li3Pr2(BO3)3
_chemical_formula_sum   'Li12 Pr8 B12 O36'
_cell_volume   731.33561894
_cell_formula_units_Z   4
loop_
 _symmetry_equiv_pos_site_id
 _symmetry_equiv_pos_as_xyz
  1  'x, y, z'
loop_
 _atom_site_type_symbol
 _atom_site_label
 _atom_site_symmetry_multiplicity
 _atom_site_fract_x
 _atom_site_fract_y
 _atom_site_fract_z
 _atom_site_occupancy
  Li  Li0  1  0.843443  0.791931  0.111754  1
  Li  Li1  1  0.656557  0.708069  0.611754  1
  Li  Li2  1  0.156557  0.208069  0.888246  1
  Li  Li3  1  0.343443  0.291931  0.388246  1
  Li  Li4  1  0.571556  0.996597  0.165290  1
  Li  Li5  1  0.928444  0.503403  0.665290  1
  Li  Li6  1  0.428444  0.003403  0.834710  1
  Li  Li7  1  0.071556  0.496597  0.334710  1
  Li  Li8  1  0.209455  0.789227  0.214908  1
  Li  Li9  1  0.290545  0.710773  0.714908  1
  Li  Li10  1  0.790545  0.210773  0.785092  1
  Li  Li11  1  0.709455  0.289227  0.285092  1
  B  B12  1  0.250057  0.986186  0.015012  1
  B  B13  1  0.249943  0.513814  0.515012  1
  B  B14  1  0.749943  0.013814  0.984988  1
  B  B15  1  0.750057  0.486186  0.484988  1
  B  B16  1  0.903222  0.016862  0.322841  1
  B  B17  1  0.596778  0.483138  0.822841  1
  B  B18  1  0.096778  0.983138  0.677159  1
  B  B19  1  0.403222  0.516862  0.177159  1
  B  B20  1  0.413081  0.028309  0.336450  1
  B  B21  1  0.086919  0.471691  0.836450  1
  B  B22  1  0.586919  0.971691  0.663550  1
  B  B23  1  0.913081  0.528309  0.163550  1
  O  O24  1  0.228878  0.919215  0.102743  1
  O  O25  1  0.271122  0.580785  0.602743  1
  O  O26  1  0.771122  0.080785  0.897257  1
  O  O27  1  0.728878  0.419215  0.397257  1
  O  O28  1  0.802627  0.645194  0.493151  1
  O  O29  1  0.697373  0.854806  0.993151  1
  O  O30  1  0.197373  0.354806  0.506849  1
  O  O31  1  0.302627  0.145194  0.006849  1
  O  O32  1  0.282850  0.605837  0.435399  1
  O  O33  1  0.217150  0.894163  0.935399  1
  O  O34  1  0.717150  0.394163  0.564601  1
  O  O35  1  0.782850  0.105837  0.064601  1
  O  O36  1  0.963689  0.176260  0.330318  1
  O  O37  1  0.536311  0.323740  0.830318  1
  O  O38  1  0.036311  0.823740  0.669682  1
  O  O39  1  0.463689  0.676260  0.169682  1
  O  O40  1  0.850315  0.944518  0.237524  1
  O  O41  1  0.649685  0.555482  0.737524  1
  O  O42  1  0.149685  0.055482  0.762476  1
  O  O43  1  0.350315  0.444518  0.262476  1
  O  O44  1  0.888138  0.930589  0.404815  1
  O  O45  1  0.611862  0.569411  0.904815  1
  O  O46  1  0.111862  0.069411  0.595185  1
  O  O47  1  0.388138  0.430589  0.095185  1
  O  O48  1  0.439235  0.121018  0.257841  1
  O  O49  1  0.060765  0.378982  0.757841  1
  O  O50  1  0.560765  0.878982  0.742159  1
  O  O51  1  0.939235  0.621018  0.242159  1
  O  O52  1  0.430335  0.093249  0.425321  1
  O  O53  1  0.069665  0.406751  0.925321  1
  O  O54  1  0.569665  0.906751  0.574679  1
  O  O55  1  0.930335  0.593249  0.074679  1
  O  O56  1  0.364443  0.869209  0.331229  1
  O  O57  1  0.135557  0.630791  0.831229  1
  O  O58  1  0.635557  0.130791  0.668771  1
  O  O59  1  0.864443  0.369209  0.168771  1
  Pr  Pr60  1  0.187841  0.841068  0.497074  1
  Pr  Pr61  1  0.312159  0.658932  0.997074  1
  Pr  Pr62  1  0.812159  0.158932  0.502926  1
  Pr  Pr63  1  0.687841  0.341068  0.002926  1
  Pr  Pr64  1  0.633656  0.692011  0.336026  1
  Pr  Pr65  1  0.866344  0.807989  0.836026  1
  Pr  Pr66  1  0.366344  0.307989  0.663974  1
  Pr  Pr67  1  0.133656  0.192011  0.163974  1
