# generated using pymatgen
data_CrN2
_symmetry_space_group_name_H-M   'P 1'
_cell_length_a   5.60339134
_cell_length_b   5.62269428
_cell_length_c   8.96950101
_cell_angle_alpha   90.00000000
_cell_angle_beta   90.00000000
_cell_angle_gamma   119.30563514
_symmetry_Int_Tables_number   1
_chemical_formula_structural   CrN2
_chemical_formula_sum   'Cr4 N8'
_cell_volume   246.42837903
_cell_formula_units_Z   4
loop_
 _symmetry_equiv_pos_site_id
 _symmetry_equiv_pos_as_xyz
  1  'x, y, z'
loop_
 _atom_site_type_symbol
 _atom_site_label
 _atom_site_symmetry_multiplicity
 _atom_site_fract_x
 _atom_site_fract_y
 _atom_site_fract_z
 _atom_site_occupancy
  Cr  Cr0  1  0.374867  0.643831  0.811030  1
  Cr  Cr1  1  0.625133  0.356169  0.311030  1
  Cr  Cr2  1  0.290621  0.689958  0.189081  1
  Cr  Cr3  1  0.709379  0.310042  0.689081  1
  N  N4  1  0.664984  0.334694  0.495595  1
  N  N5  1  0.335016  0.665306  0.995595  1
  N  N6  1  0.446943  0.028250  0.238607  1
  N  N7  1  0.553057  0.971750  0.738607  1
  N  N8  1  0.054983  0.468847  0.730801  1
  N  N9  1  0.945017  0.531153  0.230801  1
  N  N10  1  0.441105  0.530521  0.276187  1
  N  N11  1  0.558895  0.469479  0.776187  1
