# generated using pymatgen
data_K4GeO4
_symmetry_space_group_name_H-M   'P 1'
_cell_length_a   6.65846398
_cell_length_b   10.60092902
_cell_length_c   10.66955981
_cell_angle_alpha   111.43265895
_cell_angle_beta   90.00000000
_cell_angle_gamma   90.00000000
_symmetry_Int_Tables_number   1
_chemical_formula_structural   K4GeO4
_chemical_formula_sum   'K16 Ge4 O16'
_cell_volume   701.04049511
_cell_formula_units_Z   4
loop_
 _symmetry_equiv_pos_site_id
 _symmetry_equiv_pos_as_xyz
  1  'x, y, z'
loop_
 _atom_site_type_symbol
 _atom_site_label
 _atom_site_symmetry_multiplicity
 _atom_site_fract_x
 _atom_site_fract_y
 _atom_site_fract_z
 _atom_site_occupancy
  O  O0  1  0.002710  0.725769  0.841823  1
  O  O1  1  0.256139  0.419230  0.533395  1
  O  O2  1  0.756139  0.580770  0.966605  1
  O  O3  1  0.029451  0.799675  0.137976  1
  O  O4  1  0.529451  0.200325  0.362024  1
  O  O5  1  0.970549  0.200325  0.862024  1
  O  O6  1  0.470549  0.799675  0.637976  1
  O  O7  1  0.666963  0.865857  0.021639  1
  O  O8  1  0.166963  0.134143  0.478361  1
  O  O9  1  0.333037  0.134143  0.978361  1
  O  O10  1  0.833037  0.865857  0.521639  1
  O  O11  1  0.497290  0.725769  0.341823  1
  O  O12  1  0.743861  0.580770  0.466605  1
  O  O13  1  0.997290  0.274232  0.158177  1
  O  O14  1  0.502710  0.274232  0.658177  1
  O  O15  1  0.243861  0.419230  0.033395  1
  K  K16  1  0.193854  0.070577  0.201827  1
  K  K17  1  0.306146  0.070577  0.701827  1
  K  K18  1  0.605286  0.338659  0.911645  1
  K  K19  1  0.909222  0.556236  0.191928  1
  K  K20  1  0.409222  0.443764  0.308072  1
  K  K21  1  0.090778  0.443764  0.808072  1
  K  K22  1  0.590778  0.556236  0.691928  1
  K  K23  1  0.164271  0.865571  0.389325  1
  K  K24  1  0.664271  0.134429  0.110675  1
  K  K25  1  0.835729  0.134429  0.610675  1
  K  K26  1  0.335729  0.865571  0.889325  1
  K  K27  1  0.894714  0.338659  0.411645  1
  K  K28  1  0.394714  0.661341  0.088355  1
  K  K29  1  0.105286  0.661341  0.588355  1
  K  K30  1  0.693854  0.929423  0.298173  1
  K  K31  1  0.806146  0.929423  0.798173  1
  Ge  Ge32  1  0.633743  0.743029  0.492376  1
  Ge  Ge33  1  0.366257  0.256971  0.507624  1
  Ge  Ge34  1  0.866257  0.743029  0.992376  1
  Ge  Ge35  1  0.133743  0.256971  0.007624  1
