# generated using pymatgen
data_W18O49
_symmetry_space_group_name_H-M   'P 1'
_cell_length_a   3.85950501
_cell_length_b   14.19758693
_cell_length_c   18.28464484
_cell_angle_alpha   109.69892532
_cell_angle_beta   90.00000000
_cell_angle_gamma   90.00000000
_symmetry_Int_Tables_number   1
_chemical_formula_structural   W18O49
_chemical_formula_sum   'W18 O49'
_cell_volume   943.28369615
_cell_formula_units_Z   1
loop_
 _symmetry_equiv_pos_site_id
 _symmetry_equiv_pos_as_xyz
  1  'x, y, z'
loop_
 _atom_site_type_symbol
 _atom_site_label
 _atom_site_symmetry_multiplicity
 _atom_site_fract_x
 _atom_site_fract_y
 _atom_site_fract_z
 _atom_site_occupancy
  O  O0  1  0.499999  0.000000  0.500000  1
  O  O1  1  0.499999  0.206831  0.523234  1
  O  O2  1  0.499999  0.793169  0.476765  1
  O  O3  1  0.499999  0.585488  0.458557  1
  O  O4  1  0.499999  0.414512  0.541442  1
  O  O5  1  0.499999  0.362194  0.371014  1
  O  O6  1  0.499999  0.637805  0.628986  1
  O  O7  1  0.499999  0.971471  0.353991  1
  O  O8  1  0.499999  0.028530  0.646009  1
  O  O9  1  0.499999  0.175942  0.341246  1
  O  O10  1  0.499999  0.824058  0.658754  1
  O  O11  1  0.499999  0.773780  0.309982  1
  O  O12  1  0.499999  0.226220  0.690017  1
  O  O13  1  0.499999  0.589171  0.303911  1
  O  O14  1  0.499999  0.410829  0.696090  1
  O  O15  1  0.499999  0.389527  0.245478  1
  O  O16  1  0.499999  0.610473  0.754522  1
  O  O17  1  0.499999  0.085751  0.812043  1
  O  O18  1  0.000000  0.918265  0.916255  1
  O  O19  1  0.000000  0.081735  0.083745  1
  O  O20  1  0.000000  0.189443  0.920887  1
  O  O21  1  0.000000  0.810556  0.079114  1
  O  O22  1  0.000000  0.627407  0.867906  1
  O  O23  1  0.000000  0.372592  0.132094  1
  O  O24  1  0.000000  0.349361  0.779554  1
  O  O25  1  0.000000  0.650640  0.220446  1
  O  O26  1  0.000000  0.746795  0.739419  1
  O  O27  1  0.000000  0.253205  0.260581  1
  O  O28  1  0.000000  0.965759  0.722792  1
  O  O29  1  0.000000  0.034242  0.277208  1
  O  O30  1  0.000000  0.508931  0.643857  1
  O  O31  1  0.000000  0.491069  0.356143  1
  O  O32  1  0.000000  0.125048  0.587898  1
  O  O33  1  0.000000  0.874952  0.412102  1
  O  O34  1  0.000000  0.714581  0.550537  1
  O  O35  1  0.000000  0.285418  0.449463  1
  O  O36  1  0.499999  0.691964  0.978506  1
  O  O37  1  0.499999  0.308035  0.021494  1
  O  O38  1  0.499999  0.073499  0.968623  1
  O  O39  1  0.499999  0.926502  0.031378  1
  O  O40  1  0.499999  0.765968  0.860067  1
  O  O41  1  0.499999  0.234033  0.139933  1
  O  O42  1  0.499999  0.289326  0.859256  1
  O  O43  1  0.499999  0.710674  0.140744  1
  O  O44  1  0.499999  0.487745  0.851315  1
  O  O45  1  0.499999  0.512255  0.148685  1
  O  O46  1  0.499999  0.894506  0.800130  1
  O  O47  1  0.499999  0.105494  0.199870  1
  O  O48  1  0.499999  0.914249  0.187957  1
  W  W49  1  0.499999  0.286638  0.450556  1
  W  W50  1  0.499999  0.713362  0.549444  1
  W  W51  1  0.499999  0.874835  0.415064  1
  W  W52  1  0.499999  0.125165  0.584936  1
  W  W53  1  0.499999  0.500255  0.356636  1
  W  W54  1  0.499999  0.499745  0.643364  1
  W  W55  1  0.499999  0.025748  0.276614  1
  W  W56  1  0.499999  0.974252  0.723386  1
  W  W57  1  0.499999  0.254161  0.260481  1
  W  W58  1  0.499999  0.745839  0.739519  1
  W  W59  1  0.499999  0.655500  0.220029  1
  W  W60  1  0.499999  0.344500  0.779971  1
  W  W61  1  0.499999  0.372853  0.127620  1
  W  W62  1  0.499999  0.627146  0.872379  1
  W  W63  1  0.499999  0.808284  0.082235  1
  W  W64  1  0.499999  0.191716  0.917765  1
  W  W65  1  0.499999  0.083317  0.083461  1
  W  W66  1  0.499999  0.916684  0.916539  1
