# generated using pymatgen
data_Te6MoW3Se2
_symmetry_space_group_name_H-M   'P 1'
_cell_length_a   3.49802101
_cell_length_b   3.49802808
_cell_length_c   39.65088867
_cell_angle_alpha   90.00004860
_cell_angle_beta   90.00000000
_cell_angle_gamma   119.99993308
_symmetry_Int_Tables_number   1
_chemical_formula_structural   Te6MoW3Se2
_chemical_formula_sum   'Te6 Mo1 W3 Se2'
_cell_volume   420.17436698
_cell_formula_units_Z   1
loop_
 _symmetry_equiv_pos_site_id
 _symmetry_equiv_pos_as_xyz
  1  'x, y, z'
loop_
 _atom_site_type_symbol
 _atom_site_label
 _atom_site_symmetry_multiplicity
 _atom_site_fract_x
 _atom_site_fract_y
 _atom_site_fract_z
 _atom_site_occupancy
  Te  Te0  1  0.333354  0.666709  0.327979  1
  Te  Te1  1  0.333360  0.666721  0.703984  1
  Te  Te2  1  0.666642  0.333283  0.047468  1
  Te  Te3  1  0.666646  0.333291  0.140385  1
  Te  Te4  1  0.333352  0.666704  0.235627  1
  Te  Te5  1  0.333355  0.666711  0.611071  1
  Mo  Mo6  1  0.666693  0.333385  0.281820  1
  W  W7  1  0.333308  0.666616  0.093903  1
  W  W8  1  0.333311  0.666622  0.469662  1
  W  W9  1  0.666691  0.333382  0.657532  1
  Se  Se10  1  0.666644  0.333287  0.428707  1
  Se  Se11  1  0.666645  0.333290  0.510609  1
