# generated using pymatgen
data_Te2Mo3W(Se2S)2
_symmetry_space_group_name_H-M   'P 1'
_cell_length_a   3.34465034
_cell_length_b   3.34462486
_cell_length_c   39.68811937
_cell_angle_alpha   90.01515953
_cell_angle_beta   90.00000000
_cell_angle_gamma   120.00025197
_symmetry_Int_Tables_number   1
_chemical_formula_structural   Te2Mo3W(Se2S)2
_chemical_formula_sum   'Te2 Mo3 W1 Se4 S2'
_cell_volume   384.49275872
_cell_formula_units_Z   1
loop_
 _symmetry_equiv_pos_site_id
 _symmetry_equiv_pos_as_xyz
  1  'x, y, z'
loop_
 _atom_site_type_symbol
 _atom_site_label
 _atom_site_symmetry_multiplicity
 _atom_site_fract_x
 _atom_site_fract_y
 _atom_site_fract_z
 _atom_site_occupancy
  Te  Te0  1  0.333489  0.666979  0.328678  1
  Te  Te1  1  0.333358  0.666718  0.232907  1
  Mo  Mo2  1  0.333349  0.666699  0.093560  1
  Mo  Mo3  1  0.666784  0.333569  0.280819  1
  Mo  Mo4  1  0.666695  0.333390  0.657915  1
  W  W5  1  0.333126  0.666253  0.470623  1
  Se  Se6  1  0.333366  0.666733  0.699867  1
  Se  Se7  1  0.666304  0.332606  0.428444  1
  Se  Se8  1  0.666725  0.333449  0.512808  1
  Se  Se9  1  0.333355  0.666711  0.615918  1
  S  S10  1  0.666657  0.333313  0.055368  1
  S  S11  1  0.666790  0.333580  0.131843  1
