# generated using pymatgen
data_Zn2SiO4
_symmetry_space_group_name_H-M   'P 1'
_cell_length_a   11.03585631
_cell_length_b   9.84028908
_cell_length_c   6.18838888
_cell_angle_alpha   90.00000000
_cell_angle_beta   90.00000000
_cell_angle_gamma   90.00000000
_symmetry_Int_Tables_number   1
_chemical_formula_structural   Zn2SiO4
_chemical_formula_sum   'Zn16 Si8 O32'
_cell_volume   672.03437990
_cell_formula_units_Z   8
loop_
 _symmetry_equiv_pos_site_id
 _symmetry_equiv_pos_as_xyz
  1  'x, y, z'
loop_
 _atom_site_type_symbol
 _atom_site_label
 _atom_site_symmetry_multiplicity
 _atom_site_fract_x
 _atom_site_fract_y
 _atom_site_fract_z
 _atom_site_occupancy
  Zn  Zn0  1  0.062801  0.581171  0.153864  1
  Zn  Zn1  1  0.562801  0.918829  0.846136  1
  Zn  Zn2  1  0.937199  0.081171  0.346136  1
  Zn  Zn3  1  0.437199  0.418829  0.653864  1
  Zn  Zn4  1  0.937199  0.418829  0.846136  1
  Zn  Zn5  1  0.437199  0.081171  0.153864  1
  Zn  Zn6  1  0.062801  0.918829  0.653864  1
  Zn  Zn7  1  0.562801  0.581171  0.346136  1
  Zn  Zn8  1  0.160478  0.315948  0.441409  1
  Zn  Zn9  1  0.660478  0.184052  0.558591  1
  Zn  Zn10  1  0.839522  0.815948  0.058591  1
  Zn  Zn11  1  0.339522  0.684052  0.941409  1
  Zn  Zn12  1  0.839522  0.684052  0.558591  1
  Zn  Zn13  1  0.339522  0.815948  0.441409  1
  Zn  Zn14  1  0.160478  0.184052  0.941409  1
  Zn  Zn15  1  0.660478  0.315948  0.058591  1
  Si  Si16  1  0.876348  0.119977  0.862809  1
  Si  Si17  1  0.376348  0.380023  0.137191  1
  Si  Si18  1  0.123652  0.619977  0.637191  1
  Si  Si19  1  0.623652  0.880023  0.362809  1
  Si  Si20  1  0.123652  0.880023  0.137191  1
  Si  Si21  1  0.623652  0.619977  0.862809  1
  Si  Si22  1  0.876348  0.380023  0.362809  1
  Si  Si23  1  0.376348  0.119977  0.637191  1
  O  O24  1  0.751784  0.214035  0.833841  1
  O  O25  1  0.251784  0.285965  0.166159  1
  O  O26  1  0.248216  0.714035  0.666159  1
  O  O27  1  0.748216  0.785965  0.333841  1
  O  O28  1  0.248216  0.785965  0.166159  1
  O  O29  1  0.748216  0.714035  0.833841  1
  O  O30  1  0.751784  0.285965  0.333841  1
  O  O31  1  0.251784  0.214035  0.666159  1
  O  O32  1  0.900552  0.024215  0.649244  1
  O  O33  1  0.400552  0.475785  0.350756  1
  O  O34  1  0.099448  0.524215  0.850756  1
  O  O35  1  0.599448  0.975785  0.149244  1
  O  O36  1  0.099448  0.975785  0.350756  1
  O  O37  1  0.599448  0.524215  0.649244  1
  O  O38  1  0.900552  0.475785  0.149244  1
  O  O39  1  0.400552  0.024215  0.850756  1
  O  O40  1  0.987462  0.230143  0.901715  1
  O  O41  1  0.487462  0.269857  0.098285  1
  O  O42  1  0.012538  0.730143  0.598285  1
  O  O43  1  0.512538  0.769857  0.401715  1
  O  O44  1  0.012538  0.769857  0.098285  1
  O  O45  1  0.512538  0.730143  0.901715  1
  O  O46  1  0.987462  0.269857  0.401715  1
  O  O47  1  0.487462  0.230143  0.598285  1
  O  O48  1  0.866087  0.018926  0.074465  1
  O  O49  1  0.366087  0.481074  0.925535  1
  O  O50  1  0.133913  0.518926  0.425535  1
  O  O51  1  0.633913  0.981074  0.574465  1
  O  O52  1  0.133913  0.981074  0.925535  1
  O  O53  1  0.633913  0.518926  0.074465  1
  O  O54  1  0.866087  0.481074  0.574465  1
  O  O55  1  0.366087  0.018926  0.425535  1
