# generated using pymatgen
data_Sr2ScIrO6
_symmetry_space_group_name_H-M   'P 1'
_cell_length_a   5.68746835
_cell_length_b   5.73680459
_cell_length_c   8.03429151
_cell_angle_alpha   90.19532139
_cell_angle_beta   90.00000000
_cell_angle_gamma   90.00000000
_symmetry_Int_Tables_number   1
_chemical_formula_structural   Sr2ScIrO6
_chemical_formula_sum   'Sr4 Sc2 Ir2 O12'
_cell_volume   262.14049260
_cell_formula_units_Z   2
loop_
 _symmetry_equiv_pos_site_id
 _symmetry_equiv_pos_as_xyz
  1  'x, y, z'
loop_
 _atom_site_type_symbol
 _atom_site_label
 _atom_site_symmetry_multiplicity
 _atom_site_fract_x
 _atom_site_fract_y
 _atom_site_fract_z
 _atom_site_occupancy
  O  O0  1  0.498955  0.058034  0.256909  1
  O  O1  1  0.998955  0.441966  0.243091  1
  O  O2  1  0.501045  0.941966  0.743091  1
  O  O3  1  0.001045  0.558034  0.756909  1
  O  O4  1  0.252425  0.239556  0.530821  1
  O  O5  1  0.752425  0.260444  0.969179  1
  O  O6  1  0.747575  0.760444  0.469179  1
  O  O7  1  0.247575  0.739556  0.030821  1
  O  O8  1  0.759081  0.746169  0.030801  1
  O  O9  1  0.259081  0.753831  0.469199  1
  O  O10  1  0.240919  0.253831  0.969199  1
  O  O11  1  0.740919  0.246169  0.530801  1
  Sc  Sc12  1  0.500000  0.000000  0.000000  1
  Sc  Sc13  1  0.000000  0.500000  0.500000  1
  Sr  Sr14  1  0.502818  0.504318  0.249118  1
  Sr  Sr15  1  0.497182  0.495682  0.750882  1
  Sr  Sr16  1  0.002818  0.995682  0.250882  1
  Sr  Sr17  1  0.997182  0.004318  0.749118  1
  Ir  Ir18  1  0.000000  0.500000  0.000000  1
  Ir  Ir19  1  0.500000  0.000000  0.500000  1
