# generated using pymatgen
data_Te2MoWSeS
_symmetry_space_group_name_H-M   'P 1'
_cell_length_a   3.39765559
_cell_length_b   3.39762231
_cell_length_c   40.44843016
_cell_angle_alpha   89.99609642
_cell_angle_beta   89.99969289
_cell_angle_gamma   119.99981223
_symmetry_Int_Tables_number   1
_chemical_formula_structural   Te2MoWSeS
_chemical_formula_sum   'Te4 Mo2 W2 Se2 S2'
_cell_volume   404.37805274
_cell_formula_units_Z   2
loop_
 _symmetry_equiv_pos_site_id
 _symmetry_equiv_pos_as_xyz
  1  'x, y, z'
loop_
 _atom_site_type_symbol
 _atom_site_label
 _atom_site_symmetry_multiplicity
 _atom_site_fract_x
 _atom_site_fract_y
 _atom_site_fract_z
 _atom_site_occupancy
  Te  Te0  1  0.333296  0.666591  0.706131  1
  Te  Te1  1  0.666754  0.333503  0.421420  1
  Te  Te2  1  0.666715  0.333447  0.514148  1
  Te  Te3  1  0.333497  0.667013  0.612934  1
  Mo  Mo4  1  0.333383  0.666775  0.467772  1
  Mo  Mo5  1  0.666691  0.333370  0.281679  1
  W  W6  1  0.333186  0.666361  0.093896  1
  W  W7  1  0.666761  0.333519  0.659545  1
  Se  Se8  1  0.666503  0.332970  0.052980  1
  Se  Se9  1  0.666552  0.333105  0.134840  1
  S  S10  1  0.333307  0.666635  0.318841  1
  S  S11  1  0.333355  0.666711  0.244562  1
