# generated using pymatgen
data_K3Sn4Au
_symmetry_space_group_name_H-M   'P 1'
_cell_length_a   6.97610200
_cell_length_b   12.84438600
_cell_length_c   6.66475100
_cell_angle_alpha   90.00000000
_cell_angle_beta   90.00000000
_cell_angle_gamma   90.00000000
_symmetry_Int_Tables_number   1
_chemical_formula_structural   K3Sn4Au
_chemical_formula_sum   'K6 Sn8 Au2'
_cell_volume   597.18666151
_cell_formula_units_Z   2
loop_
 _symmetry_equiv_pos_site_id
 _symmetry_equiv_pos_as_xyz
  1  'x, y, z'
loop_
 _atom_site_type_symbol
 _atom_site_label
 _atom_site_symmetry_multiplicity
 _atom_site_fract_x
 _atom_site_fract_y
 _atom_site_fract_z
 _atom_site_occupancy
  K  K0  1  0.250001  0.003955  0.164551  1
  K  K1  1  0.250001  0.496045  0.164551  1
  K  K2  1  0.750001  0.750000  0.432657  1
  K  K3  1  0.250001  0.250000  0.567342  1
  K  K4  1  0.750001  0.503956  0.835451  1
  K  K5  1  0.750001  0.996044  0.835451  1
  Sn  Sn6  1  0.520012  0.250000  0.051622  1
  Sn  Sn7  1  0.979989  0.250000  0.051622  1
  Sn  Sn8  1  0.750001  0.127533  0.344283  1
  Sn  Sn9  1  0.750001  0.372467  0.344283  1
  Sn  Sn10  1  0.250001  0.627533  0.655717  1
  Sn  Sn11  1  0.250001  0.872468  0.655717  1
  Sn  Sn12  1  0.020011  0.750000  0.948379  1
  Sn  Sn13  1  0.479989  0.750000  0.948379  1
  Au  Au14  1  0.250001  0.750000  0.302109  1
  Au  Au15  1  0.750001  0.250000  0.697890  1
