# generated using pymatgen
data_TiSF
_symmetry_space_group_name_H-M   'P 1'
_cell_length_a   8.99967575
_cell_length_b   16.65441842
_cell_length_c   3.60221598
_cell_angle_alpha   90.00140549
_cell_angle_beta   90.00351732
_cell_angle_gamma   90.05009546
_symmetry_Int_Tables_number   1
_chemical_formula_structural   TiSF
_chemical_formula_sum   'Ti12 S12 F12'
_cell_volume   539.91564963
_cell_formula_units_Z   12
loop_
 _symmetry_equiv_pos_site_id
 _symmetry_equiv_pos_as_xyz
  1  'x, y, z'
loop_
 _atom_site_type_symbol
 _atom_site_label
 _atom_site_symmetry_multiplicity
 _atom_site_fract_x
 _atom_site_fract_y
 _atom_site_fract_z
 _atom_site_occupancy
  Ti  Ti0  1  0.919282  0.419677  0.250031  1
  Ti  Ti1  1  0.419272  0.080338  0.250016  1
  Ti  Ti2  1  0.080704  0.580281  0.749964  1
  Ti  Ti3  1  0.580754  0.919779  0.749942  1
  Ti  Ti4  1  0.920391  0.084408  0.249988  1
  Ti  Ti5  1  0.420424  0.415621  0.250019  1
  Ti  Ti6  1  0.079502  0.915659  0.749989  1
  Ti  Ti7  1  0.579531  0.584375  0.749995  1
  Ti  Ti8  1  0.727609  0.759817  0.250019  1
  Ti  Ti9  1  0.227659  0.740204  0.250045  1
  Ti  Ti10  1  0.272357  0.240155  0.750007  1
  Ti  Ti11  1  0.772472  0.259846  0.749994  1
  S  S12  1  0.676591  0.350795  0.250000  1
  S  S13  1  0.176537  0.149152  0.250010  1
  S  S14  1  0.323460  0.649166  0.750020  1
  S  S15  1  0.823432  0.850799  0.750000  1
  S  S16  1  0.664302  0.014022  0.249998  1
  S  S17  1  0.164236  0.485995  0.250033  1
  S  S18  1  0.335794  0.986050  0.749955  1
  S  S19  1  0.835740  0.513950  0.749964  1
  S  S20  1  0.992896  0.673378  0.249948  1
  S  S21  1  0.492890  0.826725  0.249935  1
  S  S22  1  0.007204  0.326648  0.750056  1
  S  S23  1  0.507098  0.173355  0.750029  1
  F  F24  1  0.066106  0.980889  0.249971  1
  F  F25  1  0.565988  0.519044  0.249996  1
  F  F26  1  0.933899  0.019072  0.749986  1
  F  F27  1  0.433951  0.480803  0.750017  1
  F  F28  1  0.092986  0.846340  0.250007  1
  F  F29  1  0.593033  0.653683  0.249999  1
  F  F30  1  0.907098  0.153695  0.750007  1
  F  F31  1  0.406893  0.346319  0.750018  1
  F  F32  1  0.776293  0.197384  0.250011  1
  F  F33  1  0.276439  0.302540  0.250021  1
  F  F34  1  0.223563  0.802594  0.750010  1
  F  F35  1  0.723613  0.697444  0.749997  1
