# generated using pymatgen
data_BaV6O11
_symmetry_space_group_name_H-M   'P 1'
_cell_length_a   5.94830779
_cell_length_b   5.94830778
_cell_length_c   13.52215111
_cell_angle_alpha   90.00000000
_cell_angle_beta   90.00000000
_cell_angle_gamma   119.99999999
_symmetry_Int_Tables_number   1
_chemical_formula_structural   BaV6O11
_chemical_formula_sum   'Ba2 V12 O22'
_cell_volume   414.34612470
_cell_formula_units_Z   2
loop_
 _symmetry_equiv_pos_site_id
 _symmetry_equiv_pos_as_xyz
  1  'x, y, z'
loop_
 _atom_site_type_symbol
 _atom_site_label
 _atom_site_symmetry_multiplicity
 _atom_site_fract_x
 _atom_site_fract_y
 _atom_site_fract_z
 _atom_site_occupancy
  O  O0  1  0.333333  0.666667  0.582865  1
  O  O1  1  0.666667  0.333333  0.082865  1
  O  O2  1  0.666667  0.333333  0.417135  1
  O  O3  1  0.333333  0.666667  0.917135  1
  O  O4  1  0.851501  0.703002  0.250000  1
  O  O5  1  0.148499  0.851501  0.750000  1
  O  O6  1  0.703001  0.851501  0.750000  1
  O  O7  1  0.296999  0.148499  0.250000  1
  O  O8  1  0.851501  0.148499  0.250000  1
  O  O9  1  0.148499  0.296998  0.750000  1
  O  O10  1  0.173663  0.826336  0.076578  1
  O  O11  1  0.173663  0.347325  0.076578  1
  O  O12  1  0.652673  0.826336  0.076578  1
  O  O13  1  0.347327  0.173664  0.576578  1
  O  O14  1  0.173663  0.347325  0.423422  1
  O  O15  1  0.826337  0.173664  0.923422  1
  O  O16  1  0.347327  0.173664  0.923422  1
  O  O17  1  0.652673  0.826336  0.423422  1
  O  O18  1  0.826338  0.652675  0.923422  1
  O  O19  1  0.826338  0.652675  0.576578  1
  O  O20  1  0.826337  0.173664  0.576578  1
  O  O21  1  0.173663  0.826336  0.423422  1
  V  V22  1  0.666667  0.333333  0.250000  1
  V  V23  1  0.333333  0.666667  0.750000  1
  V  V24  1  0.000000  0.000000  0.145693  1
  V  V25  1  0.000000  0.000000  0.645693  1
  V  V26  1  0.000000  0.000000  0.854307  1
  V  V27  1  0.000000  0.000000  0.354307  1
  V  V28  1  0.500000  0.000000  0.500000  1
  V  V29  1  0.500000  0.000000  0.000000  1
  V  V30  1  0.000000  0.500001  0.000000  1
  V  V31  1  0.000000  0.500001  0.500000  1
  V  V32  1  0.500001  0.500001  0.500000  1
  V  V33  1  0.500001  0.500001  0.000000  1
  Ba  Ba34  1  0.666667  0.333333  0.750000  1
  Ba  Ba35  1  0.333333  0.666667  0.250000  1
