# generated using pymatgen
data_Cr3N4
_symmetry_space_group_name_H-M   'P 1'
_cell_length_a   5.89144339
_cell_length_b   5.89144339
_cell_length_c   5.89144339
_cell_angle_alpha   109.47121719
_cell_angle_beta   109.47122236
_cell_angle_gamma   109.47122236
_symmetry_Int_Tables_number   1
_chemical_formula_structural   Cr3N4
_chemical_formula_sum   'Cr6 N8'
_cell_volume   157.41395676
_cell_formula_units_Z   2
loop_
 _symmetry_equiv_pos_site_id
 _symmetry_equiv_pos_as_xyz
  1  'x, y, z'
loop_
 _atom_site_type_symbol
 _atom_site_label
 _atom_site_symmetry_multiplicity
 _atom_site_fract_x
 _atom_site_fract_y
 _atom_site_fract_z
 _atom_site_occupancy
  Cr  Cr0  1  0.125000  0.250000  0.875000  1
  Cr  Cr1  1  0.375000  0.750000  0.625000  1
  Cr  Cr2  1  0.250000  0.125000  0.375000  1
  Cr  Cr3  1  0.750000  0.375000  0.125000  1
  Cr  Cr4  1  0.875000  0.625000  0.750000  1
  Cr  Cr5  1  0.625000  0.875000  0.250000  1
  N  N6  1  0.438182  0.938182  0.438182  1
  N  N7  1  -0.000000  0.561818  0.500000  1
  N  N8  1  0.500000  0.500000  0.061818  1
  N  N9  1  0.061818  0.000000  0.000000  1
  N  N10  1  -0.000000  0.061818  0.500000  1
  N  N11  1  0.938182  0.438182  0.938182  1
  N  N12  1  0.500000  0.500000  0.561818  1
  N  N13  1  0.561818  0.000000  0.000000  1
