# generated using pymatgen
data_Gd2Si2O7
_symmetry_space_group_name_H-M   'P 1'
_cell_length_a   5.12741550
_cell_length_b   8.34110684
_cell_length_c   14.00389992
_cell_angle_alpha   90.00000000
_cell_angle_beta   90.00000000
_cell_angle_gamma   90.00000000
_symmetry_Int_Tables_number   1
_chemical_formula_structural   Gd2Si2O7
_chemical_formula_sum   'Gd8 Si8 O28'
_cell_volume   598.92328001
_cell_formula_units_Z   4
loop_
 _symmetry_equiv_pos_site_id
 _symmetry_equiv_pos_as_xyz
  1  'x, y, z'
loop_
 _atom_site_type_symbol
 _atom_site_label
 _atom_site_symmetry_multiplicity
 _atom_site_fract_x
 _atom_site_fract_y
 _atom_site_fract_z
 _atom_site_occupancy
  O  O0  1  0.851826  0.751646  0.901673  1
  O  O1  1  0.148174  0.251646  0.098327  1
  O  O2  1  0.648174  0.751646  0.401673  1
  O  O3  1  0.351826  0.251646  0.598327  1
  O  O4  1  0.291870  0.917572  0.953411  1
  O  O5  1  0.708130  0.417572  0.046589  1
  O  O6  1  0.208130  0.917572  0.453411  1
  O  O7  1  0.791870  0.417572  0.546589  1
  O  O8  1  0.291767  0.585632  0.953385  1
  O  O9  1  0.708233  0.085632  0.046615  1
  O  O10  1  0.208233  0.585632  0.453385  1
  O  O11  1  0.791767  0.085632  0.546615  1
  O  O12  1  0.061882  0.751642  0.080176  1
  O  O13  1  0.938118  0.251642  0.919824  1
  O  O14  1  0.438118  0.751642  0.580176  1
  O  O15  1  0.561882  0.251642  0.419824  1
  O  O16  1  0.485491  0.089280  0.268253  1
  O  O17  1  0.514509  0.589280  0.731747  1
  O  O18  1  0.014509  0.089280  0.768253  1
  O  O19  1  0.985491  0.589280  0.231747  1
  O  O20  1  0.485522  0.413921  0.268225  1
  O  O21  1  0.514478  0.913921  0.731775  1
  O  O22  1  0.014478  0.413921  0.768225  1
  O  O23  1  0.985522  0.913921  0.231775  1
  O  O24  1  0.069861  0.251627  0.345506  1
  O  O25  1  0.930139  0.751627  0.654494  1
  O  O26  1  0.430139  0.251627  0.845506  1
  O  O27  1  0.569861  0.751627  0.154494  1
  Si  Si28  1  0.124945  0.751619  0.961324  1
  Si  Si29  1  0.875055  0.251619  0.038676  1
  Si  Si30  1  0.375055  0.751619  0.461324  1
  Si  Si31  1  0.624945  0.251619  0.538676  1
  Si  Si32  1  0.878740  0.751620  0.180010  1
  Si  Si33  1  0.121260  0.251620  0.819990  1
  Si  Si34  1  0.621260  0.751620  0.680010  1
  Si  Si35  1  0.378740  0.251620  0.319990  1
  Gd  Gd36  1  0.841858  0.009566  0.374255  1
  Gd  Gd37  1  0.158142  0.509566  0.625745  1
  Gd  Gd38  1  0.658142  0.009566  0.874255  1
  Gd  Gd39  1  0.341858  0.509566  0.125745  1
  Gd  Gd40  1  0.841856  0.493674  0.374245  1
  Gd  Gd41  1  0.158144  0.993674  0.625755  1
  Gd  Gd42  1  0.658144  0.493674  0.874245  1
  Gd  Gd43  1  0.341856  0.993674  0.125755  1
