# generated using pymatgen
data_NaCaPO4
_symmetry_space_group_name_H-M   'P 1'
_cell_length_a   5.47906114
_cell_length_b   9.20626022
_cell_length_c   20.65820037
_cell_angle_alpha   90.00000000
_cell_angle_beta   90.00000000
_cell_angle_gamma   90.00000000
_symmetry_Int_Tables_number   1
_chemical_formula_structural   NaCaPO4
_chemical_formula_sum   'Na12 Ca12 P12 O48'
_cell_volume   1042.03397332
_cell_formula_units_Z   12
loop_
 _symmetry_equiv_pos_site_id
 _symmetry_equiv_pos_as_xyz
  1  'x, y, z'
loop_
 _atom_site_type_symbol
 _atom_site_label
 _atom_site_symmetry_multiplicity
 _atom_site_fract_x
 _atom_site_fract_y
 _atom_site_fract_z
 _atom_site_occupancy
  O  O0  1  0.054864  0.194141  0.418584  1
  O  O1  1  0.554864  0.805859  0.581416  1
  O  O2  1  0.054864  0.305859  0.918584  1
  O  O3  1  0.554864  0.694141  0.081416  1
  O  O4  1  0.511534  0.159442  0.396238  1
  O  O5  1  0.011534  0.840558  0.603762  1
  O  O6  1  0.511534  0.340558  0.896238  1
  O  O7  1  0.011534  0.659442  0.103762  1
  O  O8  1  0.219748  0.943784  0.389941  1
  O  O9  1  0.719748  0.056216  0.610059  1
  O  O10  1  0.219748  0.556216  0.889941  1
  O  O11  1  0.719748  0.443784  0.110059  1
  O  O12  1  0.333988  0.057547  0.497440  1
  O  O13  1  0.833988  0.942453  0.502560  1
  O  O14  1  0.333988  0.442453  0.997440  1
  O  O15  1  0.833988  0.557547  0.002560  1
  O  O16  1  0.037679  0.352221  0.227180  1
  O  O17  1  0.537679  0.647779  0.772820  1
  O  O18  1  0.037679  0.147779  0.727180  1
  O  O19  1  0.537679  0.852221  0.272820  1
  O  O20  1  0.486639  0.167809  0.078784  1
  O  O21  1  0.490883  0.308449  0.248384  1
  O  O22  1  0.490883  0.191551  0.748384  1
  O  O23  1  0.990883  0.808449  0.251616  1
  O  O24  1  0.334719  0.564663  0.224808  1
  O  O25  1  0.834719  0.435337  0.775192  1
  O  O26  1  0.334719  0.935337  0.724808  1
  O  O27  1  0.834719  0.064663  0.275192  1
  O  O28  1  0.218400  0.441645  0.330326  1
  O  O29  1  0.718400  0.558355  0.669674  1
  O  O30  1  0.218400  0.058355  0.830326  1
  O  O31  1  0.718400  0.941645  0.169674  1
  O  O32  1  0.023709  0.187998  0.073414  1
  O  O33  1  0.523709  0.812002  0.926586  1
  O  O34  1  0.023709  0.312002  0.573414  1
  O  O35  1  0.523709  0.687998  0.426586  1
  O  O36  1  0.719182  0.551864  0.334714  1
  O  O37  1  0.219182  0.448136  0.665286  1
  O  O38  1  0.719182  0.948136  0.834714  1
  O  O39  1  0.219182  0.051864  0.165286  1
  O  O40  1  0.731401  0.443980  0.447331  1
  O  O41  1  0.231401  0.556020  0.552669  1
  O  O42  1  0.731401  0.056020  0.947331  1
  O  O43  1  0.231401  0.943980  0.052669  1
  O  O44  1  0.986639  0.667809  0.421216  1
  O  O45  1  0.486639  0.332191  0.578784  1
  O  O46  1  0.986639  0.832191  0.921216  1
  O  O47  1  0.990883  0.691551  0.751616  1
  Na  Na48  1  0.283569  0.427953  0.776231  1
  Na  Na49  1  0.737792  0.936162  0.057366  1
  Na  Na50  1  0.237792  0.063838  0.942634  1
  Na  Na51  1  0.737792  0.563838  0.557366  1
  Na  Na52  1  0.237792  0.436162  0.442634  1
  Na  Na53  1  0.783569  0.572047  0.223769  1
  Na  Na54  1  0.783569  0.927953  0.723769  1
  Na  Na55  1  0.283569  0.072047  0.276231  1
  Na  Na56  1  0.767949  0.924564  0.391809  1
  Na  Na57  1  0.267949  0.075436  0.608191  1
  Na  Na58  1  0.767949  0.575436  0.891809  1
  Na  Na59  1  0.267949  0.424564  0.108191  1
  P  P60  1  0.276304  0.089136  0.425331  1
  P  P61  1  0.241646  0.412197  0.592564  1
  P  P62  1  0.741646  0.912197  0.907436  1
  P  P63  1  0.241646  0.087803  0.092564  1
  P  P64  1  0.774347  0.916264  0.242199  1
  P  P65  1  0.274347  0.083736  0.757801  1
  P  P66  1  0.741646  0.587803  0.407436  1
  P  P67  1  0.774347  0.583736  0.742199  1
  P  P68  1  0.274347  0.416264  0.257801  1
  P  P69  1  0.776304  0.589136  0.074669  1
  P  P70  1  0.276304  0.410864  0.925331  1
  P  P71  1  0.776304  0.910864  0.574669  1
  Ca  Ca72  1  0.294500  0.796200  0.165190  1
  Ca  Ca73  1  0.794500  0.203800  0.834810  1
  Ca  Ca74  1  0.294500  0.703800  0.665190  1
  Ca  Ca75  1  0.794500  0.296200  0.334810  1
  Ca  Ca76  1  0.272007  0.705228  0.331187  1
  Ca  Ca77  1  0.772007  0.294772  0.668813  1
  Ca  Ca78  1  0.272007  0.794772  0.831187  1
  Ca  Ca79  1  0.772007  0.205228  0.168813  1
  Ca  Ca80  1  0.235840  0.798850  0.497888  1
  Ca  Ca81  1  0.735840  0.201150  0.502112  1
  Ca  Ca82  1  0.235840  0.701150  0.997888  1
  Ca  Ca83  1  0.735840  0.298850  0.002112  1
