# generated using pymatgen
data_Sr6(CoO3)5
_symmetry_space_group_name_H-M   'P 1'
_cell_length_a   6.91635213
_cell_length_b   6.91635214
_cell_length_c   6.91635214
_cell_angle_alpha   87.87217228
_cell_angle_beta   87.87217224
_cell_angle_gamma   87.87217225
_symmetry_Int_Tables_number   1
_chemical_formula_structural   Sr6(CoO3)5
_chemical_formula_sum   'Sr6 Co5 O15'
_cell_volume   330.18222661
_cell_formula_units_Z   1
loop_
 _symmetry_equiv_pos_site_id
 _symmetry_equiv_pos_as_xyz
  1  'x, y, z'
loop_
 _atom_site_type_symbol
 _atom_site_label
 _atom_site_symmetry_multiplicity
 _atom_site_fract_x
 _atom_site_fract_y
 _atom_site_fract_z
 _atom_site_occupancy
  O  O0  1  0.555679  0.365768  0.266253  1
  O  O1  1  0.365768  0.266252  0.555679  1
  O  O2  1  0.266252  0.555678  0.365768  1
  O  O3  1  0.733748  0.634232  0.444321  1
  O  O4  1  0.634232  0.444321  0.733747  1
  O  O5  1  0.444321  0.733747  0.634232  1
  O  O6  1  0.030073  0.205090  0.340552  1
  O  O7  1  0.205090  0.340552  0.030073  1
  O  O8  1  0.340551  0.030073  0.205089  1
  O  O9  1  0.659449  0.794911  0.969927  1
  O  O10  1  0.794911  0.969927  0.659448  1
  O  O11  1  0.843244  0.156757  0.000000  1
  O  O12  1  0.000001  0.843244  0.156757  1
  O  O13  1  0.969927  0.659448  0.794911  1
  O  O14  1  0.156757  0.999999  0.843244  1
  Co  Co15  1  0.705412  0.705411  0.705412  1
  Co  Co16  1  0.294588  0.294589  0.294588  1
  Co  Co17  1  0.904989  0.904989  0.904990  1
  Co  Co18  1  0.095011  0.095010  0.095010  1
  Co  Co19  1  0.500001  0.500001  0.500001  1
  Sr  Sr20  1  0.861320  0.500001  0.138680  1
  Sr  Sr21  1  0.500001  0.138681  0.861320  1
  Sr  Sr22  1  0.138680  0.861320  0.500001  1
  Sr  Sr23  1  0.677978  0.999999  0.322022  1
  Sr  Sr24  1  1.000000  0.322023  0.677977  1
  Sr  Sr25  1  0.322023  0.677978  0.000000  1
