# generated using pymatgen
data_Rb2SrP2O7
_symmetry_space_group_name_H-M   'P 1'
_cell_length_a   5.95934782
_cell_length_b   6.00007494
_cell_length_c   13.51760712
_cell_angle_alpha   79.05250505
_cell_angle_beta   77.26576292
_cell_angle_gamma   60.22428469
_symmetry_Int_Tables_number   1
_chemical_formula_structural   Rb2SrP2O7
_chemical_formula_sum   'Rb4 Sr2 P4 O14'
_cell_volume   407.35938878
_cell_formula_units_Z   2
loop_
 _symmetry_equiv_pos_site_id
 _symmetry_equiv_pos_as_xyz
  1  'x, y, z'
loop_
 _atom_site_type_symbol
 _atom_site_label
 _atom_site_symmetry_multiplicity
 _atom_site_fract_x
 _atom_site_fract_y
 _atom_site_fract_z
 _atom_site_occupancy
  O  O0  1  0.160629  0.250000  0.250000  1
  O  O1  1  0.839371  0.750000  0.750000  1
  O  O2  1  0.200111  0.213021  0.067035  1
  O  O3  1  0.980167  0.286979  0.432965  1
  O  O4  1  0.799889  0.786979  0.932965  1
  O  O5  1  0.019833  0.713021  0.567035  1
  O  O6  1  0.596992  0.163138  0.133619  1
  O  O7  1  0.393749  0.336862  0.366381  1
  O  O8  1  0.403008  0.836862  0.866381  1
  O  O9  1  0.606251  0.663138  0.633619  1
  O  O10  1  0.583147  0.105041  0.622355  1
  O  O11  1  0.810543  0.394959  0.877645  1
  O  O12  1  0.416853  0.894959  0.377645  1
  O  O13  1  0.189457  0.605041  0.122355  1
  P  P14  1  0.299834  0.310392  0.135215  1
  P  P15  1  0.245441  0.189608  0.364785  1
  P  P16  1  0.700166  0.689608  0.864785  1
  P  P17  1  0.754559  0.810392  0.635215  1
  Rb  Rb18  1  0.367793  0.369752  0.835669  1
  Rb  Rb19  1  0.073214  0.130248  0.664331  1
  Rb  Rb20  1  0.632207  0.630248  0.164331  1
  Rb  Rb21  1  0.926786  0.869752  0.335669  1
  Sr  Sr22  1  0.000000  0.000000  0.000000  1
  Sr  Sr23  1  0.500000  0.500000  0.500000  1
