# generated using pymatgen
data_CsAlF4
_symmetry_space_group_name_H-M   'P 1'
_cell_length_a   10.87159956
_cell_length_b   10.87159956
_cell_length_c   10.87159956
_cell_angle_alpha   102.66863279
_cell_angle_beta   112.97590251
_cell_angle_gamma   112.97590255
_symmetry_Int_Tables_number   1
_chemical_formula_structural   CsAlF4
_chemical_formula_sum   'Cs10 Al10 F40'
_cell_volume   978.85632772
_cell_formula_units_Z   10
loop_
 _symmetry_equiv_pos_site_id
 _symmetry_equiv_pos_as_xyz
  1  'x, y, z'
loop_
 _atom_site_type_symbol
 _atom_site_label
 _atom_site_symmetry_multiplicity
 _atom_site_fract_x
 _atom_site_fract_y
 _atom_site_fract_z
 _atom_site_occupancy
  F  F0  1  0.500000  0.130585  0.630585  1
  F  F1  1  0.500000  0.369415  0.869415  1
  F  F2  1  0.500000  0.869415  0.369415  1
  F  F3  1  0.500000  0.630585  0.130585  1
  F  F4  1  0.068310  0.784155  0.284155  1
  F  F5  1  0.500000  0.715845  0.784155  1
  F  F6  1  0.500000  0.284155  0.215845  1
  F  F7  1  0.931690  0.215845  0.715845  1
  F  F8  1  0.868276  0.160211  0.446547  1
  F  F9  1  0.131724  0.578272  0.291935  1
  F  F10  1  0.713663  0.553453  0.421728  1
  F  F11  1  0.286337  0.708065  0.839789  1
  F  F12  1  0.286337  0.078272  0.946547  1
  F  F13  1  0.131724  0.053453  0.339789  1
  F  F14  1  0.713703  0.921660  0.053553  1
  F  F15  1  0.868276  0.208065  0.921728  1
  F  F16  1  0.131893  0.839850  0.553553  1
  F  F17  1  0.868107  0.421660  0.707958  1
  F  F18  1  0.286297  0.446447  0.578340  1
  F  F19  1  0.713703  0.292042  0.160150  1
  F  F20  1  0.345702  0.000504  0.345255  1
  F  F21  1  0.655249  0.654745  0.000447  1
  F  F22  1  0.344751  0.345198  0.999496  1
  F  F23  1  0.654298  0.999553  0.654802  1
  F  F24  1  0.654298  0.154745  0.499496  1
  F  F25  1  0.345702  0.845198  0.500447  1
  F  F26  1  0.344751  0.499553  0.845255  1
  F  F27  1  0.655249  0.500504  0.154802  1
  F  F28  1  0.211118  0.068217  0.143014  1
  F  F29  1  0.925204  0.856986  0.068105  1
  F  F30  1  0.074796  0.142901  0.931783  1
  F  F31  1  0.788882  0.931895  0.857099  1
  F  F32  1  0.788882  0.356986  0.431783  1
  F  F33  1  0.211118  0.642901  0.568105  1
  F  F34  1  0.074796  0.431895  0.643014  1
  F  F35  1  0.925204  0.568217  0.357099  1
  F  F36  1  0.286297  0.339850  0.207958  1
  F  F37  1  0.131893  0.792042  0.078340  1
  F  F38  1  0.868107  0.946447  0.660150  1
  F  F39  1  0.713663  0.660211  0.791935  1
  Al  Al40  1  0.283524  0.575501  0.708034  1
  Al  Al41  1  0.716476  0.424510  0.291976  1
  Al  Al42  1  0.867467  0.291966  0.575490  1
  Al  Al43  1  0.132533  0.708024  0.424499  1
  Al  Al44  1  0.132533  0.924510  0.208034  1
  Al  Al45  1  0.716476  0.791966  0.924499  1
  Al  Al46  1  0.283524  0.208024  0.075490  1
  Al  Al47  1  0.867467  0.075501  0.791976  1
  Al  Al48  1  0.500000  0.500000  0.000000  1
  Al  Al49  1  0.500000  0.000000  0.500000  1
  Cs  Cs50  1  0.499920  0.023987  0.843350  1
  Cs  Cs51  1  0.500080  0.343430  0.524067  1
  Cs  Cs52  1  0.180637  0.156650  0.656570  1
  Cs  Cs53  1  0.819363  0.475933  0.976013  1
  Cs  Cs54  1  0.819363  0.843430  0.343350  1
  Cs  Cs55  1  0.500080  0.656650  0.476013  1
  Cs  Cs56  1  0.499920  0.975933  0.156570  1
  Cs  Cs57  1  0.180637  0.523987  0.024067  1
  Cs  Cs58  1  0.000000  0.750000  0.750000  1
  Cs  Cs59  1  0.000000  0.250000  0.250000  1
