# generated using pymatgen
data_ErAlGe
_symmetry_space_group_name_H-M   'P 1'
_cell_length_a   4.05709673
_cell_length_b   5.56288542
_cell_length_c   5.73181380
_cell_angle_alpha   90.00000000
_cell_angle_beta   90.00000000
_cell_angle_gamma   111.38651139
_symmetry_Int_Tables_number   1
_chemical_formula_structural   ErAlGe
_chemical_formula_sum   'Er2 Al2 Ge2'
_cell_volume   120.45458134
_cell_formula_units_Z   2
loop_
 _symmetry_equiv_pos_site_id
 _symmetry_equiv_pos_as_xyz
  1  'x, y, z'
loop_
 _atom_site_type_symbol
 _atom_site_label
 _atom_site_symmetry_multiplicity
 _atom_site_fract_x
 _atom_site_fract_y
 _atom_site_fract_z
 _atom_site_occupancy
  Er  Er0  1  0.310227  0.620453  0.250000  1
  Er  Er1  1  0.689773  0.379547  0.750000  1
  Al  Al2  1  0.000000  -0.000000  0.000000  1
  Al  Al3  1  -0.000000  -0.000000  0.500000  1
  Ge  Ge4  1  0.606907  0.213815  0.250000  1
  Ge  Ge5  1  0.393093  0.786185  0.750000  1
