# generated using pymatgen
data_Cd2Sb2O7
_symmetry_space_group_name_H-M   'P 1'
_cell_length_a   7.34109118
_cell_length_b   7.37657215
_cell_length_c   7.37657215
_cell_angle_alpha   61.13987627
_cell_angle_beta   60.15898484
_cell_angle_gamma   60.15898483
_symmetry_Int_Tables_number   1
_chemical_formula_structural   Cd2Sb2O7
_chemical_formula_sum   'Cd4 Sb4 O14'
_cell_volume   285.50561004
_cell_formula_units_Z   2
loop_
 _symmetry_equiv_pos_site_id
 _symmetry_equiv_pos_as_xyz
  1  'x, y, z'
loop_
 _atom_site_type_symbol
 _atom_site_label
 _atom_site_symmetry_multiplicity
 _atom_site_fract_x
 _atom_site_fract_y
 _atom_site_fract_z
 _atom_site_occupancy
  O  O0  1  0.325338  0.319604  0.445175  1
  O  O1  1  0.090118  0.680396  0.554825  1
  O  O2  1  0.174662  0.054825  0.180396  1
  O  O3  1  0.409882  0.945175  0.819604  1
  O  O4  1  0.674662  0.680396  0.554825  1
  O  O5  1  0.909882  0.319604  0.445175  1
  O  O6  1  0.825338  0.945175  0.819604  1
  O  O7  1  0.590118  0.054825  0.180396  1
  O  O8  1  0.250000  0.902342  0.597658  1
  O  O9  1  0.750000  0.097658  0.402342  1
  O  O10  1  0.097069  0.639101  0.166761  1
  O  O11  1  0.902931  0.360899  0.833239  1
  O  O12  1  0.402931  0.333239  0.860899  1
  O  O13  1  0.597069  0.666761  0.139101  1
  Cd  Cd14  1  0.500000  0.500000  0.000000  1
  Cd  Cd15  1  0.000000  0.500000  0.000000  1
  Cd  Cd16  1  0.000000  0.000000  0.000000  1
  Cd  Cd17  1  0.500000  0.500000  0.500000  1
  Sb  Sb18  1  0.500000  0.000000  0.500000  1
  Sb  Sb19  1  0.000000  0.000000  0.500000  1
  Sb  Sb20  1  0.000000  0.500000  0.500000  1
  Sb  Sb21  1  0.500000  0.000000  0.000000  1
