# generated using pymatgen
data_NdTlZn
_symmetry_space_group_name_H-M   'P 1'
_cell_length_a   4.78973202
_cell_length_b   4.78943139
_cell_length_c   7.65006858
_cell_angle_alpha   90.00000000
_cell_angle_beta   90.00000000
_cell_angle_gamma   120.00207645
_symmetry_Int_Tables_number   1
_chemical_formula_structural   NdTlZn
_chemical_formula_sum   'Nd2 Tl2 Zn2'
_cell_volume   151.97846171
_cell_formula_units_Z   2
loop_
 _symmetry_equiv_pos_site_id
 _symmetry_equiv_pos_as_xyz
  1  'x, y, z'
loop_
 _atom_site_type_symbol
 _atom_site_label
 _atom_site_symmetry_multiplicity
 _atom_site_fract_x
 _atom_site_fract_y
 _atom_site_fract_z
 _atom_site_occupancy
  Nd  Nd0  1  0.000000  0.000000  0.500000  1
  Nd  Nd1  1  0.000000  0.000000  0.000000  1
  Tl  Tl2  1  0.333327  0.666654  0.250000  1
  Tl  Tl3  1  0.666673  0.333346  0.750000  1
  Zn  Zn4  1  0.333326  0.666652  0.750000  1
  Zn  Zn5  1  0.666674  0.333348  0.250000  1
