# generated using pymatgen
data_Yb(Ni2P)2
_symmetry_space_group_name_H-M   'P 1'
_cell_length_a   3.53898942
_cell_length_b   7.09822415
_cell_length_c   7.09822415
_cell_angle_alpha   90.00000000
_cell_angle_beta   90.00000000
_cell_angle_gamma   90.00000000
_symmetry_Int_Tables_number   1
_chemical_formula_structural   Yb(Ni2P)2
_chemical_formula_sum   'Yb2 Ni8 P4'
_cell_volume   178.31122488
_cell_formula_units_Z   2
loop_
 _symmetry_equiv_pos_site_id
 _symmetry_equiv_pos_as_xyz
  1  'x, y, z'
loop_
 _atom_site_type_symbol
 _atom_site_label
 _atom_site_symmetry_multiplicity
 _atom_site_fract_x
 _atom_site_fract_y
 _atom_site_fract_z
 _atom_site_occupancy
  P  P0  1  0.000000  0.776993  0.223007  1
  P  P1  1  0.500000  0.276993  0.276993  1
  P  P2  1  0.500000  0.723007  0.723007  1
  P  P3  1  0.000000  0.223007  0.776993  1
  Ni  Ni4  1  0.500000  0.418622  0.832344  1
  Ni  Ni5  1  0.500000  0.581378  0.167656  1
  Ni  Ni6  1  0.500000  0.832344  0.418622  1
  Ni  Ni7  1  0.500000  0.167656  0.581378  1
  Ni  Ni8  1  0.000000  0.081378  0.332344  1
  Ni  Ni9  1  0.000000  0.918622  0.667656  1
  Ni  Ni10  1  0.000000  0.667656  0.918622  1
  Ni  Ni11  1  0.000000  0.332344  0.081378  1
  Yb  Yb12  1  0.000000  0.500000  0.500000  1
  Yb  Yb13  1  0.500000  0.000000  0.000000  1
