# generated using pymatgen
data_Tb2Co3Ge5
_symmetry_space_group_name_H-M   'P 1'
_cell_length_a   8.09601687
_cell_length_b   8.09650327
_cell_length_c   5.73361288
_cell_angle_alpha   70.28861148
_cell_angle_beta   109.71257860
_cell_angle_gamma   86.53099195
_symmetry_Int_Tables_number   1
_chemical_formula_structural   Tb2Co3Ge5
_chemical_formula_sum   'Tb4 Co6 Ge10'
_cell_volume   326.57427722
_cell_formula_units_Z   2
loop_
 _symmetry_equiv_pos_site_id
 _symmetry_equiv_pos_as_xyz
  1  'x, y, z'
loop_
 _atom_site_type_symbol
 _atom_site_label
 _atom_site_symmetry_multiplicity
 _atom_site_fract_x
 _atom_site_fract_y
 _atom_site_fract_z
 _atom_site_occupancy
  Tb  Tb0  1  0.407134  0.871475  0.267156  1
  Tb  Tb1  1  0.871456  0.407120  0.232839  1
  Tb  Tb2  1  0.592837  0.128572  0.732787  1
  Tb  Tb3  1  0.128584  0.592836  0.767219  1
  Co  Co4  1  0.457825  0.260742  0.117273  1
  Co  Co5  1  0.260729  0.457834  0.382729  1
  Co  Co6  1  0.542173  0.739244  0.882699  1
  Co  Co7  1  0.739257  0.542168  0.617297  1
  Co  Co8  1  0.002170  0.002170  0.249999  1
  Co  Co9  1  0.997824  0.997824  0.750000  1
  Ge  Ge10  1  0.507547  0.507550  0.249962  1
  Ge  Ge11  1  0.492403  0.492388  0.750044  1
  Ge  Ge12  1  0.738425  0.077308  0.328086  1
  Ge  Ge13  1  0.077300  0.738456  0.171899  1
  Ge  Ge14  1  0.261540  0.922723  0.671902  1
  Ge  Ge15  1  0.922726  0.261524  0.828104  1
  Ge  Ge16  1  0.214834  0.214813  0.249987  1
  Ge  Ge17  1  0.785220  0.785235  0.749995  1
  Ge  Ge18  1  0.774141  0.774159  0.249987  1
  Ge  Ge19  1  0.225881  0.225857  0.750033  1
