# generated using pymatgen
data_Au3F8
_symmetry_space_group_name_H-M   'P 1'
_cell_length_a   5.59707680
_cell_length_b   5.93704638
_cell_length_c   10.94133560
_cell_angle_alpha   90.00000000
_cell_angle_beta   90.00000000
_cell_angle_gamma   92.13685643
_symmetry_Int_Tables_number   1
_chemical_formula_structural   Au3F8
_chemical_formula_sum   'Au6 F16'
_cell_volume   363.32889645
_cell_formula_units_Z   2
loop_
 _symmetry_equiv_pos_site_id
 _symmetry_equiv_pos_as_xyz
  1  'x, y, z'
loop_
 _atom_site_type_symbol
 _atom_site_label
 _atom_site_symmetry_multiplicity
 _atom_site_fract_x
 _atom_site_fract_y
 _atom_site_fract_z
 _atom_site_occupancy
  F  F0  1  0.258454  0.111277  0.523841  1
  F  F1  1  0.241546  0.388723  0.023841  1
  F  F2  1  0.741546  0.888723  0.476159  1
  F  F3  1  0.758454  0.611277  0.976159  1
  F  F4  1  0.207123  0.840333  0.097759  1
  F  F5  1  0.292877  0.659667  0.597759  1
  F  F6  1  0.857630  0.314275  0.657479  1
  F  F7  1  0.642370  0.185725  0.157479  1
  F  F8  1  0.142370  0.685725  0.342521  1
  F  F9  1  0.357630  0.814275  0.842521  1
  F  F10  1  0.838662  0.750577  0.734345  1
  F  F11  1  0.661338  0.749423  0.234345  1
  F  F12  1  0.161338  0.249423  0.265655  1
  F  F13  1  0.338662  0.250577  0.765655  1
  F  F14  1  0.707123  0.340333  0.402241  1
  F  F15  1  0.792877  0.159667  0.902241  1
  Au  Au16  1  0.309558  0.963594  0.679958  1
  Au  Au17  1  0.190442  0.536406  0.179958  1
  Au  Au18  1  0.690442  0.036406  0.320042  1
  Au  Au19  1  0.809558  0.463594  0.820042  1
  Au  Au20  1  0.500000  0.000000  0.000000  1
  Au  Au21  1  0.000000  0.500000  0.500000  1
