# generated using pymatgen
data_K3Nb3Si2O13
_symmetry_space_group_name_H-M   'P 1'
_cell_length_a   9.27156051
_cell_length_b   9.27156051
_cell_length_c   7.95365811
_cell_angle_alpha   90.00000000
_cell_angle_beta   90.00000000
_cell_angle_gamma   120.00000004
_symmetry_Int_Tables_number   1
_chemical_formula_structural   K3Nb3Si2O13
_chemical_formula_sum   'K6 Nb6 Si4 O26'
_cell_volume   592.11112956
_cell_formula_units_Z   2
loop_
 _symmetry_equiv_pos_site_id
 _symmetry_equiv_pos_as_xyz
  1  'x, y, z'
loop_
 _atom_site_type_symbol
 _atom_site_label
 _atom_site_symmetry_multiplicity
 _atom_site_fract_x
 _atom_site_fract_y
 _atom_site_fract_z
 _atom_site_occupancy
  O  O0  1  1.000000  0.231652  0.500000  1
  O  O1  1  0.768348  0.768348  0.500000  1
  O  O2  1  0.231652  0.000000  0.500000  1
  O  O3  1  0.512643  0.695193  0.270555  1
  O  O4  1  0.304806  0.817448  0.270555  1
  O  O5  1  0.182551  0.487358  0.270555  1
  O  O6  1  0.487358  0.182551  0.729445  1
  O  O7  1  0.182551  0.487358  0.729445  1
  O  O8  1  0.512643  0.695193  0.729445  1
  O  O9  1  0.304806  0.817448  0.729445  1
  O  O10  1  0.695194  0.512642  0.270555  1
  O  O11  1  0.817449  0.304807  0.270555  1
  O  O12  1  0.817449  0.304807  0.729445  1
  O  O13  1  0.695194  0.512642  0.729445  1
  O  O14  1  0.487358  0.182551  0.270555  1
  O  O15  1  0.824293  0.000000  0.765487  1
  O  O16  1  0.333333  0.666667  0.000000  1
  O  O17  1  0.666666  0.333333  0.000000  1
  O  O18  1  0.270048  0.000000  0.000000  1
  O  O19  1  0.729952  0.729952  0.000000  1
  O  O20  1  0.000001  0.270048  0.000000  1
  O  O21  1  0.175707  0.175707  0.234513  1
  O  O22  1  0.175707  0.175707  0.765487  1
  O  O23  1  0.000000  0.824293  0.765487  1
  O  O24  1  0.000000  0.824293  0.234513  1
  O  O25  1  0.824293  0.000000  0.234513  1
  Si  Si26  1  0.666666  0.333333  0.208338  1
  Si  Si27  1  0.666666  0.333333  0.791663  1
  Si  Si28  1  0.333333  0.666667  0.791663  1
  Si  Si29  1  0.333333  0.666667  0.208338  1
  K  K30  1  0.403992  0.403991  0.500000  1
  K  K31  1  0.000000  0.596009  0.500000  1
  K  K32  1  0.610980  0.000000  0.000000  1
  K  K33  1  0.389020  0.389019  0.000000  1
  K  K34  1  0.999999  0.610980  0.000000  1
  K  K35  1  0.596009  0.000000  0.500000  1
  Nb  Nb36  1  0.238236  0.000000  0.250368  1
  Nb  Nb37  1  0.000000  0.238237  0.749631  1
  Nb  Nb38  1  0.000000  0.238237  0.250368  1
  Nb  Nb39  1  0.761763  0.761764  0.250368  1
  Nb  Nb40  1  0.238236  0.000000  0.749631  1
  Nb  Nb41  1  0.761763  0.761764  0.749631  1
