# generated using pymatgen
data_MoW2(Se2S)2
_symmetry_space_group_name_H-M   'P 1'
_cell_length_a   3.27504133
_cell_length_b   3.27500450
_cell_length_c   30.22038848
_cell_angle_alpha   89.99955939
_cell_angle_beta   90.00000000
_cell_angle_gamma   120.00037187
_symmetry_Int_Tables_number   1
_chemical_formula_structural   MoW2(Se2S)2
_chemical_formula_sum   'Mo1 W2 Se4 S2'
_cell_volume   280.70990277
_cell_formula_units_Z   1
loop_
 _symmetry_equiv_pos_site_id
 _symmetry_equiv_pos_as_xyz
  1  'x, y, z'
loop_
 _atom_site_type_symbol
 _atom_site_label
 _atom_site_symmetry_multiplicity
 _atom_site_fract_x
 _atom_site_fract_y
 _atom_site_fract_z
 _atom_site_occupancy
  Mo  Mo0  1  0.666686  0.333372  0.346971  1
  W  W1  1  0.333310  0.666621  0.115637  1
  W  W2  1  0.333311  0.666622  0.578331  1
  Se  Se3  1  0.333364  0.666728  0.402879  1
  Se  Se4  1  0.666646  0.333290  0.522027  1
  Se  Se5  1  0.666646  0.333291  0.634633  1
  Se  Se6  1  0.333351  0.666703  0.291077  1
  S  S7  1  0.666644  0.333287  0.064526  1
  S  S8  1  0.666643  0.333285  0.166760  1
