# generated using pymatgen
data_In(PO3)3
_symmetry_space_group_name_H-M   'P 1'
_cell_length_a   9.84902796
_cell_length_b   11.11442894
_cell_length_c   12.12994284
_cell_angle_alpha   113.69032836
_cell_angle_beta   110.02276843
_cell_angle_gamma   97.97798239
_symmetry_Int_Tables_number   1
_chemical_formula_structural   In(PO3)3
_chemical_formula_sum   'In6 P18 O54'
_cell_volume   1081.89056446
_cell_formula_units_Z   6
loop_
 _symmetry_equiv_pos_site_id
 _symmetry_equiv_pos_as_xyz
  1  'x, y, z'
loop_
 _atom_site_type_symbol
 _atom_site_label
 _atom_site_symmetry_multiplicity
 _atom_site_fract_x
 _atom_site_fract_y
 _atom_site_fract_z
 _atom_site_occupancy
  O  O0  1  0.398033  0.259227  0.009764  1
  O  O1  1  0.888269  0.249463  0.990236  1
  O  O2  1  0.383441  0.745400  0.580261  1
  O  O3  1  0.303181  0.165140  0.419739  1
  O  O4  1  0.667484  0.886380  0.709817  1
  O  O5  1  0.457666  0.176563  0.290183  1
  O  O6  1  0.013919  0.037105  0.710290  1
  O  O7  1  0.803629  0.326815  0.289710  1
  O  O8  1  0.853796  0.141710  0.129974  1
  O  O9  1  0.223822  0.011736  0.870026  1
  O  O10  1  0.967431  0.152490  0.566382  1
  O  O11  1  0.901049  0.586108  0.433618  1
  O  O12  1  0.741383  0.086134  0.268374  1
  O  O13  1  0.973009  0.817760  0.731626  1
  O  O14  1  0.519768  0.803648  0.460962  1
  O  O15  1  0.558806  0.342686  0.539038  1
  O  O16  1  0.472169  0.992911  0.619979  1
  O  O17  1  0.352189  0.372932  0.380021  1
  O  O18  1  0.018751  0.238729  0.378479  1
  O  O19  1  0.140273  0.860251  0.621521  1
  O  O20  1  0.595051  0.704006  0.277424  1
  O  O21  1  0.817628  0.426582  0.722576  1
  O  O22  1  0.541995  0.938340  0.339974  1
  O  O23  1  0.702021  0.598367  0.660026  1
  O  O24  1  0.181452  0.558463  0.824362  1
  O  O25  1  0.857091  0.734101  0.175638  1
  O  O26  1  0.627292  0.599758  0.956060  1
  O  O27  1  0.171232  0.643698  0.043940  1
  O  O28  1  0.163814  0.578252  0.624762  1
  O  O29  1  0.039052  0.953490  0.375238  1
  O  O30  1  0.355838  0.514131  0.000091  1
  O  O31  1  0.855747  0.514040  0.999909  1
  O  O32  1  0.423000  0.640148  0.802925  1
  O  O33  1  0.120075  0.837223  0.197075  1
  O  O34  1  0.071030  0.385063  0.887873  1
  O  O35  1  0.683157  0.497190  0.112127  1
  O  O36  1  0.528561  0.798056  0.054019  1
  O  O37  1  0.974542  0.744037  0.945981  1
  O  O38  1  0.684289  0.811639  0.925703  1
  O  O39  1  0.258586  0.885936  0.074297  1
  O  O40  1  0.794692  0.426055  0.511390  1
  O  O41  1  0.783302  0.914665  0.488610  1
  O  O42  1  0.616818  0.454352  0.324021  1
  O  O43  1  0.792798  0.130332  0.675979  1
  O  O44  1  0.122585  0.242372  0.162219  1
  O  O45  1  0.460366  0.080152  0.837781  1
  O  O46  1  0.264030  0.388733  0.664338  1
  O  O47  1  0.099692  0.724395  0.335662  1
  O  O48  1  0.949905  0.022982  0.963050  1
  O  O49  1  0.486855  0.059932  0.036950  1
  O  O50  1  0.306089  0.464602  0.213933  1
  O  O51  1  0.592156  0.250669  0.786067  1
  O  O52  1  0.138099  0.473669  0.336038  1
  O  O53  1  0.302062  0.137631  0.663962  1
  P  P54  1  0.605268  0.839640  0.381821  1
  P  P55  1  0.723446  0.457818  0.618179  1
  P  P56  1  0.397560  0.112287  0.949471  1
  P  P57  1  0.948089  0.162816  0.050529  1
  P  P58  1  0.857902  0.194082  0.274758  1
  P  P59  1  0.083144  0.919324  0.725242  1
  P  P60  1  0.513774  0.853574  0.601770  1
  P  P61  1  0.412004  0.251804  0.398230  1
  P  P62  1  0.034599  0.813949  0.281508  1
  P  P63  1  0.253091  0.532441  0.718492  1
  P  P64  1  0.756934  0.576550  0.061360  1
  P  P65  1  0.195574  0.515191  0.938640  1
  P  P66  1  0.127709  0.781414  0.056592  1
  P  P67  1  0.571117  0.724822  0.943408  1
  P  P68  1  0.888653  0.068084  0.610072  1
  P  P69  1  0.778581  0.458012  0.389928  1
  P  P70  1  0.456164  0.126216  0.727218  1
  P  P71  1  0.228946  0.398999  0.272782  1
  In  In72  1  0.499767  0.988047  0.178724  1
  In  In73  1  0.821042  0.809322  0.821276  1
  In  In74  1  0.151547  0.173127  0.512285  1
  In  In75  1  0.139261  0.660842  0.487715  1
  In  In76  1  0.833262  0.322278  0.843085  1
  In  In77  1  0.490177  0.479193  0.156915  1
