# generated using pymatgen
data_TeMo2SeS2
_symmetry_space_group_name_H-M   'P 1'
_cell_length_a   3.30708377
_cell_length_b   3.30713181
_cell_length_c   38.68802007
_cell_angle_alpha   89.99861135
_cell_angle_beta   90.00000000
_cell_angle_gamma   119.99951963
_symmetry_Int_Tables_number   1
_chemical_formula_structural   TeMo2SeS2
_chemical_formula_sum   'Te2 Mo4 Se2 S4'
_cell_volume   366.44258502
_cell_formula_units_Z   2
loop_
 _symmetry_equiv_pos_site_id
 _symmetry_equiv_pos_as_xyz
  1  'x, y, z'
loop_
 _atom_site_type_symbol
 _atom_site_label
 _atom_site_symmetry_multiplicity
 _atom_site_fract_x
 _atom_site_fract_y
 _atom_site_fract_z
 _atom_site_occupancy
  Te  Te0  1  0.666752  0.333503  0.419531  1
  Te  Te1  1  0.666581  0.333161  0.518434  1
  Mo  Mo2  1  0.333353  0.666706  0.093900  1
  Mo  Mo3  1  0.333334  0.666668  0.469001  1
  Mo  Mo4  1  0.666642  0.333285  0.281358  1
  Mo  Mo5  1  0.666632  0.333264  0.658674  1
  Se  Se6  1  0.333277  0.666555  0.702071  1
  Se  Se7  1  0.333339  0.666680  0.615244  1
  S  S8  1  0.333458  0.666917  0.320893  1
  S  S9  1  0.666716  0.333430  0.054390  1
  S  S10  1  0.666668  0.333334  0.133417  1
  S  S11  1  0.333248  0.666497  0.241836  1
