# generated using pymatgen
data_LiCr3P3O13
_symmetry_space_group_name_H-M   'P 1'
_cell_length_a   6.31354523
_cell_length_b   7.42164986
_cell_length_c   10.51839001
_cell_angle_alpha   100.12817543
_cell_angle_beta   90.00000000
_cell_angle_gamma   90.00000000
_symmetry_Int_Tables_number   1
_chemical_formula_structural   LiCr3P3O13
_chemical_formula_sum   'Li2 Cr6 P6 O26'
_cell_volume   485.17906632
_cell_formula_units_Z   2
loop_
 _symmetry_equiv_pos_site_id
 _symmetry_equiv_pos_as_xyz
  1  'x, y, z'
loop_
 _atom_site_type_symbol
 _atom_site_label
 _atom_site_symmetry_multiplicity
 _atom_site_fract_x
 _atom_site_fract_y
 _atom_site_fract_z
 _atom_site_occupancy
  Li  Li0  1  0.750000  0.615483  0.138667  1
  Li  Li1  1  0.250000  0.384517  0.861333  1
  Cr  Cr2  1  0.250000  0.364001  0.197908  1
  Cr  Cr3  1  0.750000  0.635999  0.802092  1
  Cr  Cr4  1  0.250000  0.769416  0.448641  1
  Cr  Cr5  1  0.500000  0.000000  0.000000  1
  Cr  Cr6  1  0.750000  0.230584  0.551359  1
  Cr  Cr7  1  0.000000  0.000000  0.000000  1
  P  P8  1  0.250000  0.212576  0.477955  1
  P  P9  1  0.750000  0.787424  0.522045  1
  P  P10  1  0.250000  0.732248  0.770295  1
  P  P11  1  0.750000  0.267752  0.229705  1
  P  P12  1  0.750000  0.304435  0.877644  1
  P  P13  1  0.250000  0.695565  0.122357  1
  O  O14  1  0.750000  0.351932  0.738124  1
  O  O15  1  0.554803  0.738423  0.435089  1
  O  O16  1  0.250000  0.791738  0.639106  1
  O  O17  1  0.544800  0.202529  0.900296  1
  O  O18  1  0.750000  0.665500  0.626898  1
  O  O19  1  0.750000  0.867061  0.907364  1
  O  O20  1  0.250000  0.334500  0.373102  1
  O  O21  1  0.044800  0.797471  0.099704  1
  O  O22  1  0.250000  0.010536  0.409026  1
  O  O23  1  0.750000  0.989464  0.590974  1
  O  O24  1  0.060122  0.615069  0.797735  1
  O  O25  1  0.250000  0.132939  0.092636  1
  O  O26  1  0.560122  0.384931  0.202265  1
  O  O27  1  0.750000  0.504027  0.954867  1
  O  O28  1  0.750000  0.208262  0.360894  1
  O  O29  1  0.455200  0.797471  0.099704  1
  O  O30  1  0.945197  0.738423  0.435089  1
  O  O31  1  0.445197  0.261577  0.564911  1
  O  O32  1  0.439878  0.615069  0.797735  1
  O  O33  1  0.250000  0.648068  0.261876  1
  O  O34  1  0.750000  0.087936  0.120471  1
  O  O35  1  0.250000  0.912064  0.879529  1
  O  O36  1  0.939878  0.384931  0.202265  1
  O  O37  1  0.955200  0.202529  0.900296  1
  O  O38  1  0.054803  0.261577  0.564911  1
  O  O39  1  0.250000  0.495973  0.045133  1
