# generated using pymatgen
data_TeMoWSe2S
_symmetry_space_group_name_H-M   'P 1'
_cell_length_a   3.34549955
_cell_length_b   3.34571318
_cell_length_c   38.12488406
_cell_angle_alpha   90.00019898
_cell_angle_beta   89.99999971
_cell_angle_gamma   119.99899615
_symmetry_Int_Tables_number   1
_chemical_formula_structural   TeMoWSe2S
_chemical_formula_sum   'Te2 Mo2 W2 Se4 S2'
_cell_volume   369.56704705
_cell_formula_units_Z   2
loop_
 _symmetry_equiv_pos_site_id
 _symmetry_equiv_pos_as_xyz
  1  'x, y, z'
loop_
 _atom_site_type_symbol
 _atom_site_label
 _atom_site_symmetry_multiplicity
 _atom_site_fract_x
 _atom_site_fract_y
 _atom_site_fract_z
 _atom_site_occupancy
  Te  Te0  1  0.333359  0.666717  0.707626  1
  Te  Te1  1  0.333355  0.666710  0.607524  1
  Mo  Mo2  1  0.333315  0.666630  0.093915  1
  Mo  Mo3  1  0.666714  0.333404  0.281794  1
  W  W4  1  0.333313  0.666624  0.469617  1
  W  W5  1  0.666689  0.333378  0.657593  1
  Se  Se6  1  0.666644  0.333287  0.050186  1
  Se  Se7  1  0.666644  0.333287  0.425669  1
  Se  Se8  1  0.666650  0.333298  0.137659  1
  Se  Se9  1  0.666639  0.333277  0.513576  1
  S  S10  1  0.333338  0.666691  0.321597  1
  S  S11  1  0.333341  0.666697  0.241993  1
