# generated using pymatgen
data_HeSiO2
_symmetry_space_group_name_H-M   'P 1'
_cell_length_a   8.98864910
_cell_length_b   5.18933151
_cell_length_c   10.47564750
_cell_angle_alpha   90.00000000
_cell_angle_beta   124.59510089
_cell_angle_gamma   90.00000000
_symmetry_Int_Tables_number   1
_chemical_formula_structural   HeSiO2
_chemical_formula_sum   'He8 Si8 O16'
_cell_volume   402.23895169
_cell_formula_units_Z   8
loop_
 _symmetry_equiv_pos_site_id
 _symmetry_equiv_pos_as_xyz
  1  'x, y, z'
loop_
 _atom_site_type_symbol
 _atom_site_label
 _atom_site_symmetry_multiplicity
 _atom_site_fract_x
 _atom_site_fract_y
 _atom_site_fract_z
 _atom_site_occupancy
  He  He0  1  0.622555  0.807291  0.042653  1
  He  He1  1  0.377445  0.307291  0.457347  1
  He  He2  1  0.377445  0.192709  0.957347  1
  He  He3  1  0.622555  0.692709  0.542653  1
  He  He4  1  0.130867  0.196488  0.044193  1
  He  He5  1  0.869133  0.696488  0.455807  1
  He  He6  1  0.869133  0.803512  0.955807  1
  He  He7  1  0.130867  0.303512  0.544193  1
  Si  Si8  1  0.625505  0.196063  0.316562  1
  Si  Si9  1  0.374495  0.696063  0.183438  1
  Si  Si10  1  0.374495  0.803937  0.683438  1
  Si  Si11  1  0.625505  0.303937  0.816562  1
  Si  Si12  1  0.875231  0.300380  0.191015  1
  Si  Si13  1  0.124769  0.800380  0.308985  1
  Si  Si14  1  0.124769  0.699620  0.808985  1
  Si  Si15  1  0.875231  0.199620  0.691015  1
  O  O16  1  0.759437  0.244610  0.262385  1
  O  O17  1  0.240563  0.744610  0.237615  1
  O  O18  1  0.240563  0.755390  0.737615  1
  O  O19  1  0.759437  0.255390  0.762385  1
  O  O20  1  0.741468  0.188418  0.503938  1
  O  O21  1  0.258532  0.688418  0.996062  1
  O  O22  1  0.258532  0.811582  0.496062  1
  O  O23  1  0.741468  0.311582  0.003938  1
  O  O24  1  0.475165  0.422042  0.252184  1
  O  O25  1  0.524835  0.922042  0.247816  1
  O  O26  1  0.524835  0.577958  0.747816  1
  O  O27  1  0.475165  0.077958  0.752184  1
  O  O28  1  0.024739  0.076129  0.243693  1
  O  O29  1  0.975261  0.576129  0.256307  1
  O  O30  1  0.975261  0.923871  0.756307  1
  O  O31  1  0.024739  0.423871  0.743693  1
