# generated using pymatgen
data_NaZr2PdF11
_symmetry_space_group_name_H-M   'P 1'
_cell_length_a   5.86043103
_cell_length_b   5.86043103
_cell_length_c   7.96573222
_cell_angle_alpha   69.50409660
_cell_angle_beta   69.50409662
_cell_angle_gamma   73.05322391
_symmetry_Int_Tables_number   1
_chemical_formula_structural   NaZr2PdF11
_chemical_formula_sum   'Na1 Zr2 Pd1 F11'
_cell_volume   235.55114668
_cell_formula_units_Z   1
loop_
 _symmetry_equiv_pos_site_id
 _symmetry_equiv_pos_as_xyz
  1  'x, y, z'
loop_
 _atom_site_type_symbol
 _atom_site_label
 _atom_site_symmetry_multiplicity
 _atom_site_fract_x
 _atom_site_fract_y
 _atom_site_fract_z
 _atom_site_occupancy
  F  F0  1  0.799620  0.219744  0.700318  1
  F  F1  1  0.780256  0.200380  0.299682  1
  F  F2  1  0.200380  0.780256  0.299682  1
  F  F3  1  0.219744  0.799620  0.700318  1
  F  F4  1  0.500000  0.500000  0.500000  1
  F  F5  1  0.332545  0.667455  0.000000  1
  F  F6  1  0.667455  0.332545  0.000000  1
  F  F7  1  0.258255  0.258255  0.350133  1
  F  F8  1  0.741745  0.741745  0.649867  1
  F  F9  1  0.266153  0.266153  0.889638  1
  F  F10  1  0.733847  0.733847  0.110362  1
  Na  Na11  1  0.000000  0.000000  0.000000  1
  Zr  Zr12  1  0.500337  0.500337  0.768074  1
  Zr  Zr13  1  0.499663  0.499663  0.231926  1
  Pd  Pd14  1  0.000000  0.000000  0.500000  1
