# generated using pymatgen
data_CeCu5Au
_symmetry_space_group_name_H-M   'P 1'
_cell_length_a   5.03529413
_cell_length_b   8.23457124
_cell_length_c   10.37949111
_cell_angle_alpha   90.00000000
_cell_angle_beta   90.00000000
_cell_angle_gamma   90.00000000
_symmetry_Int_Tables_number   1
_chemical_formula_structural   CeCu5Au
_chemical_formula_sum   'Ce4 Cu20 Au4'
_cell_volume   430.36990745
_cell_formula_units_Z   4
loop_
 _symmetry_equiv_pos_site_id
 _symmetry_equiv_pos_as_xyz
  1  'x, y, z'
loop_
 _atom_site_type_symbol
 _atom_site_label
 _atom_site_symmetry_multiplicity
 _atom_site_fract_x
 _atom_site_fract_y
 _atom_site_fract_z
 _atom_site_occupancy
  Cu  Cu0  1  0.998705  0.065662  0.687008  1
  Cu  Cu1  1  0.498705  0.934338  0.312992  1
  Cu  Cu2  1  0.501295  0.565662  0.812992  1
  Cu  Cu3  1  0.001295  0.434338  0.187008  1
  Cu  Cu4  1  0.001295  0.934338  0.312992  1
  Cu  Cu5  1  0.501295  0.065662  0.687008  1
  Cu  Cu6  1  0.498705  0.434338  0.187008  1
  Cu  Cu7  1  0.998705  0.565662  0.812992  1
  Cu  Cu8  1  0.750000  0.444920  0.393958  1
  Cu  Cu9  1  0.250000  0.555080  0.606042  1
  Cu  Cu10  1  0.750000  0.944920  0.106042  1
  Cu  Cu11  1  0.250000  0.055080  0.893958  1
  Cu  Cu12  1  0.750000  0.185557  0.253249  1
  Cu  Cu13  1  0.250000  0.814443  0.746751  1
  Cu  Cu14  1  0.750000  0.685557  0.246751  1
  Cu  Cu15  1  0.250000  0.314443  0.753249  1
  Cu  Cu16  1  0.750000  0.089738  0.483874  1
  Cu  Cu17  1  0.250000  0.910262  0.516126  1
  Cu  Cu18  1  0.750000  0.589738  0.016126  1
  Cu  Cu19  1  0.250000  0.410262  0.983874  1
  Ce  Ce20  1  0.250000  0.759618  0.064512  1
  Ce  Ce21  1  0.750000  0.240382  0.935488  1
  Ce  Ce22  1  0.250000  0.259618  0.435488  1
  Ce  Ce23  1  0.750000  0.740382  0.564512  1
  Au  Au24  1  0.250000  0.639429  0.362023  1
  Au  Au25  1  0.750000  0.360571  0.637977  1
  Au  Au26  1  0.250000  0.139429  0.137977  1
  Au  Au27  1  0.750000  0.860571  0.862023  1
