# generated using pymatgen
data_TeW2Se2S
_symmetry_space_group_name_H-M   'P 1'
_cell_length_a   3.34299303
_cell_length_b   3.34299902
_cell_length_c   38.19164938
_cell_angle_alpha   90.00024517
_cell_angle_beta   90.00000000
_cell_angle_gamma   119.99994085
_symmetry_Int_Tables_number   1
_chemical_formula_structural   TeW2Se2S
_chemical_formula_sum   'Te2 W4 Se4 S2'
_cell_volume   369.63324528
_cell_formula_units_Z   2
loop_
 _symmetry_equiv_pos_site_id
 _symmetry_equiv_pos_as_xyz
  1  'x, y, z'
loop_
 _atom_site_type_symbol
 _atom_site_label
 _atom_site_symmetry_multiplicity
 _atom_site_fract_x
 _atom_site_fract_y
 _atom_site_fract_z
 _atom_site_occupancy
  Te  Te0  1  0.666651  0.333301  0.419672  1
  Te  Te1  1  0.666650  0.333299  0.519585  1
  W  W2  1  0.333303  0.666606  0.093907  1
  W  W3  1  0.333316  0.666632  0.469624  1
  W  W4  1  0.666691  0.333383  0.281766  1
  W  W5  1  0.666688  0.333376  0.657617  1
  Se  Se6  1  0.333352  0.666704  0.701510  1
  Se  Se7  1  0.666634  0.333268  0.049989  1
  Se  Se8  1  0.666646  0.333291  0.137828  1
  Se  Se9  1  0.333352  0.666706  0.613683  1
  S  S10  1  0.333356  0.666713  0.321627  1
  S  S11  1  0.333360  0.666720  0.241941  1
