# generated using pymatgen
data_Nb5(NiP)4
_symmetry_space_group_name_H-M   'P 1'
_cell_length_a   3.53382507
_cell_length_b   7.28516532
_cell_length_c   7.28516532
_cell_angle_alpha   86.62771177
_cell_angle_beta   75.96375324
_cell_angle_gamma   75.96375325
_symmetry_Int_Tables_number   1
_chemical_formula_structural   Nb5(NiP)4
_chemical_formula_sum   'Nb5 Ni4 P4'
_cell_volume   176.52040666
_cell_formula_units_Z   1
loop_
 _symmetry_equiv_pos_site_id
 _symmetry_equiv_pos_as_xyz
  1  'x, y, z'
loop_
 _atom_site_type_symbol
 _atom_site_label
 _atom_site_symmetry_multiplicity
 _atom_site_fract_x
 _atom_site_fract_y
 _atom_site_fract_z
 _atom_site_occupancy
  P  P0  1  0.555552  0.204181  0.684714  1
  P  P1  1  0.240267  0.315286  0.204181  1
  P  P2  1  0.759733  0.684714  0.795819  1
  P  P3  1  0.444448  0.795819  0.315286  1
  Ni  Ni4  1  0.914882  0.694914  0.475323  1
  Ni  Ni5  1  0.085118  0.305086  0.524677  1
  Ni  Ni6  1  0.609796  0.475323  0.305086  1
  Ni  Ni7  1  0.390204  0.524677  0.694914  1
  Nb  Nb8  1  0.805272  0.063821  0.325635  1
  Nb  Nb9  1  0.130907  0.674365  0.063821  1
  Nb  Nb10  1  0.869093  0.325635  0.936179  1
  Nb  Nb11  1  0.194728  0.936179  0.674365  1
  Nb  Nb12  1  0.500000  0.000000  0.000000  1
