# generated using pymatgen
data_TeMoWSe2S
_symmetry_space_group_name_H-M   'P 1'
_cell_length_a   3.34091119
_cell_length_b   3.34089982
_cell_length_c   38.07192745
_cell_angle_alpha   90.00037878
_cell_angle_beta   90.00000000
_cell_angle_gamma   120.00011245
_symmetry_Int_Tables_number   1
_chemical_formula_structural   TeMoWSe2S
_chemical_formula_sum   'Te2 Mo2 W2 Se4 S2'
_cell_volume   368.01319330
_cell_formula_units_Z   2
loop_
 _symmetry_equiv_pos_site_id
 _symmetry_equiv_pos_as_xyz
  1  'x, y, z'
loop_
 _atom_site_type_symbol
 _atom_site_label
 _atom_site_symmetry_multiplicity
 _atom_site_fract_x
 _atom_site_fract_y
 _atom_site_fract_z
 _atom_site_occupancy
  Te  Te0  1  0.666650  0.333300  0.419891  1
  Te  Te1  1  0.666650  0.333300  0.519486  1
  Mo  Mo2  1  0.333311  0.666623  0.093926  1
  Mo  Mo3  1  0.333310  0.666621  0.469663  1
  W  W4  1  0.666690  0.333380  0.281782  1
  W  W5  1  0.666691  0.333382  0.657542  1
  Se  Se6  1  0.333351  0.666704  0.325760  1
  Se  Se7  1  0.666647  0.333293  0.050125  1
  Se  Se8  1  0.666637  0.333273  0.137700  1
  Se  Se9  1  0.333349  0.666700  0.237787  1
  S  S10  1  0.333355  0.666711  0.697559  1
  S  S11  1  0.333357  0.666715  0.617528  1
