# generated using pymatgen
data_CrN2
_symmetry_space_group_name_H-M   'P 1'
_cell_length_a   4.39024564
_cell_length_b   4.75683073
_cell_length_c   8.94037257
_cell_angle_alpha   105.42822033
_cell_angle_beta   104.21311434
_cell_angle_gamma   89.99999123
_symmetry_Int_Tables_number   1
_chemical_formula_structural   CrN2
_chemical_formula_sum   'Cr4 N8'
_cell_volume   174.04348242
_cell_formula_units_Z   4
loop_
 _symmetry_equiv_pos_site_id
 _symmetry_equiv_pos_as_xyz
  1  'x, y, z'
loop_
 _atom_site_type_symbol
 _atom_site_label
 _atom_site_symmetry_multiplicity
 _atom_site_fract_x
 _atom_site_fract_y
 _atom_site_fract_z
 _atom_site_occupancy
  Cr  Cr0  1  0.689286  0.939286  0.378573  1
  Cr  Cr1  1  0.810714  0.560714  0.621427  1
  Cr  Cr2  1  0.438667  0.688667  0.877333  1
  Cr  Cr3  1  0.061333  0.811333  0.122667  1
  N  N4  1  0.127846  0.798660  0.748453  1
  N  N5  1  0.620607  0.449793  0.748453  1
  N  N6  1  0.372154  0.050207  0.251547  1
  N  N7  1  0.879393  0.701340  0.251547  1
  N  N8  1  0.922589  0.250000  0.500000  1
  N  N9  1  0.577411  0.750000  0.500000  1
  N  N10  1  0.750000  0.942576  -0.000000  1
  N  N11  1  0.250000  0.557424  -0.000000  1
