# generated using pymatgen
data_CsBPb(IF2)2
_symmetry_space_group_name_H-M   'P 1'
_cell_length_a   6.13235697
_cell_length_b   6.13198212
_cell_length_c   7.00539939
_cell_angle_alpha   89.16935638
_cell_angle_beta   89.23087951
_cell_angle_gamma   90.59182130
_symmetry_Int_Tables_number   1
_chemical_formula_structural   CsBPb(IF2)2
_chemical_formula_sum   'Cs1 B1 Pb1 I2 F4'
_cell_volume   263.36155461
_cell_formula_units_Z   1
loop_
 _symmetry_equiv_pos_site_id
 _symmetry_equiv_pos_as_xyz
  1  'x, y, z'
loop_
 _atom_site_type_symbol
 _atom_site_label
 _atom_site_symmetry_multiplicity
 _atom_site_fract_x
 _atom_site_fract_y
 _atom_site_fract_z
 _atom_site_occupancy
  Cs  Cs0  1  0.515190  0.470932  0.503705  1
  B  B1  1  0.988854  0.998778  0.503440  1
  Pb  Pb2  1  0.995739  0.992004  0.003514  1
  I  I3  1  0.004179  0.493503  0.884553  1
  I  I4  1  0.493768  0.981822  0.122514  1
  F  F5  1  0.801042  0.000432  0.624805  1
  F  F6  1  0.989636  0.186014  0.381363  1
  F  F7  1  0.177541  0.000679  0.618917  1
  F  F8  1  0.985346  0.809477  0.388839  1
