# generated using pymatgen
data_AgF3
_symmetry_space_group_name_H-M   'P 1'
_cell_length_a   5.19554040
_cell_length_b   5.19554040
_cell_length_c   15.42980954
_cell_angle_alpha   90.00000000
_cell_angle_beta   90.00000000
_cell_angle_gamma   120.00000002
_symmetry_Int_Tables_number   1
_chemical_formula_structural   AgF3
_chemical_formula_sum   'Ag6 F18'
_cell_volume   360.70540424
_cell_formula_units_Z   6
loop_
 _symmetry_equiv_pos_site_id
 _symmetry_equiv_pos_as_xyz
  1  'x, y, z'
loop_
 _atom_site_type_symbol
 _atom_site_label
 _atom_site_symmetry_multiplicity
 _atom_site_fract_x
 _atom_site_fract_y
 _atom_site_fract_z
 _atom_site_occupancy
  F  F0  1  0.892632  0.555488  0.164321  1
  F  F1  1  0.444512  0.337145  0.497654  1
  F  F2  1  0.662855  0.107368  0.830987  1
  F  F3  1  0.337145  0.892632  0.330987  1
  F  F4  1  0.107368  0.662855  0.502346  1
  F  F5  1  0.107368  0.444512  0.664321  1
  F  F6  1  0.257326  0.000000  0.000000  1
  F  F7  1  0.257326  0.257326  0.166667  1
  F  F8  1  0.000000  0.742674  0.833333  1
  F  F9  1  0.000000  0.257326  0.333333  1
  F  F10  1  0.742674  0.742674  0.666667  1
  F  F11  1  0.742674  0.000000  0.500000  1
  F  F12  1  0.892632  0.337145  0.002346  1
  F  F13  1  0.555488  0.892632  0.169013  1
  F  F14  1  0.337145  0.444512  0.835679  1
  F  F15  1  0.662855  0.555488  0.335679  1
  F  F16  1  0.444512  0.107368  0.669013  1
  F  F17  1  0.555488  0.662855  0.997654  1
  Ag  Ag18  1  0.709100  0.418200  0.750000  1
  Ag  Ag19  1  0.290900  0.709100  0.916667  1
  Ag  Ag20  1  0.418200  0.709100  0.583333  1
  Ag  Ag21  1  0.581800  0.290900  0.083333  1
  Ag  Ag22  1  0.709100  0.290900  0.416667  1
  Ag  Ag23  1  0.290900  0.581800  0.250000  1
