# generated using pymatgen
data_TeW2Se2S
_symmetry_space_group_name_H-M   'P 1'
_cell_length_a   3.34231363
_cell_length_b   3.34231823
_cell_length_c   38.09946808
_cell_angle_alpha   89.99933513
_cell_angle_beta   90.00000000
_cell_angle_gamma   119.99995457
_symmetry_Int_Tables_number   1
_chemical_formula_structural   TeW2Se2S
_chemical_formula_sum   'Te2 W4 Se4 S2'
_cell_volume   368.59101182
_cell_formula_units_Z   2
loop_
 _symmetry_equiv_pos_site_id
 _symmetry_equiv_pos_as_xyz
  1  'x, y, z'
loop_
 _atom_site_type_symbol
 _atom_site_label
 _atom_site_symmetry_multiplicity
 _atom_site_fract_x
 _atom_site_fract_y
 _atom_site_fract_z
 _atom_site_occupancy
  Te  Te0  1  0.333353  0.666707  0.707597  1
  Te  Te1  1  0.333353  0.666706  0.607490  1
  W  W2  1  0.333313  0.666625  0.093902  1
  W  W3  1  0.333312  0.666623  0.469664  1
  W  W4  1  0.666689  0.333377  0.281813  1
  W  W5  1  0.666690  0.333379  0.657562  1
  Se  Se6  1  0.333352  0.666704  0.325721  1
  Se  Se7  1  0.666642  0.333282  0.049997  1
  Se  Se8  1  0.666649  0.333297  0.137822  1
  Se  Se9  1  0.333356  0.666714  0.237870  1
  S  S10  1  0.666647  0.333293  0.429693  1
  S  S11  1  0.666646  0.333291  0.509616  1
