# generated using pymatgen
data_Na4Zn3S5
_symmetry_space_group_name_H-M   'P 1'
_cell_length_a   3.93137095
_cell_length_b   13.18878382
_cell_length_c   18.87495155
_cell_angle_alpha   90.00000000
_cell_angle_beta   90.00000000
_cell_angle_gamma   90.00000000
_symmetry_Int_Tables_number   1
_chemical_formula_structural   Na4Zn3S5
_chemical_formula_sum   'Na16 Zn12 S20'
_cell_volume   978.66626761
_cell_formula_units_Z   4
loop_
 _symmetry_equiv_pos_site_id
 _symmetry_equiv_pos_as_xyz
  1  'x, y, z'
loop_
 _atom_site_type_symbol
 _atom_site_label
 _atom_site_symmetry_multiplicity
 _atom_site_fract_x
 _atom_site_fract_y
 _atom_site_fract_z
 _atom_site_occupancy
  Na  Na0  1  0.750000  0.502322  0.735195  1
  Na  Na1  1  0.750000  0.002322  0.764805  1
  Na  Na2  1  0.250000  0.497678  0.264805  1
  Na  Na3  1  0.250000  0.997678  0.235195  1
  Na  Na4  1  0.750000  0.492538  0.082808  1
  Na  Na5  1  0.750000  0.992538  0.417192  1
  Na  Na6  1  0.250000  0.507462  0.917192  1
  Na  Na7  1  0.250000  0.007462  0.582808  1
  Na  Na8  1  0.750000  0.390576  0.549415  1
  Na  Na9  1  0.750000  0.890576  0.950585  1
  Na  Na10  1  0.250000  0.609424  0.450585  1
  Na  Na11  1  0.250000  0.109424  0.049415  1
  Na  Na12  1  0.750000  0.226776  0.666248  1
  Na  Na13  1  0.750000  0.726776  0.833752  1
  Na  Na14  1  0.250000  0.773224  0.333752  1
  Na  Na15  1  0.250000  0.273224  0.166248  1
  Zn  Zn16  1  0.750000  0.290676  0.958992  1
  Zn  Zn17  1  0.750000  0.790676  0.541008  1
  Zn  Zn18  1  0.250000  0.709324  0.041008  1
  Zn  Zn19  1  0.250000  0.209324  0.458992  1
  Zn  Zn20  1  0.750000  0.180724  0.283019  1
  Zn  Zn21  1  0.750000  0.680724  0.216981  1
  Zn  Zn22  1  0.250000  0.819276  0.716981  1
  Zn  Zn23  1  0.250000  0.319276  0.783019  1
  Zn  Zn24  1  0.750000  0.924104  0.131204  1
  Zn  Zn25  1  0.750000  0.424104  0.368796  1
  Zn  Zn26  1  0.250000  0.075896  0.868796  1
  Zn  Zn27  1  0.250000  0.575896  0.631204  1
  S  S28  1  0.750000  0.374931  0.846743  1
  S  S29  1  0.750000  0.874931  0.653257  1
  S  S30  1  0.250000  0.625069  0.153257  1
  S  S31  1  0.250000  0.125069  0.346743  1
  S  S32  1  0.750000  0.351735  0.254779  1
  S  S33  1  0.750000  0.851735  0.245221  1
  S  S34  1  0.250000  0.648265  0.745221  1
  S  S35  1  0.250000  0.148265  0.754779  1
  S  S36  1  0.750000  0.157342  0.522590  1
  S  S37  1  0.750000  0.657342  0.977410  1
  S  S38  1  0.250000  0.842658  0.477410  1
  S  S39  1  0.250000  0.342658  0.022590  1
  S  S40  1  0.750000  0.106923  0.161519  1
  S  S41  1  0.750000  0.606923  0.338481  1
  S  S42  1  0.250000  0.893077  0.838481  1
  S  S43  1  0.250000  0.393077  0.661519  1
  S  S44  1  0.750000  0.111690  0.936675  1
  S  S45  1  0.750000  0.611690  0.563325  1
  S  S46  1  0.250000  0.888310  0.063325  1
  S  S47  1  0.250000  0.388310  0.436675  1
