# generated using pymatgen
data_YbSiIr
_symmetry_space_group_name_H-M   'P 1'
_cell_length_a   4.29490892
_cell_length_b   7.19020839
_cell_length_c   6.91845908
_cell_angle_alpha   90.00000000
_cell_angle_beta   90.00000000
_cell_angle_gamma   90.00000000
_symmetry_Int_Tables_number   1
_chemical_formula_structural   YbSiIr
_chemical_formula_sum   'Yb4 Si4 Ir4'
_cell_volume   213.65094225
_cell_formula_units_Z   4
loop_
 _symmetry_equiv_pos_site_id
 _symmetry_equiv_pos_as_xyz
  1  'x, y, z'
loop_
 _atom_site_type_symbol
 _atom_site_label
 _atom_site_symmetry_multiplicity
 _atom_site_fract_x
 _atom_site_fract_y
 _atom_site_fract_z
 _atom_site_occupancy
  Si  Si0  1  0.250000  0.689521  0.388438  1
  Si  Si1  1  0.250000  0.189521  0.111562  1
  Si  Si2  1  0.750000  0.310479  0.611562  1
  Si  Si3  1  0.750000  0.810479  0.888438  1
  Yb  Yb4  1  0.750000  0.493098  0.172644  1
  Yb  Yb5  1  0.250000  0.006902  0.672644  1
  Yb  Yb6  1  0.750000  0.993098  0.327356  1
  Yb  Yb7  1  0.250000  0.506902  0.827356  1
  Ir  Ir8  1  0.250000  0.851864  0.073417  1
  Ir  Ir9  1  0.250000  0.351864  0.426583  1
  Ir  Ir10  1  0.750000  0.648136  0.573417  1
  Ir  Ir11  1  0.750000  0.148136  0.926583  1
