# generated using pymatgen
data_SiP2O7
_symmetry_space_group_name_H-M   'P 1'
_cell_length_a   7.73366746
_cell_length_b   7.73366746
_cell_length_c   7.73366746
_cell_angle_alpha   90.00000000
_cell_angle_beta   90.00000000
_cell_angle_gamma   90.00000000
_symmetry_Int_Tables_number   1
_chemical_formula_structural   SiP2O7
_chemical_formula_sum   'Si4 P8 O28'
_cell_volume   462.54765307
_cell_formula_units_Z   4
loop_
 _symmetry_equiv_pos_site_id
 _symmetry_equiv_pos_as_xyz
  1  'x, y, z'
loop_
 _atom_site_type_symbol
 _atom_site_label
 _atom_site_symmetry_multiplicity
 _atom_site_fract_x
 _atom_site_fract_y
 _atom_site_fract_z
 _atom_site_occupancy
  O  O0  1  0.939100  0.195244  0.101233  1
  O  O1  1  0.439100  0.304756  0.898767  1
  O  O2  1  0.060900  0.695244  0.398767  1
  O  O3  1  0.304756  0.898767  0.439100  1
  O  O4  1  0.398767  0.060900  0.695244  1
  O  O5  1  0.898767  0.439100  0.304756  1
  O  O6  1  0.195244  0.101233  0.939100  1
  O  O7  1  0.101233  0.939100  0.195244  1
  O  O8  1  0.695244  0.398767  0.060900  1
  O  O9  1  0.804756  0.601233  0.560900  1
  O  O10  1  0.601233  0.560900  0.804756  1
  O  O11  1  0.560900  0.804756  0.601233  1
  O  O12  1  0.500000  0.500000  0.500000  1
  O  O13  1  0.000000  0.500000  0.000000  1
  O  O14  1  0.000000  0.000000  0.500000  1
  O  O15  1  0.500000  0.000000  0.000000  1
  O  O16  1  0.439100  0.195244  0.398767  1
  O  O17  1  0.398767  0.439100  0.195244  1
  O  O18  1  0.195244  0.398767  0.439100  1
  O  O19  1  0.304756  0.601233  0.939100  1
  O  O20  1  0.898767  0.060900  0.804756  1
  O  O21  1  0.804756  0.898767  0.060900  1
  O  O22  1  0.101233  0.560900  0.695244  1
  O  O23  1  0.601233  0.939100  0.304756  1
  O  O24  1  0.695244  0.101233  0.560900  1
  O  O25  1  0.939100  0.304756  0.601233  1
  O  O26  1  0.560900  0.695244  0.101233  1
  O  O27  1  0.060900  0.804756  0.898767  1
  Si  Si28  1  0.000000  0.000000  0.000000  1
  Si  Si29  1  0.500000  0.000000  0.500000  1
  Si  Si30  1  0.500000  0.500000  0.000000  1
  Si  Si31  1  0.000000  0.500000  0.500000  1
  P  P32  1  0.619006  0.880994  0.119006  1
  P  P33  1  0.880994  0.119006  0.619006  1
  P  P34  1  0.119006  0.619006  0.880994  1
  P  P35  1  0.380994  0.380994  0.380994  1
  P  P36  1  0.619006  0.619006  0.619006  1
  P  P37  1  0.880994  0.380994  0.119006  1
  P  P38  1  0.119006  0.880994  0.380994  1
  P  P39  1  0.380994  0.119006  0.880994  1
