# generated using pymatgen
data_TeMoWSe2S
_symmetry_space_group_name_H-M   'P 1'
_cell_length_a   3.34353381
_cell_length_b   3.34352568
_cell_length_c   38.06416653
_cell_angle_alpha   90.00021354
_cell_angle_beta   90.00000000
_cell_angle_gamma   120.00008036
_symmetry_Int_Tables_number   1
_chemical_formula_structural   TeMoWSe2S
_chemical_formula_sum   'Te2 Mo2 W2 Se4 S2'
_cell_volume   368.51654152
_cell_formula_units_Z   2
loop_
 _symmetry_equiv_pos_site_id
 _symmetry_equiv_pos_as_xyz
  1  'x, y, z'
loop_
 _atom_site_type_symbol
 _atom_site_label
 _atom_site_symmetry_multiplicity
 _atom_site_fract_x
 _atom_site_fract_y
 _atom_site_fract_z
 _atom_site_occupancy
  Te  Te0  1  0.666648  0.333294  0.419588  1
  Te  Te1  1  0.666650  0.333298  0.519759  1
  Mo  Mo2  1  0.333309  0.666617  0.093915  1
  Mo  Mo3  1  0.666688  0.333376  0.281759  1
  W  W4  1  0.333311  0.666623  0.469671  1
  W  W5  1  0.666691  0.333383  0.657553  1
  Se  Se6  1  0.333352  0.666706  0.325525  1
  Se  Se7  1  0.666642  0.333284  0.050189  1
  Se  Se8  1  0.666647  0.333294  0.137653  1
  Se  Se9  1  0.333350  0.666701  0.238051  1
  S  S10  1  0.333356  0.666713  0.697565  1
  S  S11  1  0.333355  0.666711  0.617520  1
