# generated using pymatgen
data_Te2MoWSe2
_symmetry_space_group_name_H-M   'P 1'
_cell_length_a   3.43544945
_cell_length_b   3.43540378
_cell_length_c   39.11859687
_cell_angle_alpha   90.00031711
_cell_angle_beta   90.00000000
_cell_angle_gamma   120.00043962
_symmetry_Int_Tables_number   1
_chemical_formula_structural   Te2MoWSe2
_chemical_formula_sum   'Te4 Mo2 W2 Se4'
_cell_volume   399.82811459
_cell_formula_units_Z   2
loop_
 _symmetry_equiv_pos_site_id
 _symmetry_equiv_pos_as_xyz
  1  'x, y, z'
loop_
 _atom_site_type_symbol
 _atom_site_label
 _atom_site_symmetry_multiplicity
 _atom_site_fract_x
 _atom_site_fract_y
 _atom_site_fract_z
 _atom_site_occupancy
  Te  Te0  1  0.333356  0.666714  0.705011  1
  Te  Te1  1  0.666644  0.333286  0.046447  1
  Te  Te2  1  0.666645  0.333289  0.141412  1
  Te  Te3  1  0.333355  0.666711  0.610046  1
  Mo  Mo4  1  0.333308  0.666616  0.093920  1
  Mo  Mo5  1  0.666692  0.333384  0.657538  1
  W  W6  1  0.333313  0.666626  0.469640  1
  W  W7  1  0.666687  0.333374  0.281818  1
  Se  Se8  1  0.333354  0.666709  0.323838  1
  Se  Se9  1  0.666646  0.333291  0.427620  1
  Se  Se10  1  0.666648  0.333296  0.511681  1
  Se  Se11  1  0.333352  0.666704  0.239777  1
