# generated using pymatgen
data_Dy2Si2O7
_symmetry_space_group_name_H-M   'P 1'
_cell_length_a   6.65141734
_cell_length_b   6.69331619
_cell_length_c   12.15559676
_cell_angle_alpha   94.56329930
_cell_angle_beta   88.94146531
_cell_angle_gamma   88.25627949
_symmetry_Int_Tables_number   1
_chemical_formula_structural   Dy2Si2O7
_chemical_formula_sum   'Dy8 Si8 O28'
_cell_volume   539.08378796
_cell_formula_units_Z   4
loop_
 _symmetry_equiv_pos_site_id
 _symmetry_equiv_pos_as_xyz
  1  'x, y, z'
loop_
 _atom_site_type_symbol
 _atom_site_label
 _atom_site_symmetry_multiplicity
 _atom_site_fract_x
 _atom_site_fract_y
 _atom_site_fract_z
 _atom_site_occupancy
  Dy  Dy0  1  0.371054  0.783800  0.367514  1
  Dy  Dy1  1  0.327243  0.170997  0.891461  1
  Dy  Dy2  1  0.672757  0.829003  0.108539  1
  Dy  Dy3  1  0.053458  0.670737  0.885078  1
  Dy  Dy4  1  0.884637  0.093266  0.357136  1
  Dy  Dy5  1  0.115363  0.906734  0.642864  1
  Dy  Dy6  1  0.628946  0.216200  0.632486  1
  Dy  Dy7  1  0.946542  0.329263  0.114922  1
  Si  Si8  1  0.844814  0.147482  0.884094  1
  Si  Si9  1  0.486493  0.336626  0.175156  1
  Si  Si10  1  0.513507  0.663374  0.824844  1
  Si  Si11  1  0.621258  0.725115  0.595143  1
  Si  Si12  1  0.155186  0.852518  0.115906  1
  Si  Si13  1  0.143597  0.371260  0.619400  1
  Si  Si14  1  0.378742  0.274885  0.404857  1
  Si  Si15  1  0.856403  0.628740  0.380600  1
  O  O16  1  0.999128  0.668170  0.081154  1
  O  O17  1  0.702517  0.704242  0.905205  1
  O  O18  1  0.999737  0.015975  0.184070  1
  O  O19  1  0.618738  0.140610  0.210264  1
  O  O20  1  0.356640  0.508234  0.873651  1
  O  O21  1  0.074738  0.580852  0.688311  1
  O  O22  1  0.652593  0.208846  0.812577  1
  O  O23  1  0.000263  0.984025  0.815930  1
  O  O24  1  0.039115  0.773095  0.425195  1
  O  O25  1  0.227825  0.095922  0.374859  1
  O  O26  1  0.297483  0.295758  0.094795  1
  O  O27  1  0.598371  0.566592  0.693848  1
  O  O28  1  0.764206  0.086273  0.003633  1
  O  O29  1  0.288209  0.423203  0.511491  1
  O  O30  1  0.413089  0.828666  0.554118  1
  O  O31  1  0.772175  0.904078  0.625141  1
  O  O32  1  0.925262  0.419148  0.311689  1
  O  O33  1  0.000872  0.331830  0.918846  1
  O  O34  1  0.381262  0.859390  0.789736  1
  O  O35  1  0.586911  0.171334  0.445882  1
  O  O36  1  0.960885  0.226905  0.574805  1
  O  O37  1  0.235794  0.913727  0.996367  1
  O  O38  1  0.401629  0.433408  0.306152  1
  O  O39  1  0.347407  0.791154  0.187423  1
  O  O40  1  0.711791  0.576797  0.488509  1
  O  O41  1  0.713953  0.785023  0.313273  1
  O  O42  1  0.286047  0.214977  0.686727  1
  O  O43  1  0.643360  0.491766  0.126349  1
