# generated using pymatgen
data_PrSc3(BO3)4
_symmetry_space_group_name_H-M   'P 1'
_cell_length_a   6.30886927
_cell_length_b   6.30886927
_cell_length_c   12.15966690
_cell_angle_alpha   99.44146836
_cell_angle_beta   99.44146839
_cell_angle_gamma   103.62072537
_symmetry_Int_Tables_number   1
_chemical_formula_structural   PrSc3(BO3)4
_chemical_formula_sum   'Pr2 Sc6 B8 O24'
_cell_volume   453.50754969
_cell_formula_units_Z   2
loop_
 _symmetry_equiv_pos_site_id
 _symmetry_equiv_pos_as_xyz
  1  'x, y, z'
loop_
 _atom_site_type_symbol
 _atom_site_label
 _atom_site_symmetry_multiplicity
 _atom_site_fract_x
 _atom_site_fract_y
 _atom_site_fract_z
 _atom_site_occupancy
  B  B0  1  0.778339  0.729676  0.499587  1
  B  B1  1  0.270324  0.221661  0.000413  1
  B  B2  1  0.221661  0.270324  0.500413  1
  B  B3  1  0.729676  0.778339  0.999587  1
  B  B4  1  0.101049  0.495013  0.273759  1
  B  B5  1  0.504987  0.898951  0.226241  1
  B  B6  1  0.898951  0.504987  0.726241  1
  B  B7  1  0.495013  0.101049  0.773759  1
  O  O8  1  0.431307  0.888983  0.704737  1
  O  O9  1  0.111017  0.568693  0.795263  1
  O  O10  1  0.568693  0.111017  0.295263  1
  O  O11  1  0.888983  0.431307  0.204737  1
  O  O12  1  0.186884  0.008947  0.932268  1
  O  O13  1  0.991053  0.813116  0.567732  1
  O  O14  1  0.813116  0.991053  0.067732  1
  O  O15  1  0.008947  0.186884  0.432268  1
  O  O16  1  0.239612  0.356594  0.260916  1
  O  O17  1  0.643406  0.760388  0.239084  1
  O  O18  1  0.760388  0.643406  0.739084  1
  O  O19  1  0.356594  0.239612  0.760916  1
  O  O20  1  0.636014  0.867128  0.503626  1
  O  O21  1  0.132872  0.363986  0.996374  1
  O  O22  1  0.363986  0.132872  0.496374  1
  O  O23  1  0.867128  0.636014  0.003626  1
  O  O24  1  0.696537  0.163243  0.850894  1
  O  O25  1  0.836757  0.303463  0.649106  1
  O  O26  1  0.303463  0.836757  0.149106  1
  O  O27  1  0.163243  0.696537  0.350894  1
  O  O28  1  0.516332  0.707716  0.931847  1
  O  O29  1  0.292284  0.483668  0.568153  1
  O  O30  1  0.483668  0.292284  0.068153  1
  O  O31  1  0.707716  0.516332  0.431847  1
  Sc  Sc32  1  0.202351  0.703031  0.975524  1
  Sc  Sc33  1  0.296969  0.797649  0.524476  1
  Sc  Sc34  1  0.797649  0.296969  0.024476  1
  Sc  Sc35  1  0.703031  0.202351  0.475524  1
  Sc  Sc36  1  0.574198  0.425802  0.250000  1
  Sc  Sc37  1  0.425802  0.574198  0.750000  1
  Pr  Pr38  1  0.032140  0.967860  0.250000  1
  Pr  Pr39  1  0.967860  0.032140  0.750000  1
