# generated using pymatgen
data_YbBO3
_symmetry_space_group_name_H-M   'P 1'
_cell_length_a   6.64976904
_cell_length_b   6.64976904
_cell_length_c   9.08407926
_cell_angle_alpha   90.00000000
_cell_angle_beta   90.00000000
_cell_angle_gamma   119.99999999
_symmetry_Int_Tables_number   1
_chemical_formula_structural   YbBO3
_chemical_formula_sum   'Yb6 B6 O18'
_cell_volume   347.87616197
_cell_formula_units_Z   6
loop_
 _symmetry_equiv_pos_site_id
 _symmetry_equiv_pos_as_xyz
  1  'x, y, z'
loop_
 _atom_site_type_symbol
 _atom_site_label
 _atom_site_symmetry_multiplicity
 _atom_site_fract_x
 _atom_site_fract_y
 _atom_site_fract_z
 _atom_site_occupancy
  B  B0  1  0.333468  0.274651  0.750000  1
  B  B1  1  0.725349  0.058817  0.750000  1
  B  B2  1  0.941183  0.666532  0.750000  1
  B  B3  1  0.941183  0.274651  0.250000  1
  B  B4  1  0.725349  0.666532  0.250000  1
  B  B5  1  0.333468  0.058817  0.250000  1
  O  O6  1  0.650812  0.983938  0.890583  1
  O  O7  1  0.333126  0.349188  0.890583  1
  O  O8  1  0.650812  0.983938  0.609417  1
  O  O9  1  0.333126  0.349188  0.609417  1
  O  O10  1  0.333126  0.983938  0.390583  1
  O  O11  1  0.016062  0.666874  0.609417  1
  O  O12  1  0.333983  0.265503  0.250000  1
  O  O13  1  0.931520  0.666017  0.250000  1
  O  O14  1  0.734497  0.068480  0.250000  1
  O  O15  1  0.734497  0.666017  0.750000  1
  O  O16  1  0.931520  0.265503  0.750000  1
  O  O17  1  0.333983  0.068480  0.750000  1
  O  O18  1  0.333126  0.983938  0.109417  1
  O  O19  1  0.650812  0.666874  0.390583  1
  O  O20  1  0.016062  0.349188  0.390583  1
  O  O21  1  0.016062  0.349188  0.109417  1
  O  O22  1  0.650812  0.666874  0.109417  1
  O  O23  1  0.016062  0.666874  0.890583  1
  Yb  Yb24  1  0.000000  0.000000  0.500000  1
  Yb  Yb25  1  0.000000  0.000000  0.000000  1
  Yb  Yb26  1  0.666667  0.333333  0.500000  1
  Yb  Yb27  1  0.666667  0.333333  0.000000  1
  Yb  Yb28  1  0.333333  0.666667  0.500000  1
  Yb  Yb29  1  0.333333  0.666667  0.000000  1
