# generated using pymatgen
data_Cs2NbCuSe4
_symmetry_space_group_name_H-M   'P 1'
_cell_length_a   5.82861290
_cell_length_b   8.02981480
_cell_length_c   13.35981591
_cell_angle_alpha   85.45910136
_cell_angle_beta   77.40020695
_cell_angle_gamma   68.71940281
_symmetry_Int_Tables_number   1
_chemical_formula_structural   Cs2NbCuSe4
_chemical_formula_sum   'Cs4 Nb2 Cu2 Se8'
_cell_volume   568.60891133
_cell_formula_units_Z   2
loop_
 _symmetry_equiv_pos_site_id
 _symmetry_equiv_pos_as_xyz
  1  'x, y, z'
loop_
 _atom_site_type_symbol
 _atom_site_label
 _atom_site_symmetry_multiplicity
 _atom_site_fract_x
 _atom_site_fract_y
 _atom_site_fract_z
 _atom_site_occupancy
  Cu  Cu0  1  0.875000  0.250000  0.250000  1
  Cu  Cu1  1  0.125000  0.750000  0.750000  1
  Se  Se2  1  0.910637  0.563171  0.856631  1
  Se  Se3  1  0.830439  0.936829  0.643369  1
  Se  Se4  1  0.526192  0.563171  0.643369  1
  Se  Se5  1  0.232732  0.936829  0.856631  1
  Se  Se6  1  0.473808  0.436829  0.356631  1
  Se  Se7  1  0.767268  0.063171  0.143369  1
  Se  Se8  1  0.169561  0.063171  0.356631  1
  Se  Se9  1  0.089363  0.436829  0.143369  1
  Nb  Nb10  1  0.625000  0.750000  0.750000  1
  Nb  Nb11  1  0.375000  0.250000  0.250000  1
  Cs  Cs12  1  0.552768  0.250000  0.894465  1
  Cs  Cs13  1  0.197232  0.250000  0.605535  1
  Cs  Cs14  1  0.447232  0.750000  0.105535  1
  Cs  Cs15  1  0.802768  0.750000  0.394465  1
