# generated using pymatgen
data_Ba2MnWO6
_symmetry_space_group_name_H-M   'P 1'
_cell_length_a   5.90095770
_cell_length_b   5.90095770
_cell_length_c   5.90095770
_cell_angle_alpha   59.99999997
_cell_angle_beta   59.99999998
_cell_angle_gamma   59.99999995
_symmetry_Int_Tables_number   1
_chemical_formula_structural   Ba2MnWO6
_chemical_formula_sum   'Ba2 Mn1 W1 O6'
_cell_volume   145.29561436
_cell_formula_units_Z   1
loop_
 _symmetry_equiv_pos_site_id
 _symmetry_equiv_pos_as_xyz
  1  'x, y, z'
loop_
 _atom_site_type_symbol
 _atom_site_label
 _atom_site_symmetry_multiplicity
 _atom_site_fract_x
 _atom_site_fract_y
 _atom_site_fract_z
 _atom_site_occupancy
  O  O0  1  0.264788  0.735213  0.735212  1
  O  O1  1  0.264788  0.735213  0.264788  1
  O  O2  1  0.735212  0.264788  0.735212  1
  O  O3  1  0.264788  0.264788  0.735211  1
  O  O4  1  0.735212  0.264788  0.264788  1
  O  O5  1  0.735212  0.735213  0.264787  1
  Mn  Mn6  1  0.000000  0.000000  0.000000  1
  Ba  Ba7  1  0.250000  0.250000  0.250001  1
  Ba  Ba8  1  0.750000  0.749999  0.750000  1
  W  W9  1  0.500000  0.500000  0.499999  1
