# generated using pymatgen
data_Te2MoW3(SeS2)2
_symmetry_space_group_name_H-M   'P 1'
_cell_length_a   3.30890385
_cell_length_b   3.30893082
_cell_length_c   37.55383214
_cell_angle_alpha   89.99912339
_cell_angle_beta   90.00000765
_cell_angle_gamma   119.99971267
_symmetry_Int_Tables_number   1
_chemical_formula_structural   Te2MoW3(SeS2)2
_chemical_formula_sum   'Te2 Mo1 W3 Se2 S4'
_cell_volume   356.08852988
_cell_formula_units_Z   1
loop_
 _symmetry_equiv_pos_site_id
 _symmetry_equiv_pos_as_xyz
  1  'x, y, z'
loop_
 _atom_site_type_symbol
 _atom_site_label
 _atom_site_symmetry_multiplicity
 _atom_site_fract_x
 _atom_site_fract_y
 _atom_site_fract_z
 _atom_site_occupancy
  Te  Te0  1  0.333304  0.666608  0.708808  1
  Te  Te1  1  0.333329  0.666659  0.606296  1
  Mo  Mo2  1  0.333437  0.666872  0.469632  1
  W  W3  1  0.333277  0.666553  0.093913  1
  W  W4  1  0.666651  0.333303  0.281801  1
  W  W5  1  0.666655  0.333310  0.657577  1
  Se  Se6  1  0.333316  0.666632  0.326788  1
  Se  Se7  1  0.333318  0.666636  0.236818  1
  S  S8  1  0.666599  0.333198  0.053050  1
  S  S9  1  0.666762  0.333523  0.428961  1
  S  S10  1  0.666603  0.333205  0.134773  1
  S  S11  1  0.666751  0.333501  0.510330  1
