# generated using pymatgen
data_Te2MoWSeS
_symmetry_space_group_name_H-M   'P 1'
_cell_length_a   3.39930016
_cell_length_b   3.39930297
_cell_length_c   38.72283669
_cell_angle_alpha   89.99978216
_cell_angle_beta   90.00000000
_cell_angle_gamma   119.99997264
_symmetry_Int_Tables_number   1
_chemical_formula_structural   Te2MoWSeS
_chemical_formula_sum   'Te4 Mo2 W2 Se2 S2'
_cell_volume   387.50499466
_cell_formula_units_Z   2
loop_
 _symmetry_equiv_pos_site_id
 _symmetry_equiv_pos_as_xyz
  1  'x, y, z'
loop_
 _atom_site_type_symbol
 _atom_site_label
 _atom_site_symmetry_multiplicity
 _atom_site_fract_x
 _atom_site_fract_y
 _atom_site_fract_z
 _atom_site_occupancy
  Te  Te0  1  0.333359  0.666719  0.330195  1
  Te  Te1  1  0.333349  0.666700  0.706205  1
  Te  Te2  1  0.333373  0.666748  0.233438  1
  Te  Te3  1  0.333357  0.666714  0.608841  1
  Mo  Mo4  1  0.333300  0.666600  0.469668  1
  Mo  Mo5  1  0.666700  0.333400  0.281820  1
  W  W6  1  0.333303  0.666606  0.093896  1
  W  W7  1  0.666690  0.333381  0.657546  1
  Se  Se8  1  0.666621  0.333240  0.051150  1
  Se  Se9  1  0.666648  0.333294  0.136657  1
  S  S10  1  0.666650  0.333300  0.430882  1
  S  S11  1  0.666650  0.333298  0.508450  1
