# generated using pymatgen
data_Be3Cd4Si3SeO12
_symmetry_space_group_name_H-M   'P 1'
_cell_length_a   8.61132730
_cell_length_b   8.61132730
_cell_length_c   8.61132730
_cell_angle_alpha   90.00000000
_cell_angle_beta   90.00000000
_cell_angle_gamma   90.00000000
_symmetry_Int_Tables_number   1
_chemical_formula_structural   Be3Cd4Si3SeO12
_chemical_formula_sum   'Be6 Cd8 Si6 Se2 O24'
_cell_volume   638.57261312
_cell_formula_units_Z   2
loop_
 _symmetry_equiv_pos_site_id
 _symmetry_equiv_pos_as_xyz
  1  'x, y, z'
loop_
 _atom_site_type_symbol
 _atom_site_label
 _atom_site_symmetry_multiplicity
 _atom_site_fract_x
 _atom_site_fract_y
 _atom_site_fract_z
 _atom_site_occupancy
  Be  Be0  1  0.250000  0.500000  0.000000  1
  Be  Be1  1  0.500000  0.000000  0.750000  1
  Be  Be2  1  0.500000  0.000000  0.250000  1
  Be  Be3  1  0.000000  0.250000  0.500000  1
  Be  Be4  1  0.000000  0.750000  0.500000  1
  Be  Be5  1  0.750000  0.500000  0.000000  1
  O  O6  1  0.855116  0.432654  0.855221  1
  O  O7  1  0.855116  0.567346  0.144779  1
  O  O8  1  0.432654  0.855221  0.855116  1
  O  O9  1  0.567346  0.855221  0.144884  1
  O  O10  1  0.855221  0.855116  0.432654  1
  O  O11  1  0.144779  0.144884  0.432654  1
  O  O12  1  0.355116  0.355221  0.932654  1
  O  O13  1  0.144884  0.432654  0.144779  1
  O  O14  1  0.144884  0.567346  0.855221  1
  O  O15  1  0.567346  0.144779  0.855116  1
  O  O16  1  0.432654  0.144779  0.144884  1
  O  O17  1  0.855221  0.144884  0.567346  1
  O  O18  1  0.144779  0.855116  0.567346  1
  O  O19  1  0.932654  0.355116  0.355221  1
  O  O20  1  0.355221  0.932654  0.355116  1
  O  O21  1  0.644779  0.067346  0.355116  1
  O  O22  1  0.932654  0.644884  0.644779  1
  O  O23  1  0.644779  0.932654  0.644884  1
  O  O24  1  0.067346  0.644884  0.355221  1
  O  O25  1  0.067346  0.355116  0.644779  1
  O  O26  1  0.355221  0.067346  0.644884  1
  O  O27  1  0.355116  0.644779  0.067346  1
  O  O28  1  0.644884  0.355221  0.067346  1
  O  O29  1  0.644884  0.644779  0.932654  1
  Si  Si30  1  0.750000  0.000000  0.500000  1
  Si  Si31  1  0.500000  0.750000  0.000000  1
  Si  Si32  1  0.500000  0.250000  0.000000  1
  Si  Si33  1  0.250000  0.000000  0.500000  1
  Si  Si34  1  0.000000  0.500000  0.250000  1
  Si  Si35  1  0.000000  0.500000  0.750000  1
  Se  Se36  1  0.000000  0.000000  0.000000  1
  Se  Se37  1  0.500000  0.500000  0.500000  1
  Cd  Cd38  1  0.323690  0.676310  0.323690  1
  Cd  Cd39  1  0.676310  0.323690  0.323690  1
  Cd  Cd40  1  0.823690  0.823690  0.176310  1
  Cd  Cd41  1  0.176310  0.823690  0.823690  1
  Cd  Cd42  1  0.823690  0.176310  0.823690  1
  Cd  Cd43  1  0.676310  0.676310  0.676310  1
  Cd  Cd44  1  0.176310  0.176310  0.176310  1
  Cd  Cd45  1  0.323690  0.323690  0.676310  1
