# generated using pymatgen
data_La2MgGeO6
_symmetry_space_group_name_H-M   'P 1'
_cell_length_a   5.52028365
_cell_length_b   5.52028365
_cell_length_c   5.52028333
_cell_angle_alpha   60.72196207
_cell_angle_beta   60.72196197
_cell_angle_gamma   60.72196053
_symmetry_Int_Tables_number   1
_chemical_formula_structural   La2MgGeO6
_chemical_formula_sum   'La2 Mg1 Ge1 O6'
_cell_volume   120.88929568
_cell_formula_units_Z   1
loop_
 _symmetry_equiv_pos_site_id
 _symmetry_equiv_pos_as_xyz
  1  'x, y, z'
loop_
 _atom_site_type_symbol
 _atom_site_label
 _atom_site_symmetry_multiplicity
 _atom_site_fract_x
 _atom_site_fract_y
 _atom_site_fract_z
 _atom_site_occupancy
  La  La0  1  0.251228  0.251228  0.251228  1
  La  La1  1  0.749669  0.749669  0.749669  1
  Mg  Mg2  1  0.000421  0.000421  0.000421  1
  Ge  Ge3  1  0.500473  0.500473  0.500473  1
  O  O4  1  0.324005  0.737636  0.195579  1
  O  O5  1  0.737636  0.195579  0.324005  1
  O  O6  1  0.195579  0.324005  0.737636  1
  O  O7  1  0.263073  0.805701  0.676214  1
  O  O8  1  0.805701  0.676214  0.263073  1
  O  O9  1  0.676214  0.263073  0.805701  1
