# generated using pymatgen
data_Ca4Al6SO16
_symmetry_space_group_name_H-M   'P 1'
_cell_length_a   7.94646811
_cell_length_b   7.94646811
_cell_length_c   7.94646810
_cell_angle_alpha   109.47122062
_cell_angle_beta   109.47122062
_cell_angle_gamma   109.47122065
_symmetry_Int_Tables_number   1
_chemical_formula_structural   Ca4Al6SO16
_chemical_formula_sum   'Ca4 Al6 S1 O16'
_cell_volume   386.27850596
_cell_formula_units_Z   1
loop_
 _symmetry_equiv_pos_site_id
 _symmetry_equiv_pos_as_xyz
  1  'x, y, z'
loop_
 _atom_site_type_symbol
 _atom_site_label
 _atom_site_symmetry_multiplicity
 _atom_site_fract_x
 _atom_site_fract_y
 _atom_site_fract_z
 _atom_site_occupancy
  O  O0  1  0.424714  0.999976  0.717331  1
  O  O1  1  0.282645  0.707383  0.282669  1
  O  O2  1  0.717355  0.000024  0.424738  1
  O  O3  1  0.292617  0.575262  0.575286  1
  O  O4  1  0.575262  0.575286  0.292617  1
  O  O5  1  0.717331  0.424714  0.999976  1
  O  O6  1  0.707383  0.282669  0.282645  1
  O  O7  1  0.424738  0.717355  0.000024  1
  O  O8  1  0.999976  0.717331  0.424714  1
  O  O9  1  0.282669  0.282645  0.707383  1
  O  O10  1  0.000024  0.424738  0.717355  1
  O  O11  1  0.812079  0.812079  0.812079  1
  O  O12  1  0.000000  0.187921  0.000000  1
  O  O13  1  0.000000  0.000000  0.187921  1
  O  O14  1  0.187921  0.000000  0.000000  1
  O  O15  1  0.575286  0.292617  0.575262  1
  Al  Al16  1  0.750032  0.250032  0.500000  1
  Al  Al17  1  0.500000  0.750032  0.250032  1
  Al  Al18  1  0.749968  0.500000  0.249968  1
  Al  Al19  1  0.249968  0.749968  0.500000  1
  Al  Al20  1  0.250032  0.500000  0.750032  1
  Al  Al21  1  0.500000  0.249968  0.749968  1
  S  S22  1  0.000000  0.000000  0.000000  1
  Ca  Ca23  1  0.000000  0.000000  0.623556  1
  Ca  Ca24  1  0.623556  0.000000  0.000000  1
  Ca  Ca25  1  0.000000  0.623556  0.000000  1
  Ca  Ca26  1  0.376444  0.376444  0.376444  1
