# generated using pymatgen
data_BaGaSnH
_symmetry_space_group_name_H-M   'P 1'
_cell_length_a   4.60920260
_cell_length_b   4.60948632
_cell_length_c   5.39808074
_cell_angle_alpha   89.99999998
_cell_angle_beta   89.99328917
_cell_angle_gamma   120.00203665
_symmetry_Int_Tables_number   1
_chemical_formula_structural   BaGaSnH
_chemical_formula_sum   'Ba1 Ga1 Sn1 H1'
_cell_volume   99.32061932
_cell_formula_units_Z   1
loop_
 _symmetry_equiv_pos_site_id
 _symmetry_equiv_pos_as_xyz
  1  'x, y, z'
loop_
 _atom_site_type_symbol
 _atom_site_label
 _atom_site_symmetry_multiplicity
 _atom_site_fract_x
 _atom_site_fract_y
 _atom_site_fract_z
 _atom_site_occupancy
  Ba  Ba0  1  0.999998  0.999999  0.000150  1
  Ga  Ga1  1  0.666769  0.333384  0.586706  1
  Sn  Sn2  1  0.333192  0.666596  0.459253  1
  H  H3  1  0.666642  0.333321  0.910192  1
