# generated using pymatgen
data_TeMoWSe2S
_symmetry_space_group_name_H-M   'P 1'
_cell_length_a   3.34467626
_cell_length_b   3.34457249
_cell_length_c   38.07755892
_cell_angle_alpha   89.99952991
_cell_angle_beta   90.00000000
_cell_angle_gamma   120.00102630
_symmetry_Int_Tables_number   1
_chemical_formula_structural   TeMoWSe2S
_chemical_formula_sum   'Te2 Mo2 W2 Se4 S2'
_cell_volume   368.88410364
_cell_formula_units_Z   2
loop_
 _symmetry_equiv_pos_site_id
 _symmetry_equiv_pos_as_xyz
  1  'x, y, z'
loop_
 _atom_site_type_symbol
 _atom_site_label
 _atom_site_symmetry_multiplicity
 _atom_site_fract_x
 _atom_site_fract_y
 _atom_site_fract_z
 _atom_site_occupancy
  Te  Te0  1  0.666644  0.333288  0.044077  1
  Te  Te1  1  0.666647  0.333293  0.143660  1
  Mo  Mo2  1  0.333315  0.666630  0.093850  1
  Mo  Mo3  1  0.333335  0.666671  0.469658  1
  W  W4  1  0.666690  0.333379  0.281861  1
  W  W5  1  0.666690  0.333381  0.657548  1
  Se  Se6  1  0.333353  0.666706  0.325848  1
  Se  Se7  1  0.333353  0.666707  0.701548  1
  Se  Se8  1  0.333352  0.666705  0.237847  1
  Se  Se9  1  0.333353  0.666707  0.613529  1
  S  S10  1  0.666633  0.333266  0.429873  1
  S  S11  1  0.666634  0.333267  0.509449  1
