# generated using pymatgen
data_Te2Mo(WS2)2
_symmetry_space_group_name_H-M   'P 1'
_cell_length_a   3.30200809
_cell_length_b   3.30199693
_cell_length_c   30.53871483
_cell_angle_alpha   89.99971433
_cell_angle_beta   90.00003984
_cell_angle_gamma   119.99524549
_symmetry_Int_Tables_number   1
_chemical_formula_structural   Te2Mo(WS2)2
_chemical_formula_sum   'Te2 Mo1 W2 S4'
_cell_volume   288.37459100
_cell_formula_units_Z   1
loop_
 _symmetry_equiv_pos_site_id
 _symmetry_equiv_pos_as_xyz
  1  'x, y, z'
loop_
 _atom_site_type_symbol
 _atom_site_label
 _atom_site_symmetry_multiplicity
 _atom_site_fract_x
 _atom_site_fract_y
 _atom_site_fract_z
 _atom_site_occupancy
  Te  Te0  1  0.666643  0.333284  0.515172  1
  Te  Te1  1  0.666645  0.333287  0.641469  1
  Mo  Mo2  1  0.666678  0.333403  0.346961  1
  W  W3  1  0.333307  0.666621  0.115653  1
  W  W4  1  0.333306  0.666622  0.578353  1
  S  S5  1  0.333366  0.666703  0.397021  1
  S  S6  1  0.666641  0.333281  0.065341  1
  S  S7  1  0.666649  0.333295  0.165968  1
  S  S8  1  0.333367  0.666704  0.296903  1
