# generated using pymatgen
data_Nb2ZnO6
_symmetry_space_group_name_H-M   'P 1'
_cell_length_a   5.12245550
_cell_length_b   5.84397543
_cell_length_c   14.43212042
_cell_angle_alpha   90.00000000
_cell_angle_beta   90.00000000
_cell_angle_gamma   90.00000000
_symmetry_Int_Tables_number   1
_chemical_formula_structural   Nb2ZnO6
_chemical_formula_sum   'Nb8 Zn4 O24'
_cell_volume   432.03279976
_cell_formula_units_Z   4
loop_
 _symmetry_equiv_pos_site_id
 _symmetry_equiv_pos_as_xyz
  1  'x, y, z'
loop_
 _atom_site_type_symbol
 _atom_site_label
 _atom_site_symmetry_multiplicity
 _atom_site_fract_x
 _atom_site_fract_y
 _atom_site_fract_z
 _atom_site_occupancy
  O  O0  1  0.917790  0.376735  0.255630  1
  O  O1  1  0.417790  0.123267  0.244370  1
  O  O2  1  0.582209  0.376735  0.744370  1
  O  O3  1  0.082209  0.123267  0.755630  1
  O  O4  1  0.082209  0.623266  0.744370  1
  O  O5  1  0.582209  0.876735  0.755630  1
  O  O6  1  0.417790  0.623266  0.255630  1
  O  O7  1  0.917790  0.876735  0.244370  1
  O  O8  1  0.913136  0.382271  0.920941  1
  O  O9  1  0.413136  0.117729  0.579059  1
  O  O10  1  0.586866  0.382271  0.079059  1
  O  O11  1  0.086864  0.117729  0.420941  1
  O  O12  1  0.927505  0.894276  0.904218  1
  O  O13  1  0.427505  0.605725  0.595782  1
  O  O14  1  0.572496  0.894276  0.095782  1
  O  O15  1  0.072495  0.605725  0.404218  1
  O  O16  1  0.072495  0.105725  0.095782  1
  O  O17  1  0.572496  0.394276  0.404218  1
  O  O18  1  0.086864  0.617729  0.079059  1
  O  O19  1  0.927505  0.394276  0.595782  1
  O  O20  1  0.913136  0.882271  0.579059  1
  O  O21  1  0.413136  0.617729  0.920941  1
  O  O22  1  0.586866  0.882271  0.420941  1
  O  O23  1  0.427505  0.105725  0.904218  1
  Zn  Zn24  1  0.750000  0.668673  0.000000  1
  Zn  Zn25  1  0.250000  0.831326  0.500000  1
  Zn  Zn26  1  0.250000  0.331326  0.000000  1
  Zn  Zn27  1  0.750000  0.168674  0.500000  1
  Nb  Nb28  1  0.755027  0.680194  0.660085  1
  Nb  Nb29  1  0.244972  0.819807  0.160085  1
  Nb  Nb30  1  0.744972  0.680194  0.339915  1
  Nb  Nb31  1  0.255028  0.819807  0.839915  1
  Nb  Nb32  1  0.744972  0.180192  0.160085  1
  Nb  Nb33  1  0.244972  0.319808  0.339915  1
  Nb  Nb34  1  0.755027  0.180192  0.839915  1
  Nb  Nb35  1  0.255028  0.319808  0.660085  1
