# generated using pymatgen
data_AgMo2P3O13
_symmetry_space_group_name_H-M   'P 1'
_cell_length_a   6.49479741
_cell_length_b   7.24246632
_cell_length_c   22.73698738
_cell_angle_alpha   90.00000000
_cell_angle_beta   90.00000000
_cell_angle_gamma   99.77511256
_symmetry_Int_Tables_number   1
_chemical_formula_structural   AgMo2P3O13
_chemical_formula_sum   'Ag4 Mo8 P12 O52'
_cell_volume   1053.98297292
_cell_formula_units_Z   4
loop_
 _symmetry_equiv_pos_site_id
 _symmetry_equiv_pos_as_xyz
  1  'x, y, z'
loop_
 _atom_site_type_symbol
 _atom_site_label
 _atom_site_symmetry_multiplicity
 _atom_site_fract_x
 _atom_site_fract_y
 _atom_site_fract_z
 _atom_site_occupancy
  O  O0  1  0.276970  0.517613  0.887663  1
  O  O1  1  0.223031  0.982387  0.387664  1
  O  O2  1  0.723030  0.482387  0.112337  1
  O  O3  1  0.776969  0.017612  0.612336  1
  O  O4  1  0.097339  0.462560  0.079891  1
  O  O5  1  0.402660  0.037440  0.579890  1
  O  O6  1  0.902661  0.537440  0.920110  1
  O  O7  1  0.597340  0.962560  0.420110  1
  O  O8  1  0.904106  0.770623  0.057461  1
  O  O9  1  0.595893  0.729376  0.557461  1
  O  O10  1  0.095894  0.229376  0.942539  1
  O  O11  1  0.404107  0.270623  0.442539  1
  O  O12  1  0.513766  0.701120  0.065420  1
  O  O13  1  0.986233  0.798880  0.565420  1
  O  O14  1  0.486234  0.298879  0.934580  1
  O  O15  1  0.013767  0.201121  0.434580  1
  O  O16  1  0.213018  0.766067  0.153051  1
  O  O17  1  0.286982  0.733933  0.653051  1
  O  O18  1  0.290344  0.012769  0.059774  1
  O  O19  1  0.713019  0.266068  0.346949  1
  O  O20  1  0.221366  0.706374  0.976628  1
  O  O21  1  0.278636  0.793627  0.476628  1
  O  O22  1  0.778635  0.293627  0.023372  1
  O  O23  1  0.721365  0.206374  0.523372  1
  O  O24  1  0.744452  0.935403  0.276001  1
  O  O25  1  0.755548  0.564598  0.776001  1
  O  O26  1  0.255549  0.064598  0.723999  1
  O  O27  1  0.244452  0.435402  0.223999  1
  O  O28  1  0.468865  0.051923  0.190043  1
  O  O29  1  0.031135  0.448079  0.690043  1
  O  O30  1  0.531136  0.948078  0.809957  1
  O  O31  1  0.968866  0.551923  0.309957  1
  O  O32  1  0.095283  0.033983  0.209123  1
  O  O33  1  0.404718  0.466017  0.709123  1
  O  O34  1  0.904718  0.966017  0.790877  1
  O  O35  1  0.595282  0.533983  0.290877  1
  O  O36  1  0.731056  0.794293  0.158205  1
  O  O37  1  0.768945  0.705706  0.658205  1
  O  O38  1  0.268945  0.205706  0.841795  1
  O  O39  1  0.231055  0.294294  0.341795  1
  O  O40  1  0.795628  0.304549  0.239215  1
  O  O41  1  0.704373  0.195451  0.739215  1
  O  O42  1  0.204373  0.695451  0.760785  1
  O  O43  1  0.295627  0.804549  0.260785  1
  O  O44  1  0.854372  0.181255  0.124733  1
  O  O45  1  0.645628  0.318746  0.624733  1
  O  O46  1  0.145627  0.818745  0.875267  1
  O  O47  1  0.354373  0.681255  0.375267  1
  O  O48  1  0.790344  0.512768  0.440225  1
  O  O49  1  0.709656  0.987232  0.940226  1
  O  O50  1  0.209657  0.487231  0.559775  1
  O  O51  1  0.786982  0.233933  0.846949  1
  P  P52  1  0.280879  0.298937  0.901900  1
  P  P53  1  0.219121  0.201063  0.401899  1
  P  P54  1  0.719120  0.701063  0.098100  1
  P  P55  1  0.780880  0.798938  0.598101  1
  P  P56  1  0.124368  0.652110  0.916474  1
  P  P57  1  0.375632  0.847892  0.416474  1
  P  P58  1  0.875632  0.347892  0.083526  1
  P  P59  1  0.624369  0.152109  0.583526  1
  P  P60  1  0.264229  0.908954  0.203647  1
  P  P61  1  0.764228  0.408954  0.296353  1
  P  P62  1  0.735772  0.091047  0.796353  1
  P  P63  1  0.235773  0.591047  0.703647  1
  Mo  Mo64  1  0.722032  0.274082  0.436574  1
  Mo  Mo65  1  0.722379  0.464214  0.707785  1
  Mo  Mo66  1  0.222379  0.964214  0.792215  1
  Mo  Mo67  1  0.277621  0.535786  0.292215  1
  Mo  Mo68  1  0.222033  0.774082  0.063425  1
  Mo  Mo69  1  0.277967  0.725918  0.563426  1
  Mo  Mo70  1  0.777968  0.225919  0.936575  1
  Mo  Mo71  1  0.777620  0.035786  0.207785  1
  Ag  Ag72  1  0.332252  0.293604  0.131750  1
  Ag  Ag73  1  0.167747  0.206396  0.631750  1
  Ag  Ag74  1  0.667748  0.706398  0.868250  1
  Ag  Ag75  1  0.832252  0.793603  0.368250  1
