# generated using pymatgen
data_VFeMoO7
_symmetry_space_group_name_H-M   'P 1'
_cell_length_a   5.57149549
_cell_length_b   6.64161000
_cell_length_c   7.94666523
_cell_angle_alpha   96.43452325
_cell_angle_beta   89.85306520
_cell_angle_gamma   101.89795748
_symmetry_Int_Tables_number   1
_chemical_formula_structural   VFeMoO7
_chemical_formula_sum   'V2 Fe2 Mo2 O14'
_cell_volume   285.86222478
_cell_formula_units_Z   2
loop_
 _symmetry_equiv_pos_site_id
 _symmetry_equiv_pos_as_xyz
  1  'x, y, z'
loop_
 _atom_site_type_symbol
 _atom_site_label
 _atom_site_symmetry_multiplicity
 _atom_site_fract_x
 _atom_site_fract_y
 _atom_site_fract_z
 _atom_site_occupancy
  O  O0  1  0.782099  0.051579  0.895896  1
  O  O1  1  0.217901  0.948421  0.104104  1
  O  O2  1  0.424502  0.700965  0.762915  1
  O  O3  1  0.575498  0.299035  0.237085  1
  O  O4  1  0.935417  0.676878  0.777209  1
  O  O5  1  0.064583  0.323122  0.222791  1
  O  O6  1  0.198940  0.981989  0.610249  1
  O  O7  1  0.801060  0.018011  0.389751  1
  O  O8  1  0.104636  0.377608  0.573743  1
  O  O9  1  0.895364  0.622392  0.426257  1
  O  O10  1  0.339310  0.294595  0.891852  1
  O  O11  1  0.660690  0.705405  0.108148  1
  O  O12  1  0.591059  0.306167  0.579534  1
  O  O13  1  0.408941  0.693833  0.420466  1
  V  V14  1  0.690215  0.762944  0.337905  1
  V  V15  1  0.309785  0.237056  0.662095  1
  Fe  Fe16  1  0.167866  0.683892  0.594549  1
  Fe  Fe17  1  0.832134  0.316108  0.405451  1
  Mo  Mo18  1  0.702437  0.784991  0.886814  1
  Mo  Mo19  1  0.297563  0.215009  0.113186  1
