# generated using pymatgen
data_Te4Mo3WSe4
_symmetry_space_group_name_H-M   'P 1'
_cell_length_a   3.43860692
_cell_length_b   3.43860751
_cell_length_c   39.13641150
_cell_angle_alpha   89.99910180
_cell_angle_beta   89.99966479
_cell_angle_gamma   120.00000486
_symmetry_Int_Tables_number   1
_chemical_formula_structural   Te4Mo3WSe4
_chemical_formula_sum   'Te4 Mo3 W1 Se4'
_cell_volume   400.75297231
_cell_formula_units_Z   1
loop_
 _symmetry_equiv_pos_site_id
 _symmetry_equiv_pos_as_xyz
  1  'x, y, z'
loop_
 _atom_site_type_symbol
 _atom_site_label
 _atom_site_symmetry_multiplicity
 _atom_site_fract_x
 _atom_site_fract_y
 _atom_site_fract_z
 _atom_site_occupancy
  Te  Te0  1  0.333350  0.666701  0.329337  1
  Te  Te1  1  0.666646  0.333285  0.046410  1
  Te  Te2  1  0.666634  0.333267  0.141318  1
  Te  Te3  1  0.333345  0.666692  0.234420  1
  Mo  Mo4  1  0.333314  0.666623  0.093821  1
  Mo  Mo5  1  0.333319  0.666638  0.469649  1
  Mo  Mo6  1  0.666672  0.333349  0.281894  1
  W  W7  1  0.666690  0.333386  0.657556  1
  Se  Se8  1  0.333358  0.666716  0.699539  1
  Se  Se9  1  0.666652  0.333304  0.427878  1
  Se  Se10  1  0.666654  0.333307  0.511392  1
  Se  Se11  1  0.333365  0.666731  0.615536  1
