# generated using pymatgen
data_Tm4Zn5Ge6
_symmetry_space_group_name_H-M   'P 1'
_cell_length_a   4.22873205
_cell_length_b   9.45387215
_cell_length_c   15.20613851
_cell_angle_alpha   90.00000000
_cell_angle_beta   90.00000000
_cell_angle_gamma   102.92355272
_symmetry_Int_Tables_number   1
_chemical_formula_structural   Tm4Zn5Ge6
_chemical_formula_sum   'Tm8 Zn10 Ge12'
_cell_volume   592.51062011
_cell_formula_units_Z   2
loop_
 _symmetry_equiv_pos_site_id
 _symmetry_equiv_pos_as_xyz
  1  'x, y, z'
loop_
 _atom_site_type_symbol
 _atom_site_label
 _atom_site_symmetry_multiplicity
 _atom_site_fract_x
 _atom_site_fract_y
 _atom_site_fract_z
 _atom_site_occupancy
  Zn  Zn0  1  0.434382  0.868764  0.313757  1
  Zn  Zn1  1  0.565618  0.131236  0.813757  1
  Zn  Zn2  1  0.150934  0.301868  0.373149  1
  Zn  Zn3  1  0.849066  0.698132  0.873149  1
  Zn  Zn4  1  0.650898  0.301796  0.518997  1
  Zn  Zn5  1  0.349102  0.698204  0.018997  1
  Zn  Zn6  1  0.301040  0.602080  0.376092  1
  Zn  Zn7  1  0.698960  0.397920  0.876092  1
  Zn  Zn8  1  0.344634  0.689268  0.725997  1
  Zn  Zn9  1  0.655366  0.310732  0.225997  1
  Ge  Ge10  1  0.771188  0.542376  0.734015  1
  Ge  Ge11  1  0.430635  0.861270  0.591086  1
  Ge  Ge12  1  0.776224  0.552447  0.015084  1
  Ge  Ge13  1  0.223776  0.447553  0.515084  1
  Ge  Ge14  1  0.439741  0.879481  0.145531  1
  Ge  Ge15  1  0.560259  0.120519  0.645531  1
  Ge  Ge16  1  0.434082  0.868163  0.870986  1
  Ge  Ge17  1  0.565918  0.131837  0.370986  1
  Ge  Ge18  1  0.111589  0.223177  0.883579  1
  Ge  Ge19  1  0.888411  0.776823  0.383579  1
  Ge  Ge20  1  0.569365  0.138730  0.091086  1
  Ge  Ge21  1  0.228812  0.457624  0.234015  1
  Tm  Tm22  1  0.967525  0.935051  0.736428  1
  Tm  Tm23  1  0.032475  0.064949  0.236428  1
  Tm  Tm24  1  0.166942  0.333885  0.696789  1
  Tm  Tm25  1  0.833058  0.666115  0.196789  1
  Tm  Tm26  1  0.825156  0.650311  0.556007  1
  Tm  Tm27  1  0.174844  0.349689  0.056007  1
  Tm  Tm28  1  0.018615  0.037231  0.501162  1
  Tm  Tm29  1  0.981385  0.962769  0.001162  1
