# generated using pymatgen
data_Te2MoW2(SeS)2
_symmetry_space_group_name_H-M   'P 1'
_cell_length_a   3.35203727
_cell_length_b   3.35207048
_cell_length_c   31.02074034
_cell_angle_alpha   89.99984905
_cell_angle_beta   90.00000000
_cell_angle_gamma   119.99967218
_symmetry_Int_Tables_number   1
_chemical_formula_structural   Te2MoW2(SeS)2
_chemical_formula_sum   'Te2 Mo1 W2 Se2 S2'
_cell_volume   301.86044288
_cell_formula_units_Z   1
loop_
 _symmetry_equiv_pos_site_id
 _symmetry_equiv_pos_as_xyz
  1  'x, y, z'
loop_
 _atom_site_type_symbol
 _atom_site_label
 _atom_site_symmetry_multiplicity
 _atom_site_fract_x
 _atom_site_fract_y
 _atom_site_fract_z
 _atom_site_occupancy
  Te  Te0  1  0.666649  0.333297  0.516985  1
  Te  Te1  1  0.666637  0.333274  0.639740  1
  Mo  Mo2  1  0.333324  0.666648  0.115662  1
  W  W3  1  0.333313  0.666625  0.578389  1
  W  W4  1  0.666693  0.333386  0.346915  1
  Se  Se5  1  0.333352  0.666705  0.400846  1
  Se  Se6  1  0.333353  0.666708  0.292988  1
  S  S7  1  0.666640  0.333280  0.066796  1
  S  S8  1  0.666640  0.333278  0.164519  1
