# generated using pymatgen
data_Te2MoW3(SeS2)2
_symmetry_space_group_name_H-M   'P 1'
_cell_length_a   3.30725330
_cell_length_b   3.30738608
_cell_length_c   39.12351576
_cell_angle_alpha   90.00027406
_cell_angle_beta   90.00000000
_cell_angle_gamma   119.99867193
_symmetry_Int_Tables_number   1
_chemical_formula_structural   Te2MoW3(SeS2)2
_chemical_formula_sum   'Te2 Mo1 W3 Se2 S4'
_cell_volume   370.61813963
_cell_formula_units_Z   1
loop_
 _symmetry_equiv_pos_site_id
 _symmetry_equiv_pos_as_xyz
  1  'x, y, z'
loop_
 _atom_site_type_symbol
 _atom_site_label
 _atom_site_symmetry_multiplicity
 _atom_site_fract_x
 _atom_site_fract_y
 _atom_site_fract_z
 _atom_site_occupancy
  Te  Te0  1  0.333322  0.666644  0.708409  1
  Te  Te1  1  0.333300  0.666601  0.609972  1
  Mo  Mo2  1  0.666618  0.333237  0.281753  1
  W  W3  1  0.333320  0.666641  0.093952  1
  W  W4  1  0.333421  0.666843  0.468011  1
  W  W5  1  0.666580  0.333160  0.659214  1
  Se  Se6  1  0.666685  0.333370  0.424930  1
  Se  Se7  1  0.666706  0.333411  0.511146  1
  S  S8  1  0.333367  0.666735  0.320828  1
  S  S9  1  0.666648  0.333295  0.054748  1
  S  S10  1  0.666604  0.333208  0.133098  1
  S  S11  1  0.333427  0.666856  0.242688  1
