# generated using pymatgen
data_Te2Mo2W(SeS)2
_symmetry_space_group_name_H-M   'P 1'
_cell_length_a   3.34821605
_cell_length_b   3.34805598
_cell_length_c   31.93933103
_cell_angle_alpha   90.00128642
_cell_angle_beta   90.00000000
_cell_angle_gamma   120.00158141
_symmetry_Int_Tables_number   1
_chemical_formula_structural   Te2Mo2W(SeS)2
_chemical_formula_sum   'Te2 Mo2 W1 Se2 S2'
_cell_volume   310.06711732
_cell_formula_units_Z   1
loop_
 _symmetry_equiv_pos_site_id
 _symmetry_equiv_pos_as_xyz
  1  'x, y, z'
loop_
 _atom_site_type_symbol
 _atom_site_label
 _atom_site_symmetry_multiplicity
 _atom_site_fract_x
 _atom_site_fract_y
 _atom_site_fract_z
 _atom_site_occupancy
  Te  Te0  1  0.333308  0.666617  0.405379  1
  Te  Te1  1  0.333375  0.666752  0.286622  1
  Mo  Mo2  1  0.333387  0.666773  0.115190  1
  Mo  Mo3  1  0.666655  0.333309  0.346038  1
  W  W4  1  0.333306  0.666613  0.579705  1
  Se  Se5  1  0.666616  0.333232  0.527335  1
  Se  Se6  1  0.666683  0.333365  0.632090  1
  S  S7  1  0.666611  0.333221  0.067760  1
  S  S8  1  0.666659  0.333318  0.162721  1
