# generated using pymatgen
data_KSi2BO6
_symmetry_space_group_name_H-M   'P 1'
_cell_length_a   4.78068460
_cell_length_b   10.10641846
_cell_length_c   10.57487069
_cell_angle_alpha   90.00000000
_cell_angle_beta   90.00000000
_cell_angle_gamma   90.00000000
_symmetry_Int_Tables_number   1
_chemical_formula_structural   KSi2BO6
_chemical_formula_sum   'K4 Si8 B4 O24'
_cell_volume   510.93121272
_cell_formula_units_Z   4
loop_
 _symmetry_equiv_pos_site_id
 _symmetry_equiv_pos_as_xyz
  1  'x, y, z'
loop_
 _atom_site_type_symbol
 _atom_site_label
 _atom_site_symmetry_multiplicity
 _atom_site_fract_x
 _atom_site_fract_y
 _atom_site_fract_z
 _atom_site_occupancy
  K  K0  1  0.797545  0.965655  0.811113  1
  K  K1  1  0.702455  0.034345  0.311113  1
  K  K2  1  0.297545  0.534345  0.188887  1
  K  K3  1  0.202455  0.465655  0.688887  1
  Si  Si4  1  0.785827  0.609042  0.935030  1
  Si  Si5  1  0.714173  0.390958  0.435030  1
  Si  Si6  1  0.285827  0.890958  0.064970  1
  Si  Si7  1  0.214173  0.109042  0.564970  1
  Si  Si8  1  0.266130  0.801975  0.575611  1
  Si  Si9  1  0.233870  0.198025  0.075611  1
  Si  Si10  1  0.766130  0.698025  0.424389  1
  Si  Si11  1  0.733870  0.301975  0.924389  1
  B  B12  1  0.289103  0.731332  0.843095  1
  B  B13  1  0.210897  0.268668  0.343095  1
  B  B14  1  0.789103  0.768668  0.156905  1
  B  B15  1  0.710897  0.231332  0.656905  1
  O  O16  1  0.989228  0.693863  0.841872  1
  O  O17  1  0.510772  0.306137  0.341872  1
  O  O18  1  0.489228  0.806137  0.158128  1
  O  O19  1  0.010772  0.193863  0.658128  1
  O  O20  1  0.330399  0.856303  0.914973  1
  O  O21  1  0.169601  0.143697  0.414973  1
  O  O22  1  0.830399  0.643697  0.085027  1
  O  O23  1  0.669601  0.356303  0.585027  1
  O  O24  1  0.457445  0.621449  0.894751  1
  O  O25  1  0.042555  0.378551  0.394751  1
  O  O26  1  0.957445  0.878551  0.105249  1
  O  O27  1  0.542555  0.121449  0.605249  1
  O  O28  1  0.382470  0.755458  0.711273  1
  O  O29  1  0.117530  0.244542  0.211273  1
  O  O30  1  0.882470  0.744542  0.288727  1
  O  O31  1  0.617530  0.255458  0.788727  1
  O  O32  1  0.024755  0.697603  0.526837  1
  O  O33  1  0.475245  0.302397  0.026837  1
  O  O34  1  0.524755  0.802397  0.473163  1
  O  O35  1  0.975245  0.197603  0.973163  1
  O  O36  1  0.129235  0.950463  0.579315  1
  O  O37  1  0.370765  0.049537  0.079315  1
  O  O38  1  0.629235  0.549537  0.420685  1
  O  O39  1  0.870765  0.450463  0.920685  1
