# generated using pymatgen
data_Pr3(NiGe)4
_symmetry_space_group_name_H-M   'P 1'
_cell_length_a   4.18792972
_cell_length_b   4.15281621
_cell_length_c   12.43292036
_cell_angle_alpha   99.61227232
_cell_angle_beta   99.69602524
_cell_angle_gamma   89.99999994
_symmetry_Int_Tables_number   1
_chemical_formula_structural   Pr3(NiGe)4
_chemical_formula_sum   'Pr3 Ni4 Ge4'
_cell_volume   210.06040848
_cell_formula_units_Z   1
loop_
 _symmetry_equiv_pos_site_id
 _symmetry_equiv_pos_as_xyz
  1  'x, y, z'
loop_
 _atom_site_type_symbol
 _atom_site_label
 _atom_site_symmetry_multiplicity
 _atom_site_fract_x
 _atom_site_fract_y
 _atom_site_fract_z
 _atom_site_occupancy
  Ni  Ni0  1  0.549732  0.549741  0.099465  1
  Ni  Ni1  1  0.450268  0.450259  0.900535  1
  Ni  Ni2  1  0.699155  0.199208  0.398310  1
  Ni  Ni3  1  0.300845  0.800792  0.601690  1
  Ge  Ge4  1  0.249965  0.249948  0.499931  1
  Ge  Ge5  1  0.599662  0.099728  0.199324  1
  Ge  Ge6  1  0.400338  0.900272  0.800676  1
  Ge  Ge7  1  0.750035  0.750052  0.500069  1
  Pr  Pr8  1  0.000000  0.000000  0.000000  1
  Pr  Pr9  1  0.851482  0.351283  0.702963  1
  Pr  Pr10  1  0.148518  0.648717  0.297037  1
