# generated using pymatgen
data_TbFe3(BO3)4
_symmetry_space_group_name_H-M   'P 1'
_cell_length_a   9.61824197
_cell_length_b   9.61824196
_cell_length_c   7.66138956
_cell_angle_alpha   90.00000000
_cell_angle_beta   90.00000000
_cell_angle_gamma   119.99999999
_symmetry_Int_Tables_number   1
_chemical_formula_structural   TbFe3(BO3)4
_chemical_formula_sum   'Tb3 Fe9 B12 O36'
_cell_volume   613.80380192
_cell_formula_units_Z   3
loop_
 _symmetry_equiv_pos_site_id
 _symmetry_equiv_pos_as_xyz
  1  'x, y, z'
loop_
 _atom_site_type_symbol
 _atom_site_label
 _atom_site_symmetry_multiplicity
 _atom_site_fract_x
 _atom_site_fract_y
 _atom_site_fract_z
 _atom_site_occupancy
  B  B0  1  0.777265  0.000000  0.833333  1
  B  B1  1  0.222736  0.222736  0.500000  1
  B  B2  1  1.000000  0.777264  0.166667  1
  B  B3  1  0.874216  0.551991  0.849818  1
  B  B4  1  0.448009  0.322226  0.183151  1
  B  B5  1  0.677776  0.125784  0.516485  1
  B  B6  1  0.322225  0.448009  0.816848  1
  B  B7  1  0.125783  0.677775  0.483515  1
  B  B8  1  0.551991  0.874216  0.150182  1
  B  B9  1  0.668496  0.668496  0.500000  1
  B  B10  1  0.000000  0.331504  0.166667  1
  B  B11  1  0.331504  0.000000  0.833333  1
  O  O12  1  0.817862  0.122407  0.488980  1
  O  O13  1  0.078938  0.078938  0.500000  1
  O  O14  1  0.921061  0.000000  0.833333  1
  O  O15  1  0.420352  0.722157  0.122851  1
  O  O16  1  0.277843  0.698195  0.456184  1
  O  O17  1  0.301806  0.579648  0.789518  1
  O  O18  1  0.698194  0.277842  0.543815  1
  O  O19  1  0.579648  0.301806  0.210482  1
  O  O20  1  0.722157  0.420351  0.877150  1
  O  O21  1  0.877592  0.695454  0.822314  1
  O  O22  1  0.304546  0.182138  0.155647  1
  O  O23  1  0.000000  0.921062  0.166667  1
  O  O24  1  0.182138  0.304546  0.844353  1
  O  O25  1  0.122407  0.817862  0.511019  1
  O  O26  1  0.695454  0.877592  0.177686  1
  O  O27  1  0.852877  0.637493  0.186173  1
  O  O28  1  0.362507  0.215384  0.519506  1
  O  O29  1  0.784616  0.147122  0.852841  1
  O  O30  1  0.215384  0.362506  0.480493  1
  O  O31  1  0.147123  0.784617  0.147160  1
  O  O32  1  0.637494  0.852877  0.813827  1
  O  O33  1  0.474237  0.144815  0.843730  1
  O  O34  1  0.855185  0.329423  0.177063  1
  O  O35  1  0.670577  0.525763  0.510396  1
  O  O36  1  0.329423  0.855186  0.822938  1
  O  O37  1  0.525763  0.670578  0.489603  1
  O  O38  1  0.144815  0.474238  0.156270  1
  O  O39  1  0.187765  0.000000  0.833333  1
  O  O40  1  0.999999  0.187765  0.166667  1
  O  O41  1  0.812235  0.812235  0.500000  1
  O  O42  1  0.473602  0.467100  0.814197  1
  O  O43  1  0.532901  0.006503  0.147530  1
  O  O44  1  0.993497  0.526398  0.480863  1
  O  O45  1  0.467099  0.473602  0.185803  1
  O  O46  1  0.526398  0.993497  0.519136  1
  O  O47  1  0.006502  0.532901  0.852470  1
  Fe  Fe48  1  0.451159  0.787973  0.653436  1
  Fe  Fe49  1  0.212027  0.663187  0.986770  1
  Fe  Fe50  1  0.336813  0.548840  0.320103  1
  Fe  Fe51  1  0.663187  0.212028  0.013230  1
  Fe  Fe52  1  0.548840  0.336813  0.679898  1
  Fe  Fe53  1  0.787972  0.451159  0.346563  1
  Fe  Fe54  1  0.114796  0.114796  0.000000  1
  Fe  Fe55  1  0.885204  0.000000  0.333333  1
  Fe  Fe56  1  0.000000  0.885203  0.666667  1
  Tb  Tb57  1  0.000000  0.335950  0.666667  1
  Tb  Tb58  1  0.335951  0.000000  0.333333  1
  Tb  Tb59  1  0.664049  0.664049  0.000000  1
