# generated using pymatgen
data_ZnSiO3
_symmetry_space_group_name_H-M   'P 1'
_cell_length_a   4.80722995
_cell_length_b   4.80723014
_cell_length_c   5.43233422
_cell_angle_alpha   63.73876775
_cell_angle_beta   63.73877152
_cell_angle_gamma   59.99999867
_symmetry_Int_Tables_number   1
_chemical_formula_structural   ZnSiO3
_chemical_formula_sum   'Zn2 Si2 O6'
_cell_volume   93.45863149
_cell_formula_units_Z   2
loop_
 _symmetry_equiv_pos_site_id
 _symmetry_equiv_pos_as_xyz
  1  'x, y, z'
loop_
 _atom_site_type_symbol
 _atom_site_label
 _atom_site_symmetry_multiplicity
 _atom_site_fract_x
 _atom_site_fract_y
 _atom_site_fract_z
 _atom_site_occupancy
  Zn  Zn0  1  0.630519  0.630519  0.108442  1
  Zn  Zn1  1  0.369481  0.369481  0.891558  1
  Si  Si2  1  0.839125  0.839125  0.482625  1
  Si  Si3  1  0.160875  0.160875  0.517375  1
  O  O4  1  0.562644  0.953954  0.285889  1
  O  O5  1  0.197513  0.562644  0.285889  1
  O  O6  1  0.953954  0.197513  0.285889  1
  O  O7  1  0.437356  0.046046  0.714111  1
  O  O8  1  0.802487  0.437356  0.714111  1
  O  O9  1  0.046046  0.802487  0.714111  1
