# generated using pymatgen
data_Sr3TbRhO6
_symmetry_space_group_name_H-M   'P 1'
_cell_length_a   6.86849018
_cell_length_b   6.86849018
_cell_length_c   6.86849018
_cell_angle_alpha   92.09282758
_cell_angle_beta   92.09282759
_cell_angle_gamma   92.09282763
_symmetry_Int_Tables_number   1
_chemical_formula_structural   Sr3TbRhO6
_chemical_formula_sum   'Sr6 Tb2 Rh2 O12'
_cell_volume   323.36431920
_cell_formula_units_Z   2
loop_
 _symmetry_equiv_pos_site_id
 _symmetry_equiv_pos_as_xyz
  1  'x, y, z'
loop_
 _atom_site_type_symbol
 _atom_site_label
 _atom_site_symmetry_multiplicity
 _atom_site_fract_x
 _atom_site_fract_y
 _atom_site_fract_z
 _atom_site_occupancy
  O  O0  1  0.791991  0.589761  0.455272  1
  O  O1  1  0.589761  0.455272  0.791991  1
  O  O2  1  0.455272  0.791991  0.589761  1
  O  O3  1  0.044728  0.910239  0.708009  1
  O  O4  1  0.910239  0.708009  0.044728  1
  O  O5  1  0.708009  0.044728  0.910239  1
  O  O6  1  0.208009  0.410239  0.544728  1
  O  O7  1  0.410239  0.544728  0.208009  1
  O  O8  1  0.544728  0.208009  0.410239  1
  O  O9  1  0.955272  0.089761  0.291991  1
  O  O10  1  0.291991  0.955272  0.089761  1
  O  O11  1  0.089761  0.291991  0.955272  1
  Sr  Sr12  1  0.618985  0.881015  0.250000  1
  Sr  Sr13  1  0.250000  0.618985  0.881015  1
  Sr  Sr14  1  0.881015  0.250000  0.618985  1
  Sr  Sr15  1  0.381015  0.118985  0.750000  1
  Sr  Sr16  1  0.118985  0.750000  0.381015  1
  Sr  Sr17  1  0.750000  0.381015  0.118985  1
  Rh  Rh18  1  0.500000  0.500000  0.500000  1
  Rh  Rh19  1  0.000000  0.000000  0.000000  1
  Tb  Tb20  1  0.750000  0.750000  0.750000  1
  Tb  Tb21  1  0.250000  0.250000  0.250000  1
