# generated using pymatgen
data_TeMoWSe2S
_symmetry_space_group_name_H-M   'P 1'
_cell_length_a   3.34121377
_cell_length_b   3.34119344
_cell_length_c   38.07235363
_cell_angle_alpha   90.00086479
_cell_angle_beta   90.00000000
_cell_angle_gamma   120.00020120
_symmetry_Int_Tables_number   1
_chemical_formula_structural   TeMoWSe2S
_chemical_formula_sum   'Te2 Mo2 W2 Se4 S2'
_cell_volume   368.08266043
_cell_formula_units_Z   2
loop_
 _symmetry_equiv_pos_site_id
 _symmetry_equiv_pos_as_xyz
  1  'x, y, z'
loop_
 _atom_site_type_symbol
 _atom_site_label
 _atom_site_symmetry_multiplicity
 _atom_site_fract_x
 _atom_site_fract_y
 _atom_site_fract_z
 _atom_site_occupancy
  Te  Te0  1  0.333355  0.666712  0.331624  1
  Te  Te1  1  0.333358  0.666717  0.231998  1
  Mo  Mo2  1  0.333309  0.666617  0.093892  1
  Mo  Mo3  1  0.666691  0.333381  0.281819  1
  W  W4  1  0.333307  0.666613  0.469657  1
  W  W5  1  0.666691  0.333381  0.657526  1
  Se  Se6  1  0.333353  0.666708  0.701538  1
  Se  Se7  1  0.666648  0.333294  0.050110  1
  Se  Se8  1  0.666639  0.333276  0.137694  1
  Se  Se9  1  0.333359  0.666720  0.613535  1
  S  S10  1  0.666643  0.333285  0.429661  1
  S  S11  1  0.666648  0.333296  0.509693  1
