# generated using pymatgen
data_LaSi3N5
_symmetry_space_group_name_H-M   'P 1'
_cell_length_a   7.90451307
_cell_length_b   11.34637632
_cell_length_c   4.83580588
_cell_angle_alpha   90.00000000
_cell_angle_beta   90.00000000
_cell_angle_gamma   90.00000000
_symmetry_Int_Tables_number   1
_chemical_formula_structural   LaSi3N5
_chemical_formula_sum   'La4 Si12 N20'
_cell_volume   433.71172633
_cell_formula_units_Z   4
loop_
 _symmetry_equiv_pos_site_id
 _symmetry_equiv_pos_as_xyz
  1  'x, y, z'
loop_
 _atom_site_type_symbol
 _atom_site_label
 _atom_site_symmetry_multiplicity
 _atom_site_fract_x
 _atom_site_fract_y
 _atom_site_fract_z
 _atom_site_occupancy
  La  La0  1  0.939863  0.669851  0.994130  1
  La  La1  1  0.560137  0.330149  0.494130  1
  La  La2  1  0.439863  0.830149  0.005870  1
  La  La3  1  0.060137  0.169851  0.505870  1
  Si  Si4  1  0.661893  0.660456  0.485972  1
  Si  Si5  1  0.838107  0.339544  0.985972  1
  Si  Si6  1  0.161893  0.839544  0.514028  1
  Si  Si7  1  0.338107  0.160456  0.014028  1
  Si  Si8  1  0.793101  0.916699  0.483397  1
  Si  Si9  1  0.706899  0.083301  0.983397  1
  Si  Si10  1  0.293101  0.583301  0.516603  1
  Si  Si11  1  0.206899  0.416699  0.016603  1
  Si  Si12  1  0.533004  0.540916  0.975981  1
  Si  Si13  1  0.966996  0.459084  0.475981  1
  Si  Si14  1  0.033004  0.959084  0.024019  1
  Si  Si15  1  0.466996  0.040916  0.524019  1
  N  N16  1  0.841884  0.579290  0.454815  1
  N  N17  1  0.658116  0.420710  0.954815  1
  N  N18  1  0.341884  0.920710  0.545185  1
  N  N19  1  0.158116  0.079290  0.045185  1
  N  N20  1  0.706441  0.794491  0.335808  1
  N  N21  1  0.793559  0.205509  0.835808  1
  N  N22  1  0.206441  0.705509  0.664192  1
  N  N23  1  0.293559  0.294491  0.164192  1
  N  N24  1  0.481596  0.593079  0.315174  1
  N  N25  1  0.018404  0.406921  0.815174  1
  N  N26  1  0.981596  0.906921  0.684826  1
  N  N27  1  0.518404  0.093079  0.184826  1
  N  N28  1  0.849956  0.010017  0.203241  1
  N  N29  1  0.650044  0.989983  0.703241  1
  N  N30  1  0.349956  0.489983  0.796759  1
  N  N31  1  0.150044  0.510017  0.296759  1
  N  N32  1  0.610239  0.667494  0.828642  1
  N  N33  1  0.889761  0.332506  0.328642  1
  N  N34  1  0.110239  0.832506  0.171358  1
  N  N35  1  0.389761  0.167494  0.671358  1
