# generated using pymatgen
data_KEr(SO4)2
_symmetry_space_group_name_H-M   'P 1'
_cell_length_a   5.49625523
_cell_length_b   8.89335982
_cell_length_c   13.50114518
_cell_angle_alpha   90.00000000
_cell_angle_beta   90.00000000
_cell_angle_gamma   93.32202069
_symmetry_Int_Tables_number   1
_chemical_formula_structural   KEr(SO4)2
_chemical_formula_sum   'K4 Er4 S8 O32'
_cell_volume   658.82939709
_cell_formula_units_Z   4
loop_
 _symmetry_equiv_pos_site_id
 _symmetry_equiv_pos_as_xyz
  1  'x, y, z'
loop_
 _atom_site_type_symbol
 _atom_site_label
 _atom_site_symmetry_multiplicity
 _atom_site_fract_x
 _atom_site_fract_y
 _atom_site_fract_z
 _atom_site_occupancy
  O  O0  1  0.252722  0.188834  0.966655  1
  O  O1  1  0.247278  0.311166  0.466655  1
  O  O2  1  0.747278  0.811166  0.033345  1
  O  O3  1  0.752722  0.688834  0.533345  1
  O  O4  1  0.521069  0.489770  0.621352  1
  O  O5  1  0.978931  0.010230  0.121352  1
  O  O6  1  0.478931  0.510230  0.378648  1
  O  O7  1  0.021069  0.989770  0.878648  1
  O  O8  1  0.458407  0.978405  0.898716  1
  O  O9  1  0.041593  0.521595  0.398716  1
  O  O10  1  0.541593  0.021595  0.101284  1
  O  O11  1  0.958407  0.478405  0.601284  1
  O  O12  1  0.298962  0.162673  0.788745  1
  O  O13  1  0.201038  0.337327  0.288745  1
  O  O14  1  0.701038  0.837327  0.211255  1
  O  O15  1  0.798962  0.662673  0.711255  1
  O  O16  1  0.320166  0.735925  0.766835  1
  O  O17  1  0.179834  0.764075  0.266835  1
  O  O18  1  0.679834  0.264075  0.233165  1
  O  O19  1  0.820166  0.235925  0.733165  1
  O  O20  1  0.706232  0.964177  0.709367  1
  O  O21  1  0.793768  0.535823  0.209367  1
  O  O22  1  0.293768  0.035823  0.290633  1
  O  O23  1  0.206232  0.464177  0.790633  1
  O  O24  1  0.032871  0.648174  0.896641  1
  O  O25  1  0.467129  0.851826  0.396641  1
  O  O26  1  0.967129  0.351826  0.103359  1
  O  O27  1  0.532871  0.148174  0.603359  1
  O  O28  1  0.468243  0.607489  0.906375  1
  O  O29  1  0.031757  0.892511  0.406375  1
  O  O30  1  0.531757  0.392511  0.093625  1
  O  O31  1  0.968243  0.107489  0.593625  1
  S  S32  1  0.256686  0.079933  0.883310  1
  S  S33  1  0.243314  0.420067  0.383310  1
  S  S34  1  0.743314  0.920067  0.116690  1
  S  S35  1  0.756686  0.579933  0.616690  1
  S  S36  1  0.752856  0.113046  0.662600  1
  S  S37  1  0.747144  0.386954  0.162600  1
  S  S38  1  0.247144  0.886954  0.337400  1
  S  S39  1  0.252856  0.613046  0.837400  1
  K  K40  1  0.753628  0.343881  0.911692  1
  K  K41  1  0.746372  0.156119  0.411692  1
  K  K42  1  0.246372  0.656119  0.088308  1
  K  K43  1  0.253628  0.843881  0.588308  1
  Er  Er44  1  0.222808  0.313105  0.651442  1
  Er  Er45  1  0.277192  0.186895  0.151442  1
  Er  Er46  1  0.777192  0.686895  0.348558  1
  Er  Er47  1  0.722808  0.813105  0.848558  1
