# generated using pymatgen
data_NaFe3P3O13
_symmetry_space_group_name_H-M   'P 1'
_cell_length_a   6.38859288
_cell_length_b   7.62693122
_cell_length_c   10.40258815
_cell_angle_alpha   99.37663823
_cell_angle_beta   90.00000000
_cell_angle_gamma   90.00000000
_symmetry_Int_Tables_number   1
_chemical_formula_structural   NaFe3P3O13
_chemical_formula_sum   'Na2 Fe6 P6 O26'
_cell_volume   500.09738380
_cell_formula_units_Z   2
loop_
 _symmetry_equiv_pos_site_id
 _symmetry_equiv_pos_as_xyz
  1  'x, y, z'
loop_
 _atom_site_type_symbol
 _atom_site_label
 _atom_site_symmetry_multiplicity
 _atom_site_fract_x
 _atom_site_fract_y
 _atom_site_fract_z
 _atom_site_occupancy
  Na  Na0  1  0.750000  0.660001  0.188930  1
  Na  Na1  1  0.250000  0.339999  0.811070  1
  Fe  Fe2  1  0.250000  0.358250  0.196368  1
  Fe  Fe3  1  0.750000  0.641750  0.803632  1
  Fe  Fe4  1  0.250000  0.786129  0.439501  1
  Fe  Fe5  1  0.500000  -0.000000  0.000000  1
  Fe  Fe6  1  0.750000  0.213871  0.560499  1
  Fe  Fe7  1  0.000000  -0.000000  -0.000000  1
  P  P8  1  0.250000  0.218289  0.484819  1
  P  P9  1  0.750000  0.781711  0.515181  1
  P  P10  1  0.250000  0.742865  0.762711  1
  P  P11  1  0.750000  0.257135  0.237289  1
  P  P12  1  0.750000  0.311045  0.885108  1
  P  P13  1  0.250000  0.688955  0.114892  1
  O  O14  1  0.750000  0.350511  0.741737  1
  O  O15  1  0.557090  0.747837  0.424894  1
  O  O16  1  0.250000  0.795790  0.627061  1
  O  O17  1  0.549876  0.207162  0.909176  1
  O  O18  1  0.750000  0.649698  0.612424  1
  O  O19  1  0.750000  0.878360  0.907972  1
  O  O20  1  0.250000  0.350303  0.387576  1
  O  O21  1  0.049876  0.792838  0.090824  1
  O  O22  1  0.250000  0.025554  0.409132  1
  O  O23  1  0.750000  0.974446  0.590868  1
  O  O24  1  0.059027  0.629512  0.786753  1
  O  O25  1  0.250000  0.121640  0.092028  1
  O  O26  1  0.559027  0.370488  0.213247  1
  O  O27  1  0.750000  0.503667  0.959951  1
  O  O28  1  0.750000  0.204210  0.372939  1
  O  O29  1  0.450124  0.792838  0.090824  1
  O  O30  1  0.942910  0.747837  0.424894  1
  O  O31  1  0.442910  0.252163  0.575106  1
  O  O32  1  0.440973  0.629512  0.786753  1
  O  O33  1  0.250000  0.649489  0.258263  1
  O  O34  1  0.750000  0.082616  0.131731  1
  O  O35  1  0.250000  0.917384  0.868269  1
  O  O36  1  0.940973  0.370488  0.213247  1
  O  O37  1  0.950124  0.207162  0.909176  1
  O  O38  1  0.057090  0.252163  0.575106  1
  O  O39  1  0.250000  0.496333  0.040049  1
