# generated using pymatgen
data_RbYP2O7
_symmetry_space_group_name_H-M   'P 1'
_cell_length_a   7.87832128
_cell_length_b   8.82235379
_cell_length_c   11.10000765
_cell_angle_alpha   90.00000000
_cell_angle_beta   90.00000000
_cell_angle_gamma   105.94634941
_symmetry_Int_Tables_number   1
_chemical_formula_structural   RbYP2O7
_chemical_formula_sum   'Rb4 Y4 P8 O28'
_cell_volume   741.82160147
_cell_formula_units_Z   4
loop_
 _symmetry_equiv_pos_site_id
 _symmetry_equiv_pos_as_xyz
  1  'x, y, z'
loop_
 _atom_site_type_symbol
 _atom_site_label
 _atom_site_symmetry_multiplicity
 _atom_site_fract_x
 _atom_site_fract_y
 _atom_site_fract_z
 _atom_site_occupancy
  O  O0  1  0.552211  0.268083  0.269249  1
  O  O1  1  0.447789  0.231917  0.769249  1
  O  O2  1  0.447789  0.731917  0.730751  1
  O  O3  1  0.552211  0.768083  0.230751  1
  O  O4  1  0.994897  0.281307  0.003556  1
  O  O5  1  0.005103  0.218693  0.503556  1
  O  O6  1  0.005103  0.718693  0.996444  1
  O  O7  1  0.994897  0.781307  0.496444  1
  O  O8  1  0.668469  0.483477  0.110009  1
  O  O9  1  0.331531  0.016523  0.610009  1
  O  O10  1  0.331531  0.516523  0.889991  1
  O  O11  1  0.668469  0.983477  0.389991  1
  O  O12  1  0.856911  0.010275  0.092950  1
  O  O13  1  0.143089  0.489725  0.592950  1
  O  O14  1  0.143089  0.989725  0.907050  1
  O  O15  1  0.856911  0.510275  0.407050  1
  O  O16  1  0.676145  0.203458  0.068672  1
  O  O17  1  0.323855  0.296542  0.568672  1
  O  O18  1  0.323855  0.796542  0.931328  1
  O  O19  1  0.676145  0.703458  0.431328  1
  O  O20  1  0.924344  0.753337  0.273183  1
  O  O21  1  0.075656  0.746663  0.773183  1
  O  O22  1  0.075656  0.246663  0.726817  1
  O  O23  1  0.924344  0.253337  0.226817  1
  O  O24  1  0.384493  0.764653  0.424216  1
  O  O25  1  0.615507  0.735347  0.924216  1
  O  O26  1  0.615507  0.235347  0.575784  1
  O  O27  1  0.384493  0.264653  0.075784  1
  P  P28  1  0.871771  0.685142  0.399635  1
  P  P29  1  0.128229  0.814858  0.899635  1
  P  P30  1  0.128229  0.314858  0.600365  1
  P  P31  1  0.871771  0.185142  0.100365  1
  P  P32  1  0.566314  0.312826  0.135494  1
  P  P33  1  0.433686  0.187174  0.635494  1
  P  P34  1  0.433686  0.687174  0.864506  1
  P  P35  1  0.566314  0.812826  0.364506  1
  Rb  Rb36  1  0.812179  0.933881  0.677873  1
  Rb  Rb37  1  0.187821  0.566119  0.177873  1
  Rb  Rb38  1  0.187821  0.066119  0.322127  1
  Rb  Rb39  1  0.812179  0.433881  0.822127  1
  Y  Y40  1  0.764792  0.249014  0.401537  1
  Y  Y41  1  0.235208  0.250986  0.901537  1
  Y  Y42  1  0.235208  0.750986  0.598463  1
  Y  Y43  1  0.764792  0.749014  0.098463  1
