# generated using pymatgen
data_RbVSe2
_symmetry_space_group_name_H-M   'P 1'
_cell_length_a   5.77970503
_cell_length_b   7.56275033
_cell_length_c   12.95499282
_cell_angle_alpha   85.11027594
_cell_angle_beta   77.11066734
_cell_angle_gamma   67.53514798
_symmetry_Int_Tables_number   1
_chemical_formula_structural   RbVSe2
_chemical_formula_sum   'Rb4 V4 Se8'
_cell_volume   510.11131883
_cell_formula_units_Z   4
loop_
 _symmetry_equiv_pos_site_id
 _symmetry_equiv_pos_as_xyz
  1  'x, y, z'
loop_
 _atom_site_type_symbol
 _atom_site_label
 _atom_site_symmetry_multiplicity
 _atom_site_fract_x
 _atom_site_fract_y
 _atom_site_fract_z
 _atom_site_occupancy
  V  V0  1  0.125000  0.750000  0.750000  1
  V  V1  1  0.875000  0.250000  0.250000  1
  V  V2  1  0.625000  0.750000  0.750000  1
  V  V3  1  0.375000  0.250000  0.250000  1
  Se  Se4  1  0.273420  0.057154  0.144889  1
  Se  Se5  1  0.975464  0.442846  0.355111  1
  Se  Se6  1  0.669426  0.057154  0.355111  1
  Se  Se7  1  0.581691  0.442846  0.144889  1
  Se  Se8  1  0.726580  0.942846  0.855111  1
  Se  Se9  1  0.024536  0.557154  0.644889  1
  Se  Se10  1  0.330574  0.942846  0.644889  1
  Se  Se11  1  0.418309  0.557154  0.855111  1
  Rb  Rb12  1  0.948226  0.750000  0.103548  1
  Rb  Rb13  1  0.301774  0.750000  0.396452  1
  Rb  Rb14  1  0.051774  0.250000  0.896452  1
  Rb  Rb15  1  0.698226  0.250000  0.603548  1
