# generated using pymatgen
data_La2Cu(SeO3)4
_symmetry_space_group_name_H-M   'P 1'
_cell_length_a   7.21315037
_cell_length_b   8.46058115
_cell_length_c   10.89703241
_cell_angle_alpha   110.36226926
_cell_angle_beta   90.00000000
_cell_angle_gamma   90.00000000
_symmetry_Int_Tables_number   1
_chemical_formula_structural   La2Cu(SeO3)4
_chemical_formula_sum   'La4 Cu2 Se8 O24'
_cell_volume   623.46194266
_cell_formula_units_Z   2
loop_
 _symmetry_equiv_pos_site_id
 _symmetry_equiv_pos_as_xyz
  1  'x, y, z'
loop_
 _atom_site_type_symbol
 _atom_site_label
 _atom_site_symmetry_multiplicity
 _atom_site_fract_x
 _atom_site_fract_y
 _atom_site_fract_z
 _atom_site_occupancy
  O  O0  1  0.656790  0.909465  0.442825  1
  O  O1  1  0.156790  0.590535  0.557175  1
  O  O2  1  0.343210  0.090535  0.557175  1
  O  O3  1  0.843210  0.409465  0.442825  1
  O  O4  1  0.885613  0.071968  0.345953  1
  O  O5  1  0.385613  0.428032  0.654047  1
  O  O6  1  0.114387  0.928032  0.654047  1
  O  O7  1  0.614387  0.571968  0.345953  1
  O  O8  1  0.989418  0.780951  0.387670  1
  O  O9  1  0.489418  0.719049  0.612330  1
  O  O10  1  0.010582  0.219049  0.612330  1
  O  O11  1  0.510582  0.280951  0.387670  1
  O  O12  1  0.281248  0.966312  0.292773  1
  O  O13  1  0.781248  0.533688  0.707227  1
  O  O14  1  0.392448  0.325846  0.055723  1
  O  O15  1  0.892448  0.174154  0.944277  1
  O  O16  1  0.607552  0.674154  0.944277  1
  O  O17  1  0.107552  0.825846  0.055723  1
  O  O18  1  0.129154  0.173116  0.143427  1
  O  O19  1  0.629154  0.326884  0.856573  1
  O  O20  1  0.870846  0.826884  0.856573  1
  O  O21  1  0.370846  0.673116  0.143427  1
  O  O22  1  0.218752  0.466312  0.292773  1
  O  O23  1  0.718752  0.033688  0.707227  1
  Cu  Cu24  1  0.500000  0.500000  0.000000  1
  Cu  Cu25  1  0.000000  0.000000  0.000000  1
  Se  Se26  1  0.178720  0.132323  0.683828  1
  Se  Se27  1  0.678720  0.367677  0.316172  1
  Se  Se28  1  0.324751  0.869682  0.127792  1
  Se  Se29  1  0.824751  0.630318  0.872208  1
  Se  Se30  1  0.675249  0.130318  0.872208  1
  Se  Se31  1  0.175249  0.369682  0.127792  1
  Se  Se32  1  0.821280  0.867677  0.316172  1
  Se  Se33  1  0.321280  0.632323  0.683828  1
  La  La34  1  0.333755  0.760086  0.413785  1
  La  La35  1  0.833755  0.739914  0.586215  1
  La  La36  1  0.666245  0.239914  0.586215  1
  La  La37  1  0.166245  0.260086  0.413785  1
