# generated using pymatgen
data_Sr8Al7
_symmetry_space_group_name_H-M   'P 1'
_cell_length_a   12.76189535
_cell_length_b   12.76189535
_cell_length_c   12.76189535
_cell_angle_alpha   90.00000000
_cell_angle_beta   90.00000000
_cell_angle_gamma   90.00000000
_symmetry_Int_Tables_number   1
_chemical_formula_structural   Sr8Al7
_chemical_formula_sum   'Sr32 Al28'
_cell_volume   2078.47850254
_cell_formula_units_Z   4
loop_
 _symmetry_equiv_pos_site_id
 _symmetry_equiv_pos_as_xyz
  1  'x, y, z'
loop_
 _atom_site_type_symbol
 _atom_site_label
 _atom_site_symmetry_multiplicity
 _atom_site_fract_x
 _atom_site_fract_y
 _atom_site_fract_z
 _atom_site_occupancy
  Al  Al0  1  0.430816  0.430816  0.430816  1
  Al  Al1  1  0.069184  0.569184  0.930816  1
  Al  Al2  1  0.930816  0.069184  0.569184  1
  Al  Al3  1  0.569184  0.930816  0.069184  1
  Al  Al4  1  0.753113  0.190418  0.576451  1
  Al  Al5  1  0.576451  0.753113  0.190418  1
  Al  Al6  1  0.190418  0.576451  0.753113  1
  Al  Al7  1  0.309582  0.423549  0.253113  1
  Al  Al8  1  0.076451  0.746887  0.809582  1
  Al  Al9  1  0.809582  0.076451  0.746887  1
  Al  Al10  1  0.923549  0.246887  0.690418  1
  Al  Al11  1  0.423549  0.253113  0.309582  1
  Al  Al12  1  0.690418  0.923549  0.246887  1
  Al  Al13  1  0.253113  0.309582  0.423549  1
  Al  Al14  1  0.246887  0.690418  0.923549  1
  Al  Al15  1  0.746887  0.809582  0.076451  1
  Al  Al16  1  0.752320  0.684929  0.580688  1
  Al  Al17  1  0.580688  0.752320  0.684929  1
  Al  Al18  1  0.684929  0.580688  0.752320  1
  Al  Al19  1  0.815071  0.419312  0.252320  1
  Al  Al20  1  0.080688  0.747680  0.315071  1
  Al  Al21  1  0.315071  0.080688  0.747680  1
  Al  Al22  1  0.919312  0.247680  0.184929  1
  Al  Al23  1  0.419312  0.252320  0.815071  1
  Al  Al24  1  0.184929  0.919312  0.247680  1
  Al  Al25  1  0.252320  0.815071  0.419312  1
  Al  Al26  1  0.247680  0.184929  0.919312  1
  Al  Al27  1  0.747680  0.315071  0.080688  1
  Sr  Sr28  1  0.813125  0.813125  0.813125  1
  Sr  Sr29  1  0.686875  0.186875  0.313125  1
  Sr  Sr30  1  0.313125  0.686875  0.186875  1
  Sr  Sr31  1  0.186875  0.313125  0.686875  1
  Sr  Sr32  1  0.184624  0.184624  0.184624  1
  Sr  Sr33  1  0.315376  0.815376  0.684624  1
  Sr  Sr34  1  0.684624  0.315376  0.815376  1
  Sr  Sr35  1  0.815376  0.684624  0.315376  1
  Sr  Sr36  1  0.803486  0.559661  0.005915  1
  Sr  Sr37  1  0.005915  0.803486  0.559661  1
  Sr  Sr38  1  0.559661  0.005915  0.803486  1
  Sr  Sr39  1  0.940339  0.994085  0.303486  1
  Sr  Sr40  1  0.505915  0.696514  0.440339  1
  Sr  Sr41  1  0.440339  0.505915  0.696514  1
  Sr  Sr42  1  0.494085  0.196514  0.059661  1
  Sr  Sr43  1  0.994085  0.303486  0.940339  1
  Sr  Sr44  1  0.059661  0.494085  0.196514  1
  Sr  Sr45  1  0.303486  0.940339  0.994085  1
  Sr  Sr46  1  0.196514  0.059661  0.494085  1
  Sr  Sr47  1  0.696514  0.440339  0.505915  1
  Sr  Sr48  1  0.522733  0.705018  0.935976  1
  Sr  Sr49  1  0.935976  0.522733  0.705018  1
  Sr  Sr50  1  0.705018  0.935976  0.522733  1
  Sr  Sr51  1  0.794982  0.064024  0.022733  1
  Sr  Sr52  1  0.435976  0.977267  0.294982  1
  Sr  Sr53  1  0.294982  0.435976  0.977267  1
  Sr  Sr54  1  0.564024  0.477267  0.205018  1
  Sr  Sr55  1  0.064024  0.022733  0.794982  1
  Sr  Sr56  1  0.205018  0.564024  0.477267  1
  Sr  Sr57  1  0.022733  0.794982  0.064024  1
  Sr  Sr58  1  0.477267  0.205018  0.564024  1
  Sr  Sr59  1  0.977267  0.294982  0.435976  1
