# generated using pymatgen
data_TeMoWS3
_symmetry_space_group_name_H-M   'P 1'
_cell_length_a   3.27166529
_cell_length_b   3.27156293
_cell_length_c   38.19424172
_cell_angle_alpha   89.99994016
_cell_angle_beta   90.00000000
_cell_angle_gamma   120.00103514
_symmetry_Int_Tables_number   1
_chemical_formula_structural   TeMoWS3
_chemical_formula_sum   'Te2 Mo2 W2 S6'
_cell_volume   354.03658122
_cell_formula_units_Z   2
loop_
 _symmetry_equiv_pos_site_id
 _symmetry_equiv_pos_as_xyz
  1  'x, y, z'
loop_
 _atom_site_type_symbol
 _atom_site_label
 _atom_site_symmetry_multiplicity
 _atom_site_fract_x
 _atom_site_fract_y
 _atom_site_fract_z
 _atom_site_occupancy
  Te  Te0  1  0.333300  0.666602  0.332177  1
  Te  Te1  1  0.333328  0.666656  0.231240  1
  Mo  Mo2  1  0.333327  0.666654  0.093328  1
  Mo  Mo3  1  0.666653  0.333306  0.281671  1
  W  W4  1  0.333320  0.666640  0.470235  1
  W  W5  1  0.666699  0.333398  0.657644  1
  S  S6  1  0.333356  0.666712  0.698096  1
  S  S7  1  0.666687  0.333373  0.053086  1
  S  S8  1  0.666662  0.333322  0.429776  1
  S  S9  1  0.666661  0.333322  0.133631  1
  S  S10  1  0.666638  0.333275  0.510661  1
  S  S11  1  0.333370  0.666741  0.617204  1
