# generated using pymatgen
data_Sn3H8C2NO7
_symmetry_space_group_name_H-M   'P 1'
_cell_length_a   6.96331810
_cell_length_b   8.29622235
_cell_length_c   9.25575131
_cell_angle_alpha   97.95043252
_cell_angle_beta   90.00000000
_cell_angle_gamma   90.00000000
_symmetry_Int_Tables_number   1
_chemical_formula_structural   Sn3H8C2NO7
_chemical_formula_sum   'Sn6 H16 C4 N2 O14'
_cell_volume   529.55821357
_cell_formula_units_Z   2
loop_
 _symmetry_equiv_pos_site_id
 _symmetry_equiv_pos_as_xyz
  1  'x, y, z'
loop_
 _atom_site_type_symbol
 _atom_site_label
 _atom_site_symmetry_multiplicity
 _atom_site_fract_x
 _atom_site_fract_y
 _atom_site_fract_z
 _atom_site_occupancy
  Sn  Sn0  1  0.314798  0.297930  0.665506  1
  Sn  Sn1  1  0.100434  0.018252  0.422236  1
  Sn  Sn2  1  0.819677  0.401809  0.578273  1
  Sn  Sn3  1  0.600434  0.981748  0.577764  1
  Sn  Sn4  1  0.319677  0.598191  0.421727  1
  Sn  Sn5  1  0.814798  0.702070  0.334494  1
  H  H6  1  0.039664  0.691273  0.002514  1
  H  H7  1  0.539664  0.308727  0.997486  1
  H  H8  1  0.598164  0.033523  0.021759  1
  H  H9  1  0.098164  0.966477  0.978241  1
  H  H10  1  0.638198  0.373093  0.160314  1
  H  H11  1  0.969573  0.863803  0.822527  1
  H  H12  1  0.138198  0.626907  0.839686  1
  H  H13  1  0.355900  0.588972  0.036394  1
  H  H14  1  0.469573  0.136197  0.177473  1
  H  H15  1  0.452934  0.728458  0.921200  1
  H  H16  1  0.344975  0.806416  0.093164  1
  H  H17  1  0.723939  0.094206  0.189891  1
  H  H18  1  0.223939  0.905794  0.810109  1
  H  H19  1  0.855900  0.411028  0.963606  1
  H  H20  1  0.844975  0.193584  0.906836  1
  H  H21  1  0.952934  0.271542  0.078800  1
  C  C22  1  0.840803  0.291299  0.999763  1
  C  C23  1  0.340803  0.708701  0.000237  1
  C  C24  1  0.106938  0.875619  0.881031  1
  C  C25  1  0.606938  0.124381  0.118969  1
  N  N26  1  0.149450  0.715610  0.930080  1
  N  N27  1  0.649450  0.284390  0.069920  1
  O  O28  1  0.667426  0.942974  0.772365  1
  O  O29  1  0.167426  0.057026  0.227635  1
  O  O30  1  0.814709  0.957706  0.424155  1
  O  O31  1  0.826485  0.688421  0.127494  1
  O  O32  1  0.314709  0.042294  0.575845  1
  O  O33  1  0.806853  0.473665  0.383570  1
  O  O34  1  0.598423  0.240730  0.579140  1
  O  O35  1  0.851925  0.556589  0.749121  1
  O  O36  1  0.544012  0.759315  0.441952  1
  O  O37  1  0.098423  0.759270  0.420860  1
  O  O38  1  0.306853  0.526335  0.616430  1
  O  O39  1  0.044012  0.240685  0.558048  1
  O  O40  1  0.351925  0.443411  0.250879  1
  O  O41  1  0.326485  0.311579  0.872506  1
