# generated using pymatgen
data_Nb2VSe4
_symmetry_space_group_name_H-M   'P 1'
_cell_length_a   3.51775737
_cell_length_b   6.37218964
_cell_length_c   7.10294977
_cell_angle_alpha   114.79566903
_cell_angle_beta   104.33710576
_cell_angle_gamma   90.00000000
_symmetry_Int_Tables_number   1
_chemical_formula_structural   Nb2VSe4
_chemical_formula_sum   'Nb2 V1 Se4'
_cell_volume   139.05873267
_cell_formula_units_Z   1
loop_
 _symmetry_equiv_pos_site_id
 _symmetry_equiv_pos_as_xyz
  1  'x, y, z'
loop_
 _atom_site_type_symbol
 _atom_site_label
 _atom_site_symmetry_multiplicity
 _atom_site_fract_x
 _atom_site_fract_y
 _atom_site_fract_z
 _atom_site_occupancy
  Nb  Nb0  1  0.106875  0.701311  0.213750  1
  Nb  Nb1  1  0.620609  0.345225  0.241217  1
  V  V2  1  0.364208  0.023744  0.728416  1
  Se  Se3  1  0.999580  0.997565  0.999159  1
  Se  Se4  1  0.263707  0.579111  0.527415  1
  Se  Se5  1  0.463605  0.467068  0.927210  1
  Se  Se6  1  0.728716  0.048476  0.457433  1
