# generated using pymatgen
data_Ca2FeMoO6
_symmetry_space_group_name_H-M   'P 1'
_cell_length_a   5.50110997
_cell_length_b   5.72089475
_cell_length_c   7.74758205
_cell_angle_alpha   90.00000000
_cell_angle_beta   90.68972315
_cell_angle_gamma   90.00000000
_symmetry_Int_Tables_number   1
_chemical_formula_structural   Ca2FeMoO6
_chemical_formula_sum   'Ca4 Fe2 Mo2 O12'
_cell_volume   243.80858906
_cell_formula_units_Z   2
loop_
 _symmetry_equiv_pos_site_id
 _symmetry_equiv_pos_as_xyz
  1  'x, y, z'
loop_
 _atom_site_type_symbol
 _atom_site_label
 _atom_site_symmetry_multiplicity
 _atom_site_fract_x
 _atom_site_fract_y
 _atom_site_fract_z
 _atom_site_occupancy
  O  O0  1  0.714439  0.687814  0.548338  1
  O  O1  1  0.785562  0.187814  0.951662  1
  O  O2  1  0.285561  0.312185  0.451663  1
  O  O3  1  0.214438  0.812185  0.048338  1
  O  O4  1  0.183530  0.782242  0.445674  1
  O  O5  1  0.316469  0.282242  0.054327  1
  O  O6  1  0.816470  0.217757  0.554326  1
  O  O7  1  0.683531  0.717757  0.945674  1
  O  O8  1  0.100396  0.532486  0.742331  1
  O  O9  1  0.399605  0.032485  0.757670  1
  O  O10  1  0.600395  0.967514  0.242331  1
  O  O11  1  0.899604  0.467515  0.257670  1
  Ca  Ca12  1  0.984241  0.941603  0.752664  1
  Ca  Ca13  1  0.515758  0.441603  0.747336  1
  Ca  Ca14  1  0.015759  0.058398  0.247335  1
  Ca  Ca15  1  0.484242  0.558398  0.252665  1
  Fe  Fe16  1  0.499999  0.000000  0.500000  1
  Fe  Fe17  1  0.000000  0.500000  0.000000  1
  Mo  Mo18  1  0.500000  0.000000  0.000000  1
  Mo  Mo19  1  0.000001  0.500000  0.500001  1
