# generated using pymatgen
data_PPd6
_symmetry_space_group_name_H-M   'P 1'
_cell_length_a   5.73367549
_cell_length_b   8.35500767
_cell_length_c   9.64709167
_cell_angle_alpha   90.00000000
_cell_angle_beta   90.00000000
_cell_angle_gamma   110.19667131
_symmetry_Int_Tables_number   1
_chemical_formula_structural   PPd6
_chemical_formula_sum   'P4 Pd24'
_cell_volume   433.72724012
_cell_formula_units_Z   4
loop_
 _symmetry_equiv_pos_site_id
 _symmetry_equiv_pos_as_xyz
  1  'x, y, z'
loop_
 _atom_site_type_symbol
 _atom_site_label
 _atom_site_symmetry_multiplicity
 _atom_site_fract_x
 _atom_site_fract_y
 _atom_site_fract_z
 _atom_site_occupancy
  P  P0  1  0.123207  0.749199  0.760896  1
  P  P1  1  0.876793  0.750801  0.260896  1
  P  P2  1  0.876793  0.250801  0.239104  1
  P  P3  1  0.123207  0.249199  0.739104  1
  Pd  Pd4  1  0.470875  0.931059  0.867192  1
  Pd  Pd5  1  0.529125  0.568941  0.367192  1
  Pd  Pd6  1  0.529125  0.068941  0.132808  1
  Pd  Pd7  1  0.470875  0.431059  0.632808  1
  Pd  Pd8  1  0.226579  0.431242  0.134755  1
  Pd  Pd9  1  0.773421  0.068758  0.634755  1
  Pd  Pd10  1  0.773421  0.568758  0.865245  1
  Pd  Pd11  1  0.226579  0.931242  0.365245  1
  Pd  Pd12  1  0.286288  0.563820  0.866527  1
  Pd  Pd13  1  0.713712  0.936180  0.366527  1
  Pd  Pd14  1  0.713712  0.436180  0.133473  1
  Pd  Pd15  1  0.286288  0.063820  0.633473  1
  Pd  Pd16  1  0.133164  0.249327  0.420540  1
  Pd  Pd17  1  0.866836  0.250673  0.920540  1
  Pd  Pd18  1  0.866836  0.750673  0.579460  1
  Pd  Pd19  1  0.133164  0.749327  0.079460  1
  Pd  Pd20  1  0.380053  0.748798  0.580342  1
  Pd  Pd21  1  0.619947  0.751202  0.080342  1
  Pd  Pd22  1  0.619947  0.251202  0.419658  1
  Pd  Pd23  1  0.380053  0.248798  0.919658  1
  Pd  Pd24  1  0.039974  0.564346  0.364486  1
  Pd  Pd25  1  0.960026  0.935654  0.864486  1
  Pd  Pd26  1  0.960026  0.435654  0.635514  1
  Pd  Pd27  1  0.039974  0.064346  0.135514  1
