# generated using pymatgen
data_Te2Mo3S4
_symmetry_space_group_name_H-M   'P 1'
_cell_length_a   3.30457044
_cell_length_b   3.30451005
_cell_length_c   30.47783301
_cell_angle_alpha   90.00000000
_cell_angle_beta   90.00000000
_cell_angle_gamma   120.00060451
_symmetry_Int_Tables_number   1
_chemical_formula_structural   Te2Mo3S4
_chemical_formula_sum   'Te2 Mo3 S4'
_cell_volume   288.22666884
_cell_formula_units_Z   1
loop_
 _symmetry_equiv_pos_site_id
 _symmetry_equiv_pos_as_xyz
  1  'x, y, z'
loop_
 _atom_site_type_symbol
 _atom_site_label
 _atom_site_symmetry_multiplicity
 _atom_site_fract_x
 _atom_site_fract_y
 _atom_site_fract_z
 _atom_site_occupancy
  Te  Te0  1  0.333359  0.666718  0.409820  1
  Te  Te1  1  0.333359  0.666718  0.284145  1
  Mo  Mo2  1  0.333305  0.666610  0.115608  1
  Mo  Mo3  1  0.333305  0.666610  0.578357  1
  Mo  Mo4  1  0.666686  0.333372  0.346982  1
  S  S5  1  0.666647  0.333294  0.065431  1
  S  S6  1  0.666646  0.333292  0.528137  1
  S  S7  1  0.666646  0.333292  0.165828  1
  S  S8  1  0.666647  0.333294  0.628533  1
