# generated using pymatgen
data_LuCd2
_symmetry_space_group_name_H-M   'P 1'
_cell_length_a   5.38175010
_cell_length_b   5.38243386
_cell_length_c   3.21733635
_cell_angle_alpha   90.00000000
_cell_angle_beta   89.90235567
_cell_angle_gamma   120.00419710
_symmetry_Int_Tables_number   1
_chemical_formula_structural   LuCd2
_chemical_formula_sum   'Lu1 Cd2'
_cell_volume   80.70679776
_cell_formula_units_Z   1
loop_
 _symmetry_equiv_pos_site_id
 _symmetry_equiv_pos_as_xyz
  1  'x, y, z'
loop_
 _atom_site_type_symbol
 _atom_site_label
 _atom_site_symmetry_multiplicity
 _atom_site_fract_x
 _atom_site_fract_y
 _atom_site_fract_z
 _atom_site_occupancy
  Lu  Lu0  1  0.000000  0.000000  0.000000  1
  Cd  Cd1  1  0.666631  0.333316  0.953359  1
  Cd  Cd2  1  0.333369  0.666684  0.046641  1
