# generated using pymatgen
data_Ti5Sb2Rh
_symmetry_space_group_name_H-M   'P 1'
_cell_length_a   5.23636703
_cell_length_b   7.86917708
_cell_length_c   7.86917708
_cell_angle_alpha   83.64442044
_cell_angle_beta   70.56642723
_cell_angle_gamma   70.56642717
_symmetry_Int_Tables_number   1
_chemical_formula_structural   Ti5Sb2Rh
_chemical_formula_sum   'Ti10 Sb4 Rh2'
_cell_volume   288.36182582
_cell_formula_units_Z   2
loop_
 _symmetry_equiv_pos_site_id
 _symmetry_equiv_pos_as_xyz
  1  'x, y, z'
loop_
 _atom_site_type_symbol
 _atom_site_label
 _atom_site_symmetry_multiplicity
 _atom_site_fract_x
 _atom_site_fract_y
 _atom_site_fract_z
 _atom_site_occupancy
  Ti  Ti0  1  0.073341  0.137450  0.715868  1
  Ti  Ti1  1  0.789209  0.284132  0.137450  1
  Ti  Ti2  1  0.210791  0.715868  0.862550  1
  Ti  Ti3  1  0.926659  0.862550  0.284132  1
  Ti  Ti4  1  0.289209  0.137450  0.284132  1
  Ti  Ti5  1  0.710791  0.862550  0.715868  1
  Ti  Ti6  1  0.426659  0.284132  0.862550  1
  Ti  Ti7  1  0.573341  0.715868  0.137450  1
  Ti  Ti8  1  0.250000  0.500000  0.500000  1
  Ti  Ti9  1  0.750000  0.500000  0.500000  1
  Rh  Rh10  1  0.250000  0.000000  0.000000  1
  Rh  Rh11  1  0.750000  0.000000  0.000000  1
  Sb  Sb12  1  0.163392  0.500000  0.173216  1
  Sb  Sb13  1  0.336608  0.826784  0.500000  1
  Sb  Sb14  1  0.663392  0.173216  0.500000  1
  Sb  Sb15  1  0.836608  0.500000  0.826784  1
