# generated using pymatgen
data_Y(CuS)2
_symmetry_space_group_name_H-M   'P 1'
_cell_length_a   3.92740423
_cell_length_b   3.92740457
_cell_length_c   6.41411224
_cell_angle_alpha   89.95441644
_cell_angle_beta   90.04558354
_cell_angle_gamma   119.93524349
_symmetry_Int_Tables_number   1
_chemical_formula_structural   Y(CuS)2
_chemical_formula_sum   'Y1 Cu2 S2'
_cell_volume   85.73561513
_cell_formula_units_Z   1
loop_
 _symmetry_equiv_pos_site_id
 _symmetry_equiv_pos_as_xyz
  1  'x, y, z'
loop_
 _atom_site_type_symbol
 _atom_site_label
 _atom_site_symmetry_multiplicity
 _atom_site_fract_x
 _atom_site_fract_y
 _atom_site_fract_z
 _atom_site_occupancy
  Y  Y0  1  -0.000000  -0.000000  0.000000  1
  Cu  Cu1  1  0.666360  0.333640  0.658361  1
  Cu  Cu2  1  0.333640  0.666360  0.341639  1
  S  S3  1  0.666995  0.333005  0.267394  1
  S  S4  1  0.333005  0.666995  0.732606  1
