# generated using pymatgen
data_TlN
_symmetry_space_group_name_H-M   'P 1'
_cell_length_a   3.72958747
_cell_length_b   3.72930734
_cell_length_c   6.08580806
_cell_angle_alpha   90.00000000
_cell_angle_beta   90.00000000
_cell_angle_gamma   120.00248473
_symmetry_Int_Tables_number   1
_chemical_formula_structural   TlN
_chemical_formula_sum   'Tl2 N2'
_cell_volume   73.30388323
_cell_formula_units_Z   2
loop_
 _symmetry_equiv_pos_site_id
 _symmetry_equiv_pos_as_xyz
  1  'x, y, z'
loop_
 _atom_site_type_symbol
 _atom_site_label
 _atom_site_symmetry_multiplicity
 _atom_site_fract_x
 _atom_site_fract_y
 _atom_site_fract_z
 _atom_site_occupancy
  Tl  Tl0  1  0.666685  0.333370  0.499676  1
  Tl  Tl1  1  0.333315  0.666630  0.999676  1
  N  N2  1  0.666685  0.333369  0.875324  1
  N  N3  1  0.333315  0.666631  0.375324  1
