# generated using pymatgen
data_LiLa2IrO6
_symmetry_space_group_name_H-M   'P 1'
_cell_length_a   5.55837143
_cell_length_b   5.79223392
_cell_length_c   7.90304712
_cell_angle_alpha   90.00000000
_cell_angle_beta   90.38368756
_cell_angle_gamma   90.00000000
_symmetry_Int_Tables_number   1
_chemical_formula_structural   LiLa2IrO6
_chemical_formula_sum   'Li2 La4 Ir2 O12'
_cell_volume   254.43595965
_cell_formula_units_Z   2
loop_
 _symmetry_equiv_pos_site_id
 _symmetry_equiv_pos_as_xyz
  1  'x, y, z'
loop_
 _atom_site_type_symbol
 _atom_site_label
 _atom_site_symmetry_multiplicity
 _atom_site_fract_x
 _atom_site_fract_y
 _atom_site_fract_z
 _atom_site_occupancy
  Li  Li0  1  0.000000  0.000000  0.000000  1
  Li  Li1  1  0.500000  0.500000  0.500000  1
  O  O2  1  0.186842  0.285339  0.451779  1
  O  O3  1  0.313158  0.785339  0.048221  1
  O  O4  1  0.813158  0.714661  0.548221  1
  O  O5  1  0.686842  0.214661  0.951779  1
  O  O6  1  0.087678  0.023767  0.744734  1
  O  O7  1  0.412322  0.523767  0.755266  1
  O  O8  1  0.207064  0.308060  0.044854  1
  O  O9  1  0.292936  0.808060  0.455146  1
  O  O10  1  0.792936  0.691940  0.955146  1
  O  O11  1  0.707064  0.191940  0.544854  1
  O  O12  1  0.587678  0.476233  0.244734  1
  O  O13  1  0.912322  0.976233  0.255266  1
  La  La14  1  0.487291  0.061208  0.251791  1
  La  La15  1  0.012709  0.561208  0.248209  1
  La  La16  1  0.987291  0.438792  0.751791  1
  La  La17  1  0.512709  0.938792  0.748209  1
  Ir  Ir18  1  0.500000  0.500000  0.000000  1
  Ir  Ir19  1  0.000000  0.000000  0.500000  1
