# generated using pymatgen
data_Ba2SiTe4
_symmetry_space_group_name_H-M   'P 1'
_cell_length_a   7.65290558
_cell_length_b   7.68620986
_cell_length_c   9.73722563
_cell_angle_alpha   90.00000000
_cell_angle_beta   108.53741243
_cell_angle_gamma   90.00000000
_symmetry_Int_Tables_number   1
_chemical_formula_structural   Ba2SiTe4
_chemical_formula_sum   'Ba4 Si2 Te8'
_cell_volume   543.04450406
_cell_formula_units_Z   2
loop_
 _symmetry_equiv_pos_site_id
 _symmetry_equiv_pos_as_xyz
  1  'x, y, z'
loop_
 _atom_site_type_symbol
 _atom_site_label
 _atom_site_symmetry_multiplicity
 _atom_site_fract_x
 _atom_site_fract_y
 _atom_site_fract_z
 _atom_site_occupancy
  Si  Si0  1  0.789062  0.250000  0.705562  1
  Si  Si1  1  0.210938  0.750000  0.294438  1
  Te  Te2  1  0.005504  0.993380  0.766853  1
  Te  Te3  1  0.994496  0.493380  0.233147  1
  Te  Te4  1  0.375548  0.750000  0.564698  1
  Te  Te5  1  0.624452  0.250000  0.435302  1
  Te  Te6  1  0.404852  0.750000  0.125762  1
  Te  Te7  1  0.595148  0.250000  0.874238  1
  Te  Te8  1  0.005504  0.506620  0.766853  1
  Te  Te9  1  0.994496  0.006620  0.233147  1
  Ba  Ba10  1  0.270696  0.250000  0.071139  1
  Ba  Ba11  1  0.729304  0.750000  0.928861  1
  Ba  Ba12  1  0.223678  0.250000  0.551775  1
  Ba  Ba13  1  0.776322  0.750000  0.448225  1
