# generated using pymatgen
data_Te2MoW3(Se2S)2
_symmetry_space_group_name_H-M   'P 1'
_cell_length_a   3.33972233
_cell_length_b   3.33972502
_cell_length_c   38.11921821
_cell_angle_alpha   89.99909863
_cell_angle_beta   90.00000066
_cell_angle_gamma   119.99995929
_symmetry_Int_Tables_number   1
_chemical_formula_structural   Te2MoW3(Se2S)2
_chemical_formula_sum   'Te2 Mo1 W3 Se4 S2'
_cell_volume   368.21024271
_cell_formula_units_Z   1
loop_
 _symmetry_equiv_pos_site_id
 _symmetry_equiv_pos_as_xyz
  1  'x, y, z'
loop_
 _atom_site_type_symbol
 _atom_site_label
 _atom_site_symmetry_multiplicity
 _atom_site_fract_x
 _atom_site_fract_y
 _atom_site_fract_z
 _atom_site_occupancy
  Te  Te0  1  0.333351  0.666702  0.331526  1
  Te  Te1  1  0.333353  0.666708  0.232017  1
  Mo  Mo2  1  0.666689  0.333379  0.281764  1
  W  W3  1  0.333311  0.666621  0.093909  1
  W  W4  1  0.333311  0.666621  0.469706  1
  W  W5  1  0.666691  0.333382  0.657532  1
  Se  Se6  1  0.333346  0.666692  0.701473  1
  Se  Se7  1  0.666651  0.333301  0.425754  1
  Se  Se8  1  0.666646  0.333292  0.513639  1
  Se  Se9  1  0.333359  0.666719  0.613588  1
  S  S10  1  0.666647  0.333294  0.053955  1
  S  S11  1  0.666645  0.333290  0.133884  1
