# generated using pymatgen
data_BaNb2(FeO3)4
_symmetry_space_group_name_H-M   'P 1'
_cell_length_a   8.44825728
_cell_length_b   8.44825728
_cell_length_c   8.44825728
_cell_angle_alpha   106.27767430
_cell_angle_beta   106.27767430
_cell_angle_gamma   116.06653720
_symmetry_Int_Tables_number   1
_chemical_formula_structural   BaNb2(FeO3)4
_chemical_formula_sum   'Ba2 Nb4 Fe8 O24'
_cell_volume   459.50811960
_cell_formula_units_Z   2
loop_
 _symmetry_equiv_pos_site_id
 _symmetry_equiv_pos_as_xyz
  1  'x, y, z'
loop_
 _atom_site_type_symbol
 _atom_site_label
 _atom_site_symmetry_multiplicity
 _atom_site_fract_x
 _atom_site_fract_y
 _atom_site_fract_z
 _atom_site_occupancy
  Ba  Ba0  1  0.784487  0.784487  0.000000  1
  Ba  Ba1  1  0.215513  0.215513  0.000000  1
  Nb  Nb2  1  0.841649  0.642375  0.484023  1
  Nb  Nb3  1  0.158351  0.357625  0.515977  1
  Nb  Nb4  1  0.357625  0.841649  0.199274  1
  Nb  Nb5  1  0.642375  0.158351  0.800726  1
  Fe  Fe6  1  0.495001  0.320065  0.481787  1
  Fe  Fe7  1  0.838277  0.013214  0.518213  1
  Fe  Fe8  1  0.013214  0.495001  0.174936  1
  Fe  Fe9  1  0.320065  0.838277  0.825064  1
  Fe  Fe10  1  0.504999  0.679935  0.518213  1
  Fe  Fe11  1  0.161723  0.986786  0.481787  1
  Fe  Fe12  1  0.986786  0.504999  0.825064  1
  Fe  Fe13  1  0.679935  0.161723  0.174936  1
  O  O14  1  0.799930  0.849350  0.649280  1
  O  O15  1  0.200070  0.150650  0.350720  1
  O  O16  1  0.150650  0.799930  0.950581  1
  O  O17  1  0.849350  0.200070  0.049419  1
  O  O18  1  0.468446  0.510262  0.645008  1
  O  O19  1  0.865254  0.823438  0.354992  1
  O  O20  1  0.823438  0.468446  0.958185  1
  O  O21  1  0.510262  0.865254  0.041815  1
  O  O22  1  0.531554  0.489738  0.354992  1
  O  O23  1  0.134746  0.176562  0.645008  1
  O  O24  1  0.176562  0.531554  0.041815  1
  O  O25  1  0.489738  0.134746  0.958185  1
  O  O26  1  0.838921  0.452169  0.291091  1
  O  O27  1  0.161079  0.547831  0.708909  1
  O  O28  1  0.547831  0.838921  0.386752  1
  O  O29  1  0.452169  0.161079  0.613248  1
  O  O30  1  0.499960  0.129351  0.291781  1
  O  O31  1  0.837570  0.208179  0.708219  1
  O  O32  1  0.208179  0.499960  0.370609  1
  O  O33  1  0.129351  0.837570  0.629391  1
  O  O34  1  0.500040  0.870649  0.708219  1
  O  O35  1  0.162430  0.791821  0.291781  1
  O  O36  1  0.791821  0.500040  0.629391  1
  O  O37  1  0.870649  0.162430  0.370609  1
