# generated using pymatgen
data_Te2Mo3W(Se2S)2
_symmetry_space_group_name_H-M   'P 1'
_cell_length_a   3.34278414
_cell_length_b   3.34276818
_cell_length_c   38.01258666
_cell_angle_alpha   90.00021639
_cell_angle_beta   90.00000000
_cell_angle_gamma   120.00015799
_symmetry_Int_Tables_number   1
_chemical_formula_structural   Te2Mo3W(Se2S)2
_chemical_formula_sum   'Te2 Mo3 W1 Se4 S2'
_cell_volume   367.85101213
_cell_formula_units_Z   1
loop_
 _symmetry_equiv_pos_site_id
 _symmetry_equiv_pos_as_xyz
  1  'x, y, z'
loop_
 _atom_site_type_symbol
 _atom_site_label
 _atom_site_symmetry_multiplicity
 _atom_site_fract_x
 _atom_site_fract_y
 _atom_site_fract_z
 _atom_site_occupancy
  Te  Te0  1  0.333352  0.666705  0.707404  1
  Te  Te1  1  0.333352  0.666704  0.607667  1
  Mo  Mo2  1  0.333311  0.666622  0.093916  1
  Mo  Mo3  1  0.666690  0.333380  0.281842  1
  Mo  Mo4  1  0.666690  0.333381  0.657565  1
  W  W5  1  0.333310  0.666619  0.469675  1
  Se  Se6  1  0.333355  0.666712  0.325618  1
  Se  Se7  1  0.666647  0.333293  0.050085  1
  Se  Se8  1  0.666648  0.333296  0.137740  1
  Se  Se9  1  0.333351  0.666702  0.237950  1
  S  S10  1  0.666647  0.333292  0.429561  1
  S  S11  1  0.666647  0.333294  0.509726  1
