# generated using pymatgen
data_RbV(CuS2)2
_symmetry_space_group_name_H-M   'P 1'
_cell_length_a   5.42580367
_cell_length_b   7.48975841
_cell_length_c   9.66570978
_cell_angle_alpha   90.00000000
_cell_angle_beta   106.30036364
_cell_angle_gamma   90.00000000
_symmetry_Int_Tables_number   1
_chemical_formula_structural   RbV(CuS2)2
_chemical_formula_sum   'Rb2 V2 Cu4 S8'
_cell_volume   377.00574575
_cell_formula_units_Z   2
loop_
 _symmetry_equiv_pos_site_id
 _symmetry_equiv_pos_as_xyz
  1  'x, y, z'
loop_
 _atom_site_type_symbol
 _atom_site_label
 _atom_site_symmetry_multiplicity
 _atom_site_fract_x
 _atom_site_fract_y
 _atom_site_fract_z
 _atom_site_occupancy
  S  S0  1  0.943210  0.010442  0.211588  1
  S  S1  1  0.363239  0.750000  0.986061  1
  S  S2  1  0.377178  0.250000  0.013939  1
  S  S3  1  0.731622  0.510442  0.788412  1
  S  S4  1  0.167029  0.750000  0.599209  1
  S  S5  1  0.731622  0.989558  0.788412  1
  S  S6  1  0.567820  0.250000  0.400791  1
  S  S7  1  0.943210  0.489558  0.211588  1
  V  V8  1  0.497294  0.750000  0.787879  1
  V  V9  1  0.709415  0.250000  0.212121  1
  Cu  Cu10  1  0.618818  0.500000  0.000000  1
  Cu  Cu11  1  0.206849  0.250000  0.208106  1
  Cu  Cu12  1  0.998743  0.750000  0.791894  1
  Cu  Cu13  1  0.618818  0.000000  0.000000  1
  Rb  Rb14  1  0.541281  0.750000  0.365627  1
  Rb  Rb15  1  0.175653  0.250000  0.634373  1
