# generated using pymatgen
data_LiFe(SiO3)2
_symmetry_space_group_name_H-M   'P 1'
_cell_length_a   5.33871978
_cell_length_b   8.80676653
_cell_length_c   9.37971204
_cell_angle_alpha   90.00000000
_cell_angle_beta   101.90695086
_cell_angle_gamma   90.00000000
_symmetry_Int_Tables_number   1
_chemical_formula_structural   LiFe(SiO3)2
_chemical_formula_sum   'Li4 Fe4 Si8 O24'
_cell_volume   431.51592361
_cell_formula_units_Z   4
loop_
 _symmetry_equiv_pos_site_id
 _symmetry_equiv_pos_as_xyz
  1  'x, y, z'
loop_
 _atom_site_type_symbol
 _atom_site_label
 _atom_site_symmetry_multiplicity
 _atom_site_fract_x
 _atom_site_fract_y
 _atom_site_fract_z
 _atom_site_occupancy
  Li  Li0  1  0.009760  0.004526  0.247567  1
  Li  Li1  1  0.490240  0.504526  0.752433  1
  Li  Li2  1  0.990240  0.995474  0.752433  1
  Li  Li3  1  0.509760  0.495474  0.247567  1
  O  O4  1  0.771904  0.496982  0.622141  1
  O  O5  1  0.581228  0.770556  0.603361  1
  O  O6  1  0.918772  0.270556  0.396639  1
  O  O7  1  0.418772  0.229444  0.396639  1
  O  O8  1  0.081228  0.729444  0.603361  1
  O  O9  1  0.026504  0.233377  0.107232  1
  O  O10  1  0.473496  0.733377  0.892768  1
  O  O11  1  0.973496  0.766623  0.892768  1
  O  O12  1  0.526504  0.266623  0.107232  1
  O  O13  1  0.228529  0.835214  0.366674  1
  O  O14  1  0.728096  0.996982  0.377859  1
  O  O15  1  0.228096  0.503018  0.377859  1
  O  O16  1  0.706579  0.333078  0.867576  1
  O  O17  1  0.793421  0.833078  0.132424  1
  O  O18  1  0.293421  0.666922  0.132424  1
  O  O19  1  0.206579  0.166922  0.867576  1
  O  O20  1  0.771471  0.164786  0.633326  1
  O  O21  1  0.271471  0.335214  0.633326  1
  O  O22  1  0.302901  0.993406  0.117792  1
  O  O23  1  0.728529  0.664786  0.366674  1
  O  O24  1  0.802901  0.506594  0.117792  1
  O  O25  1  0.697099  0.006594  0.882208  1
  O  O26  1  0.197099  0.493406  0.882208  1
  O  O27  1  0.271904  0.003018  0.622141  1
  Si  Si28  1  0.228707  0.661538  0.952227  1
  Si  Si29  1  0.791198  0.661071  0.547332  1
  Si  Si30  1  0.708802  0.161071  0.452668  1
  Si  Si31  1  0.208802  0.338929  0.452668  1
  Si  Si32  1  0.291198  0.838929  0.547332  1
  Si  Si33  1  0.271293  0.161538  0.047773  1
  Si  Si34  1  0.728707  0.838462  0.952227  1
  Si  Si35  1  0.771293  0.338462  0.047773  1
  Fe  Fe36  1  0.012424  0.647229  0.250315  1
  Fe  Fe37  1  0.512424  0.852771  0.250315  1
  Fe  Fe38  1  0.987576  0.352771  0.749685  1
  Fe  Fe39  1  0.487576  0.147229  0.749685  1
