# generated using pymatgen
data_Ba2Mn(BO2)6
_symmetry_space_group_name_H-M   'P 1'
_cell_length_a   7.12241501
_cell_length_b   7.12241501
_cell_length_c   7.12241500
_cell_angle_alpha   60.68414631
_cell_angle_beta   60.68414632
_cell_angle_gamma   60.68414630
_symmetry_Int_Tables_number   1
_chemical_formula_structural   Ba2Mn(BO2)6
_chemical_formula_sum   'Ba2 Mn1 B6 O12'
_cell_volume   259.43128428
_cell_formula_units_Z   1
loop_
 _symmetry_equiv_pos_site_id
 _symmetry_equiv_pos_as_xyz
  1  'x, y, z'
loop_
 _atom_site_type_symbol
 _atom_site_label
 _atom_site_symmetry_multiplicity
 _atom_site_fract_x
 _atom_site_fract_y
 _atom_site_fract_z
 _atom_site_occupancy
  B  B0  1  0.633779  0.244564  0.359657  1
  B  B1  1  0.244565  0.359658  0.633778  1
  B  B2  1  0.359658  0.633777  0.244566  1
  B  B3  1  0.640342  0.366222  0.755436  1
  B  B4  1  0.366222  0.755436  0.640342  1
  B  B5  1  0.755435  0.640342  0.366223  1
  O  O6  1  0.198528  0.574168  0.462017  1
  O  O7  1  0.462016  0.198529  0.574169  1
  O  O8  1  0.425832  0.537984  0.801470  1
  O  O9  1  0.678534  0.160931  0.912885  1
  O  O10  1  0.537983  0.801471  0.425833  1
  O  O11  1  0.160932  0.912886  0.678533  1
  O  O12  1  0.321467  0.839067  0.087115  1
  O  O13  1  0.087115  0.321467  0.839068  1
  O  O14  1  0.839069  0.087114  0.321467  1
  O  O15  1  0.801471  0.425831  0.537984  1
  O  O16  1  0.574168  0.462017  0.198529  1
  O  O17  1  0.912885  0.678533  0.160931  1
  Mn  Mn18  1  0.000000  0.000000  0.000000  1
  Ba  Ba19  1  0.791162  0.791163  0.791163  1
  Ba  Ba20  1  0.208837  0.208837  0.208838  1
