# generated using pymatgen
data_Sc2Re3Si4
_symmetry_space_group_name_H-M   'P 1'
_cell_length_a   6.63107201
_cell_length_b   6.63107201
_cell_length_c   12.47381534
_cell_angle_alpha   90.00000000
_cell_angle_beta   90.00000000
_cell_angle_gamma   90.00000000
_symmetry_Int_Tables_number   1
_chemical_formula_structural   Sc2Re3Si4
_chemical_formula_sum   'Sc8 Si16 Re12'
_cell_volume   548.48758130
_cell_formula_units_Z   4
loop_
 _symmetry_equiv_pos_site_id
 _symmetry_equiv_pos_as_xyz
  1  'x, y, z'
loop_
 _atom_site_type_symbol
 _atom_site_label
 _atom_site_symmetry_multiplicity
 _atom_site_fract_x
 _atom_site_fract_y
 _atom_site_fract_z
 _atom_site_occupancy
  Si  Si0  1  0.026247  0.721422  0.437694  1
  Si  Si1  1  0.620753  0.304546  0.430395  1
  Si  Si2  1  0.379247  0.695454  0.930395  1
  Si  Si3  1  0.195454  0.120753  0.680395  1
  Si  Si4  1  0.304546  0.620753  0.569605  1
  Si  Si5  1  0.695454  0.379247  0.069605  1
  Si  Si6  1  0.804546  0.879247  0.180395  1
  Si  Si7  1  0.120753  0.195454  0.319605  1
  Si  Si8  1  0.973753  0.278578  0.937694  1
  Si  Si9  1  0.721422  0.026247  0.562306  1
  Si  Si10  1  0.221422  0.473753  0.187694  1
  Si  Si11  1  0.778578  0.526247  0.687694  1
  Si  Si12  1  0.473753  0.221422  0.812306  1
  Si  Si13  1  0.526247  0.778578  0.312306  1
  Si  Si14  1  0.278578  0.973753  0.062306  1
  Si  Si15  1  0.879247  0.804546  0.819605  1
  Sc  Sc16  1  0.007513  0.658686  0.030950  1
  Sc  Sc17  1  0.992487  0.341314  0.530950  1
  Sc  Sc18  1  0.341314  0.992487  0.469050  1
  Sc  Sc19  1  0.158686  0.492487  0.780950  1
  Sc  Sc20  1  0.841314  0.507513  0.280950  1
  Sc  Sc21  1  0.492487  0.158686  0.219050  1
  Sc  Sc22  1  0.507513  0.841314  0.719050  1
  Sc  Sc23  1  0.658686  0.007513  0.969050  1
  Re  Re24  1  0.667964  0.667964  0.500000  1
  Re  Re25  1  0.167964  0.832036  0.250000  1
  Re  Re26  1  0.332036  0.332036  0.000000  1
  Re  Re27  1  0.017677  0.814534  0.632628  1
  Re  Re28  1  0.982323  0.185466  0.132628  1
  Re  Re29  1  0.814534  0.017677  0.367372  1
  Re  Re30  1  0.314534  0.482323  0.382628  1
  Re  Re31  1  0.685466  0.517677  0.882628  1
  Re  Re32  1  0.482323  0.314534  0.617372  1
  Re  Re33  1  0.517677  0.685466  0.117372  1
  Re  Re34  1  0.185466  0.982323  0.867372  1
  Re  Re35  1  0.832036  0.167964  0.750000  1
