# generated using pymatgen
data_Sc2(SO4)3
_symmetry_space_group_name_H-M   'P 1'
_cell_length_a   9.17373075
_cell_length_b   9.17373074
_cell_length_c   9.17373074
_cell_angle_alpha   57.69112097
_cell_angle_beta   57.69112104
_cell_angle_gamma   57.69112104
_symmetry_Int_Tables_number   1
_chemical_formula_structural   Sc2(SO4)3
_chemical_formula_sum   'Sc4 S6 O24'
_cell_volume   516.95167916
_cell_formula_units_Z   2
loop_
 _symmetry_equiv_pos_site_id
 _symmetry_equiv_pos_as_xyz
  1  'x, y, z'
loop_
 _atom_site_type_symbol
 _atom_site_label
 _atom_site_symmetry_multiplicity
 _atom_site_fract_x
 _atom_site_fract_y
 _atom_site_fract_z
 _atom_site_occupancy
  O  O0  1  0.991388  0.227570  0.374075  1
  O  O1  1  0.227570  0.374075  0.991388  1
  O  O2  1  0.374075  0.991388  0.227570  1
  O  O3  1  0.008612  0.772430  0.625925  1
  O  O4  1  0.772430  0.625925  0.008612  1
  O  O5  1  0.625925  0.008612  0.772430  1
  O  O6  1  0.125995  0.272277  0.508613  1
  O  O7  1  0.272277  0.508613  0.125995  1
  O  O8  1  0.508613  0.125995  0.272277  1
  O  O9  1  0.874005  0.727723  0.491387  1
  O  O10  1  0.298032  0.063868  0.914042  1
  O  O11  1  0.914042  0.298032  0.063868  1
  O  O12  1  0.063868  0.914042  0.298032  1
  O  O13  1  0.701968  0.936132  0.085958  1
  O  O14  1  0.085958  0.701968  0.936132  1
  O  O15  1  0.936132  0.085958  0.701968  1
  O  O16  1  0.436369  0.201863  0.585798  1
  O  O17  1  0.585798  0.436369  0.201863  1
  O  O18  1  0.201863  0.585798  0.436369  1
  O  O19  1  0.563631  0.798137  0.414202  1
  O  O20  1  0.414202  0.563631  0.798137  1
  O  O21  1  0.798137  0.414202  0.563631  1
  O  O22  1  0.491387  0.874005  0.727723  1
  O  O23  1  0.727723  0.491387  0.874005  1
  S  S24  1  0.463554  0.036463  0.749995  1
  S  S25  1  0.749995  0.463554  0.036463  1
  S  S26  1  0.036463  0.749995  0.463554  1
  S  S27  1  0.536446  0.963537  0.250005  1
  S  S28  1  0.963537  0.250005  0.536446  1
  S  S29  1  0.250005  0.536446  0.963537  1
  Sc  Sc30  1  0.144143  0.144143  0.144143  1
  Sc  Sc31  1  0.855857  0.855857  0.855857  1
  Sc  Sc32  1  0.355838  0.355838  0.355838  1
  Sc  Sc33  1  0.644162  0.644162  0.644162  1
