# generated using pymatgen
data_CsAg5Se3
_symmetry_space_group_name_H-M   'P 1'
_cell_length_a   4.47240889
_cell_length_b   14.34091047
_cell_length_c   14.34091047
_cell_angle_alpha   90.00000000
_cell_angle_beta   90.00000000
_cell_angle_gamma   90.00000000
_symmetry_Int_Tables_number   1
_chemical_formula_structural   CsAg5Se3
_chemical_formula_sum   'Cs4 Ag20 Se12'
_cell_volume   919.80327404
_cell_formula_units_Z   4
loop_
 _symmetry_equiv_pos_site_id
 _symmetry_equiv_pos_as_xyz
  1  'x, y, z'
loop_
 _atom_site_type_symbol
 _atom_site_label
 _atom_site_symmetry_multiplicity
 _atom_site_fract_x
 _atom_site_fract_y
 _atom_site_fract_z
 _atom_site_occupancy
  Se  Se0  1  0.000000  0.899530  0.899530  1
  Se  Se1  1  0.500000  0.600470  0.399530  1
  Se  Se2  1  0.500000  0.399530  0.600470  1
  Se  Se3  1  0.000000  0.100470  0.100470  1
  Se  Se4  1  0.500000  0.169320  0.382601  1
  Se  Se5  1  0.000000  0.117399  0.669320  1
  Se  Se6  1  0.000000  0.882601  0.330680  1
  Se  Se7  1  0.500000  0.830680  0.617399  1
  Se  Se8  1  0.000000  0.669320  0.117399  1
  Se  Se9  1  0.000000  0.330680  0.882601  1
  Se  Se10  1  0.500000  0.382601  0.169320  1
  Se  Se11  1  0.500000  0.617399  0.830680  1
  Ag  Ag12  1  0.500000  0.174709  0.174709  1
  Ag  Ag13  1  0.000000  0.325291  0.674709  1
  Ag  Ag14  1  0.000000  0.674709  0.325291  1
  Ag  Ag15  1  0.500000  0.825291  0.825291  1
  Ag  Ag16  1  0.000000  0.108212  0.483210  1
  Ag  Ag17  1  0.500000  0.016790  0.608212  1
  Ag  Ag18  1  0.500000  0.983210  0.391788  1
  Ag  Ag19  1  0.000000  0.891788  0.516790  1
  Ag  Ag20  1  0.500000  0.608212  0.016790  1
  Ag  Ag21  1  0.500000  0.391788  0.983210  1
  Ag  Ag22  1  0.000000  0.483210  0.108212  1
  Ag  Ag23  1  0.000000  0.516790  0.891788  1
  Ag  Ag24  1  0.000000  0.075518  0.282241  1
  Ag  Ag25  1  0.500000  0.217759  0.575518  1
  Ag  Ag26  1  0.500000  0.782241  0.424482  1
  Ag  Ag27  1  0.000000  0.924482  0.717759  1
  Ag  Ag28  1  0.500000  0.575518  0.217759  1
  Ag  Ag29  1  0.500000  0.424482  0.782241  1
  Ag  Ag30  1  0.000000  0.282241  0.075518  1
  Ag  Ag31  1  0.000000  0.717759  0.924482  1
  Cs  Cs32  1  0.000000  0.614745  0.614745  1
  Cs  Cs33  1  0.500000  0.885255  0.114745  1
  Cs  Cs34  1  0.500000  0.114745  0.885255  1
  Cs  Cs35  1  0.000000  0.385255  0.385255  1
