# generated using pymatgen
data_Cs2B2S3O13
_symmetry_space_group_name_H-M   'P 1'
_cell_length_a   15.14412308
_cell_length_b   6.82568966
_cell_length_c   12.70258511
_cell_angle_alpha   90.00000000
_cell_angle_beta   104.65080659
_cell_angle_gamma   90.00000000
_symmetry_Int_Tables_number   1
_chemical_formula_structural   Cs2B2S3O13
_chemical_formula_sum   'Cs8 B8 S12 O52'
_cell_volume   1270.36097532
_cell_formula_units_Z   4
loop_
 _symmetry_equiv_pos_site_id
 _symmetry_equiv_pos_as_xyz
  1  'x, y, z'
loop_
 _atom_site_type_symbol
 _atom_site_label
 _atom_site_symmetry_multiplicity
 _atom_site_fract_x
 _atom_site_fract_y
 _atom_site_fract_z
 _atom_site_occupancy
  Cs  Cs0  1  0.883285  0.328043  0.734856  1
  Cs  Cs1  1  0.116715  0.828043  0.765144  1
  Cs  Cs2  1  0.116715  0.671957  0.265144  1
  Cs  Cs3  1  0.883285  0.171957  0.234856  1
  Cs  Cs4  1  0.488650  0.777374  0.863844  1
  Cs  Cs5  1  0.511350  0.277374  0.636156  1
  Cs  Cs6  1  0.511350  0.222626  0.136156  1
  Cs  Cs7  1  0.488650  0.722626  0.363844  1
  B  B8  1  0.248891  0.362175  0.020655  1
  B  B9  1  0.751109  0.862175  0.479345  1
  B  B10  1  0.751109  0.637825  0.979345  1
  B  B11  1  0.248891  0.137825  0.520655  1
  B  B12  1  0.243528  0.450051  0.625827  1
  B  B13  1  0.756472  0.950051  0.874173  1
  B  B14  1  0.756472  0.549949  0.374173  1
  B  B15  1  0.243528  0.049949  0.125827  1
  S  S16  1  0.307487  0.311824  0.835485  1
  S  S17  1  0.692513  0.811824  0.664515  1
  S  S18  1  0.692513  0.688176  0.164515  1
  S  S19  1  0.307487  0.188176  0.335485  1
  S  S20  1  0.087297  0.255922  0.541670  1
  S  S21  1  0.912703  0.755922  0.958330  1
  S  S22  1  0.912703  0.744078  0.458330  1
  S  S23  1  0.087297  0.244078  0.041670  1
  S  S24  1  0.321497  0.741408  0.048928  1
  S  S25  1  0.678503  0.241408  0.451072  1
  S  S26  1  0.678503  0.258592  0.951072  1
  S  S27  1  0.321497  0.758592  0.548928  1
  O  O28  1  0.284025  0.121147  0.787775  1
  O  O29  1  0.715975  0.621147  0.712225  1
  O  O30  1  0.715975  0.878853  0.212225  1
  O  O31  1  0.284025  0.378853  0.287775  1
  O  O32  1  0.399546  0.337853  0.902994  1
  O  O33  1  0.600454  0.837853  0.597006  1
  O  O34  1  0.600454  0.662147  0.097006  1
  O  O35  1  0.399546  0.162147  0.402994  1
  O  O36  1  0.021360  0.176820  0.594355  1
  O  O37  1  0.978640  0.676820  0.905645  1
  O  O38  1  0.978640  0.823180  0.405645  1
  O  O39  1  0.021360  0.323180  0.094355  1
  O  O40  1  0.054226  0.342648  0.435261  1
  O  O41  1  0.945774  0.842648  0.064739  1
  O  O42  1  0.945774  0.657352  0.564739  1
  O  O43  1  0.054226  0.157352  0.935261  1
  O  O44  1  0.409182  0.806114  0.115667  1
  O  O45  1  0.590818  0.306114  0.384333  1
  O  O46  1  0.590818  0.193886  0.884333  1
  O  O47  1  0.409182  0.693886  0.615667  1
  O  O48  1  0.306476  0.770345  0.933119  1
  O  O49  1  0.693524  0.270345  0.566881  1
  O  O50  1  0.693524  0.229655  0.066881  1
  O  O51  1  0.306476  0.729655  0.433119  1
  O  O52  1  0.283876  0.181166  0.066598  1
  O  O53  1  0.716124  0.681166  0.433402  1
  O  O54  1  0.716124  0.818834  0.933402  1
  O  O55  1  0.283876  0.318834  0.566598  1
  O  O56  1  0.236390  0.374335  0.898656  1
  O  O57  1  0.763610  0.874335  0.601344  1
  O  O58  1  0.763610  0.625665  0.101344  1
  O  O59  1  0.236390  0.125665  0.398656  1
  O  O60  1  0.313364  0.522906  0.076700  1
  O  O61  1  0.686636  0.022906  0.423300  1
  O  O62  1  0.686636  0.477094  0.923300  1
  O  O63  1  0.313364  0.977094  0.576700  1
  O  O64  1  0.242195  0.837802  0.087577  1
  O  O65  1  0.757805  0.337802  0.412423  1
  O  O66  1  0.757805  0.162198  0.912423  1
  O  O67  1  0.242195  0.662198  0.587577  1
  O  O68  1  0.293258  0.471487  0.745474  1
  O  O69  1  0.706742  0.971487  0.754526  1
  O  O70  1  0.706742  0.528513  0.254526  1
  O  O71  1  0.293258  0.028513  0.245474  1
  O  O72  1  0.145795  0.407448  0.622619  1
  O  O73  1  0.854205  0.907448  0.877381  1
  O  O74  1  0.854205  0.592552  0.377381  1
  O  O75  1  0.145795  0.092552  0.122619  1
  O  O76  1  0.156782  0.088807  0.537474  1
  O  O77  1  0.843218  0.588807  0.962526  1
  O  O78  1  0.843218  0.911193  0.462526  1
  O  O79  1  0.156782  0.411193  0.037474  1
