# generated using pymatgen
data_Eu(NO3)3
_symmetry_space_group_name_H-M   'P 1'
_cell_length_a   11.41535550
_cell_length_b   6.46067654
_cell_length_c   10.19129561
_cell_angle_alpha   90.00000000
_cell_angle_beta   92.58612675
_cell_angle_gamma   90.00000000
_symmetry_Int_Tables_number   1
_chemical_formula_structural   Eu(NO3)3
_chemical_formula_sum   'Eu4 N12 O36'
_cell_volume   750.85191811
_cell_formula_units_Z   4
loop_
 _symmetry_equiv_pos_site_id
 _symmetry_equiv_pos_as_xyz
  1  'x, y, z'
loop_
 _atom_site_type_symbol
 _atom_site_label
 _atom_site_symmetry_multiplicity
 _atom_site_fract_x
 _atom_site_fract_y
 _atom_site_fract_z
 _atom_site_occupancy
  Eu  Eu0  1  0.740607  0.318696  0.712588  1
  Eu  Eu1  1  0.259393  0.818696  0.787412  1
  Eu  Eu2  1  0.259393  0.681304  0.287412  1
  Eu  Eu3  1  0.740607  0.181304  0.212588  1
  N  N4  1  0.492528  0.616064  0.826759  1
  N  N5  1  0.507472  0.116064  0.673241  1
  N  N6  1  0.507472  0.383936  0.173241  1
  N  N7  1  0.492528  0.883936  0.326759  1
  N  N8  1  0.210596  0.269348  0.804207  1
  N  N9  1  0.789404  0.769348  0.695793  1
  N  N10  1  0.789404  0.730652  0.195793  1
  N  N11  1  0.210596  0.230652  0.304207  1
  N  N12  1  0.879592  0.278567  0.467628  1
  N  N13  1  0.120408  0.778567  0.032372  1
  N  N14  1  0.120408  0.721433  0.532372  1
  N  N15  1  0.879592  0.221433  0.967628  1
  O  O16  1  0.426055  0.578884  0.725448  1
  O  O17  1  0.573945  0.078884  0.774552  1
  O  O18  1  0.573945  0.421116  0.274552  1
  O  O19  1  0.426055  0.921116  0.225448  1
  O  O20  1  0.453367  0.734604  0.913748  1
  O  O21  1  0.546633  0.234604  0.586252  1
  O  O22  1  0.546633  0.265396  0.086252  1
  O  O23  1  0.453367  0.765396  0.413748  1
  O  O24  1  0.592866  0.539327  0.840118  1
  O  O25  1  0.407134  0.039327  0.659882  1
  O  O26  1  0.407134  0.460673  0.159882  1
  O  O27  1  0.592866  0.960673  0.340118  1
  O  O28  1  0.271689  0.179433  0.894304  1
  O  O29  1  0.728311  0.679433  0.605696  1
  O  O30  1  0.728311  0.820567  0.105696  1
  O  O31  1  0.271689  0.320567  0.394304  1
  O  O32  1  0.190592  0.460317  0.810127  1
  O  O33  1  0.809408  0.960317  0.689873  1
  O  O34  1  0.809408  0.539683  0.189873  1
  O  O35  1  0.190592  0.039683  0.310127  1
  O  O36  1  0.169179  0.163087  0.708902  1
  O  O37  1  0.830821  0.663087  0.791098  1
  O  O38  1  0.830821  0.836913  0.291098  1
  O  O39  1  0.169179  0.336913  0.208902  1
  O  O40  1  0.765571  0.267961  0.460118  1
  O  O41  1  0.234429  0.767961  0.039882  1
  O  O42  1  0.234429  0.732039  0.539882  1
  O  O43  1  0.765571  0.232039  0.960118  1
  O  O44  1  0.928274  0.327341  0.575782  1
  O  O45  1  0.071726  0.827341  0.924218  1
  O  O46  1  0.071726  0.672659  0.424218  1
  O  O47  1  0.928274  0.172659  0.075782  1
  O  O48  1  0.933666  0.238544  0.366901  1
  O  O49  1  0.066334  0.738544  0.133099  1
  O  O50  1  0.066334  0.761456  0.633099  1
  O  O51  1  0.933666  0.261456  0.866901  1
