# generated using pymatgen
data_As2PbS4
_symmetry_space_group_name_H-M   'P 1'
_cell_length_a   3.76709820
_cell_length_b   9.46676399
_cell_length_c   18.62956339
_cell_angle_alpha   90.00000000
_cell_angle_beta   90.00000000
_cell_angle_gamma   90.00000000
_symmetry_Int_Tables_number   1
_chemical_formula_structural   As2PbS4
_chemical_formula_sum   'As8 Pb4 S16'
_cell_volume   664.37176671
_cell_formula_units_Z   4
loop_
 _symmetry_equiv_pos_site_id
 _symmetry_equiv_pos_as_xyz
  1  'x, y, z'
loop_
 _atom_site_type_symbol
 _atom_site_label
 _atom_site_symmetry_multiplicity
 _atom_site_fract_x
 _atom_site_fract_y
 _atom_site_fract_z
 _atom_site_occupancy
  S  S0  1  0.250000  0.805273  0.453923  1
  S  S1  1  0.250000  0.305273  0.046077  1
  S  S2  1  0.750000  0.194727  0.546077  1
  S  S3  1  0.750000  0.694727  0.953923  1
  S  S4  1  0.750000  0.490743  0.419016  1
  S  S5  1  0.750000  0.990743  0.080984  1
  S  S6  1  0.250000  0.509257  0.580984  1
  S  S7  1  0.250000  0.009257  0.919016  1
  S  S8  1  0.250000  0.151784  0.352508  1
  S  S9  1  0.250000  0.651784  0.147492  1
  S  S10  1  0.750000  0.848216  0.647492  1
  S  S11  1  0.750000  0.348216  0.852508  1
  S  S12  1  0.250000  0.626990  0.777905  1
  S  S13  1  0.250000  0.126990  0.722095  1
  S  S14  1  0.750000  0.373010  0.222095  1
  S  S15  1  0.750000  0.873010  0.277905  1
  As  As16  1  0.250000  0.337344  0.493817  1
  As  As17  1  0.250000  0.837344  0.006183  1
  As  As18  1  0.750000  0.662656  0.506183  1
  As  As19  1  0.750000  0.162656  0.993817  1
  As  As20  1  0.750000  0.000065  0.381627  1
  As  As21  1  0.750000  0.500065  0.118373  1
  As  As22  1  0.250000  0.999935  0.618373  1
  As  As23  1  0.250000  0.499935  0.881627  1
  Pb  Pb24  1  0.250000  0.656693  0.314333  1
  Pb  Pb25  1  0.250000  0.156693  0.185667  1
  Pb  Pb26  1  0.750000  0.343307  0.685667  1
  Pb  Pb27  1  0.750000  0.843307  0.814333  1
