# generated using pymatgen
data_Ca3Si2SnO9
_symmetry_space_group_name_H-M   'P 1'
_cell_length_a   7.41559373
_cell_length_b   10.20129019
_cell_length_c   10.53477580
_cell_angle_alpha   90.00000000
_cell_angle_beta   91.19631137
_cell_angle_gamma   90.00000000
_symmetry_Int_Tables_number   1
_chemical_formula_structural   Ca3Si2SnO9
_chemical_formula_sum   'Ca12 Si8 Sn4 O36'
_cell_volume   796.76757936
_cell_formula_units_Z   4
loop_
 _symmetry_equiv_pos_site_id
 _symmetry_equiv_pos_as_xyz
  1  'x, y, z'
loop_
 _atom_site_type_symbol
 _atom_site_label
 _atom_site_symmetry_multiplicity
 _atom_site_fract_x
 _atom_site_fract_y
 _atom_site_fract_z
 _atom_site_occupancy
  O  O0  1  0.659138  0.608487  0.482716  1
  O  O1  1  0.340861  0.108487  0.017284  1
  O  O2  1  0.340861  0.391513  0.517284  1
  O  O3  1  0.659138  0.891513  0.982716  1
  O  O4  1  0.090895  0.883279  0.008284  1
  O  O5  1  0.909105  0.383279  0.491716  1
  O  O6  1  0.909105  0.116721  0.991716  1
  O  O7  1  0.090895  0.616721  0.508284  1
  O  O8  1  0.380594  0.831025  0.454934  1
  O  O9  1  0.619406  0.331025  0.045066  1
  O  O10  1  0.619406  0.168975  0.545066  1
  O  O11  1  0.380594  0.668975  0.954934  1
  O  O12  1  0.304451  0.001013  0.263228  1
  O  O13  1  0.695549  0.501013  0.236772  1
  O  O14  1  0.144246  0.109145  0.532500  1
  O  O15  1  0.695549  0.998987  0.736772  1
  O  O16  1  0.354628  0.766810  0.720498  1
  O  O17  1  0.645372  0.266810  0.779502  1
  O  O18  1  0.645372  0.233190  0.279502  1
  O  O19  1  0.354628  0.733190  0.220498  1
  O  O20  1  0.103619  0.231244  0.239028  1
  O  O21  1  0.896381  0.731244  0.260972  1
  O  O22  1  0.896381  0.768756  0.760972  1
  O  O23  1  0.103619  0.268756  0.739028  1
  O  O24  1  0.617216  0.607256  0.769520  1
  O  O25  1  0.382784  0.107256  0.730480  1
  O  O26  1  0.382784  0.392744  0.230480  1
  O  O27  1  0.617216  0.892744  0.269520  1
  O  O28  1  0.084162  0.997637  0.757501  1
  O  O29  1  0.915838  0.497637  0.742499  1
  O  O30  1  0.915838  0.002363  0.242499  1
  O  O31  1  0.084162  0.502363  0.257501  1
  O  O32  1  0.144246  0.390855  0.032500  1
  O  O33  1  0.855754  0.890855  0.467500  1
  O  O34  1  0.855754  0.609145  0.967500  1
  O  O35  1  0.304451  0.498987  0.763228  1
  Si  Si36  1  0.401179  0.863223  0.305283  1
  Si  Si37  1  0.598821  0.363223  0.194717  1
  Si  Si38  1  0.598821  0.136777  0.694717  1
  Si  Si39  1  0.401179  0.636777  0.805283  1
  Si  Si40  1  0.832983  0.874515  0.315843  1
  Si  Si41  1  0.167017  0.374515  0.184157  1
  Si  Si42  1  0.167017  0.125485  0.684157  1
  Si  Si43  1  0.832983  0.625485  0.815843  1
  Ca  Ca44  1  0.636174  0.079324  0.111324  1
  Ca  Ca45  1  0.363826  0.579324  0.388676  1
  Ca  Ca46  1  0.363826  0.920676  0.888676  1
  Ca  Ca47  1  0.636174  0.420676  0.611324  1
  Ca  Ca48  1  0.119356  0.666653  0.083513  1
  Ca  Ca49  1  0.880644  0.166653  0.416487  1
  Ca  Ca50  1  0.880644  0.333347  0.916487  1
  Ca  Ca51  1  0.119356  0.833347  0.583513  1
  Ca  Ca52  1  0.628119  0.695726  0.095636  1
  Ca  Ca53  1  0.371881  0.195726  0.404364  1
  Ca  Ca54  1  0.371881  0.304274  0.904364  1
  Ca  Ca55  1  0.628119  0.804274  0.595636  1
  Sn  Sn56  1  0.120213  0.441524  0.617904  1
  Sn  Sn57  1  0.879787  0.941524  0.882096  1
  Sn  Sn58  1  0.879787  0.558476  0.382096  1
  Sn  Sn59  1  0.120213  0.058476  0.117904  1
