# generated using pymatgen
data_Sr3NiIrO6
_symmetry_space_group_name_H-M   'P 1'
_cell_length_a   6.73850130
_cell_length_b   6.73850130
_cell_length_c   6.73850130
_cell_angle_alpha   91.72416344
_cell_angle_beta   91.72416343
_cell_angle_gamma   91.72416346
_symmetry_Int_Tables_number   1
_chemical_formula_structural   Sr3NiIrO6
_chemical_formula_sum   'Sr6 Ni2 Ir2 O12'
_cell_volume   305.55370344
_cell_formula_units_Z   2
loop_
 _symmetry_equiv_pos_site_id
 _symmetry_equiv_pos_as_xyz
  1  'x, y, z'
loop_
 _atom_site_type_symbol
 _atom_site_label
 _atom_site_symmetry_multiplicity
 _atom_site_fract_x
 _atom_site_fract_y
 _atom_site_fract_z
 _atom_site_occupancy
  O  O0  1  0.787694  0.591144  0.464241  1
  O  O1  1  0.591143  0.464240  0.787694  1
  O  O2  1  0.464241  0.787693  0.591144  1
  O  O3  1  0.035759  0.908857  0.712306  1
  O  O4  1  0.908857  0.712307  0.035758  1
  O  O5  1  0.712307  0.035759  0.908857  1
  O  O6  1  0.212307  0.408857  0.535759  1
  O  O7  1  0.408856  0.535759  0.212307  1
  O  O8  1  0.535758  0.212306  0.408856  1
  O  O9  1  0.964241  0.091143  0.287693  1
  O  O10  1  0.287693  0.964241  0.091143  1
  O  O11  1  0.091144  0.287694  0.964241  1
  Ni  Ni12  1  0.750001  0.750000  0.750000  1
  Ni  Ni13  1  0.250000  0.249999  0.250000  1
  Sr  Sr14  1  0.749999  0.386374  0.113626  1
  Sr  Sr15  1  0.613625  0.886374  0.250000  1
  Sr  Sr16  1  0.113626  0.750000  0.386374  1
  Sr  Sr17  1  0.250000  0.613626  0.886373  1
  Sr  Sr18  1  0.886374  0.250001  0.613627  1
  Sr  Sr19  1  0.386374  0.113626  0.750000  1
  Ir  Ir20  1  0.500000  0.500000  0.499999  1
  Ir  Ir21  1  0.000000  0.000000  0.000000  1
