# generated using pymatgen
data_La3ZnNi3
_symmetry_space_group_name_H-M   'P 1'
_cell_length_a   4.27231780
_cell_length_b   5.54082469
_cell_length_c   13.62949263
_cell_angle_alpha   90.00000000
_cell_angle_beta   90.00000000
_cell_angle_gamma   112.67670056
_symmetry_Int_Tables_number   1
_chemical_formula_structural   La3ZnNi3
_chemical_formula_sum   'La6 Zn2 Ni6'
_cell_volume   297.69791256
_cell_formula_units_Z   2
loop_
 _symmetry_equiv_pos_site_id
 _symmetry_equiv_pos_as_xyz
  1  'x, y, z'
loop_
 _atom_site_type_symbol
 _atom_site_label
 _atom_site_symmetry_multiplicity
 _atom_site_fract_x
 _atom_site_fract_y
 _atom_site_fract_z
 _atom_site_occupancy
  Ni  Ni0  1  0.292360  0.584719  0.250000  1
  Ni  Ni1  1  0.707640  0.415281  0.750000  1
  Ni  Ni2  1  0.574034  0.148069  0.914072  1
  Ni  Ni3  1  0.425966  0.851931  0.085928  1
  Ni  Ni4  1  0.425966  0.851931  0.414072  1
  Ni  Ni5  1  0.574034  0.148069  0.585928  1
  Zn  Zn6  1  0.000000  0.000000  0.500000  1
  Zn  Zn7  1  0.000000  0.000000  0.000000  1
  La  La8  1  0.710999  0.421998  0.396020  1
  La  La9  1  0.289001  0.578002  0.603980  1
  La  La10  1  0.007307  0.014614  0.750000  1
  La  La11  1  0.992693  0.985386  0.250000  1
  La  La12  1  0.289001  0.578002  0.896020  1
  La  La13  1  0.710999  0.421998  0.103980  1
