# generated using pymatgen
data_Te2Mo2WSe4
_symmetry_space_group_name_H-M   'P 1'
_cell_length_a   3.39753597
_cell_length_b   3.39750168
_cell_length_c   31.39061331
_cell_angle_alpha   89.99900660
_cell_angle_beta   90.00000000
_cell_angle_gamma   120.00033398
_symmetry_Int_Tables_number   1
_chemical_formula_structural   Te2Mo2WSe4
_chemical_formula_sum   'Te2 Mo2 W1 Se4'
_cell_volume   313.79983745
_cell_formula_units_Z   1
loop_
 _symmetry_equiv_pos_site_id
 _symmetry_equiv_pos_as_xyz
  1  'x, y, z'
loop_
 _atom_site_type_symbol
 _atom_site_label
 _atom_site_symmetry_multiplicity
 _atom_site_fract_x
 _atom_site_fract_y
 _atom_site_fract_z
 _atom_site_occupancy
  Te  Te0  1  0.666639  0.333277  0.518732  1
  Te  Te1  1  0.666636  0.333271  0.637922  1
  Mo  Mo2  1  0.333312  0.666624  0.115654  1
  Mo  Mo3  1  0.333300  0.666599  0.578337  1
  W  W4  1  0.666698  0.333396  0.346966  1
  Se  Se5  1  0.333351  0.666704  0.399629  1
  Se  Se6  1  0.666649  0.333297  0.063162  1
  Se  Se7  1  0.666640  0.333278  0.168147  1
  Se  Se8  1  0.333376  0.666753  0.294292  1
