# generated using pymatgen
data_Li(FeS2)2
_symmetry_space_group_name_H-M   'P 1'
_cell_length_a   6.82463352
_cell_length_b   6.82463410
_cell_length_c   6.89515347
_cell_angle_alpha   119.66225653
_cell_angle_beta   119.66225593
_cell_angle_gamma   89.99999516
_symmetry_Int_Tables_number   1
_chemical_formula_structural   Li(FeS2)2
_chemical_formula_sum   'Li2 Fe4 S8'
_cell_volume   229.38354008
_cell_formula_units_Z   2
loop_
 _symmetry_equiv_pos_site_id
 _symmetry_equiv_pos_as_xyz
  1  'x, y, z'
loop_
 _atom_site_type_symbol
 _atom_site_label
 _atom_site_symmetry_multiplicity
 _atom_site_fract_x
 _atom_site_fract_y
 _atom_site_fract_z
 _atom_site_occupancy
  Li  Li0  1  0.375001  0.625001  0.750000  1
  Li  Li1  1  0.624999  0.375000  0.250000  1
  Fe  Fe2  1  0.000000  0.500001  0.000001  1
  Fe  Fe3  1  0.000001  0.000000  0.500000  1
  Fe  Fe4  1  0.500001  0.000000  0.500000  1
  Fe  Fe5  1  0.000000  0.000000  0.000000  1
  S  S6  1  0.767408  0.792850  0.534815  1
  S  S7  1  0.758036  0.232593  0.965187  1
  S  S8  1  0.207151  0.232593  0.965186  1
  S  S9  1  0.232592  0.207150  0.465186  1
  S  S10  1  0.232591  0.758035  0.465185  1
  S  S11  1  0.241964  0.767408  0.034815  1
  S  S12  1  0.767408  0.241964  0.534814  1
  S  S13  1  0.792849  0.767408  0.034814  1
