# generated using pymatgen
data_BaAg2
_symmetry_space_group_name_H-M   'P 1'
_cell_length_a   4.92466801
_cell_length_b   6.61189242
_cell_length_c   6.61189242
_cell_angle_alpha   83.27884714
_cell_angle_beta   68.13568279
_cell_angle_gamma   68.13568272
_symmetry_Int_Tables_number   1
_chemical_formula_structural   BaAg2
_chemical_formula_sum   'Ba2 Ag4'
_cell_volume   185.37501055
_cell_formula_units_Z   2
loop_
 _symmetry_equiv_pos_site_id
 _symmetry_equiv_pos_as_xyz
  1  'x, y, z'
loop_
 _atom_site_type_symbol
 _atom_site_label
 _atom_site_symmetry_multiplicity
 _atom_site_fract_x
 _atom_site_fract_y
 _atom_site_fract_z
 _atom_site_occupancy
  Ag  Ag0  1  0.666114  0.831357  0.836415  1
  Ag  Ag1  1  0.333886  0.168643  0.163585  1
  Ag  Ag2  1  0.333886  0.663585  0.668643  1
  Ag  Ag3  1  0.666114  0.336415  0.331357  1
  Ba  Ba4  1  0.997921  0.752079  0.252079  1
  Ba  Ba5  1  0.002079  0.247921  0.747921  1
