# generated using pymatgen
data_Mo2W(SeS2)2
_symmetry_space_group_name_H-M   'P 1'
_cell_length_a   3.23350588
_cell_length_b   3.23349354
_cell_length_c   29.80695045
_cell_angle_alpha   90.00080222
_cell_angle_beta   90.00000000
_cell_angle_gamma   120.00012621
_symmetry_Int_Tables_number   1
_chemical_formula_structural   Mo2W(SeS2)2
_chemical_formula_sum   'Mo2 W1 Se2 S4'
_cell_volume   269.89402993
_cell_formula_units_Z   1
loop_
 _symmetry_equiv_pos_site_id
 _symmetry_equiv_pos_as_xyz
  1  'x, y, z'
loop_
 _atom_site_type_symbol
 _atom_site_label
 _atom_site_symmetry_multiplicity
 _atom_site_fract_x
 _atom_site_fract_y
 _atom_site_fract_z
 _atom_site_occupancy
  Mo  Mo0  1  0.333311  0.666622  0.115652  1
  Mo  Mo1  1  0.666688  0.333376  0.346963  1
  W  W2  1  0.333311  0.666621  0.578324  1
  Se  Se3  1  0.666641  0.333282  0.520768  1
  Se  Se4  1  0.666651  0.333302  0.635884  1
  S  S5  1  0.333356  0.666713  0.398993  1
  S  S6  1  0.666643  0.333286  0.063623  1
  S  S7  1  0.666648  0.333295  0.167687  1
  S  S8  1  0.333351  0.666704  0.294946  1
