# generated using pymatgen
data_DyPtF7
_symmetry_space_group_name_H-M   'P 1'
_cell_length_a   5.54934200
_cell_length_b   8.89106148
_cell_length_c   11.14857739
_cell_angle_alpha   107.41627848
_cell_angle_beta   90.00000000
_cell_angle_gamma   90.00000000
_symmetry_Int_Tables_number   1
_chemical_formula_structural   DyPtF7
_chemical_formula_sum   'Dy4 Pt4 F28'
_cell_volume   524.84810902
_cell_formula_units_Z   4
loop_
 _symmetry_equiv_pos_site_id
 _symmetry_equiv_pos_as_xyz
  1  'x, y, z'
loop_
 _atom_site_type_symbol
 _atom_site_label
 _atom_site_symmetry_multiplicity
 _atom_site_fract_x
 _atom_site_fract_y
 _atom_site_fract_z
 _atom_site_occupancy
  F  F0  1  0.563910  0.381144  0.084678  1
  F  F1  1  0.063910  0.118856  0.415322  1
  F  F2  1  0.436090  0.618856  0.915322  1
  F  F3  1  0.936090  0.881144  0.584678  1
  F  F4  1  0.559713  0.179467  0.457323  1
  F  F5  1  0.059713  0.320533  0.042677  1
  F  F6  1  0.440287  0.820533  0.542677  1
  F  F7  1  0.940287  0.679467  0.957323  1
  F  F8  1  0.225737  0.619886  0.141291  1
  F  F9  1  0.725737  0.880114  0.358709  1
  F  F10  1  0.774263  0.380114  0.858709  1
  F  F11  1  0.274263  0.119886  0.641291  1
  F  F12  1  0.245586  0.926103  0.949579  1
  F  F13  1  0.745586  0.573897  0.550421  1
  F  F14  1  0.754414  0.073897  0.050421  1
  F  F15  1  0.254414  0.426103  0.449579  1
  F  F16  1  0.034206  0.638708  0.363971  1
  F  F17  1  0.534206  0.861292  0.136029  1
  F  F18  1  0.965794  0.361292  0.636029  1
  F  F19  1  0.465794  0.138708  0.863971  1
  F  F20  1  0.948058  0.078976  0.824675  1
  F  F21  1  0.448058  0.421024  0.675325  1
  F  F22  1  0.051942  0.921024  0.175325  1
  F  F23  1  0.551942  0.578976  0.324675  1
  F  F24  1  0.585035  0.797622  0.767453  1
  F  F25  1  0.085035  0.702378  0.732547  1
  F  F26  1  0.414965  0.202378  0.232547  1
  F  F27  1  0.914965  0.297622  0.267453  1
  Dy  Dy28  1  0.239101  0.421805  0.235668  1
  Dy  Dy29  1  0.739101  0.078195  0.264332  1
  Dy  Dy30  1  0.760899  0.578195  0.764332  1
  Dy  Dy31  1  0.260899  0.921805  0.735668  1
  Pt  Pt32  1  0.241223  0.770617  0.043004  1
  Pt  Pt33  1  0.741223  0.729383  0.456996  1
  Pt  Pt34  1  0.758777  0.229383  0.956996  1
  Pt  Pt35  1  0.258777  0.270617  0.543004  1
