# generated using pymatgen
data_SiO2
_symmetry_space_group_name_H-M   'P 1'
_cell_length_a   7.53560989
_cell_length_b   9.90121499
_cell_length_c   9.90121499
_cell_angle_alpha   88.23874220
_cell_angle_beta   81.28760819
_cell_angle_gamma   81.28760816
_symmetry_Int_Tables_number   1
_chemical_formula_structural   SiO2
_chemical_formula_sum   'Si12 O24'
_cell_volume   721.77326659
_cell_formula_units_Z   12
loop_
 _symmetry_equiv_pos_site_id
 _symmetry_equiv_pos_as_xyz
  1  'x, y, z'
loop_
 _atom_site_type_symbol
 _atom_site_label
 _atom_site_symmetry_multiplicity
 _atom_site_fract_x
 _atom_site_fract_y
 _atom_site_fract_z
 _atom_site_occupancy
  O  O0  1  0.000000  0.253932  0.746068  1
  O  O1  1  0.000000  0.746068  0.253932  1
  O  O2  1  0.041389  0.508006  0.793868  1
  O  O3  1  0.958611  0.206132  0.491994  1
  O  O4  1  0.958611  0.491994  0.206132  1
  O  O5  1  0.041389  0.793868  0.508006  1
  O  O6  1  0.092658  0.651022  0.005594  1
  O  O7  1  0.907342  0.994406  0.348978  1
  O  O8  1  0.907342  0.348978  0.994406  1
  O  O9  1  0.092658  0.005594  0.651022  1
  O  O10  1  0.884383  0.239487  0.239487  1
  O  O11  1  0.115617  0.760513  0.760513  1
  O  O12  1  0.500000  0.648328  0.351672  1
  O  O13  1  0.500000  0.351672  0.648328  1
  O  O14  1  0.608130  0.594607  0.594607  1
  O  O15  1  0.391870  0.405393  0.405393  1
  O  O16  1  0.371385  0.818190  0.559075  1
  O  O17  1  0.628615  0.440925  0.181810  1
  O  O18  1  0.628615  0.181810  0.440925  1
  O  O19  1  0.371385  0.559075  0.818190  1
  O  O20  1  0.710213  0.803752  0.445161  1
  O  O21  1  0.289787  0.554839  0.196248  1
  O  O22  1  0.289787  0.196248  0.554839  1
  O  O23  1  0.710213  0.445161  0.803752  1
  Si  Si24  1  0.914072  0.389581  0.833917  1
  Si  Si25  1  0.085928  0.166083  0.610419  1
  Si  Si26  1  0.085928  0.610419  0.166083  1
  Si  Si27  1  0.914072  0.833917  0.389581  1
  Si  Si28  1  0.155782  0.618761  0.844692  1
  Si  Si29  1  0.844218  0.155308  0.381239  1
  Si  Si30  1  0.844218  0.381239  0.155308  1
  Si  Si31  1  0.155782  0.844692  0.618761  1
  Si  Si32  1  0.546947  0.487860  0.715318  1
  Si  Si33  1  0.453053  0.284682  0.512140  1
  Si  Si34  1  0.453053  0.512140  0.284682  1
  Si  Si35  1  0.546947  0.715318  0.487860  1
