# generated using pymatgen
data_Zn3TeO6
_symmetry_space_group_name_H-M   'P 1'
_cell_length_a   8.79406309
_cell_length_b   8.79406309
_cell_length_c   10.54130834
_cell_angle_alpha   87.56742547
_cell_angle_beta   87.56742544
_cell_angle_gamma   61.37490808
_symmetry_Int_Tables_number   1
_chemical_formula_structural   Zn3TeO6
_chemical_formula_sum   'Zn18 Te6 O36'
_cell_volume   714.70433028
_cell_formula_units_Z   6
loop_
 _symmetry_equiv_pos_site_id
 _symmetry_equiv_pos_as_xyz
  1  'x, y, z'
loop_
 _atom_site_type_symbol
 _atom_site_label
 _atom_site_symmetry_multiplicity
 _atom_site_fract_x
 _atom_site_fract_y
 _atom_site_fract_z
 _atom_site_occupancy
  O  O0  1  0.089292  0.768058  0.428905  1
  O  O1  1  0.231942  0.910708  0.071095  1
  O  O2  1  0.910708  0.231942  0.571095  1
  O  O3  1  0.768058  0.089292  0.928905  1
  O  O4  1  0.425644  0.430054  0.427738  1
  O  O5  1  0.569946  0.574356  0.072262  1
  O  O6  1  0.574356  0.569946  0.572262  1
  O  O7  1  0.430054  0.425644  0.927738  1
  O  O8  1  0.231722  0.547744  0.200967  1
  O  O9  1  0.452256  0.768278  0.299033  1
  O  O10  1  0.768278  0.452256  0.799033  1
  O  O11  1  0.547744  0.231722  0.700967  1
  O  O12  1  0.120978  0.430930  0.405161  1
  O  O13  1  0.569070  0.879022  0.094839  1
  O  O14  1  0.758894  0.444258  0.294848  1
  O  O15  1  0.879022  0.569070  0.594839  1
  O  O16  1  0.777223  0.740691  0.317357  1
  O  O17  1  0.259308  0.222777  0.182643  1
  O  O18  1  0.222777  0.259308  0.682643  1
  O  O19  1  0.740691  0.777223  0.817357  1
  O  O20  1  0.886619  0.586904  0.099643  1
  O  O21  1  0.413096  0.113381  0.400357  1
  O  O22  1  0.113381  0.413096  0.900357  1
  O  O23  1  0.586904  0.886619  0.599643  1
  O  O24  1  0.092793  0.047380  0.842035  1
  O  O25  1  0.952620  0.907207  0.657965  1
  O  O26  1  0.907207  0.952620  0.157965  1
  O  O27  1  0.047380  0.092793  0.342035  1
  O  O28  1  0.237469  0.909465  0.559486  1
  O  O29  1  0.090535  0.762531  0.940514  1
  O  O30  1  0.762531  0.090535  0.440514  1
  O  O31  1  0.909465  0.237469  0.059486  1
  O  O32  1  0.444258  0.758894  0.794848  1
  O  O33  1  0.241106  0.555742  0.705152  1
  O  O34  1  0.555742  0.241106  0.205152  1
  O  O35  1  0.430930  0.120978  0.905161  1
  Zn  Zn36  1  0.799092  0.200908  0.250000  1
  Zn  Zn37  1  0.200908  0.799092  0.750000  1
  Zn  Zn38  1  0.377441  0.677246  0.447703  1
  Zn  Zn39  1  0.322754  0.622559  0.052297  1
  Zn  Zn40  1  0.622559  0.322754  0.552297  1
  Zn  Zn41  1  0.677246  0.377441  0.947703  1
  Zn  Zn42  1  0.001443  0.726849  0.257464  1
  Zn  Zn43  1  0.273151  0.998557  0.242536  1
  Zn  Zn44  1  0.998557  0.273151  0.742536  1
  Zn  Zn45  1  0.726849  0.001443  0.757464  1
  Zn  Zn46  1  0.064851  0.342814  0.074679  1
  Zn  Zn47  1  0.657186  0.935149  0.425321  1
  Zn  Zn48  1  0.935149  0.657186  0.925321  1
  Zn  Zn49  1  0.342814  0.064851  0.574679  1
  Zn  Zn50  1  0.898541  0.425789  0.441312  1
  Zn  Zn51  1  0.574211  0.101459  0.058688  1
  Zn  Zn52  1  0.101459  0.574211  0.558688  1
  Zn  Zn53  1  0.425789  0.898541  0.941312  1
  Te  Te54  1  0.000000  0.000000  0.500000  1
  Te  Te55  1  0.000000  0.000000  0.000000  1
  Te  Te56  1  0.666138  0.662570  0.194459  1
  Te  Te57  1  0.337430  0.333862  0.305541  1
  Te  Te58  1  0.333862  0.337430  0.805541  1
  Te  Te59  1  0.662570  0.666138  0.694459  1
