# generated using pymatgen
data_Bi2H18C3(IN)9
_symmetry_space_group_name_H-M   'P 1'
_cell_length_a   9.13563045
_cell_length_b   9.13563009
_cell_length_c   21.71810643
_cell_angle_alpha   90.00000000
_cell_angle_beta   90.00000000
_cell_angle_gamma   107.47795416
_symmetry_Int_Tables_number   1
_chemical_formula_structural   Bi2H18C3(IN)9
_chemical_formula_sum   'Bi4 H36 C6 I18 N18'
_cell_volume   1728.90504241
_cell_formula_units_Z   2
loop_
 _symmetry_equiv_pos_site_id
 _symmetry_equiv_pos_as_xyz
  1  'x, y, z'
loop_
 _atom_site_type_symbol
 _atom_site_label
 _atom_site_symmetry_multiplicity
 _atom_site_fract_x
 _atom_site_fract_y
 _atom_site_fract_z
 _atom_site_occupancy
  Bi  Bi0  1  0.726568  0.273432  0.650378  1
  Bi  Bi1  1  0.273432  0.726568  0.349622  1
  Bi  Bi2  1  0.726568  0.273432  0.849622  1
  Bi  Bi3  1  0.273432  0.726568  0.150378  1
  H  H4  1  0.151935  0.685869  0.750000  1
  H  H5  1  0.685869  0.151935  0.250000  1
  H  H6  1  0.848065  0.314131  0.250000  1
  H  H7  1  0.314131  0.848065  0.750000  1
  H  H8  1  0.169634  0.452723  0.589690  1
  H  H9  1  0.452723  0.169634  0.410310  1
  H  H10  1  0.169634  0.452723  0.910310  1
  H  H11  1  0.452723  0.169634  0.089690  1
  H  H12  1  0.830366  0.547277  0.410310  1
  H  H13  1  0.547277  0.830366  0.589690  1
  H  H14  1  0.830366  0.547277  0.089690  1
  H  H15  1  0.547277  0.830366  0.910310  1
  H  H16  1  0.338911  0.441899  0.621830  1
  H  H17  1  0.441899  0.338911  0.378170  1
  H  H18  1  0.338911  0.441899  0.878170  1
  H  H19  1  0.441899  0.338911  0.121830  1
  H  H20  1  0.661089  0.558101  0.378170  1
  H  H21  1  0.558101  0.661089  0.621830  1
  H  H22  1  0.661089  0.558101  0.121830  1
  H  H23  1  0.558101  0.661089  0.878170  1
  H  H24  1  0.313832  0.847322  0.549712  1
  H  H25  1  0.847322  0.313832  0.450288  1
  H  H26  1  0.313832  0.847322  0.950288  1
  H  H27  1  0.847322  0.313832  0.049712  1
  H  H28  1  0.686168  0.152678  0.450288  1
  H  H29  1  0.152678  0.686168  0.549712  1
  H  H30  1  0.686168  0.152678  0.049712  1
  H  H31  1  0.152678  0.686168  0.950288  1
  H  H32  1  0.284244  0.094519  0.750000  1
  H  H33  1  0.094519  0.284244  0.250000  1
  H  H34  1  0.715756  0.905481  0.250000  1
  H  H35  1  0.905481  0.715756  0.750000  1
  H  H36  1  0.102878  0.117791  0.750000  1
  H  H37  1  0.117791  0.102878  0.250000  1
  H  H38  1  0.897122  0.882209  0.250000  1
  H  H39  1  0.882209  0.897122  0.750000  1
  C  C40  1  0.344939  0.655061  0.589371  1
  C  C41  1  0.655061  0.344939  0.410629  1
  C  C42  1  0.344939  0.655061  0.910629  1
  C  C43  1  0.655061  0.344939  0.089371  1
  C  C44  1  0.106933  0.893067  0.750000  1
  C  C45  1  0.893067  0.106933  0.250000  1
  I  I46  1  0.618622  0.992360  0.750000  1
  I  I47  1  0.992360  0.618622  0.250000  1
  I  I48  1  0.381378  0.007640  0.250000  1
  I  I49  1  0.007640  0.381378  0.750000  1
  I  I50  1  0.555451  0.444549  0.750000  1
  I  I51  1  0.444549  0.555451  0.250000  1
  I  I52  1  0.839316  0.567826  0.579472  1
  I  I53  1  0.567826  0.839316  0.420528  1
  I  I54  1  0.839316  0.567826  0.920528  1
  I  I55  1  0.567826  0.839316  0.079472  1
  I  I56  1  0.160684  0.432174  0.420528  1
  I  I57  1  0.432174  0.160684  0.579472  1
  I  I58  1  0.160684  0.432174  0.079472  1
  I  I59  1  0.432174  0.160684  0.920528  1
  I  I60  1  0.897951  0.102049  0.578501  1
  I  I61  1  0.102049  0.897951  0.421499  1
  I  I62  1  0.897951  0.102049  0.921499  1
  I  I63  1  0.102049  0.897951  0.078501  1
  N  N64  1  0.197717  0.802283  0.750000  1
  N  N65  1  0.802283  0.197717  0.250000  1
  N  N66  1  0.276662  0.508557  0.605235  1
  N  N67  1  0.508557  0.276662  0.394765  1
  N  N68  1  0.276662  0.508557  0.894765  1
  N  N69  1  0.508557  0.276662  0.105235  1
  N  N70  1  0.723338  0.491443  0.394765  1
  N  N71  1  0.491443  0.723338  0.605235  1
  N  N72  1  0.723338  0.491443  0.105235  1
  N  N73  1  0.491443  0.723338  0.894765  1
  N  N74  1  0.265961  0.734039  0.559481  1
  N  N75  1  0.734039  0.265961  0.440519  1
  N  N76  1  0.265961  0.734039  0.940519  1
  N  N77  1  0.734039  0.265961  0.059481  1
  N  N78  1  0.168811  0.045564  0.750000  1
  N  N79  1  0.045564  0.168811  0.250000  1
  N  N80  1  0.831189  0.954436  0.250000  1
  N  N81  1  0.954436  0.831189  0.750000  1
