# generated using pymatgen
data_V5S4
_symmetry_space_group_name_H-M   'P 1'
_cell_length_a   3.16234902
_cell_length_b   6.54673930
_cell_length_c   6.54673929
_cell_angle_alpha   86.65590392
_cell_angle_beta   76.02367617
_cell_angle_gamma   76.02367623
_symmetry_Int_Tables_number   1
_chemical_formula_structural   V5S4
_chemical_formula_sum   'V5 S4'
_cell_volume   127.63140265
_cell_formula_units_Z   1
loop_
 _symmetry_equiv_pos_site_id
 _symmetry_equiv_pos_as_xyz
  1  'x, y, z'
loop_
 _atom_site_type_symbol
 _atom_site_label
 _atom_site_symmetry_multiplicity
 _atom_site_fract_x
 _atom_site_fract_y
 _atom_site_fract_z
 _atom_site_occupancy
  S  S0  1  0.936841  0.791547  0.334771  1
  S  S1  1  0.271612  0.665229  0.791547  1
  S  S2  1  0.728388  0.334771  0.208453  1
  S  S3  1  0.063159  0.208453  0.665229  1
  V  V4  1  0.700290  0.920674  0.678746  1
  V  V5  1  0.379036  0.321254  0.920674  1
  V  V6  1  0.620964  0.678746  0.079326  1
  V  V7  1  0.299710  0.079326  0.321254  1
  V  V8  1  0.000000  0.000000  0.000000  1
