# generated using pymatgen
data_CsUCuS3
_symmetry_space_group_name_H-M   'P 1'
_cell_length_a   4.00009078
_cell_length_b   8.00505777
_cell_length_c   10.32876300
_cell_angle_alpha   90.00000000
_cell_angle_beta   90.00000000
_cell_angle_gamma   104.46850092
_symmetry_Int_Tables_number   1
_chemical_formula_structural   CsUCuS3
_chemical_formula_sum   'Cs2 U2 Cu2 S6'
_cell_volume   320.24761106
_cell_formula_units_Z   2
loop_
 _symmetry_equiv_pos_site_id
 _symmetry_equiv_pos_as_xyz
  1  'x, y, z'
loop_
 _atom_site_type_symbol
 _atom_site_label
 _atom_site_symmetry_multiplicity
 _atom_site_fract_x
 _atom_site_fract_y
 _atom_site_fract_z
 _atom_site_occupancy
  S  S0  1  0.388142  0.776284  0.559153  1
  S  S1  1  0.611858  0.223716  0.440847  1
  S  S2  1  0.611858  0.223716  0.059153  1
  S  S3  1  0.051812  0.103624  0.750000  1
  S  S4  1  0.948188  0.896376  0.250000  1
  S  S5  1  0.388142  0.776284  0.940847  1
  Cu  Cu6  1  0.466214  0.932428  0.750000  1
  Cu  Cu7  1  0.533786  0.067572  0.250000  1
  Cs  Cs8  1  0.259475  0.518949  0.250000  1
  Cs  Cs9  1  0.740525  0.481051  0.750000  1
  U  U10  1  0.000000  0.000000  0.500000  1
  U  U11  1  0.000000  0.000000  0.000000  1
