# generated using pymatgen
data_CaCdGe
_symmetry_space_group_name_H-M   'P 1'
_cell_length_a   7.38418319
_cell_length_b   7.38418319
_cell_length_c   4.51104830
_cell_angle_alpha   90.00000000
_cell_angle_beta   90.00000000
_cell_angle_gamma   120.00000003
_symmetry_Int_Tables_number   1
_chemical_formula_structural   CaCdGe
_chemical_formula_sum   'Ca3 Cd3 Ge3'
_cell_volume   213.01639645
_cell_formula_units_Z   3
loop_
 _symmetry_equiv_pos_site_id
 _symmetry_equiv_pos_as_xyz
  1  'x, y, z'
loop_
 _atom_site_type_symbol
 _atom_site_label
 _atom_site_symmetry_multiplicity
 _atom_site_fract_x
 _atom_site_fract_y
 _atom_site_fract_z
 _atom_site_occupancy
  Ca  Ca0  1  0.581406  0.000000  0.500000  1
  Ca  Ca1  1  0.418594  0.418594  0.500000  1
  Ca  Ca2  1  0.000000  0.581406  0.500000  1
  Ge  Ge3  1  0.333333  0.666667  0.000000  1
  Ge  Ge4  1  0.666667  0.333333  0.000000  1
  Ge  Ge5  1  0.000000  0.000000  0.500000  1
  Cd  Cd6  1  0.000000  0.254704  0.000000  1
  Cd  Cd7  1  0.254704  0.000000  0.000000  1
  Cd  Cd8  1  0.745296  0.745296  0.000000  1
