# generated using pymatgen
data_TlTe
_symmetry_space_group_name_H-M   'P 1'
_cell_length_a   6.22299223
_cell_length_b   9.83209908
_cell_length_c   9.83209908
_cell_angle_alpha   84.25225717
_cell_angle_beta   71.55084029
_cell_angle_gamma   71.55084033
_symmetry_Int_Tables_number   1
_chemical_formula_structural   TlTe
_chemical_formula_sum   'Tl8 Te8'
_cell_volume   541.33040456
_cell_formula_units_Z   8
loop_
 _symmetry_equiv_pos_site_id
 _symmetry_equiv_pos_as_xyz
  1  'x, y, z'
loop_
 _atom_site_type_symbol
 _atom_site_label
 _atom_site_symmetry_multiplicity
 _atom_site_fract_x
 _atom_site_fract_y
 _atom_site_fract_z
 _atom_site_occupancy
  Te  Te0  1  0.750000  0.000000  0.000000  1
  Te  Te1  1  0.250000  0.000000  0.000000  1
  Te  Te2  1  0.750000  0.500000  0.500000  1
  Te  Te3  1  0.250000  0.500000  0.500000  1
  Te  Te4  1  0.837975  0.500000  0.824049  1
  Te  Te5  1  0.662025  0.175951  0.500000  1
  Te  Te6  1  0.337975  0.824049  0.500000  1
  Te  Te7  1  0.162025  0.500000  0.175951  1
  Tl  Tl8  1  0.582844  0.693130  0.141181  1
  Tl  Tl9  1  0.417156  0.306870  0.858819  1
  Tl  Tl10  1  0.724025  0.858819  0.693130  1
  Tl  Tl11  1  0.275975  0.141181  0.306870  1
  Tl  Tl12  1  0.917156  0.858819  0.306870  1
  Tl  Tl13  1  0.224025  0.693130  0.858819  1
  Tl  Tl14  1  0.775975  0.306870  0.141181  1
  Tl  Tl15  1  0.082845  0.141181  0.693130  1
