# generated using pymatgen
data_TeMoWSe3
_symmetry_space_group_name_H-M   'P 1'
_cell_length_a   3.37900195
_cell_length_b   3.37899444
_cell_length_c   38.43970391
_cell_angle_alpha   90.00018656
_cell_angle_beta   90.00000000
_cell_angle_gamma   120.00007365
_symmetry_Int_Tables_number   1
_chemical_formula_structural   TeMoWSe3
_chemical_formula_sum   'Te2 Mo2 W2 Se6'
_cell_volume   380.08984131
_cell_formula_units_Z   2
loop_
 _symmetry_equiv_pos_site_id
 _symmetry_equiv_pos_as_xyz
  1  'x, y, z'
loop_
 _atom_site_type_symbol
 _atom_site_label
 _atom_site_symmetry_multiplicity
 _atom_site_fract_x
 _atom_site_fract_y
 _atom_site_fract_z
 _atom_site_occupancy
  Te  Te0  1  0.666638  0.333276  0.045040  1
  Te  Te1  1  0.666647  0.333293  0.142787  1
  Mo  Mo2  1  0.333310  0.666619  0.093885  1
  Mo  Mo3  1  0.333311  0.666621  0.469666  1
  W  W4  1  0.666687  0.333374  0.281804  1
  W  W5  1  0.666695  0.333390  0.657551  1
  Se  Se6  1  0.333356  0.666714  0.325004  1
  Se  Se7  1  0.333358  0.666717  0.700716  1
  Se  Se8  1  0.666646  0.333292  0.426644  1
  Se  Se9  1  0.666651  0.333300  0.512675  1
  Se  Se10  1  0.333349  0.666699  0.238627  1
  Se  Se11  1  0.333352  0.666705  0.614348  1
