# generated using pymatgen
data_PrB3
_symmetry_space_group_name_H-M   'P 1'
_cell_length_a   5.68168867
_cell_length_b   5.68168787
_cell_length_c   3.46733659
_cell_angle_alpha   90.00000000
_cell_angle_beta   90.00000000
_cell_angle_gamma   119.99999879
_symmetry_Int_Tables_number   1
_chemical_formula_structural   PrB3
_chemical_formula_sum   'Pr2 B6'
_cell_volume   96.93518506
_cell_formula_units_Z   2
loop_
 _symmetry_equiv_pos_site_id
 _symmetry_equiv_pos_as_xyz
  1  'x, y, z'
loop_
 _atom_site_type_symbol
 _atom_site_label
 _atom_site_symmetry_multiplicity
 _atom_site_fract_x
 _atom_site_fract_y
 _atom_site_fract_z
 _atom_site_occupancy
  Pr  Pr0  1  0.333334  0.666668  0.749998  1
  Pr  Pr1  1  0.666668  0.333335  0.249999  1
  B  B2  1  0.105173  0.210346  0.249999  1
  B  B3  1  0.789654  0.894828  0.249999  1
  B  B4  1  0.105173  0.894828  0.249999  1
  B  B5  1  0.894828  0.789655  0.749998  1
  B  B6  1  0.210347  0.105173  0.749998  1
  B  B7  1  0.894826  0.105173  0.749998  1
