# generated using pymatgen
data_Sr5Ge3
_symmetry_space_group_name_H-M   'P 1'
_cell_length_a   8.17466679
_cell_length_b   8.17467109
_cell_length_c   9.85505958
_cell_angle_alpha   114.51172664
_cell_angle_beta   114.51189601
_cell_angle_gamma   89.97993289
_symmetry_Int_Tables_number   1
_chemical_formula_structural   Sr5Ge3
_chemical_formula_sum   'Sr10 Ge6'
_cell_volume   533.34460705
_cell_formula_units_Z   2
loop_
 _symmetry_equiv_pos_site_id
 _symmetry_equiv_pos_as_xyz
  1  'x, y, z'
loop_
 _atom_site_type_symbol
 _atom_site_label
 _atom_site_symmetry_multiplicity
 _atom_site_fract_x
 _atom_site_fract_y
 _atom_site_fract_z
 _atom_site_occupancy
  Ge  Ge0  1  0.613702  0.113702  0.000009  1
  Ge  Ge1  1  0.886250  0.613756  0.000006  1
  Ge  Ge2  1  0.113750  0.386244  0.999994  1
  Ge  Ge3  1  0.386298  0.886298  0.999991  1
  Ge  Ge4  1  0.749996  0.750000  0.500000  1
  Ge  Ge5  1  0.250004  0.250000  0.500000  1
  Sr  Sr6  1  0.180924  0.037610  0.718530  1
  Sr  Sr7  1  0.037597  0.537603  0.718539  1
  Sr  Sr8  1  0.680933  0.180938  0.718548  1
  Sr  Sr9  1  0.962403  0.462397  0.281461  1
  Sr  Sr10  1  0.537618  0.680924  0.718538  1
  Sr  Sr11  1  0.819076  0.962390  0.281470  1
  Sr  Sr12  1  0.462382  0.319076  0.281462  1
  Sr  Sr13  1  0.319067  0.819062  0.281452  1
  Sr  Sr14  1  0.500000  0.500000  0.000000  1
  Sr  Sr15  1  0.000000  0.000000  0.000000  1
