# generated using pymatgen
data_Na2V(PO4)2
_symmetry_space_group_name_H-M   'P 1'
_cell_length_a   6.37217885
_cell_length_b   7.82323540
_cell_length_c   13.62592308
_cell_angle_alpha   90.00000000
_cell_angle_beta   90.00000000
_cell_angle_gamma   99.73504937
_symmetry_Int_Tables_number   1
_chemical_formula_structural   Na2V(PO4)2
_chemical_formula_sum   'Na8 V4 P8 O32'
_cell_volume   669.48535006
_cell_formula_units_Z   4
loop_
 _symmetry_equiv_pos_site_id
 _symmetry_equiv_pos_as_xyz
  1  'x, y, z'
loop_
 _atom_site_type_symbol
 _atom_site_label
 _atom_site_symmetry_multiplicity
 _atom_site_fract_x
 _atom_site_fract_y
 _atom_site_fract_z
 _atom_site_occupancy
  O  O0  1  0.975189  0.286868  0.766261  1
  O  O1  1  0.524811  0.713132  0.266261  1
  O  O2  1  0.024811  0.713132  0.233739  1
  O  O3  1  0.475189  0.286868  0.733739  1
  O  O4  1  0.185069  0.218303  0.908452  1
  O  O5  1  0.314931  0.781697  0.408452  1
  O  O6  1  0.814931  0.781697  0.091548  1
  O  O7  1  0.685069  0.218303  0.591548  1
  O  O8  1  0.471914  0.283371  0.035178  1
  O  O9  1  0.028086  0.716629  0.535178  1
  O  O10  1  0.528086  0.716629  0.964822  1
  O  O11  1  0.971914  0.283371  0.464822  1
  O  O12  1  0.744824  0.020855  0.976703  1
  O  O13  1  0.755176  0.979145  0.476703  1
  O  O14  1  0.255176  0.979145  0.023297  1
  O  O15  1  0.244824  0.020855  0.523297  1
  O  O16  1  0.088574  0.231172  0.089336  1
  O  O17  1  0.411426  0.768828  0.589336  1
  O  O18  1  0.911426  0.768828  0.910664  1
  O  O19  1  0.588574  0.231172  0.410664  1
  O  O20  1  0.354054  0.360072  0.562841  1
  O  O21  1  0.145946  0.639928  0.062841  1
  O  O22  1  0.645946  0.639928  0.437159  1
  O  O23  1  0.854054  0.360072  0.937159  1
  O  O24  1  0.304597  0.466808  0.362643  1
  O  O25  1  0.195403  0.533192  0.862643  1
  O  O26  1  0.695403  0.533192  0.637357  1
  O  O27  1  0.804597  0.466808  0.137357  1
  O  O28  1  0.185789  0.108845  0.327881  1
  O  O29  1  0.314211  0.891155  0.827881  1
  O  O30  1  0.814211  0.891155  0.672119  1
  O  O31  1  0.685789  0.108845  0.172119  1
  Na  Na32  1  0.438086  0.529295  0.132125  1
  Na  Na33  1  0.061914  0.470705  0.632125  1
  Na  Na34  1  0.561914  0.470705  0.867875  1
  Na  Na35  1  0.938086  0.529295  0.367875  1
  Na  Na36  1  0.659411  0.064257  0.788181  1
  Na  Na37  1  0.840589  0.935743  0.288181  1
  Na  Na38  1  0.340589  0.935743  0.211819  1
  Na  Na39  1  0.159411  0.064257  0.711819  1
  P  P40  1  0.249991  0.173251  0.018450  1
  P  P41  1  0.250009  0.826749  0.518450  1
  P  P42  1  0.750009  0.826749  0.981550  1
  P  P43  1  0.749991  0.173251  0.481550  1
  P  P44  1  0.041189  0.358887  0.866930  1
  P  P45  1  0.458811  0.641113  0.366930  1
  P  P46  1  0.958811  0.641113  0.133070  1
  P  P47  1  0.541189  0.358887  0.633070  1
  V  V48  1  0.769188  0.227872  0.073966  1
  V  V49  1  0.730812  0.772128  0.573966  1
  V  V50  1  0.230812  0.772128  0.926034  1
  V  V51  1  0.269188  0.227872  0.426034  1
