# generated using pymatgen
data_EuTlS2
_symmetry_space_group_name_H-M   'P 1'
_cell_length_a   4.18528518
_cell_length_b   4.18528487
_cell_length_c   7.59170142
_cell_angle_alpha   73.99932531
_cell_angle_beta   73.99932281
_cell_angle_gamma   60.00000234
_symmetry_Int_Tables_number   1
_chemical_formula_structural   EuTlS2
_chemical_formula_sum   'Eu1 Tl1 S2'
_cell_volume   109.17542449
_cell_formula_units_Z   1
loop_
 _symmetry_equiv_pos_site_id
 _symmetry_equiv_pos_as_xyz
  1  'x, y, z'
loop_
 _atom_site_type_symbol
 _atom_site_label
 _atom_site_symmetry_multiplicity
 _atom_site_fract_x
 _atom_site_fract_y
 _atom_site_fract_z
 _atom_site_occupancy
  Eu  Eu0  1  0.000000  -0.000000  -0.000000  1
  Tl  Tl1  1  0.500000  0.500000  0.500000  1
  S  S2  1  0.736253  0.736253  0.791242  1
  S  S3  1  0.263747  0.263747  0.208758  1
