# generated using pymatgen
data_Ag8GeSe6
_symmetry_space_group_name_H-M   'P 1'
_cell_length_a   7.84894306
_cell_length_b   8.04497607
_cell_length_c   11.02933648
_cell_angle_alpha   90.00000000
_cell_angle_beta   90.00000000
_cell_angle_gamma   90.00000000
_symmetry_Int_Tables_number   1
_chemical_formula_structural   Ag8GeSe6
_chemical_formula_sum   'Ag16 Ge2 Se12'
_cell_volume   696.44258911
_cell_formula_units_Z   2
loop_
 _symmetry_equiv_pos_site_id
 _symmetry_equiv_pos_as_xyz
  1  'x, y, z'
loop_
 _atom_site_type_symbol
 _atom_site_label
 _atom_site_symmetry_multiplicity
 _atom_site_fract_x
 _atom_site_fract_y
 _atom_site_fract_z
 _atom_site_occupancy
  Ge  Ge0  1  0.750446  0.000000  0.481007  1
  Ge  Ge1  1  0.249554  0.500000  0.981007  1
  Se  Se2  1  0.750012  0.751363  0.600958  1
  Se  Se3  1  0.249988  0.748637  0.100958  1
  Se  Se4  1  0.490628  0.500000  0.849668  1
  Se  Se5  1  0.509372  0.000000  0.349668  1
  Se  Se6  1  0.004528  0.500000  0.849404  1
  Se  Se7  1  0.995472  0.000000  0.349404  1
  Se  Se8  1  0.810450  0.500000  0.253349  1
  Se  Se9  1  0.189550  0.000000  0.753349  1
  Se  Se10  1  0.283873  0.500000  0.502637  1
  Se  Se11  1  0.716127  0.000000  0.002637  1
  Se  Se12  1  0.750012  0.248637  0.600958  1
  Se  Se13  1  0.249988  0.251363  0.100958  1
  Ag  Ag14  1  0.275390  0.000000  0.518911  1
  Ag  Ag15  1  0.724610  0.500000  0.018911  1
  Ag  Ag16  1  0.844895  0.200121  0.842896  1
  Ag  Ag17  1  0.155105  0.299879  0.342896  1
  Ag  Ag18  1  0.155105  0.700121  0.342896  1
  Ag  Ag19  1  0.844895  0.799879  0.842896  1
  Ag  Ag20  1  0.464151  0.198091  0.731673  1
  Ag  Ag21  1  0.535849  0.301909  0.231673  1
  Ag  Ag22  1  0.535849  0.698091  0.231673  1
  Ag  Ag23  1  0.464151  0.801909  0.731673  1
  Ag  Ag24  1  0.897907  0.208399  0.136417  1
  Ag  Ag25  1  0.102093  0.291601  0.636417  1
  Ag  Ag26  1  0.102093  0.708399  0.636417  1
  Ag  Ag27  1  0.897907  0.791601  0.136417  1
  Ag  Ag28  1  0.617779  0.500000  0.457337  1
  Ag  Ag29  1  0.382221  0.000000  0.957337  1
