# generated using pymatgen
data_Be3Fe4Si3SO12
_symmetry_space_group_name_H-M   'P 1'
_cell_length_a   8.27655089
_cell_length_b   8.27655089
_cell_length_c   8.27655089
_cell_angle_alpha   90.00000000
_cell_angle_beta   90.00000000
_cell_angle_gamma   90.00000000
_symmetry_Int_Tables_number   1
_chemical_formula_structural   Be3Fe4Si3SO12
_chemical_formula_sum   'Be6 Fe8 Si6 S2 O24'
_cell_volume   566.95445108
_cell_formula_units_Z   2
loop_
 _symmetry_equiv_pos_site_id
 _symmetry_equiv_pos_as_xyz
  1  'x, y, z'
loop_
 _atom_site_type_symbol
 _atom_site_label
 _atom_site_symmetry_multiplicity
 _atom_site_fract_x
 _atom_site_fract_y
 _atom_site_fract_z
 _atom_site_occupancy
  Be  Be0  1  0.250000  0.500000  0.000000  1
  Be  Be1  1  0.500000  0.000000  0.750000  1
  Be  Be2  1  0.500000  0.000000  0.250000  1
  Be  Be3  1  0.000000  0.250000  0.500000  1
  Be  Be4  1  0.000000  0.750000  0.500000  1
  Be  Be5  1  0.750000  0.500000  0.000000  1
  O  O6  1  0.140089  0.588097  0.860149  1
  O  O7  1  0.859910  0.588097  0.139851  1
  O  O8  1  0.411904  0.860149  0.859910  1
  O  O9  1  0.588097  0.860149  0.140089  1
  O  O10  1  0.860149  0.859910  0.411904  1
  O  O11  1  0.139851  0.140089  0.411904  1
  O  O12  1  0.359910  0.360149  0.911903  1
  O  O13  1  0.140089  0.411904  0.139851  1
  O  O14  1  0.859910  0.411904  0.860149  1
  O  O15  1  0.588097  0.139851  0.859910  1
  O  O16  1  0.411904  0.139851  0.140089  1
  O  O17  1  0.860149  0.140089  0.588097  1
  O  O18  1  0.139851  0.859910  0.588097  1
  O  O19  1  0.911903  0.359910  0.360149  1
  O  O20  1  0.360149  0.911903  0.359910  1
  O  O21  1  0.639852  0.088097  0.359910  1
  O  O22  1  0.911903  0.640089  0.639852  1
  O  O23  1  0.640089  0.639852  0.911903  1
  O  O24  1  0.088097  0.640089  0.360149  1
  O  O25  1  0.088097  0.359910  0.639852  1
  O  O26  1  0.360149  0.088097  0.640089  1
  O  O27  1  0.359910  0.639852  0.088097  1
  O  O28  1  0.640089  0.360149  0.088097  1
  O  O29  1  0.639852  0.911903  0.640089  1
  Si  Si30  1  0.750000  0.000000  0.500000  1
  Si  Si31  1  0.500000  0.750000  0.000000  1
  Si  Si32  1  0.500000  0.250000  0.000000  1
  Si  Si33  1  0.250000  0.000000  0.500000  1
  Si  Si34  1  0.000000  0.500000  0.750000  1
  Si  Si35  1  0.000000  0.500000  0.250000  1
  S  S36  1  0.000000  0.000000  0.000000  1
  S  S37  1  0.500000  0.500000  0.500000  1
  Fe  Fe38  1  0.333164  0.666836  0.333164  1
  Fe  Fe39  1  0.666836  0.333164  0.333164  1
  Fe  Fe40  1  0.833164  0.833164  0.166837  1
  Fe  Fe41  1  0.166837  0.833164  0.833164  1
  Fe  Fe42  1  0.833164  0.166837  0.833164  1
  Fe  Fe43  1  0.666836  0.666836  0.666836  1
  Fe  Fe44  1  0.166837  0.166837  0.166837  1
  Fe  Fe45  1  0.333164  0.333164  0.666836  1
