# generated using pymatgen
data_K3GdF6
_symmetry_space_group_name_H-M   'P 1'
_cell_length_a   6.44266613
_cell_length_b   6.68931890
_cell_length_c   9.21951636
_cell_angle_alpha   90.00000000
_cell_angle_beta   91.04726783
_cell_angle_gamma   90.00000000
_symmetry_Int_Tables_number   1
_chemical_formula_structural   K3GdF6
_chemical_formula_sum   'K6 Gd2 F12'
_cell_volume   397.26757038
_cell_formula_units_Z   2
loop_
 _symmetry_equiv_pos_site_id
 _symmetry_equiv_pos_as_xyz
  1  'x, y, z'
loop_
 _atom_site_type_symbol
 _atom_site_label
 _atom_site_symmetry_multiplicity
 _atom_site_fract_x
 _atom_site_fract_y
 _atom_site_fract_z
 _atom_site_occupancy
  F  F0  1  0.878823  0.933889  0.775506  1
  F  F1  1  0.621177  0.433889  0.724494  1
  F  F2  1  0.121177  0.066111  0.224494  1
  F  F3  1  0.378823  0.566111  0.275506  1
  F  F4  1  0.828598  0.729176  0.077909  1
  F  F5  1  0.671402  0.229176  0.422091  1
  F  F6  1  0.171402  0.270824  0.922091  1
  F  F7  1  0.328598  0.770824  0.577909  1
  F  F8  1  0.217876  0.321563  0.551025  1
  F  F9  1  0.282124  0.821563  0.948975  1
  F  F10  1  0.782124  0.678437  0.448975  1
  F  F11  1  0.717876  0.178437  0.051025  1
  K  K12  1  0.517532  0.948218  0.241926  1
  K  K13  1  0.982468  0.448218  0.258074  1
  K  K14  1  0.482468  0.051782  0.758074  1
  K  K15  1  0.017532  0.551782  0.741926  1
  K  K16  1  0.000000  0.000000  0.500000  1
  K  K17  1  0.500000  0.500000  0.000000  1
  Gd  Gd18  1  0.500000  0.500000  0.500000  1
  Gd  Gd19  1  0.000000  0.000000  0.000000  1
