# generated using pymatgen
data_Er3Ga5O12
_symmetry_space_group_name_H-M   'P 1'
_cell_length_a   10.69694501
_cell_length_b   10.69694500
_cell_length_c   10.69694501
_cell_angle_alpha   109.47122067
_cell_angle_beta   109.47122066
_cell_angle_gamma   109.47122060
_symmetry_Int_Tables_number   1
_chemical_formula_structural   Er3Ga5O12
_chemical_formula_sum   'Er12 Ga20 O48'
_cell_volume   942.23102115
_cell_formula_units_Z   4
loop_
 _symmetry_equiv_pos_site_id
 _symmetry_equiv_pos_as_xyz
  1  'x, y, z'
loop_
 _atom_site_type_symbol
 _atom_site_label
 _atom_site_symmetry_multiplicity
 _atom_site_fract_x
 _atom_site_fract_y
 _atom_site_fract_z
 _atom_site_occupancy
  O  O0  1  0.292626  0.469782  0.375557  1
  O  O1  1  0.030218  0.322844  0.905775  1
  O  O2  1  0.124443  0.594225  0.917069  1
  O  O3  1  0.207374  0.582931  0.177156  1
  O  O4  1  0.207374  0.124443  0.030218  1
  O  O5  1  0.582931  0.177156  0.207374  1
  O  O6  1  0.594225  0.177156  0.469782  1
  O  O7  1  0.177156  0.207374  0.582931  1
  O  O8  1  0.905775  0.375557  0.582931  1
  O  O9  1  0.322844  0.917069  0.292626  1
  O  O10  1  0.917069  0.292626  0.322844  1
  O  O11  1  0.030218  0.207374  0.124443  1
  O  O12  1  0.177156  0.469782  0.594225  1
  O  O13  1  0.582931  0.905775  0.375557  1
  O  O14  1  0.124443  0.030218  0.207374  1
  O  O15  1  0.469782  0.594225  0.177156  1
  O  O16  1  0.375557  0.582931  0.905775  1
  O  O17  1  0.905775  0.030218  0.322844  1
  O  O18  1  0.594225  0.917069  0.124443  1
  O  O19  1  0.094225  0.624443  0.417069  1
  O  O20  1  0.917069  0.124443  0.594225  1
  O  O21  1  0.375557  0.292626  0.469782  1
  O  O22  1  0.322844  0.905775  0.030218  1
  O  O23  1  0.292626  0.322844  0.917069  1
  O  O24  1  0.707374  0.530218  0.624443  1
  O  O25  1  0.969782  0.677156  0.094225  1
  O  O26  1  0.875557  0.405775  0.082931  1
  O  O27  1  0.792626  0.417069  0.822844  1
  O  O28  1  0.792626  0.875557  0.969782  1
  O  O29  1  0.417069  0.822844  0.792626  1
  O  O30  1  0.405775  0.822844  0.530218  1
  O  O31  1  0.822844  0.792626  0.417069  1
  O  O32  1  0.707374  0.677156  0.082931  1
  O  O33  1  0.677156  0.094225  0.969782  1
  O  O34  1  0.624443  0.707374  0.530218  1
  O  O35  1  0.530218  0.624443  0.707374  1
  O  O36  1  0.082931  0.875557  0.405775  1
  O  O37  1  0.405775  0.082931  0.875557  1
  O  O38  1  0.094225  0.969782  0.677156  1
  O  O39  1  0.624443  0.417069  0.094225  1
  O  O40  1  0.530218  0.405775  0.822844  1
  O  O41  1  0.875557  0.969782  0.792626  1
  O  O42  1  0.417069  0.094225  0.624443  1
  O  O43  1  0.822844  0.530218  0.405775  1
  O  O44  1  0.969782  0.792626  0.875557  1
  O  O45  1  0.082931  0.707374  0.677156  1
  O  O46  1  0.677156  0.082931  0.707374  1
  O  O47  1  0.469782  0.375557  0.292626  1
  Ga  Ga48  1  0.250000  0.125000  0.875000  1
  Ga  Ga49  1  0.750000  0.875000  0.125000  1
  Ga  Ga50  1  0.375000  0.250000  0.625000  1
  Ga  Ga51  1  0.625000  0.375000  0.250000  1
  Ga  Ga52  1  0.125000  0.750000  0.875000  1
  Ga  Ga53  1  0.875000  0.125000  0.750000  1
  Ga  Ga54  1  0.750000  0.375000  0.625000  1
  Ga  Ga55  1  0.375000  0.625000  0.750000  1
  Ga  Ga56  1  0.125000  0.875000  0.250000  1
  Ga  Ga57  1  0.875000  0.250000  0.125000  1
  Ga  Ga58  1  0.625000  0.750000  0.375000  1
  Ga  Ga59  1  0.250000  0.625000  0.375000  1
  Ga  Ga60  1  0.500000  0.500000  0.500000  1
  Ga  Ga61  1  0.500000  0.500000  0.000000  1
  Ga  Ga62  1  0.500000  0.000000  0.500000  1
  Ga  Ga63  1  0.000000  0.500000  0.500000  1
  Ga  Ga64  1  0.500000  0.000000  0.000000  1
  Ga  Ga65  1  0.000000  0.000000  0.500000  1
  Ga  Ga66  1  0.000000  0.500000  0.000000  1
  Ga  Ga67  1  0.000000  0.000000  0.000000  1
  Er  Er68  1  0.250000  0.875000  0.625000  1
  Er  Er69  1  0.875000  0.625000  0.250000  1
  Er  Er70  1  0.625000  0.875000  0.750000  1
  Er  Er71  1  0.875000  0.750000  0.625000  1
  Er  Er72  1  0.625000  0.250000  0.875000  1
  Er  Er73  1  0.750000  0.625000  0.875000  1
  Er  Er74  1  0.750000  0.125000  0.375000  1
  Er  Er75  1  0.125000  0.375000  0.750000  1
  Er  Er76  1  0.375000  0.125000  0.250000  1
  Er  Er77  1  0.125000  0.250000  0.375000  1
  Er  Er78  1  0.375000  0.750000  0.125000  1
  Er  Er79  1  0.250000  0.375000  0.125000  1
