# generated using pymatgen
data_Pa3Mo
_symmetry_space_group_name_H-M   'P 1'
_cell_length_a   6.15004300
_cell_length_b   6.15004234
_cell_length_c   5.55707200
_cell_angle_alpha   90.00000000
_cell_angle_beta   90.00000000
_cell_angle_gamma   119.99999817
_symmetry_Int_Tables_number   1
_chemical_formula_structural   Pa3Mo
_chemical_formula_sum   'Pa6 Mo2'
_cell_volume   182.02578871
_cell_formula_units_Z   2
loop_
 _symmetry_equiv_pos_site_id
 _symmetry_equiv_pos_as_xyz
  1  'x, y, z'
loop_
 _atom_site_type_symbol
 _atom_site_label
 _atom_site_symmetry_multiplicity
 _atom_site_fract_x
 _atom_site_fract_y
 _atom_site_fract_z
 _atom_site_occupancy
  Pa  Pa0  1  0.825978  0.174024  0.749999  1
  Pa  Pa1  1  0.348044  0.174024  0.749999  1
  Pa  Pa2  1  0.825977  0.651954  0.749999  1
  Pa  Pa3  1  0.174023  0.825977  0.250000  1
  Pa  Pa4  1  0.651954  0.825977  0.250000  1
  Pa  Pa5  1  0.174022  0.348045  0.250000  1
  Mo  Mo6  1  0.666669  0.333334  0.250000  1
  Mo  Mo7  1  0.333333  0.666667  0.749999  1
