# generated using pymatgen
data_TeMoWSe2S
_symmetry_space_group_name_H-M   'P 1'
_cell_length_a   3.34363846
_cell_length_b   3.34370427
_cell_length_c   38.09569877
_cell_angle_alpha   89.99970374
_cell_angle_beta   90.00000000
_cell_angle_gamma   119.99934892
_symmetry_Int_Tables_number   1
_chemical_formula_structural   TeMoWSe2S
_chemical_formula_sum   'Te2 Mo2 W2 Se4 S2'
_cell_volume   368.85578318
_cell_formula_units_Z   2
loop_
 _symmetry_equiv_pos_site_id
 _symmetry_equiv_pos_as_xyz
  1  'x, y, z'
loop_
 _atom_site_type_symbol
 _atom_site_label
 _atom_site_symmetry_multiplicity
 _atom_site_fract_x
 _atom_site_fract_y
 _atom_site_fract_z
 _atom_site_occupancy
  Te  Te0  1  0.333352  0.666704  0.707346  1
  Te  Te1  1  0.333362  0.666726  0.607793  1
  Mo  Mo2  1  0.333301  0.666602  0.093921  1
  Mo  Mo3  1  0.666687  0.333375  0.657599  1
  W  W4  1  0.333311  0.666622  0.469631  1
  W  W5  1  0.666691  0.333383  0.281788  1
  Se  Se6  1  0.333351  0.666702  0.325796  1
  Se  Se7  1  0.666652  0.333303  0.425618  1
  Se  Se8  1  0.666638  0.333275  0.513652  1
  Se  Se9  1  0.333350  0.666700  0.237770  1
  S  S10  1  0.666652  0.333302  0.054127  1
  S  S11  1  0.666653  0.333306  0.133708  1
