# generated using pymatgen
data_UCrO4
_symmetry_space_group_name_H-M   'P 1'
_cell_length_a   4.89517011
_cell_length_b   5.16414924
_cell_length_c   11.96907352
_cell_angle_alpha   89.99998314
_cell_angle_beta   90.00002828
_cell_angle_gamma   90.00100126
_symmetry_Int_Tables_number   1
_chemical_formula_structural   UCrO4
_chemical_formula_sum   'U4 Cr4 O16'
_cell_volume   302.57086559
_cell_formula_units_Z   4
loop_
 _symmetry_equiv_pos_site_id
 _symmetry_equiv_pos_as_xyz
  1  'x, y, z'
loop_
 _atom_site_type_symbol
 _atom_site_label
 _atom_site_symmetry_multiplicity
 _atom_site_fract_x
 _atom_site_fract_y
 _atom_site_fract_z
 _atom_site_occupancy
  U  U0  1  0.500002  0.250002  0.669305  1
  U  U1  1  0.499993  0.750002  0.330740  1
  U  U2  1  0.999996  0.249995  0.169324  1
  U  U3  1  0.000002  0.749996  0.830675  1
  Cr  Cr4  1  0.000011  0.250004  0.437509  1
  Cr  Cr5  1  0.499999  0.249998  0.937395  1
  Cr  Cr6  1  0.499999  0.750001  0.062528  1
  Cr  Cr7  1  0.000001  0.750007  0.562597  1
  O  O8  1  0.719576  0.591254  0.189136  1
  O  O9  1  0.228462  0.927111  0.445958  1
  O  O10  1  0.780064  0.591595  0.689153  1
  O  O11  1  0.780063  0.091559  0.310946  1
  O  O12  1  0.280418  0.908740  0.189135  1
  O  O13  1  0.728542  0.572742  0.945799  1
  O  O14  1  0.728763  0.072656  0.054048  1
  O  O15  1  0.271239  0.427334  0.054047  1
  O  O16  1  0.280256  0.408531  0.810784  1
  O  O17  1  0.271450  0.927243  0.945798  1
  O  O18  1  0.771539  0.572904  0.445957  1
  O  O19  1  0.219937  0.908405  0.689157  1
  O  O20  1  0.228516  0.427150  0.554141  1
  O  O21  1  0.219936  0.408448  0.310945  1
  O  O22  1  0.719745  0.091462  0.810785  1
  O  O23  1  0.771491  0.072858  0.554140  1
