# generated using pymatgen
data_NaSr3TaO6
_symmetry_space_group_name_H-M   'P 1'
_cell_length_a   6.91430342
_cell_length_b   6.91430342
_cell_length_c   6.91430342
_cell_angle_alpha   91.24678188
_cell_angle_beta   91.24678188
_cell_angle_gamma   91.24678186
_symmetry_Int_Tables_number   1
_chemical_formula_structural   NaSr3TaO6
_chemical_formula_sum   'Na2 Sr6 Ta2 O12'
_cell_volume   330.31795539
_cell_formula_units_Z   2
loop_
 _symmetry_equiv_pos_site_id
 _symmetry_equiv_pos_as_xyz
  1  'x, y, z'
loop_
 _atom_site_type_symbol
 _atom_site_label
 _atom_site_symmetry_multiplicity
 _atom_site_fract_x
 _atom_site_fract_y
 _atom_site_fract_z
 _atom_site_occupancy
  O  O0  1  0.721232  0.928027  0.053497  1
  O  O1  1  0.928027  0.053497  0.721232  1
  O  O2  1  0.053497  0.721232  0.928027  1
  O  O3  1  0.446503  0.571973  0.778768  1
  O  O4  1  0.571973  0.778768  0.446503  1
  O  O5  1  0.778768  0.446503  0.571973  1
  O  O6  1  0.278768  0.071973  0.946503  1
  O  O7  1  0.071973  0.946503  0.278768  1
  O  O8  1  0.946503  0.278768  0.071973  1
  O  O9  1  0.553497  0.428027  0.221232  1
  O  O10  1  0.221232  0.553497  0.428027  1
  O  O11  1  0.428027  0.221232  0.553497  1
  Na  Na12  1  0.750000  0.750000  0.750000  1
  Na  Na13  1  0.250000  0.250000  0.250000  1
  Sr  Sr14  1  0.099360  0.400640  0.750000  1
  Sr  Sr15  1  0.400640  0.750000  0.099360  1
  Sr  Sr16  1  0.750000  0.099360  0.400640  1
  Sr  Sr17  1  0.900640  0.599360  0.250000  1
  Sr  Sr18  1  0.599360  0.250000  0.900640  1
  Sr  Sr19  1  0.250000  0.900640  0.599360  1
  Ta  Ta20  1  0.000000  0.000000  0.000000  1
  Ta  Ta21  1  0.500000  0.500000  0.500000  1
