# generated using pymatgen
data_KNa2(PO3)3
_symmetry_space_group_name_H-M   'P 1'
_cell_length_a   6.85251240
_cell_length_b   7.05979101
_cell_length_c   9.60117626
_cell_angle_alpha   87.07978689
_cell_angle_beta   70.62433701
_cell_angle_gamma   75.44453222
_symmetry_Int_Tables_number   1
_chemical_formula_structural   KNa2(PO3)3
_chemical_formula_sum   'K2 Na4 P6 O18'
_cell_volume   423.84179261
_cell_formula_units_Z   2
loop_
 _symmetry_equiv_pos_site_id
 _symmetry_equiv_pos_as_xyz
  1  'x, y, z'
loop_
 _atom_site_type_symbol
 _atom_site_label
 _atom_site_symmetry_multiplicity
 _atom_site_fract_x
 _atom_site_fract_y
 _atom_site_fract_z
 _atom_site_occupancy
  O  O0  1  0.387853  0.607329  0.231431  1
  O  O1  1  0.612147  0.392671  0.768569  1
  O  O2  1  0.475552  0.254934  0.126949  1
  O  O3  1  0.524448  0.745066  0.873051  1
  O  O4  1  0.151142  0.373072  0.350035  1
  O  O5  1  0.848858  0.626928  0.649965  1
  O  O6  1  0.434395  0.073578  0.362968  1
  O  O7  1  0.565605  0.926422  0.637032  1
  O  O8  1  0.153195  0.503543  0.099741  1
  O  O9  1  0.846805  0.496457  0.900259  1
  O  O10  1  0.750737  0.236024  0.259277  1
  O  O11  1  0.249263  0.763976  0.740723  1
  O  O12  1  0.665774  0.636018  0.452726  1
  O  O13  1  0.334226  0.363982  0.547274  1
  O  O14  1  0.929640  0.851241  0.439699  1
  O  O15  1  0.070360  0.148759  0.560301  1
  O  O16  1  0.264815  0.068366  0.871915  1
  O  O17  1  0.735185  0.931634  0.128085  1
  Na  Na18  1  0.283210  0.710877  0.490246  1
  Na  Na19  1  0.767704  0.579492  0.168907  1
  Na  Na20  1  0.232296  0.420508  0.831093  1
  Na  Na21  1  0.716790  0.289123  0.509754  1
  P  P22  1  0.289931  0.455895  0.196089  1
  P  P23  1  0.758746  0.755308  0.526692  1
  P  P24  1  0.622619  0.118766  0.217153  1
  P  P25  1  0.377381  0.881234  0.782847  1
  P  P26  1  0.710069  0.544105  0.803911  1
  P  P27  1  0.241254  0.244692  0.473308  1
  K  K28  1  0.850795  0.038677  0.833087  1
  K  K29  1  0.149205  0.961323  0.166913  1
