# generated using pymatgen
data_Lu2Cu(B2O5)2
_symmetry_space_group_name_H-M   'P 1'
_cell_length_a   4.56130211
_cell_length_b   7.20626232
_cell_length_c   9.29799748
_cell_angle_alpha   90.00000000
_cell_angle_beta   89.91702831
_cell_angle_gamma   90.00000000
_symmetry_Int_Tables_number   1
_chemical_formula_structural   Lu2Cu(B2O5)2
_chemical_formula_sum   'Lu4 Cu2 B8 O20'
_cell_volume   305.62429410
_cell_formula_units_Z   2
loop_
 _symmetry_equiv_pos_site_id
 _symmetry_equiv_pos_as_xyz
  1  'x, y, z'
loop_
 _atom_site_type_symbol
 _atom_site_label
 _atom_site_symmetry_multiplicity
 _atom_site_fract_x
 _atom_site_fract_y
 _atom_site_fract_z
 _atom_site_occupancy
  B  B0  1  0.461287  0.229552  0.421381  1
  B  B1  1  0.538713  0.729552  0.078619  1
  B  B2  1  0.538713  0.770448  0.578619  1
  B  B3  1  0.461287  0.270448  0.921381  1
  B  B4  1  0.528857  0.402356  0.664530  1
  B  B5  1  0.471143  0.902356  0.835470  1
  B  B6  1  0.528857  0.097644  0.164530  1
  B  B7  1  0.471143  0.597644  0.335470  1
  O  O8  1  0.321976  0.089819  0.861126  1
  O  O9  1  0.678024  0.589819  0.638874  1
  O  O10  1  0.773148  0.891253  0.539814  1
  O  O11  1  0.226852  0.391253  0.960186  1
  O  O12  1  0.226852  0.108747  0.460186  1
  O  O13  1  0.773148  0.608747  0.039814  1
  O  O14  1  0.212487  0.089615  0.168610  1
  O  O15  1  0.787513  0.589615  0.331390  1
  O  O16  1  0.787513  0.910385  0.831390  1
  O  O17  1  0.212487  0.410385  0.668610  1
  O  O18  1  0.661218  0.161859  0.303605  1
  O  O19  1  0.338782  0.661859  0.196395  1
  O  O20  1  0.338782  0.838141  0.696395  1
  O  O21  1  0.661218  0.338141  0.803605  1
  O  O22  1  0.642772  0.224229  0.050691  1
  O  O23  1  0.357228  0.724229  0.449309  1
  O  O24  1  0.357228  0.775771  0.949309  1
  O  O25  1  0.642772  0.275771  0.550691  1
  O  O26  1  0.678024  0.910181  0.138874  1
  O  O27  1  0.321976  0.410181  0.361126  1
  Cu  Cu28  1  0.000000  0.000000  0.000000  1
  Cu  Cu29  1  0.000000  0.500000  0.500000  1
  Lu  Lu30  1  0.001867  0.602060  0.835995  1
  Lu  Lu31  1  0.998133  0.102060  0.664005  1
  Lu  Lu32  1  0.001867  0.897940  0.335995  1
  Lu  Lu33  1  0.998133  0.397940  0.164005  1
