# generated using pymatgen
data_Te2MoW3(Se2S)2
_symmetry_space_group_name_H-M   'P 1'
_cell_length_a   3.34308858
_cell_length_b   3.34308832
_cell_length_c   38.75318283
_cell_angle_alpha   89.99987874
_cell_angle_beta   90.00000000
_cell_angle_gamma   119.99999852
_symmetry_Int_Tables_number   1
_chemical_formula_structural   Te2MoW3(Se2S)2
_chemical_formula_sum   'Te2 Mo1 W3 Se4 S2'
_cell_volume   375.08850042
_cell_formula_units_Z   1
loop_
 _symmetry_equiv_pos_site_id
 _symmetry_equiv_pos_as_xyz
  1  'x, y, z'
loop_
 _atom_site_type_symbol
 _atom_site_label
 _atom_site_symmetry_multiplicity
 _atom_site_fract_x
 _atom_site_fract_y
 _atom_site_fract_z
 _atom_site_occupancy
  Te  Te0  1  0.666643  0.333285  0.420409  1
  Te  Te1  1  0.666642  0.333283  0.518873  1
  Mo  Mo2  1  0.333309  0.666618  0.093937  1
  W  W3  1  0.333310  0.666621  0.469616  1
  W  W4  1  0.666693  0.333387  0.281788  1
  W  W5  1  0.666691  0.333382  0.657566  1
  Se  Se6  1  0.333352  0.666705  0.700809  1
  Se  Se7  1  0.666646  0.333290  0.050885  1
  Se  Se8  1  0.666646  0.333292  0.136994  1
  Se  Se9  1  0.333360  0.666721  0.614274  1
  S  S10  1  0.333353  0.666707  0.321086  1
  S  S11  1  0.333354  0.666709  0.242510  1
