# generated using pymatgen
data_Co3(PO4)2
_symmetry_space_group_name_H-M   'P 1'
_cell_length_a   5.08594879
_cell_length_b   7.72724663
_cell_length_c   8.45744445
_cell_angle_alpha   90.00000000
_cell_angle_beta   90.00000000
_cell_angle_gamma   94.70771011
_symmetry_Int_Tables_number   1
_chemical_formula_structural   Co3(PO4)2
_chemical_formula_sum   'Co6 P4 O16'
_cell_volume   331.25944982
_cell_formula_units_Z   2
loop_
 _symmetry_equiv_pos_site_id
 _symmetry_equiv_pos_as_xyz
  1  'x, y, z'
loop_
 _atom_site_type_symbol
 _atom_site_label
 _atom_site_symmetry_multiplicity
 _atom_site_fract_x
 _atom_site_fract_y
 _atom_site_fract_z
 _atom_site_occupancy
  Co  Co0  1  0.589153  0.610262  0.142307  1
  Co  Co1  1  0.089153  0.110262  0.357693  1
  Co  Co2  1  0.000000  0.000000  0.000000  1
  Co  Co3  1  0.910847  0.889738  0.642307  1
  Co  Co4  1  0.410847  0.389738  0.857693  1
  Co  Co5  1  0.500000  0.500000  0.500000  1
  P  P6  1  0.465615  0.802785  0.808942  1
  P  P7  1  0.965615  0.302785  0.691058  1
  P  P8  1  0.534385  0.197215  0.191058  1
  P  P9  1  0.034385  0.697215  0.308942  1
  O  O10  1  0.045195  0.856865  0.422247  1
  O  O11  1  0.545195  0.356865  0.077753  1
  O  O12  1  0.177309  0.446260  0.637294  1
  O  O13  1  0.689813  0.374569  0.692604  1
  O  O14  1  0.322691  0.053740  0.137294  1
  O  O15  1  0.557061  0.747839  0.641305  1
  O  O16  1  0.442939  0.252161  0.358695  1
  O  O17  1  0.677309  0.946260  0.862706  1
  O  O18  1  0.310187  0.625431  0.307396  1
  O  O19  1  0.954805  0.143135  0.577753  1
  O  O20  1  0.454805  0.643135  0.922247  1
  O  O21  1  0.057061  0.247839  0.858695  1
  O  O22  1  0.822691  0.553740  0.362706  1
  O  O23  1  0.810187  0.125431  0.192604  1
  O  O24  1  0.189813  0.874569  0.807396  1
  O  O25  1  0.942939  0.752161  0.141305  1
