# generated using pymatgen
data_NdSi2Rh
_symmetry_space_group_name_H-M   'P 1'
_cell_length_a   4.22250307
_cell_length_b   4.26774469
_cell_length_c   8.63534812
_cell_angle_alpha   104.30650409
_cell_angle_beta   90.00000000
_cell_angle_gamma   90.00000000
_symmetry_Int_Tables_number   1
_chemical_formula_structural   NdSi2Rh
_chemical_formula_sum   'Nd2 Si4 Rh2'
_cell_volume   150.78790705
_cell_formula_units_Z   2
loop_
 _symmetry_equiv_pos_site_id
 _symmetry_equiv_pos_as_xyz
  1  'x, y, z'
loop_
 _atom_site_type_symbol
 _atom_site_label
 _atom_site_symmetry_multiplicity
 _atom_site_fract_x
 _atom_site_fract_y
 _atom_site_fract_z
 _atom_site_occupancy
  Nd  Nd0  1  0.250000  0.395789  0.791578  1
  Nd  Nd1  1  0.750000  0.604211  0.208422  1
  Si  Si2  1  0.250000  0.039093  0.078187  1
  Si  Si3  1  0.750000  0.960907  0.921813  1
  Si  Si4  1  0.250000  0.750282  0.500564  1
  Si  Si5  1  0.750000  0.249718  0.499436  1
  Rh  Rh6  1  0.250000  0.180356  0.360711  1
  Rh  Rh7  1  0.750000  0.819644  0.639289  1
