# generated using pymatgen
data_TeMoS
_symmetry_space_group_name_H-M   'P 1'
_cell_length_a   3.35925624
_cell_length_b   3.35922233
_cell_length_c   38.27030756
_cell_angle_alpha   90.00056804
_cell_angle_beta   90.00000267
_cell_angle_gamma   120.00000099
_symmetry_Int_Tables_number   1
_chemical_formula_structural   TeMoS
_chemical_formula_sum   'Te4 Mo4 S4'
_cell_volume   374.00246239
_cell_formula_units_Z   4
loop_
 _symmetry_equiv_pos_site_id
 _symmetry_equiv_pos_as_xyz
  1  'x, y, z'
loop_
 _atom_site_type_symbol
 _atom_site_label
 _atom_site_symmetry_multiplicity
 _atom_site_fract_x
 _atom_site_fract_y
 _atom_site_fract_z
 _atom_site_occupancy
  Te  Te0  1  0.333361  0.666722  0.707009  1
  Te  Te1  1  0.666639  0.333278  0.044449  1
  Te  Te2  1  0.666646  0.333292  0.143393  1
  Te  Te3  1  0.333354  0.666708  0.608065  1
  Mo  Mo4  1  0.333313  0.666624  0.093894  1
  Mo  Mo5  1  0.333315  0.666622  0.469659  1
  Mo  Mo6  1  0.666685  0.333378  0.281799  1
  Mo  Mo7  1  0.666687  0.333376  0.657564  1
  S  S8  1  0.333360  0.666716  0.321374  1
  S  S9  1  0.666640  0.333284  0.430084  1
  S  S10  1  0.666644  0.333291  0.509231  1
  S  S11  1  0.333356  0.666709  0.242227  1
