# generated using pymatgen
data_Te2Mo3(SeS)2
_symmetry_space_group_name_H-M   'P 1'
_cell_length_a   3.34937521
_cell_length_b   3.34933118
_cell_length_c   30.95988292
_cell_angle_alpha   90.00011495
_cell_angle_beta   90.00000000
_cell_angle_gamma   120.00043477
_symmetry_Int_Tables_number   1
_chemical_formula_structural   Te2Mo3(SeS)2
_chemical_formula_sum   'Te2 Mo3 Se2 S2'
_cell_volume   300.78067718
_cell_formula_units_Z   1
loop_
 _symmetry_equiv_pos_site_id
 _symmetry_equiv_pos_as_xyz
  1  'x, y, z'
loop_
 _atom_site_type_symbol
 _atom_site_label
 _atom_site_symmetry_multiplicity
 _atom_site_fract_x
 _atom_site_fract_y
 _atom_site_fract_z
 _atom_site_occupancy
  Te  Te0  1  0.333355  0.666712  0.408104  1
  Te  Te1  1  0.333347  0.666696  0.285730  1
  Mo  Mo2  1  0.333327  0.666655  0.115649  1
  Mo  Mo3  1  0.333314  0.666628  0.578389  1
  Mo  Mo4  1  0.666687  0.333373  0.346974  1
  Se  Se5  1  0.666649  0.333297  0.524522  1
  Se  Se6  1  0.666650  0.333299  0.632194  1
  S  S7  1  0.666634  0.333267  0.066703  1
  S  S8  1  0.666637  0.333272  0.164577  1
