# generated using pymatgen
data_Cs4Zn3F10
_symmetry_space_group_name_H-M   'P 1'
_cell_length_a   6.32769454
_cell_length_b   8.01102136
_cell_length_c   14.14095870
_cell_angle_alpha   90.00000000
_cell_angle_beta   90.00000000
_cell_angle_gamma   113.26203350
_symmetry_Int_Tables_number   1
_chemical_formula_structural   Cs4Zn3F10
_chemical_formula_sum   'Cs8 Zn6 F20'
_cell_volume   658.55171076
_cell_formula_units_Z   2
loop_
 _symmetry_equiv_pos_site_id
 _symmetry_equiv_pos_as_xyz
  1  'x, y, z'
loop_
 _atom_site_type_symbol
 _atom_site_label
 _atom_site_symmetry_multiplicity
 _atom_site_fract_x
 _atom_site_fract_y
 _atom_site_fract_z
 _atom_site_occupancy
  F  F0  1  0.813876  0.199731  0.462259  1
  F  F1  1  0.614145  0.800269  0.537741  1
  F  F2  1  0.686124  0.800269  0.962259  1
  F  F3  1  0.885855  0.199731  0.037741  1
  F  F4  1  0.186124  0.800269  0.537741  1
  F  F5  1  0.385855  0.199731  0.462259  1
  F  F6  1  0.313876  0.199731  0.037741  1
  F  F7  1  0.114145  0.800269  0.962259  1
  F  F8  1  0.525351  0.050702  0.644811  1
  F  F9  1  0.474649  0.949298  0.355189  1
  F  F10  1  0.974649  0.949298  0.144811  1
  F  F11  1  0.025351  0.050702  0.855189  1
  F  F12  1  0.245769  0.491539  0.650400  1
  F  F13  1  0.754231  0.508461  0.349600  1
  F  F14  1  0.138043  0.776086  0.750000  1
  F  F15  1  0.361957  0.223914  0.250000  1
  F  F16  1  0.861957  0.223914  0.250000  1
  F  F17  1  0.638043  0.776086  0.750000  1
  F  F18  1  0.745769  0.491539  0.849600  1
  F  F19  1  0.254231  0.508461  0.150400  1
  Zn  Zn20  1  0.378999  0.757998  0.655700  1
  Zn  Zn21  1  0.621001  0.242002  0.344300  1
  Zn  Zn22  1  0.121001  0.242002  0.155700  1
  Zn  Zn23  1  0.878999  0.757998  0.844300  1
  Zn  Zn24  1  0.500000  0.000000  0.500000  1
  Zn  Zn25  1  0.000000  0.000000  0.000000  1
  Cs  Cs26  1  0.744807  0.489615  0.609968  1
  Cs  Cs27  1  0.255193  0.510385  0.390032  1
  Cs  Cs28  1  0.755193  0.510385  0.109968  1
  Cs  Cs29  1  0.244807  0.489615  0.890032  1
  Cs  Cs30  1  0.044231  0.088462  0.638845  1
  Cs  Cs31  1  0.955769  0.911538  0.361155  1
  Cs  Cs32  1  0.455769  0.911538  0.138845  1
  Cs  Cs33  1  0.544231  0.088462  0.861155  1
