# generated using pymatgen
data_LiNd(PO3)4
_symmetry_space_group_name_H-M   'P 1'
_cell_length_a   7.17606257
_cell_length_b   9.08885525
_cell_length_c   9.08671020
_cell_angle_alpha   66.12783783
_cell_angle_beta   66.74239403
_cell_angle_gamma   66.74820571
_symmetry_Int_Tables_number   1
_chemical_formula_structural   LiNd(PO3)4
_chemical_formula_sum   'Li2 Nd2 P8 O24'
_cell_volume   478.04385520
_cell_formula_units_Z   2
loop_
 _symmetry_equiv_pos_site_id
 _symmetry_equiv_pos_as_xyz
  1  'x, y, z'
loop_
 _atom_site_type_symbol
 _atom_site_label
 _atom_site_symmetry_multiplicity
 _atom_site_fract_x
 _atom_site_fract_y
 _atom_site_fract_z
 _atom_site_occupancy
  Li  Li0  1  0.296735  0.250000  0.250000  1
  Li  Li1  1  0.703265  0.750000  0.750000  1
  O  O2  1  0.219703  0.230468  0.586793  1
  O  O3  1  0.536964  0.269532  0.913207  1
  O  O4  1  0.780297  0.769532  0.413207  1
  O  O5  1  0.463036  0.730468  0.086793  1
  O  O6  1  0.340139  0.147806  0.841496  1
  O  O7  1  0.829441  0.352194  0.658504  1
  O  O8  1  0.659861  0.852194  0.158504  1
  O  O9  1  0.170559  0.647806  0.341496  1
  O  O10  1  0.426419  0.430080  0.205218  1
  O  O11  1  0.561718  0.069920  0.294782  1
  O  O12  1  0.573581  0.569920  0.794782  1
  O  O13  1  0.438282  0.930080  0.705218  1
  O  O14  1  0.172613  0.680018  0.046384  1
  O  O15  1  0.399014  0.819982  0.453616  1
  O  O16  1  0.827387  0.319982  0.953616  1
  O  O17  1  0.600986  0.180018  0.546384  1
  O  O18  1  0.759136  0.532584  0.222196  1
  O  O19  1  0.013916  0.967416  0.277804  1
  O  O20  1  0.240864  0.467416  0.777804  1
  O  O21  1  0.986084  0.032584  0.722196  1
  O  O22  1  0.831056  0.731740  0.917823  1
  O  O23  1  0.980618  0.768260  0.582177  1
  O  O24  1  0.168944  0.268260  0.082177  1
  O  O25  1  0.019382  0.231740  0.417823  1
  P  P26  1  0.008048  0.198064  0.597073  1
  P  P27  1  0.303185  0.301936  0.902927  1
  P  P28  1  0.991952  0.801936  0.402927  1
  P  P29  1  0.696815  0.698064  0.097073  1
  P  P30  1  0.416050  0.114026  0.662863  1
  P  P31  1  0.692940  0.385974  0.837137  1
  P  P32  1  0.583950  0.885974  0.337137  1
  P  P33  1  0.307060  0.614026  0.162863  1
  Nd  Nd34  1  0.798076  0.250000  0.250000  1
  Nd  Nd35  1  0.201925  0.750000  0.750000  1
