# generated using pymatgen
data_Te3MoWSe
_symmetry_space_group_name_H-M   'P 1'
_cell_length_a   3.50002752
_cell_length_b   3.49999475
_cell_length_c   39.60452895
_cell_angle_alpha   89.99985991
_cell_angle_beta   90.00000000
_cell_angle_gamma   120.00030969
_symmetry_Int_Tables_number   1
_chemical_formula_structural   Te3MoWSe
_chemical_formula_sum   'Te6 Mo2 W2 Se2'
_cell_volume   420.15833270
_cell_formula_units_Z   2
loop_
 _symmetry_equiv_pos_site_id
 _symmetry_equiv_pos_as_xyz
  1  'x, y, z'
loop_
 _atom_site_type_symbol
 _atom_site_label
 _atom_site_symmetry_multiplicity
 _atom_site_fract_x
 _atom_site_fract_y
 _atom_site_fract_z
 _atom_site_occupancy
  Te  Te0  1  0.333366  0.666733  0.704039  1
  Te  Te1  1  0.666632  0.333264  0.047709  1
  Te  Te2  1  0.666643  0.333286  0.423161  1
  Te  Te3  1  0.666646  0.333291  0.140152  1
  Te  Te4  1  0.666646  0.333290  0.516156  1
  Te  Te5  1  0.333361  0.666722  0.611036  1
  Mo  Mo6  1  0.333306  0.666612  0.093923  1
  Mo  Mo7  1  0.666688  0.333376  0.281798  1
  W  W8  1  0.333310  0.666619  0.469638  1
  W  W9  1  0.666692  0.333383  0.657552  1
  Se  Se10  1  0.333352  0.666705  0.322645  1
  Se  Se11  1  0.333358  0.666717  0.240940  1
