# generated using pymatgen
data_Ba3Ho(BO3)3
_symmetry_space_group_name_H-M   'P 1'
_cell_length_a   9.49391902
_cell_length_b   9.49391902
_cell_length_c   18.04160928
_cell_angle_alpha   90.00000000
_cell_angle_beta   90.00000000
_cell_angle_gamma   120.00000001
_symmetry_Int_Tables_number   1
_chemical_formula_structural   Ba3Ho(BO3)3
_chemical_formula_sum   'Ba18 Ho6 B18 O54'
_cell_volume   1408.30574459
_cell_formula_units_Z   6
loop_
 _symmetry_equiv_pos_site_id
 _symmetry_equiv_pos_as_xyz
  1  'x, y, z'
loop_
 _atom_site_type_symbol
 _atom_site_label
 _atom_site_symmetry_multiplicity
 _atom_site_fract_x
 _atom_site_fract_y
 _atom_site_fract_z
 _atom_site_occupancy
  B  B0  1  0.659855  0.659855  0.420496  1
  B  B1  1  0.000000  0.659855  0.920496  1
  B  B2  1  0.659855  0.000000  0.920496  1
  B  B3  1  0.340145  0.000000  0.420496  1
  B  B4  1  0.000000  0.340145  0.420496  1
  B  B5  1  0.340145  0.340145  0.920496  1
  B  B6  1  0.667389  0.667389  0.248464  1
  B  B7  1  0.000000  0.667389  0.748464  1
  B  B8  1  0.667389  0.000000  0.748464  1
  B  B9  1  0.332611  0.000000  0.248464  1
  B  B10  1  0.000000  0.332611  0.248464  1
  B  B11  1  0.332611  0.332611  0.748464  1
  B  B12  1  0.673743  0.673743  0.073015  1
  B  B13  1  0.000000  0.673743  0.573015  1
  B  B14  1  0.673743  0.000000  0.573015  1
  B  B15  1  0.326257  0.000000  0.073015  1
  B  B16  1  0.000000  0.326257  0.073015  1
  B  B17  1  0.326257  0.326257  0.573015  1
  O  O18  1  0.805819  0.805819  0.430351  1
  O  O19  1  0.000000  0.805819  0.930351  1
  O  O20  1  0.805819  0.000000  0.930351  1
  O  O21  1  0.194181  0.000000  0.430351  1
  O  O22  1  0.000000  0.194181  0.430351  1
  O  O23  1  0.194181  0.194181  0.930351  1
  O  O24  1  0.660994  0.146853  0.915238  1
  O  O25  1  0.853147  0.514141  0.915238  1
  O  O26  1  0.485859  0.339006  0.915238  1
  O  O27  1  0.514141  0.660994  0.415238  1
  O  O28  1  0.339006  0.853147  0.415238  1
  O  O29  1  0.146853  0.485859  0.415238  1
  O  O30  1  0.660994  0.514141  0.415238  1
  O  O31  1  0.146853  0.660994  0.915238  1
  O  O32  1  0.514141  0.853147  0.915238  1
  O  O33  1  0.485859  0.146853  0.415238  1
  O  O34  1  0.853147  0.339006  0.415238  1
  O  O35  1  0.339006  0.485859  0.915238  1
  O  O36  1  0.520361  0.520361  0.248206  1
  O  O37  1  0.000000  0.520361  0.748206  1
  O  O38  1  0.520361  0.000000  0.748206  1
  O  O39  1  0.479639  0.000000  0.248206  1
  O  O40  1  0.000000  0.479639  0.248206  1
  O  O41  1  0.479639  0.479639  0.748206  1
  O  O42  1  0.814312  0.147029  0.748935  1
  O  O43  1  0.852971  0.667283  0.748935  1
  O  O44  1  0.332717  0.185688  0.748935  1
  O  O45  1  0.667283  0.814312  0.248935  1
  O  O46  1  0.185688  0.852971  0.248935  1
  O  O47  1  0.147029  0.332717  0.248935  1
  O  O48  1  0.814312  0.667283  0.248935  1
  O  O49  1  0.147029  0.814312  0.748935  1
  O  O50  1  0.667283  0.852971  0.748935  1
  O  O51  1  0.332717  0.147029  0.248935  1
  O  O52  1  0.852971  0.185688  0.248935  1
  O  O53  1  0.185688  0.332717  0.748935  1
  O  O54  1  0.673902  0.146248  0.568262  1
  O  O55  1  0.853752  0.527653  0.568262  1
  O  O56  1  0.472347  0.326099  0.568262  1
  O  O57  1  0.527653  0.673902  0.068262  1
  O  O58  1  0.326099  0.853752  0.068262  1
  O  O59  1  0.146248  0.472347  0.068262  1
  O  O60  1  0.673902  0.527653  0.068262  1
  O  O61  1  0.146248  0.673902  0.568262  1
  O  O62  1  0.527653  0.853752  0.568262  1
  O  O63  1  0.472347  0.146248  0.068262  1
  O  O64  1  0.853752  0.326099  0.068262  1
  O  O65  1  0.326099  0.472347  0.568262  1
  O  O66  1  0.818968  0.818968  0.082839  1
  O  O67  1  0.000000  0.818968  0.582839  1
  O  O68  1  0.818968  0.000000  0.582839  1
  O  O69  1  0.181032  0.000000  0.082839  1
  O  O70  1  0.000000  0.181032  0.082839  1
  O  O71  1  0.181032  0.181032  0.582839  1
  Ba  Ba72  1  0.682650  0.682650  0.868655  1
  Ba  Ba73  1  0.000000  0.682650  0.368655  1
  Ba  Ba74  1  0.682650  0.000000  0.368655  1
  Ba  Ba75  1  0.317350  0.000000  0.868655  1
  Ba  Ba76  1  0.000000  0.317350  0.868655  1
  Ba  Ba77  1  0.317350  0.317350  0.368655  1
  Ba  Ba78  1  0.651639  0.651639  0.630082  1
  Ba  Ba79  1  0.000000  0.651639  0.130082  1
  Ba  Ba80  1  0.651639  0.000000  0.130082  1
  Ba  Ba81  1  0.348361  0.000000  0.630082  1
  Ba  Ba82  1  0.000000  0.348361  0.630082  1
  Ba  Ba83  1  0.348361  0.348361  0.130082  1
  Ba  Ba84  1  0.333333  0.666667  0.276657  1
  Ba  Ba85  1  0.666667  0.333333  0.776657  1
  Ba  Ba86  1  0.333333  0.666667  0.776657  1
  Ba  Ba87  1  0.666667  0.333333  0.276657  1
  Ba  Ba88  1  0.000000  0.000000  0.715989  1
  Ba  Ba89  1  0.000000  0.000000  0.215989  1
  Ho  Ho90  1  0.333333  0.666667  0.996346  1
  Ho  Ho91  1  0.666667  0.333333  0.496346  1
  Ho  Ho92  1  0.333333  0.666667  0.496346  1
  Ho  Ho93  1  0.666667  0.333333  0.996346  1
  Ho  Ho94  1  0.000000  0.000000  0.502270  1
  Ho  Ho95  1  0.000000  0.000000  0.002270  1
