# generated using pymatgen
data_K2UTe3
_symmetry_space_group_name_H-M   'P 1'
_cell_length_a   8.07988528
_cell_length_b   8.08409781
_cell_length_c   8.67535976
_cell_angle_alpha   80.94061175
_cell_angle_beta   71.63432854
_cell_angle_gamma   60.01723595
_symmetry_Int_Tables_number   1
_chemical_formula_structural   K2UTe3
_chemical_formula_sum   'K4 U2 Te6'
_cell_volume   465.82867775
_cell_formula_units_Z   2
loop_
 _symmetry_equiv_pos_site_id
 _symmetry_equiv_pos_as_xyz
  1  'x, y, z'
loop_
 _atom_site_type_symbol
 _atom_site_label
 _atom_site_symmetry_multiplicity
 _atom_site_fract_x
 _atom_site_fract_y
 _atom_site_fract_z
 _atom_site_occupancy
  K  K0  1  0.654742  0.690516  0.500000  1
  K  K1  1  0.345258  0.309484  0.500000  1
  K  K2  1  0.000000  0.000000  0.500000  1
  K  K3  1  0.500000  0.000000  0.000000  1
  Te  Te4  1  0.200910  0.000000  0.790031  1
  Te  Te5  1  0.572868  0.372032  0.786711  1
  Te  Te6  1  0.944900  0.627968  0.786711  1
  Te  Te7  1  0.427132  0.627968  0.213289  1
  Te  Te8  1  0.055100  0.372032  0.213289  1
  Te  Te9  1  0.799090  0.000000  0.209969  1
  U  U10  1  0.832016  0.335967  0.000000  1
  U  U11  1  0.167984  0.664033  0.000000  1
