# generated using pymatgen
data_K3Na(SeO4)2
_symmetry_space_group_name_H-M   'P 1'
_cell_length_a   5.98114518
_cell_length_b   5.98253899
_cell_length_c   15.41041971
_cell_angle_alpha   89.86870653
_cell_angle_beta   90.00000000
_cell_angle_gamma   119.99229337
_symmetry_Int_Tables_number   1
_chemical_formula_structural   K3Na(SeO4)2
_chemical_formula_sum   'K6 Na2 Se4 O16'
_cell_volume   477.58115524
_cell_formula_units_Z   2
loop_
 _symmetry_equiv_pos_site_id
 _symmetry_equiv_pos_as_xyz
  1  'x, y, z'
loop_
 _atom_site_type_symbol
 _atom_site_label
 _atom_site_symmetry_multiplicity
 _atom_site_fract_x
 _atom_site_fract_y
 _atom_site_fract_z
 _atom_site_occupancy
  O  O0  1  0.771017  0.630258  0.594360  1
  O  O1  1  0.140759  0.369742  0.905640  1
  O  O2  1  0.228983  0.369742  0.405640  1
  O  O3  1  0.859241  0.630258  0.094360  1
  O  O4  1  0.324585  0.170020  0.617999  1
  O  O5  1  0.154565  0.829980  0.882001  1
  O  O6  1  0.675415  0.829980  0.382001  1
  O  O7  1  0.845435  0.170020  0.117999  1
  O  O8  1  0.773324  0.178892  0.576985  1
  O  O9  1  0.594432  0.821108  0.923015  1
  O  O10  1  0.226676  0.821108  0.423015  1
  O  O11  1  0.405568  0.178892  0.076985  1
  O  O12  1  0.612963  0.336146  0.237589  1
  O  O13  1  0.276818  0.663854  0.262411  1
  O  O14  1  0.387037  0.663854  0.762411  1
  O  O15  1  0.723182  0.336146  0.737589  1
  Na  Na16  1  0.000000  0.000000  0.500000  1
  Na  Na17  1  0.000000  0.000000  0.000000  1
  K  K18  1  0.947195  0.000000  0.750000  1
  K  K19  1  0.052805  0.000000  0.250000  1
  K  K20  1  0.643894  0.339223  0.906947  1
  K  K21  1  0.304672  0.660777  0.593053  1
  K  K22  1  0.356106  0.660777  0.093053  1
  K  K23  1  0.695328  0.339223  0.406947  1
  Se  Se24  1  0.645567  0.328624  0.633775  1
  Se  Se25  1  0.316943  0.671376  0.866225  1
  Se  Se26  1  0.354433  0.671376  0.366225  1
  Se  Se27  1  0.683057  0.328624  0.133775  1
