# generated using pymatgen
data_Te6Mo3WS2
_symmetry_space_group_name_H-M   'P 1'
_cell_length_a   3.45068166
_cell_length_b   3.45066974
_cell_length_c   39.27083077
_cell_angle_alpha   90.00039472
_cell_angle_beta   89.99999997
_cell_angle_gamma   120.00012278
_symmetry_Int_Tables_number   1
_chemical_formula_structural   Te6Mo3WS2
_chemical_formula_sum   'Te6 Mo3 W1 S2'
_cell_volume   404.95659353
_cell_formula_units_Z   1
loop_
 _symmetry_equiv_pos_site_id
 _symmetry_equiv_pos_as_xyz
  1  'x, y, z'
loop_
 _atom_site_type_symbol
 _atom_site_label
 _atom_site_symmetry_multiplicity
 _atom_site_fract_x
 _atom_site_fract_y
 _atom_site_fract_z
 _atom_site_occupancy
  Te  Te0  1  0.333361  0.666722  0.328933  1
  Te  Te1  1  0.333356  0.666712  0.704620  1
  Te  Te2  1  0.666642  0.333283  0.046800  1
  Te  Te3  1  0.666643  0.333286  0.140999  1
  Te  Te4  1  0.333352  0.666704  0.234742  1
  Te  Te5  1  0.333354  0.666708  0.610414  1
  Mo  Mo6  1  0.333309  0.666617  0.093880  1
  Mo  Mo7  1  0.666692  0.333386  0.281838  1
  Mo  Mo8  1  0.666690  0.333381  0.657536  1
  W  W9  1  0.333311  0.666621  0.469658  1
  S  S10  1  0.666646  0.333291  0.431662  1
  S  S11  1  0.666646  0.333291  0.507665  1
