# generated using pymatgen
data_TeMoWSe3
_symmetry_space_group_name_H-M   'P 1'
_cell_length_a   3.37930284
_cell_length_b   3.37925785
_cell_length_c   38.47430788
_cell_angle_alpha   90.00019251
_cell_angle_beta   90.00000000
_cell_angle_gamma   120.00044038
_symmetry_Int_Tables_number   1
_chemical_formula_structural   TeMoWSe3
_chemical_formula_sum   'Te2 Mo2 W2 Se6'
_cell_volume   380.49413379
_cell_formula_units_Z   2
loop_
 _symmetry_equiv_pos_site_id
 _symmetry_equiv_pos_as_xyz
  1  'x, y, z'
loop_
 _atom_site_type_symbol
 _atom_site_label
 _atom_site_symmetry_multiplicity
 _atom_site_fract_x
 _atom_site_fract_y
 _atom_site_fract_z
 _atom_site_occupancy
  Te  Te0  1  0.333357  0.666714  0.706404  1
  Te  Te1  1  0.333355  0.666712  0.608685  1
  Mo  Mo2  1  0.333307  0.666614  0.093916  1
  Mo  Mo3  1  0.666692  0.333384  0.657551  1
  W  W4  1  0.333312  0.666624  0.469654  1
  W  W5  1  0.666687  0.333374  0.281805  1
  Se  Se6  1  0.333355  0.666710  0.324996  1
  Se  Se7  1  0.666636  0.333271  0.050868  1
  Se  Se8  1  0.666649  0.333298  0.426462  1
  Se  Se9  1  0.666647  0.333292  0.136975  1
  Se  Se10  1  0.666649  0.333297  0.512842  1
  Se  Se11  1  0.333354  0.666709  0.238589  1
