# generated using pymatgen
data_K2Mn2(SO4)3
_symmetry_space_group_name_H-M   'P 1'
_cell_length_a   10.30098063
_cell_length_b   10.30098063
_cell_length_c   10.30098063
_cell_angle_alpha   90.00000000
_cell_angle_beta   90.00000000
_cell_angle_gamma   90.00000000
_symmetry_Int_Tables_number   1
_chemical_formula_structural   K2Mn2(SO4)3
_chemical_formula_sum   'K8 Mn8 S12 O48'
_cell_volume   1093.03913483
_cell_formula_units_Z   4
loop_
 _symmetry_equiv_pos_site_id
 _symmetry_equiv_pos_as_xyz
  1  'x, y, z'
loop_
 _atom_site_type_symbol
 _atom_site_label
 _atom_site_symmetry_multiplicity
 _atom_site_fract_x
 _atom_site_fract_y
 _atom_site_fract_z
 _atom_site_occupancy
  O  O0  1  0.245328  0.591193  0.652323  1
  O  O1  1  0.745328  0.908808  0.347677  1
  O  O2  1  0.754671  0.091193  0.847677  1
  O  O3  1  0.908808  0.347677  0.745328  1
  O  O4  1  0.847677  0.754671  0.091193  1
  O  O5  1  0.347677  0.745328  0.908808  1
  O  O6  1  0.591193  0.652323  0.245328  1
  O  O7  1  0.652323  0.245328  0.591193  1
  O  O8  1  0.091193  0.847677  0.754671  1
  O  O9  1  0.408808  0.152323  0.254672  1
  O  O10  1  0.152323  0.254672  0.408808  1
  O  O11  1  0.254672  0.408808  0.152323  1
  O  O12  1  0.262763  0.505690  0.435067  1
  O  O13  1  0.762763  0.994309  0.564932  1
  O  O14  1  0.737237  0.005691  0.064932  1
  O  O15  1  0.994309  0.564932  0.762763  1
  O  O16  1  0.064932  0.737237  0.005691  1
  O  O17  1  0.564932  0.762763  0.994309  1
  O  O18  1  0.992344  0.585398  0.174107  1
  O  O19  1  0.435067  0.262763  0.505690  1
  O  O20  1  0.005691  0.064932  0.737237  1
  O  O21  1  0.494309  0.935068  0.237238  1
  O  O22  1  0.935068  0.237238  0.494309  1
  O  O23  1  0.237238  0.494309  0.935068  1
  O  O24  1  0.414602  0.674107  0.507656  1
  O  O25  1  0.914602  0.825893  0.492344  1
  O  O26  1  0.585398  0.174107  0.992344  1
  O  O27  1  0.825893  0.492344  0.914602  1
  O  O28  1  0.311306  0.275927  0.963187  1
  O  O29  1  0.963187  0.311306  0.275927  1
  O  O30  1  0.275927  0.963187  0.311306  1
  O  O31  1  0.224074  0.036812  0.811306  1
  O  O32  1  0.463188  0.188694  0.724073  1
  O  O33  1  0.724073  0.463188  0.188694  1
  O  O34  1  0.536812  0.688694  0.775927  1
  O  O35  1  0.036812  0.811306  0.224074  1
  O  O36  1  0.775927  0.536812  0.688694  1
  O  O37  1  0.811306  0.224074  0.036812  1
  O  O38  1  0.688694  0.775927  0.536812  1
  O  O39  1  0.188694  0.724073  0.463188  1
  O  O40  1  0.085398  0.325893  0.007656  1
  O  O41  1  0.007656  0.085398  0.325893  1
  O  O42  1  0.325893  0.007656  0.085398  1
  O  O43  1  0.174107  0.992344  0.585398  1
  O  O44  1  0.507656  0.414602  0.674107  1
  O  O45  1  0.674107  0.507656  0.414602  1
  O  O46  1  0.492344  0.914602  0.825893  1
  O  O47  1  0.505690  0.435067  0.262763  1
  S  S48  1  0.278504  0.624254  0.516003  1
  S  S49  1  0.778503  0.875746  0.483997  1
  S  S50  1  0.721496  0.124253  0.983996  1
  S  S51  1  0.875746  0.483997  0.778503  1
  S  S52  1  0.983996  0.721496  0.124253  1
  S  S53  1  0.483997  0.778503  0.875746  1
  S  S54  1  0.624254  0.516003  0.278504  1
  S  S55  1  0.516003  0.278504  0.624254  1
  S  S56  1  0.124253  0.983996  0.721496  1
  S  S57  1  0.221496  0.375747  0.016003  1
  S  S58  1  0.016003  0.221496  0.375747  1
  S  S59  1  0.375747  0.016003  0.221496  1
  K  K60  1  0.685345  0.185345  0.314655  1
  K  K61  1  0.314655  0.685345  0.185345  1
  K  K62  1  0.948034  0.551966  0.448034  1
  K  K63  1  0.185345  0.314655  0.685345  1
  K  K64  1  0.051965  0.051965  0.051965  1
  K  K65  1  0.448034  0.948034  0.551966  1
  K  K66  1  0.551966  0.448034  0.948034  1
  K  K67  1  0.814655  0.814655  0.814655  1
  Mn  Mn68  1  0.333428  0.333428  0.333428  1
  Mn  Mn69  1  0.166571  0.666571  0.833428  1
  Mn  Mn70  1  0.833428  0.166571  0.666571  1
  Mn  Mn71  1  0.666571  0.833428  0.166571  1
  Mn  Mn72  1  0.593201  0.593201  0.593201  1
  Mn  Mn73  1  0.093201  0.906798  0.406798  1
  Mn  Mn74  1  0.406798  0.093201  0.906798  1
  Mn  Mn75  1  0.906798  0.406798  0.093201  1
