# generated using pymatgen
data_Cr5S6
_symmetry_space_group_name_H-M   'P 1'
_cell_length_a   5.94485126
_cell_length_b   11.46075508
_cell_length_c   5.94485122
_cell_angle_alpha   90.00000000
_cell_angle_beta   119.99999980
_cell_angle_gamma   90.00000000
_symmetry_Int_Tables_number   1
_chemical_formula_structural   Cr5S6
_chemical_formula_sum   'Cr10 S12'
_cell_volume   350.77274963
_cell_formula_units_Z   2
loop_
 _symmetry_equiv_pos_site_id
 _symmetry_equiv_pos_as_xyz
  1  'x, y, z'
loop_
 _atom_site_type_symbol
 _atom_site_label
 _atom_site_symmetry_multiplicity
 _atom_site_fract_x
 _atom_site_fract_y
 _atom_site_fract_z
 _atom_site_occupancy
  Cr  Cr0  1  0.333333  0.495726  0.666667  1
  Cr  Cr1  1  0.333333  0.004274  0.666667  1
  Cr  Cr2  1  0.000000  0.250000  0.000000  1
  Cr  Cr3  1  0.666667  0.505503  0.333333  1
  Cr  Cr4  1  0.666667  0.994497  0.333333  1
  Cr  Cr5  1  0.000000  0.750000  0.000000  1
  Cr  Cr6  1  0.000000  0.496269  0.000000  1
  Cr  Cr7  1  0.333333  0.750000  0.666667  1
  Cr  Cr8  1  0.666667  0.250000  0.333333  1
  Cr  Cr9  1  0.000000  0.003731  0.000000  1
  S  S10  1  0.007248  0.876340  0.339301  1
  S  S11  1  0.664260  0.120945  0.002819  1
  S  S12  1  0.007248  0.623660  0.667947  1
  S  S13  1  0.332053  0.623660  0.339301  1
  S  S14  1  0.997181  0.379055  0.335740  1
  S  S15  1  0.332053  0.876340  0.992752  1
  S  S16  1  0.338559  0.120945  0.335740  1
  S  S17  1  0.338559  0.379055  0.002819  1
  S  S18  1  0.664260  0.379055  0.661441  1
  S  S19  1  0.997181  0.120945  0.661441  1
  S  S20  1  0.660699  0.623660  0.992752  1
  S  S21  1  0.660699  0.876340  0.667947  1
