# generated using pymatgen
data_LiB(S2O7)2
_symmetry_space_group_name_H-M   'P 1'
_cell_length_a   11.06602746
_cell_length_b   11.11821744
_cell_length_c   18.30304168
_cell_angle_alpha   90.00000000
_cell_angle_beta   90.00000000
_cell_angle_gamma   90.00000000
_symmetry_Int_Tables_number   1
_chemical_formula_structural   LiB(S2O7)2
_chemical_formula_sum   'Li8 B8 S32 O112'
_cell_volume   2251.90557238
_cell_formula_units_Z   8
loop_
 _symmetry_equiv_pos_site_id
 _symmetry_equiv_pos_as_xyz
  1  'x, y, z'
loop_
 _atom_site_type_symbol
 _atom_site_label
 _atom_site_symmetry_multiplicity
 _atom_site_fract_x
 _atom_site_fract_y
 _atom_site_fract_z
 _atom_site_occupancy
  Li  Li0  1  0.893892  0.139715  0.093115  1
  Li  Li1  1  0.606108  0.860285  0.593115  1
  Li  Li2  1  0.393892  0.360285  0.906885  1
  Li  Li3  1  0.106108  0.639715  0.406885  1
  Li  Li4  1  0.379783  0.654487  0.152944  1
  Li  Li5  1  0.120217  0.345513  0.652944  1
  Li  Li6  1  0.879783  0.845513  0.847056  1
  Li  Li7  1  0.620217  0.154487  0.347056  1
  B  B8  1  0.094254  0.145579  0.373930  1
  B  B9  1  0.405746  0.854421  0.873930  1
  B  B10  1  0.594254  0.354421  0.626070  1
  B  B11  1  0.905746  0.645579  0.126070  1
  B  B12  1  0.361314  0.120896  0.125706  1
  B  B13  1  0.138686  0.879104  0.625706  1
  B  B14  1  0.861314  0.379104  0.874294  1
  B  B15  1  0.638686  0.620896  0.374294  1
  S  S16  1  0.159453  0.338589  0.460850  1
  S  S17  1  0.340547  0.661411  0.960850  1
  S  S18  1  0.659453  0.161411  0.539150  1
  S  S19  1  0.840547  0.838589  0.039150  1
  S  S20  1  0.316750  0.230431  0.355751  1
  S  S21  1  0.183250  0.769569  0.855751  1
  S  S22  1  0.816750  0.269569  0.644249  1
  S  S23  1  0.683250  0.730431  0.144249  1
  S  S24  1  0.908812  0.092032  0.286039  1
  S  S25  1  0.591188  0.907968  0.786039  1
  S  S26  1  0.408812  0.407968  0.713961  1
  S  S27  1  0.091188  0.592032  0.213961  1
  S  S28  1  0.984072  0.925866  0.396904  1
  S  S29  1  0.515928  0.074134  0.896904  1
  S  S30  1  0.484072  0.574134  0.603096  1
  S  S31  1  0.015928  0.425866  0.103096  1
  S  S32  1  0.278783  0.922923  0.191500  1
  S  S33  1  0.221217  0.077077  0.691500  1
  S  S34  1  0.778783  0.577077  0.808500  1
  S  S35  1  0.721217  0.422923  0.308500  1
  S  S36  1  0.165943  0.028766  0.063398  1
  S  S37  1  0.334057  0.971234  0.563398  1
  S  S38  1  0.665943  0.471234  0.936602  1
  S  S39  1  0.834057  0.528766  0.436602  1
  S  S40  1  0.595063  0.173555  0.145942  1
  S  S41  1  0.904937  0.826445  0.645942  1
  S  S42  1  0.095063  0.326445  0.854058  1
  S  S43  1  0.404937  0.673555  0.354058  1
  S  S44  1  0.413546  0.349345  0.106623  1
  S  S45  1  0.086454  0.650655  0.606623  1
  S  S46  1  0.913546  0.150655  0.893377  1
  S  S47  1  0.586454  0.849345  0.393377  1
  O  O48  1  0.151310  0.315902  0.537469  1
  O  O49  1  0.348690  0.684098  0.037469  1
  O  O50  1  0.651310  0.184098  0.462531  1
  O  O51  1  0.848690  0.815902  0.962531  1
  O  O52  1  0.146072  0.458265  0.434006  1
  O  O53  1  0.353928  0.541735  0.934006  1
  O  O54  1  0.646072  0.041735  0.565994  1
  O  O55  1  0.853928  0.958265  0.065994  1
  O  O56  1  0.433585  0.177559  0.360848  1
  O  O57  1  0.066415  0.822441  0.860848  1
  O  O58  1  0.933585  0.322441  0.639152  1
  O  O59  1  0.566415  0.677559  0.139152  1
  O  O60  1  0.288982  0.320484  0.302963  1
  O  O61  1  0.211018  0.679516  0.802963  1
  O  O62  1  0.788982  0.179516  0.697037  1
  O  O63  1  0.711018  0.820484  0.197037  1
  O  O64  1  0.812246  0.135368  0.331150  1
  O  O65  1  0.687754  0.864632  0.831150  1
  O  O66  1  0.312246  0.364632  0.668850  1
  O  O67  1  0.187754  0.635368  0.168850  1
  O  O68  1  0.895269  0.085469  0.208833  1
  O  O69  1  0.604731  0.914531  0.708833  1
  O  O70  1  0.395269  0.414531  0.791167  1
  O  O71  1  0.104731  0.585469  0.291167  1
  O  O72  1  0.878398  0.913458  0.440519  1
  O  O73  1  0.621602  0.086542  0.940519  1
  O  O74  1  0.378398  0.586542  0.559481  1
  O  O75  1  0.121602  0.413458  0.059481  1
  O  O76  1  0.067921  0.828840  0.389381  1
  O  O77  1  0.432079  0.171160  0.889381  1
  O  O78  1  0.567921  0.671160  0.610619  1
  O  O79  1  0.932079  0.328840  0.110619  1
  O  O80  1  0.215392  0.897917  0.257226  1
  O  O81  1  0.284608  0.102083  0.757226  1
  O  O82  1  0.715392  0.602083  0.742774  1
  O  O83  1  0.784608  0.397917  0.242774  1
  O  O84  1  0.374660  0.846178  0.166788  1
  O  O85  1  0.125340  0.153822  0.666788  1
  O  O86  1  0.874660  0.653822  0.833212  1
  O  O87  1  0.625340  0.346178  0.333212  1
  O  O88  1  0.138141  0.968985  0.996969  1
  O  O89  1  0.361859  0.031015  0.496969  1
  O  O90  1  0.638141  0.531015  0.003031  1
  O  O91  1  0.861859  0.468985  0.503031  1
  O  O92  1  0.086751  0.118325  0.093254  1
  O  O93  1  0.413249  0.881675  0.593254  1
  O  O94  1  0.586751  0.381675  0.906746  1
  O  O95  1  0.913249  0.618325  0.406746  1
  O  O96  1  0.700883  0.164449  0.102041  1
  O  O97  1  0.799117  0.835551  0.602041  1
  O  O98  1  0.200883  0.335551  0.897959  1
  O  O99  1  0.299117  0.664449  0.397959  1
  O  O100  1  0.599115  0.148655  0.222516  1
  O  O101  1  0.900885  0.851345  0.722516  1
  O  O102  1  0.099115  0.351345  0.777484  1
  O  O103  1  0.400885  0.648655  0.277484  1
  O  O104  1  0.387171  0.460916  0.141184  1
  O  O105  1  0.112829  0.539084  0.641184  1
  O  O106  1  0.887171  0.039084  0.858816  1
  O  O107  1  0.612829  0.960916  0.358816  1
  O  O108  1  0.415222  0.337889  0.028881  1
  O  O109  1  0.084778  0.662111  0.528881  1
  O  O110  1  0.915222  0.162111  0.971119  1
  O  O111  1  0.584778  0.837889  0.471119  1
  O  O112  1  0.073544  0.256074  0.417295  1
  O  O113  1  0.426456  0.743926  0.917295  1
  O  O114  1  0.573544  0.243926  0.582705  1
  O  O115  1  0.926456  0.756074  0.082705  1
  O  O116  1  0.223060  0.127157  0.357303  1
  O  O117  1  0.276940  0.872843  0.857303  1
  O  O118  1  0.723060  0.372843  0.642697  1
  O  O119  1  0.776940  0.627157  0.142697  1
  O  O120  1  0.028164  0.157903  0.303825  1
  O  O121  1  0.471836  0.842097  0.803825  1
  O  O122  1  0.528164  0.342097  0.696175  1
  O  O123  1  0.971836  0.657903  0.196175  1
  O  O124  1  0.049900  0.043614  0.417942  1
  O  O125  1  0.450100  0.956386  0.917942  1
  O  O126  1  0.549900  0.456386  0.582058  1
  O  O127  1  0.950100  0.543614  0.082058  1
  O  O128  1  0.320227  0.056535  0.191924  1
  O  O129  1  0.179773  0.943465  0.691924  1
  O  O130  1  0.820227  0.443465  0.808076  1
  O  O131  1  0.679773  0.556535  0.308076  1
  O  O132  1  0.298098  0.075794  0.060121  1
  O  O133  1  0.201902  0.924206  0.560121  1
  O  O134  1  0.798098  0.424206  0.939879  1
  O  O135  1  0.701902  0.575794  0.439879  1
  O  O136  1  0.491473  0.103334  0.108094  1
  O  O137  1  0.008527  0.896666  0.608094  1
  O  O138  1  0.991473  0.396666  0.891906  1
  O  O139  1  0.508527  0.603334  0.391906  1
  O  O140  1  0.336197  0.249031  0.142061  1
  O  O141  1  0.163803  0.750969  0.642061  1
  O  O142  1  0.836197  0.250969  0.857939  1
  O  O143  1  0.663803  0.749031  0.357939  1
  O  O144  1  0.293951  0.288408  0.438866  1
  O  O145  1  0.206049  0.711592  0.938866  1
  O  O146  1  0.793951  0.211592  0.561134  1
  O  O147  1  0.706049  0.788408  0.061134  1
  O  O148  1  0.942368  0.954365  0.310662  1
  O  O149  1  0.557632  0.045635  0.810662  1
  O  O150  1  0.442368  0.545635  0.689338  1
  O  O151  1  0.057632  0.454365  0.189338  1
  O  O152  1  0.176250  0.921759  0.125692  1
  O  O153  1  0.323750  0.078241  0.625692  1
  O  O154  1  0.676250  0.578241  0.874308  1
  O  O155  1  0.823750  0.421759  0.374308  1
  O  O156  1  0.549343  0.314848  0.137799  1
  O  O157  1  0.950657  0.685153  0.637799  1
  O  O158  1  0.049343  0.185152  0.862201  1
  O  O159  1  0.450657  0.814847  0.362201  1
