# generated using pymatgen
data_Sm3Co29(Si2B5)2
_symmetry_space_group_name_H-M   'P 1'
_cell_length_a   7.83892043
_cell_length_b   11.15799935
_cell_length_c   11.15799935
_cell_angle_alpha   90.00000000
_cell_angle_beta   90.00000000
_cell_angle_gamma   90.00000000
_symmetry_Int_Tables_number   1
_chemical_formula_structural   Sm3Co29(Si2B5)2
_chemical_formula_sum   'Sm6 Co58 Si8 B20'
_cell_volume   975.95303655
_cell_formula_units_Z   2
loop_
 _symmetry_equiv_pos_site_id
 _symmetry_equiv_pos_as_xyz
  1  'x, y, z'
loop_
 _atom_site_type_symbol
 _atom_site_label
 _atom_site_symmetry_multiplicity
 _atom_site_fract_x
 _atom_site_fract_y
 _atom_site_fract_z
 _atom_site_occupancy
  B  B0  1  0.517777  0.936039  0.936039  1
  B  B1  1  0.517777  0.563961  0.563961  1
  B  B2  1  0.517777  0.936039  0.563961  1
  B  B3  1  0.517777  0.563961  0.936039  1
  B  B4  1  0.482223  0.436039  0.436039  1
  B  B5  1  0.482223  0.063961  0.436039  1
  B  B6  1  0.262501  0.006021  0.750000  1
  B  B7  1  0.262501  0.493979  0.750000  1
  B  B8  1  0.262501  0.750000  0.493979  1
  B  B9  1  0.262501  0.750000  0.006021  1
  B  B10  1  0.737499  0.250000  0.506021  1
  B  B11  1  0.737499  0.993979  0.250000  1
  B  B12  1  0.737499  0.506021  0.250000  1
  B  B13  1  0.737499  0.250000  0.993979  1
  B  B14  1  0.148187  0.750000  0.750000  1
  B  B15  1  0.851813  0.250000  0.250000  1
  B  B16  1  0.892989  0.750000  0.750000  1
  B  B17  1  0.107011  0.250000  0.250000  1
  B  B18  1  0.482223  0.436039  0.063961  1
  B  B19  1  0.482223  0.063961  0.063961  1
  Si  Si20  1  0.824489  0.431780  0.750000  1
  Si  Si21  1  0.175511  0.250000  0.568220  1
  Si  Si22  1  0.175511  0.931780  0.250000  1
  Si  Si23  1  0.175511  0.568220  0.250000  1
  Si  Si24  1  0.175511  0.250000  0.931780  1
  Si  Si25  1  0.824489  0.750000  0.431780  1
  Si  Si26  1  0.824489  0.750000  0.068220  1
  Si  Si27  1  0.824489  0.068220  0.750000  1
  Co  Co28  1  0.336975  0.424615  0.588312  1
  Co  Co29  1  0.525689  0.750000  0.523491  1
  Co  Co30  1  0.525689  0.523491  0.750000  1
  Co  Co31  1  0.525689  0.976509  0.750000  1
  Co  Co32  1  0.971095  0.250000  0.085738  1
  Co  Co33  1  0.971095  0.414262  0.250000  1
  Co  Co34  1  0.971095  0.085738  0.250000  1
  Co  Co35  1  0.971095  0.250000  0.414262  1
  Co  Co36  1  0.028905  0.750000  0.914262  1
  Co  Co37  1  0.028905  0.750000  0.585738  1
  Co  Co38  1  0.028905  0.585738  0.750000  1
  Co  Co39  1  0.028905  0.914262  0.750000  1
  Co  Co40  1  0.251330  0.135478  0.135478  1
  Co  Co41  1  0.251330  0.364522  0.135478  1
  Co  Co42  1  0.251330  0.135478  0.364522  1
  Co  Co43  1  0.251330  0.364522  0.364522  1
  Co  Co44  1  0.748670  0.635478  0.864522  1
  Co  Co45  1  0.748670  0.864522  0.635478  1
  Co  Co46  1  0.748670  0.635478  0.635478  1
  Co  Co47  1  0.748670  0.864522  0.864522  1
  Co  Co48  1  0.698277  0.140306  0.140306  1
  Co  Co49  1  0.698277  0.359694  0.140306  1
  Co  Co50  1  0.698277  0.140306  0.359694  1
  Co  Co51  1  0.698277  0.359694  0.359694  1
  Co  Co52  1  0.301723  0.640306  0.859694  1
  Co  Co53  1  0.301723  0.859694  0.640306  1
  Co  Co54  1  0.301723  0.640306  0.640306  1
  Co  Co55  1  0.301723  0.859694  0.859694  1
  Co  Co56  1  0.336975  0.075385  0.588312  1
  Co  Co57  1  0.336975  0.911688  0.075385  1
  Co  Co58  1  0.336975  0.588312  0.424615  1
  Co  Co59  1  0.336975  0.424615  0.911688  1
  Co  Co60  1  0.663025  0.575385  0.411688  1
  Co  Co61  1  0.663025  0.924615  0.088312  1
  Co  Co62  1  0.663025  0.088312  0.575385  1
  Co  Co63  1  0.888728  0.250000  0.860122  1
  Co  Co64  1  0.663025  0.924615  0.411688  1
  Co  Co65  1  0.663025  0.088312  0.924615  1
  Co  Co66  1  0.663025  0.411688  0.575385  1
  Co  Co67  1  0.663025  0.575385  0.088312  1
  Co  Co68  1  0.525689  0.750000  0.976509  1
  Co  Co69  1  0.888728  0.639878  0.250000  1
  Co  Co70  1  0.336975  0.911688  0.424615  1
  Co  Co71  1  0.336975  0.588312  0.075385  1
  Co  Co72  1  0.888728  0.860122  0.250000  1
  Co  Co73  1  0.888728  0.250000  0.639878  1
  Co  Co74  1  0.532140  0.750000  0.750000  1
  Co  Co75  1  0.467860  0.250000  0.250000  1
  Co  Co76  1  0.111272  0.750000  0.360122  1
  Co  Co77  1  0.474311  0.250000  0.476509  1
  Co  Co78  1  0.474311  0.023491  0.250000  1
  Co  Co79  1  0.474311  0.476509  0.250000  1
  Co  Co80  1  0.474311  0.250000  0.023491  1
  Co  Co81  1  0.111272  0.360122  0.750000  1
  Co  Co82  1  0.111272  0.139878  0.750000  1
  Co  Co83  1  0.111272  0.750000  0.139878  1
  Co  Co84  1  0.663025  0.411688  0.924615  1
  Co  Co85  1  0.336975  0.075385  0.911688  1
  Sm  Sm86  1  0.000000  0.500000  0.500000  1
  Sm  Sm87  1  0.000000  0.000000  0.500000  1
  Sm  Sm88  1  0.000000  0.500000  0.000000  1
  Sm  Sm89  1  0.000000  0.000000  0.000000  1
  Sm  Sm90  1  0.500000  0.750000  0.250000  1
  Sm  Sm91  1  0.500000  0.250000  0.750000  1
