# generated using pymatgen
data_Tl2Fe3S4
_symmetry_space_group_name_H-M   'P 1'
_cell_length_a   5.18708234
_cell_length_b   8.74221820
_cell_length_c   8.74221821
_cell_angle_alpha   74.62066950
_cell_angle_beta   72.74238225
_cell_angle_gamma   72.74238227
_symmetry_Int_Tables_number   1
_chemical_formula_structural   Tl2Fe3S4
_chemical_formula_sum   'Tl4 Fe6 S8'
_cell_volume   354.64932944
_cell_formula_units_Z   2
loop_
 _symmetry_equiv_pos_site_id
 _symmetry_equiv_pos_as_xyz
  1  'x, y, z'
loop_
 _atom_site_type_symbol
 _atom_site_label
 _atom_site_symmetry_multiplicity
 _atom_site_fract_x
 _atom_site_fract_y
 _atom_site_fract_z
 _atom_site_occupancy
  S  S0  1  0.090775  0.539971  0.788985  1
  S  S1  1  0.919731  0.960029  0.711015  1
  S  S2  1  0.409225  0.711015  0.960029  1
  S  S3  1  0.580269  0.788985  0.539971  1
  S  S4  1  0.590775  0.288985  0.039971  1
  S  S5  1  0.419731  0.211015  0.460029  1
  S  S6  1  0.080269  0.039971  0.288985  1
  S  S7  1  0.909225  0.460029  0.211015  1
  Fe  Fe8  1  0.250000  0.250000  0.250000  1
  Fe  Fe9  1  0.750000  0.750000  0.750000  1
  Fe  Fe10  1  0.750000  0.505392  0.994608  1
  Fe  Fe11  1  0.750000  0.994608  0.505392  1
  Fe  Fe12  1  0.250000  0.005392  0.494608  1
  Fe  Fe13  1  0.250000  0.494608  0.005392  1
  Tl  Tl14  1  0.251727  0.130073  0.869927  1
  Tl  Tl15  1  0.751727  0.369927  0.630073  1
  Tl  Tl16  1  0.248273  0.630073  0.369927  1
  Tl  Tl17  1  0.748273  0.869927  0.130073  1
