# generated using pymatgen
data_Lu3Ga5O12
_symmetry_space_group_name_H-M   'P 1'
_cell_length_a   10.62386112
_cell_length_b   10.62386112
_cell_length_c   10.62386112
_cell_angle_alpha   109.47122064
_cell_angle_beta   109.47122064
_cell_angle_gamma   109.47122063
_symmetry_Int_Tables_number   1
_chemical_formula_structural   Lu3Ga5O12
_chemical_formula_sum   'Lu12 Ga20 O48'
_cell_volume   923.05007832
_cell_formula_units_Z   4
loop_
 _symmetry_equiv_pos_site_id
 _symmetry_equiv_pos_as_xyz
  1  'x, y, z'
loop_
 _atom_site_type_symbol
 _atom_site_label
 _atom_site_symmetry_multiplicity
 _atom_site_fract_x
 _atom_site_fract_y
 _atom_site_fract_z
 _atom_site_occupancy
  O  O0  1  0.790931  0.416787  0.823178  1
  O  O1  1  0.083213  0.874145  0.406391  1
  O  O2  1  0.676822  0.093609  0.967754  1
  O  O3  1  0.709069  0.532246  0.625855  1
  O  O4  1  0.709069  0.676822  0.083213  1
  O  O5  1  0.532246  0.625855  0.709069  1
  O  O6  1  0.093609  0.625855  0.416787  1
  O  O7  1  0.625855  0.709069  0.532246  1
  O  O8  1  0.406391  0.823178  0.532246  1
  O  O9  1  0.874145  0.967754  0.790931  1
  O  O10  1  0.967754  0.790931  0.874145  1
  O  O11  1  0.083213  0.709069  0.676822  1
  O  O12  1  0.625855  0.416787  0.093609  1
  O  O13  1  0.532246  0.406391  0.823178  1
  O  O14  1  0.676822  0.083213  0.709069  1
  O  O15  1  0.416787  0.093609  0.625855  1
  O  O16  1  0.823178  0.532246  0.406391  1
  O  O17  1  0.406391  0.083213  0.874145  1
  O  O18  1  0.093609  0.967754  0.676822  1
  O  O19  1  0.593609  0.176822  0.467754  1
  O  O20  1  0.967754  0.676822  0.093609  1
  O  O21  1  0.823178  0.790931  0.416787  1
  O  O22  1  0.874145  0.406391  0.083213  1
  O  O23  1  0.790931  0.874145  0.967754  1
  O  O24  1  0.209069  0.583214  0.176822  1
  O  O25  1  0.916786  0.125855  0.593609  1
  O  O26  1  0.323178  0.906391  0.032246  1
  O  O27  1  0.290931  0.467754  0.374145  1
  O  O28  1  0.290931  0.323178  0.916786  1
  O  O29  1  0.467754  0.374145  0.290931  1
  O  O30  1  0.906391  0.374145  0.583214  1
  O  O31  1  0.374145  0.290931  0.467754  1
  O  O32  1  0.209069  0.125855  0.032246  1
  O  O33  1  0.125855  0.593609  0.916786  1
  O  O34  1  0.176822  0.209069  0.583214  1
  O  O35  1  0.583214  0.176822  0.209069  1
  O  O36  1  0.032246  0.323178  0.906391  1
  O  O37  1  0.906391  0.032246  0.323178  1
  O  O38  1  0.593609  0.916786  0.125855  1
  O  O39  1  0.176822  0.467754  0.593609  1
  O  O40  1  0.583214  0.906391  0.374145  1
  O  O41  1  0.323178  0.916786  0.290931  1
  O  O42  1  0.467754  0.593609  0.176822  1
  O  O43  1  0.374145  0.583214  0.906391  1
  O  O44  1  0.916786  0.290931  0.323178  1
  O  O45  1  0.032246  0.209069  0.125855  1
  O  O46  1  0.125855  0.032246  0.209069  1
  O  O47  1  0.416787  0.823178  0.790931  1
  Ga  Ga48  1  0.000000  0.000000  0.000000  1
  Ga  Ga49  1  0.000000  0.500000  0.000000  1
  Ga  Ga50  1  0.000000  0.000000  0.500000  1
  Ga  Ga51  1  0.500000  0.000000  0.000000  1
  Ga  Ga52  1  0.000000  0.500000  0.500000  1
  Ga  Ga53  1  0.500000  0.000000  0.500000  1
  Ga  Ga54  1  0.500000  0.500000  0.000000  1
  Ga  Ga55  1  0.500000  0.500000  0.500000  1
  Ga  Ga56  1  0.250000  0.625000  0.375000  1
  Ga  Ga57  1  0.625000  0.750000  0.375000  1
  Ga  Ga58  1  0.875000  0.250000  0.125000  1
  Ga  Ga59  1  0.125000  0.875000  0.250000  1
  Ga  Ga60  1  0.250000  0.125000  0.875000  1
  Ga  Ga61  1  0.750000  0.875000  0.125000  1
  Ga  Ga62  1  0.375000  0.250000  0.625000  1
  Ga  Ga63  1  0.625000  0.375000  0.250000  1
  Ga  Ga64  1  0.125000  0.750000  0.875000  1
  Ga  Ga65  1  0.875000  0.125000  0.750000  1
  Ga  Ga66  1  0.750000  0.375000  0.625000  1
  Ga  Ga67  1  0.375000  0.625000  0.750000  1
  Lu  Lu68  1  0.250000  0.375000  0.125000  1
  Lu  Lu69  1  0.375000  0.750000  0.125000  1
  Lu  Lu70  1  0.125000  0.250000  0.375000  1
  Lu  Lu71  1  0.375000  0.125000  0.250000  1
  Lu  Lu72  1  0.125000  0.375000  0.750000  1
  Lu  Lu73  1  0.750000  0.125000  0.375000  1
  Lu  Lu74  1  0.750000  0.625000  0.875000  1
  Lu  Lu75  1  0.625000  0.250000  0.875000  1
  Lu  Lu76  1  0.875000  0.750000  0.625000  1
  Lu  Lu77  1  0.625000  0.875000  0.750000  1
  Lu  Lu78  1  0.875000  0.625000  0.250000  1
  Lu  Lu79  1  0.250000  0.875000  0.625000  1
