# generated using pymatgen
data_YbCuS2
_symmetry_space_group_name_H-M   'P 1'
_cell_length_a   3.92952987
_cell_length_b   6.29682291
_cell_length_c   13.84312424
_cell_angle_alpha   90.00000000
_cell_angle_beta   90.00000000
_cell_angle_gamma   90.00000000
_symmetry_Int_Tables_number   1
_chemical_formula_structural   YbCuS2
_chemical_formula_sum   'Yb4 Cu4 S8'
_cell_volume   342.52808816
_cell_formula_units_Z   4
loop_
 _symmetry_equiv_pos_site_id
 _symmetry_equiv_pos_as_xyz
  1  'x, y, z'
loop_
 _atom_site_type_symbol
 _atom_site_label
 _atom_site_symmetry_multiplicity
 _atom_site_fract_x
 _atom_site_fract_y
 _atom_site_fract_z
 _atom_site_occupancy
  Yb  Yb0  1  0.250000  0.017945  0.635835  1
  Yb  Yb1  1  0.750000  0.517945  0.864165  1
  Yb  Yb2  1  0.750000  0.982055  0.364165  1
  Yb  Yb3  1  0.250000  0.482055  0.135835  1
  Cu  Cu4  1  0.250000  0.130940  0.947041  1
  Cu  Cu5  1  0.250000  0.369060  0.447041  1
  Cu  Cu6  1  0.750000  0.869060  0.052959  1
  Cu  Cu7  1  0.750000  0.630940  0.552959  1
  S  S8  1  0.250000  0.734906  0.470768  1
  S  S9  1  0.750000  0.265094  0.529232  1
  S  S10  1  0.750000  0.738532  0.201624  1
  S  S11  1  0.250000  0.765094  0.970768  1
  S  S12  1  0.250000  0.238532  0.298376  1
  S  S13  1  0.750000  0.234906  0.029232  1
  S  S14  1  0.750000  0.761468  0.701624  1
  S  S15  1  0.250000  0.261468  0.798376  1
