# generated using pymatgen
data_Mo3W(Se3S)2
_symmetry_space_group_name_H-M   'P 1'
_cell_length_a   3.28639395
_cell_length_b   3.28635222
_cell_length_c   37.33540243
_cell_angle_alpha   90.00068972
_cell_angle_beta   89.99987394
_cell_angle_gamma   120.00037681
_symmetry_Int_Tables_number   1
_chemical_formula_structural   Mo3W(Se3S)2
_chemical_formula_sum   'Mo3 W1 Se6 S2'
_cell_volume   349.20748945
_cell_formula_units_Z   1
loop_
 _symmetry_equiv_pos_site_id
 _symmetry_equiv_pos_as_xyz
  1  'x, y, z'
loop_
 _atom_site_type_symbol
 _atom_site_label
 _atom_site_symmetry_multiplicity
 _atom_site_fract_x
 _atom_site_fract_y
 _atom_site_fract_z
 _atom_site_occupancy
  Mo  Mo0  1  0.333310  0.666618  0.093904  1
  Mo  Mo1  1  0.666688  0.333375  0.281796  1
  Mo  Mo2  1  0.666691  0.333382  0.657539  1
  W  W3  1  0.333312  0.666624  0.469659  1
  Se  Se4  1  0.333360  0.666719  0.326982  1
  Se  Se5  1  0.333355  0.666709  0.702713  1
  Se  Se6  1  0.666647  0.333292  0.048743  1
  Se  Se7  1  0.666635  0.333268  0.139093  1
  Se  Se8  1  0.333352  0.666704  0.236639  1
  Se  Se9  1  0.333361  0.666732  0.612350  1
  S  S10  1  0.666647  0.333292  0.428385  1
  S  S11  1  0.666644  0.333286  0.510945  1
