# generated using pymatgen
data_Y2HfS5
_symmetry_space_group_name_H-M   'P 1'
_cell_length_a   7.26882472
_cell_length_b   7.74733768
_cell_length_c   11.57074105
_cell_angle_alpha   90.00000000
_cell_angle_beta   90.00000000
_cell_angle_gamma   90.00000000
_symmetry_Int_Tables_number   1
_chemical_formula_structural   Y2HfS5
_chemical_formula_sum   'Y8 Hf4 S20'
_cell_volume   651.59517018
_cell_formula_units_Z   4
loop_
 _symmetry_equiv_pos_site_id
 _symmetry_equiv_pos_as_xyz
  1  'x, y, z'
loop_
 _atom_site_type_symbol
 _atom_site_label
 _atom_site_symmetry_multiplicity
 _atom_site_fract_x
 _atom_site_fract_y
 _atom_site_fract_z
 _atom_site_occupancy
  S  S0  1  0.310497  0.750000  0.206667  1
  S  S1  1  0.810497  0.250000  0.293333  1
  S  S2  1  0.689503  0.250000  0.793333  1
  S  S3  1  0.189503  0.750000  0.706667  1
  S  S4  1  0.054331  0.750000  0.996313  1
  S  S5  1  0.554331  0.250000  0.503687  1
  S  S6  1  0.945669  0.250000  0.003687  1
  S  S7  1  0.445669  0.750000  0.496313  1
  S  S8  1  0.832229  0.750000  0.319462  1
  S  S9  1  0.332229  0.250000  0.180538  1
  S  S10  1  0.167771  0.250000  0.680538  1
  S  S11  1  0.667771  0.750000  0.819462  1
  S  S12  1  0.839935  0.963626  0.593432  1
  S  S13  1  0.339935  0.036374  0.906568  1
  S  S14  1  0.160065  0.463626  0.406568  1
  S  S15  1  0.660065  0.536374  0.093432  1
  S  S16  1  0.160065  0.036374  0.406568  1
  S  S17  1  0.660065  0.963626  0.093432  1
  S  S18  1  0.839935  0.536374  0.593432  1
  S  S19  1  0.339935  0.463626  0.906568  1
  Y  Y20  1  0.978311  0.002797  0.821065  1
  Y  Y21  1  0.478311  0.997203  0.678935  1
  Y  Y22  1  0.021689  0.502797  0.178935  1
  Y  Y23  1  0.521689  0.497203  0.321065  1
  Y  Y24  1  0.478311  0.502797  0.678935  1
  Y  Y25  1  0.978311  0.497203  0.821065  1
  Y  Y26  1  0.521689  0.002797  0.321065  1
  Y  Y27  1  0.021689  0.997203  0.178935  1
  Hf  Hf28  1  0.424305  0.750000  0.994079  1
  Hf  Hf29  1  0.924305  0.250000  0.505921  1
  Hf  Hf30  1  0.575695  0.250000  0.005921  1
  Hf  Hf31  1  0.075695  0.750000  0.494079  1
