# generated using pymatgen
data_Te4MoW3(SeS)2
_symmetry_space_group_name_H-M   'P 1'
_cell_length_a   3.39837198
_cell_length_b   3.39840232
_cell_length_c   40.67018159
_cell_angle_alpha   90.00373736
_cell_angle_beta   90.00000000
_cell_angle_gamma   119.99970465
_symmetry_Int_Tables_number   1
_chemical_formula_structural   Te4MoW3(SeS)2
_chemical_formula_sum   'Te4 Mo1 W3 Se2 S2'
_cell_volume   406.77451930
_cell_formula_units_Z   1
loop_
 _symmetry_equiv_pos_site_id
 _symmetry_equiv_pos_as_xyz
  1  'x, y, z'
loop_
 _atom_site_type_symbol
 _atom_site_label
 _atom_site_symmetry_multiplicity
 _atom_site_fract_x
 _atom_site_fract_y
 _atom_site_fract_z
 _atom_site_occupancy
  Te  Te0  1  0.333461  0.666923  0.705941  1
  Te  Te1  1  0.666617  0.333233  0.421479  1
  Te  Te2  1  0.666596  0.333192  0.514125  1
  Te  Te3  1  0.333334  0.666670  0.613295  1
  Mo  Mo4  1  0.333342  0.666683  0.093873  1
  W  W5  1  0.333284  0.666568  0.467797  1
  W  W6  1  0.666657  0.333313  0.281626  1
  W  W7  1  0.666728  0.333455  0.659601  1
  Se  Se8  1  0.666616  0.333232  0.053349  1
  Se  Se9  1  0.666717  0.333433  0.134413  1
  S  S10  1  0.333338  0.666677  0.318677  1
  S  S11  1  0.333310  0.666620  0.244570  1
