# generated using pymatgen
data_Nb5(PPd)4
_symmetry_space_group_name_H-M   'P 1'
_cell_length_a   3.64505637
_cell_length_b   7.61527173
_cell_length_c   7.61527173
_cell_angle_alpha   86.71649202
_cell_angle_beta   76.15326985
_cell_angle_gamma   76.15326985
_symmetry_Int_Tables_number   1
_chemical_formula_structural   Nb5(PPd)4
_chemical_formula_sum   'Nb5 P4 Pd4'
_cell_volume   199.27798218
_cell_formula_units_Z   1
loop_
 _symmetry_equiv_pos_site_id
 _symmetry_equiv_pos_as_xyz
  1  'x, y, z'
loop_
 _atom_site_type_symbol
 _atom_site_label
 _atom_site_symmetry_multiplicity
 _atom_site_fract_x
 _atom_site_fract_y
 _atom_site_fract_z
 _atom_site_occupancy
  P  P0  1  0.940906  0.816094  0.302095  1
  P  P1  1  0.059094  0.183906  0.697905  1
  P  P2  1  0.243000  0.697905  0.816094  1
  P  P3  1  0.757000  0.302095  0.183906  1
  Nb  Nb4  1  0.377334  0.310018  0.935314  1
  Nb  Nb5  1  0.622666  0.689982  0.064686  1
  Nb  Nb6  1  0.000000  0.000000  0.000000  1
  Nb  Nb7  1  0.687352  0.935314  0.689982  1
  Nb  Nb8  1  0.312648  0.064686  0.310018  1
  Pd  Pd9  1  0.595571  0.288773  0.520086  1
  Pd  Pd10  1  0.115656  0.479914  0.288773  1
  Pd  Pd11  1  0.404429  0.711227  0.479914  1
  Pd  Pd12  1  0.884344  0.520086  0.711227  1
