# generated using pymatgen
data_Li3LaBi2
_symmetry_space_group_name_H-M   'P 1'
_cell_length_a   4.77281174
_cell_length_b   4.77285225
_cell_length_c   7.57064868
_cell_angle_alpha   90.00000004
_cell_angle_beta   90.00007401
_cell_angle_gamma   120.00028701
_symmetry_Int_Tables_number   1
_chemical_formula_structural   Li3LaBi2
_chemical_formula_sum   'Li3 La1 Bi2'
_cell_volume   149.35327960
_cell_formula_units_Z   1
loop_
 _symmetry_equiv_pos_site_id
 _symmetry_equiv_pos_as_xyz
  1  'x, y, z'
loop_
 _atom_site_type_symbol
 _atom_site_label
 _atom_site_symmetry_multiplicity
 _atom_site_fract_x
 _atom_site_fract_y
 _atom_site_fract_z
 _atom_site_occupancy
  Li  Li0  1  0.666700  0.333350  0.352647  1
  Li  Li1  1  0.333300  0.666650  0.647353  1
  Li  Li2  1  -0.000000  -0.000000  0.500000  1
  La  La3  1  -0.000000  0.000000  0.000000  1
  Bi  Bi4  1  0.666697  0.333348  0.746324  1
  Bi  Bi5  1  0.333303  0.666652  0.253676  1
