# generated using pymatgen
data_PrCuSe2
_symmetry_space_group_name_H-M   'P 1'
_cell_length_a   6.78475717
_cell_length_b   7.24848887
_cell_length_c   7.55121588
_cell_angle_alpha   90.00000000
_cell_angle_beta   90.00000000
_cell_angle_gamma   96.64620261
_symmetry_Int_Tables_number   1
_chemical_formula_structural   PrCuSe2
_chemical_formula_sum   'Pr4 Cu4 Se8'
_cell_volume   368.86738497
_cell_formula_units_Z   4
loop_
 _symmetry_equiv_pos_site_id
 _symmetry_equiv_pos_as_xyz
  1  'x, y, z'
loop_
 _atom_site_type_symbol
 _atom_site_label
 _atom_site_symmetry_multiplicity
 _atom_site_fract_x
 _atom_site_fract_y
 _atom_site_fract_z
 _atom_site_occupancy
  Cu  Cu0  1  0.068427  0.546284  0.839321  1
  Cu  Cu1  1  0.931573  0.453716  0.160679  1
  Cu  Cu2  1  0.068427  0.046284  0.660679  1
  Cu  Cu3  1  0.931573  0.953716  0.339321  1
  Se  Se4  1  0.416418  0.002034  0.723608  1
  Se  Se5  1  0.416418  0.502034  0.776392  1
  Se  Se6  1  0.583582  0.497966  0.223608  1
  Se  Se7  1  0.583582  0.997966  0.276392  1
  Se  Se8  1  0.903298  0.721643  0.612037  1
  Se  Se9  1  0.096702  0.778357  0.112037  1
  Se  Se10  1  0.096702  0.278357  0.387963  1
  Se  Se11  1  0.903298  0.221643  0.887963  1
  Pr  Pr12  1  0.692966  0.299344  0.546127  1
  Pr  Pr13  1  0.307034  0.200656  0.046127  1
  Pr  Pr14  1  0.307034  0.700656  0.453873  1
  Pr  Pr15  1  0.692966  0.799344  0.953873  1
