# generated using pymatgen
data_Te2Mo3Se4
_symmetry_space_group_name_H-M   'P 1'
_cell_length_a   3.39911876
_cell_length_b   3.39909773
_cell_length_c   31.37354577
_cell_angle_alpha   90.00000000
_cell_angle_beta   90.00000000
_cell_angle_gamma   120.00020469
_symmetry_Int_Tables_number   1
_chemical_formula_structural   Te2Mo3Se4
_chemical_formula_sum   'Te2 Mo3 Se4'
_cell_volume   313.92314017
_cell_formula_units_Z   1
loop_
 _symmetry_equiv_pos_site_id
 _symmetry_equiv_pos_as_xyz
  1  'x, y, z'
loop_
 _atom_site_type_symbol
 _atom_site_label
 _atom_site_symmetry_multiplicity
 _atom_site_fract_x
 _atom_site_fract_y
 _atom_site_fract_z
 _atom_site_occupancy
  Te  Te0  1  0.333356  0.666712  0.406557  1
  Te  Te1  1  0.333356  0.666712  0.287408  1
  Mo  Mo2  1  0.333313  0.666627  0.115630  1
  Mo  Mo3  1  0.333313  0.666627  0.578335  1
  Mo  Mo4  1  0.666692  0.333385  0.346982  1
  Se  Se5  1  0.666645  0.333288  0.063169  1
  Se  Se6  1  0.666641  0.333280  0.525844  1
  Se  Se7  1  0.666641  0.333280  0.168121  1
  Se  Se8  1  0.666645  0.333288  0.630795  1
