# generated using pymatgen
data_RbBe3ZnF9
_symmetry_space_group_name_H-M   'P 1'
_cell_length_a   6.78528334
_cell_length_b   6.78528334
_cell_length_c   9.81390134
_cell_angle_alpha   90.00000000
_cell_angle_beta   90.00000000
_cell_angle_gamma   120.00000002
_symmetry_Int_Tables_number   1
_chemical_formula_structural   RbBe3ZnF9
_chemical_formula_sum   'Rb2 Be6 Zn2 F18'
_cell_volume   391.29860025
_cell_formula_units_Z   2
loop_
 _symmetry_equiv_pos_site_id
 _symmetry_equiv_pos_as_xyz
  1  'x, y, z'
loop_
 _atom_site_type_symbol
 _atom_site_label
 _atom_site_symmetry_multiplicity
 _atom_site_fract_x
 _atom_site_fract_y
 _atom_site_fract_z
 _atom_site_occupancy
  Be  Be0  1  0.209405  0.933400  0.250000  1
  Be  Be1  1  0.209405  0.276005  0.750000  1
  Be  Be2  1  0.723995  0.933400  0.750000  1
  Be  Be3  1  0.066600  0.790595  0.750000  1
  Be  Be4  1  0.066600  0.276005  0.250000  1
  Be  Be5  1  0.723995  0.790595  0.250000  1
  F  F6  1  0.087461  0.674699  0.619581  1
  F  F7  1  0.587238  0.912539  0.619581  1
  F  F8  1  0.325301  0.412762  0.619581  1
  F  F9  1  0.325301  0.912539  0.380419  1
  F  F10  1  0.240060  0.183670  0.250000  1
  F  F11  1  0.943611  0.759941  0.250000  1
  F  F12  1  0.816330  0.056389  0.250000  1
  F  F13  1  0.816330  0.759941  0.750000  1
  F  F14  1  0.943611  0.183670  0.750000  1
  F  F15  1  0.240060  0.056389  0.750000  1
  F  F16  1  0.325301  0.912539  0.119581  1
  F  F17  1  0.587238  0.674699  0.380419  1
  F  F18  1  0.087461  0.412762  0.380419  1
  F  F19  1  0.087461  0.412762  0.119581  1
  F  F20  1  0.587238  0.674699  0.119581  1
  F  F21  1  0.087461  0.674699  0.880419  1
  F  F22  1  0.587238  0.912539  0.880419  1
  F  F23  1  0.325301  0.412762  0.880419  1
  Zn  Zn24  1  0.333333  0.666667  0.500000  1
  Zn  Zn25  1  0.333333  0.666667  0.000000  1
  Rb  Rb26  1  0.666667  0.333333  0.500000  1
  Rb  Rb27  1  0.666667  0.333333  0.000000  1
