# generated using pymatgen
data_Te4MoW3S4
_symmetry_space_group_name_H-M   'P 1'
_cell_length_a   3.35657113
_cell_length_b   3.35650606
_cell_length_c   38.37686255
_cell_angle_alpha   90.00067126
_cell_angle_beta   90.00000000
_cell_angle_gamma   120.00064115
_symmetry_Int_Tables_number   1
_chemical_formula_structural   Te4MoW3S4
_chemical_formula_sum   'Te4 Mo1 W3 S4'
_cell_volume   374.43857485
_cell_formula_units_Z   1
loop_
 _symmetry_equiv_pos_site_id
 _symmetry_equiv_pos_as_xyz
  1  'x, y, z'
loop_
 _atom_site_type_symbol
 _atom_site_label
 _atom_site_symmetry_multiplicity
 _atom_site_fract_x
 _atom_site_fract_y
 _atom_site_fract_z
 _atom_site_occupancy
  Te  Te0  1  0.666644  0.333287  0.044613  1
  Te  Te1  1  0.666634  0.333267  0.420071  1
  Te  Te2  1  0.666642  0.333282  0.143218  1
  Te  Te3  1  0.666647  0.333294  0.519256  1
  Mo  Mo4  1  0.333308  0.666616  0.093912  1
  W  W5  1  0.333309  0.666619  0.469658  1
  W  W6  1  0.666691  0.333383  0.281785  1
  W  W7  1  0.666693  0.333386  0.657561  1
  S  S8  1  0.333356  0.666713  0.321385  1
  S  S9  1  0.333358  0.666717  0.697148  1
  S  S10  1  0.333362  0.666725  0.242188  1
  S  S11  1  0.333355  0.666710  0.617952  1
