# generated using pymatgen
data_SrCu
_symmetry_space_group_name_H-M   'P 1'
_cell_length_a   4.32830044
_cell_length_b   4.32830044
_cell_length_c   15.63287591
_cell_angle_alpha   90.00000000
_cell_angle_beta   90.00000000
_cell_angle_gamma   119.99999483
_symmetry_Int_Tables_number   1
_chemical_formula_structural   SrCu
_chemical_formula_sum   'Sr4 Cu4'
_cell_volume   253.63216732
_cell_formula_units_Z   4
loop_
 _symmetry_equiv_pos_site_id
 _symmetry_equiv_pos_as_xyz
  1  'x, y, z'
loop_
 _atom_site_type_symbol
 _atom_site_label
 _atom_site_symmetry_multiplicity
 _atom_site_fract_x
 _atom_site_fract_y
 _atom_site_fract_z
 _atom_site_occupancy
  Sr  Sr0  1  0.666667  0.333333  0.379109  1
  Sr  Sr1  1  0.333333  0.666667  0.620891  1
  Sr  Sr2  1  0.333333  0.666667  0.879109  1
  Sr  Sr3  1  0.666667  0.333333  0.120891  1
  Cu  Cu4  1  0.666667  0.333333  0.750000  1
  Cu  Cu5  1  0.333333  0.666667  0.250000  1
  Cu  Cu6  1  0.000000  0.000000  0.750000  1
  Cu  Cu7  1  0.000000  0.000000  0.250000  1
