# generated using pymatgen
data_NdCo9Si4
_symmetry_space_group_name_H-M   'P 1'
_cell_length_a   7.74510115
_cell_length_b   7.74510115
_cell_length_c   7.92348726
_cell_angle_alpha   119.25800967
_cell_angle_beta   119.25800966
_cell_angle_gamma   89.99999999
_symmetry_Int_Tables_number   1
_chemical_formula_structural   NdCo9Si4
_chemical_formula_sum   'Nd2 Co18 Si8'
_cell_volume   343.48992135
_cell_formula_units_Z   2
loop_
 _symmetry_equiv_pos_site_id
 _symmetry_equiv_pos_as_xyz
  1  'x, y, z'
loop_
 _atom_site_type_symbol
 _atom_site_label
 _atom_site_symmetry_multiplicity
 _atom_site_fract_x
 _atom_site_fract_y
 _atom_site_fract_z
 _atom_site_occupancy
  Si  Si0  1  0.789932  0.289932  0.242274  1
  Si  Si1  1  0.547658  0.047657  0.757726  1
  Si  Si2  1  0.710068  0.547658  0.757726  1
  Si  Si3  1  0.952342  0.789932  0.242274  1
  Si  Si4  1  0.289932  0.452342  0.242274  1
  Si  Si5  1  0.452342  0.952342  0.242274  1
  Si  Si6  1  0.210068  0.710068  0.757726  1
  Si  Si7  1  0.047657  0.210068  0.757726  1
  Co  Co8  1  0.449617  0.689873  0.639490  1
  Co  Co9  1  0.949617  0.449617  0.639490  1
  Co  Co10  1  0.689873  0.189873  0.639490  1
  Co  Co11  1  0.050383  0.550383  0.360510  1
  Co  Co12  1  0.189873  0.949617  0.639490  1
  Co  Co13  1  0.929606  0.199550  0.000000  1
  Co  Co14  1  0.070394  0.800450  0.000000  1
  Co  Co15  1  0.699550  0.429606  0.000000  1
  Co  Co16  1  0.300450  0.570394  0.000000  1
  Co  Co17  1  0.570394  0.699550  0.000000  1
  Co  Co18  1  0.429606  0.300450  0.000000  1
  Co  Co19  1  0.800450  0.929606  0.000000  1
  Co  Co20  1  0.550383  0.310127  0.360510  1
  Co  Co21  1  0.310127  0.810127  0.360510  1
  Co  Co22  1  0.500000  0.000000  0.000000  1
  Co  Co23  1  0.000000  0.500000  0.000000  1
  Co  Co24  1  0.199550  0.070394  0.000000  1
  Co  Co25  1  0.810127  0.050383  0.360510  1
  Nd  Nd26  1  0.750000  0.750000  0.500000  1
  Nd  Nd27  1  0.250000  0.250000  0.500000  1
