# generated using pymatgen
data_MoC
_symmetry_space_group_name_H-M   'P 1'
_cell_length_a   3.07357038
_cell_length_b   3.07357038
_cell_length_c   15.42037259
_cell_angle_alpha   90.00000000
_cell_angle_beta   90.00000000
_cell_angle_gamma   119.99999999
_symmetry_Int_Tables_number   1
_chemical_formula_structural   MoC
_chemical_formula_sum   'Mo6 C6'
_cell_volume   126.15713672
_cell_formula_units_Z   6
loop_
 _symmetry_equiv_pos_site_id
 _symmetry_equiv_pos_as_xyz
  1  'x, y, z'
loop_
 _atom_site_type_symbol
 _atom_site_label
 _atom_site_symmetry_multiplicity
 _atom_site_fract_x
 _atom_site_fract_y
 _atom_site_fract_z
 _atom_site_occupancy
  C  C0  1  0.333333  0.666667  0.833540  1
  C  C1  1  0.666667  0.333333  0.333540  1
  C  C2  1  0.666667  0.333333  0.166460  1
  C  C3  1  0.333333  0.666667  0.666460  1
  C  C4  1  0.000000  0.000000  0.500000  1
  C  C5  1  0.000000  0.000000  0.000000  1
  Mo  Mo6  1  0.333333  0.666667  0.423832  1
  Mo  Mo7  1  0.666667  0.333333  0.923832  1
  Mo  Mo8  1  0.666667  0.333333  0.576168  1
  Mo  Mo9  1  0.333333  0.666667  0.076168  1
  Mo  Mo10  1  0.000000  0.000000  0.750000  1
  Mo  Mo11  1  0.000000  0.000000  0.250000  1
