# generated using pymatgen
data_Te2MoW3(SeS2)2
_symmetry_space_group_name_H-M   'P 1'
_cell_length_a   3.30932489
_cell_length_b   3.30941084
_cell_length_c   37.04867449
_cell_angle_alpha   89.95864175
_cell_angle_beta   90.00000000
_cell_angle_gamma   119.99914078
_symmetry_Int_Tables_number   1
_chemical_formula_structural   Te2MoW3(SeS2)2
_chemical_formula_sum   'Te2 Mo1 W3 Se2 S4'
_cell_volume   351.39615599
_cell_formula_units_Z   1
loop_
 _symmetry_equiv_pos_site_id
 _symmetry_equiv_pos_as_xyz
  1  'x, y, z'
loop_
 _atom_site_type_symbol
 _atom_site_label
 _atom_site_symmetry_multiplicity
 _atom_site_fract_x
 _atom_site_fract_y
 _atom_site_fract_z
 _atom_site_occupancy
  Te  Te0  1  0.333010  0.666022  0.709621  1
  Te  Te1  1  0.333723  0.667448  0.605734  1
  Mo  Mo2  1  0.333328  0.666657  0.093907  1
  W  W3  1  0.333282  0.666564  0.469539  1
  W  W4  1  0.666700  0.333399  0.281778  1
  W  W5  1  0.666696  0.333391  0.657690  1
  Se  Se6  1  0.333102  0.666205  0.327334  1
  Se  Se7  1  0.333643  0.667287  0.236213  1
  S  S8  1  0.666875  0.333748  0.052675  1
  S  S9  1  0.666815  0.333629  0.428186  1
  S  S10  1  0.666424  0.332847  0.135151  1
  S  S11  1  0.666402  0.332803  0.510920  1
