# generated using pymatgen
data_PrPtF7
_symmetry_space_group_name_H-M   'P 1'
_cell_length_a   5.70198196
_cell_length_b   9.24269441
_cell_length_c   11.42902286
_cell_angle_alpha   107.35550549
_cell_angle_beta   90.00000000
_cell_angle_gamma   90.00000000
_symmetry_Int_Tables_number   1
_chemical_formula_structural   PrPtF7
_chemical_formula_sum   'Pr4 Pt4 F28'
_cell_volume   574.90601066
_cell_formula_units_Z   4
loop_
 _symmetry_equiv_pos_site_id
 _symmetry_equiv_pos_as_xyz
  1  'x, y, z'
loop_
 _atom_site_type_symbol
 _atom_site_label
 _atom_site_symmetry_multiplicity
 _atom_site_fract_x
 _atom_site_fract_y
 _atom_site_fract_z
 _atom_site_occupancy
  F  F0  1  0.568596  0.376261  0.083582  1
  F  F1  1  0.068596  0.123739  0.416418  1
  F  F2  1  0.431404  0.623739  0.916418  1
  F  F3  1  0.931404  0.876261  0.583582  1
  F  F4  1  0.549499  0.178883  0.460715  1
  F  F5  1  0.049499  0.321117  0.039285  1
  F  F6  1  0.450501  0.821117  0.539285  1
  F  F7  1  0.950501  0.678883  0.960715  1
  F  F8  1  0.233932  0.623964  0.138262  1
  F  F9  1  0.733932  0.876036  0.361738  1
  F  F10  1  0.766068  0.376036  0.861738  1
  F  F11  1  0.266068  0.123964  0.638262  1
  F  F12  1  0.242629  0.919039  0.951103  1
  F  F13  1  0.742629  0.580961  0.548897  1
  F  F14  1  0.757371  0.080961  0.048897  1
  F  F15  1  0.257371  0.419039  0.451103  1
  F  F16  1  0.031187  0.642082  0.370324  1
  F  F17  1  0.531187  0.857918  0.129676  1
  F  F18  1  0.968813  0.357918  0.629676  1
  F  F19  1  0.468813  0.142082  0.870324  1
  F  F20  1  0.940860  0.086815  0.828346  1
  F  F21  1  0.440860  0.413185  0.671654  1
  F  F22  1  0.059140  0.913185  0.171654  1
  F  F23  1  0.559140  0.586815  0.328346  1
  F  F24  1  0.594653  0.802317  0.768977  1
  F  F25  1  0.094653  0.697683  0.731023  1
  F  F26  1  0.405347  0.197683  0.231023  1
  F  F27  1  0.905347  0.302317  0.268977  1
  Pr  Pr28  1  0.239313  0.424750  0.235751  1
  Pr  Pr29  1  0.739313  0.075250  0.264249  1
  Pr  Pr30  1  0.760687  0.575250  0.764249  1
  Pr  Pr31  1  0.260687  0.924750  0.735751  1
  Pt  Pt32  1  0.243282  0.769202  0.042478  1
  Pt  Pt33  1  0.743282  0.730798  0.457522  1
  Pt  Pt34  1  0.756718  0.230798  0.957522  1
  Pt  Pt35  1  0.256718  0.269202  0.542478  1
