# generated using pymatgen
data_Sr2SnS3F2
_symmetry_space_group_name_H-M   'P 1'
_cell_length_a   6.01420019
_cell_length_b   6.03468229
_cell_length_c   19.09462967
_cell_angle_alpha   90.00000000
_cell_angle_beta   90.00000000
_cell_angle_gamma   90.00000000
_symmetry_Int_Tables_number   1
_chemical_formula_structural   Sr2SnS3F2
_chemical_formula_sum   'Sr8 Sn4 S12 F8'
_cell_volume   693.01642925
_cell_formula_units_Z   4
loop_
 _symmetry_equiv_pos_site_id
 _symmetry_equiv_pos_as_xyz
  1  'x, y, z'
loop_
 _atom_site_type_symbol
 _atom_site_label
 _atom_site_symmetry_multiplicity
 _atom_site_fract_x
 _atom_site_fract_y
 _atom_site_fract_z
 _atom_site_occupancy
  F  F0  1  0.500910  0.747714  0.500241  1
  F  F1  1  0.000910  0.752286  0.999759  1
  F  F2  1  0.999090  0.247714  0.499759  1
  F  F3  1  0.499090  0.252286  0.000241  1
  F  F4  1  0.499090  0.252286  0.499759  1
  F  F5  1  0.999090  0.247714  0.000241  1
  F  F6  1  0.000910  0.752286  0.500241  1
  F  F7  1  0.500910  0.747714  0.999759  1
  S  S8  1  0.743456  0.513888  0.633058  1
  S  S9  1  0.243456  0.986112  0.866942  1
  S  S10  1  0.756544  0.013888  0.366942  1
  S  S11  1  0.256544  0.486112  0.133058  1
  S  S12  1  0.251303  0.476395  0.750000  1
  S  S13  1  0.751303  0.023605  0.750000  1
  S  S14  1  0.248697  0.976395  0.250000  1
  S  S15  1  0.748697  0.523605  0.250000  1
  S  S16  1  0.743456  0.513888  0.866942  1
  S  S17  1  0.243456  0.986112  0.633058  1
  S  S18  1  0.756544  0.013888  0.133058  1
  S  S19  1  0.256544  0.486112  0.366942  1
  Sr  Sr20  1  0.246932  0.497651  0.926317  1
  Sr  Sr21  1  0.746932  0.002349  0.573683  1
  Sr  Sr22  1  0.253068  0.997651  0.073683  1
  Sr  Sr23  1  0.753068  0.502349  0.426317  1
  Sr  Sr24  1  0.246932  0.497651  0.573683  1
  Sr  Sr25  1  0.746932  0.002349  0.926317  1
  Sr  Sr26  1  0.253068  0.997651  0.426317  1
  Sr  Sr27  1  0.753068  0.502349  0.073683  1
  Sn  Sn28  1  0.843001  0.425566  0.750000  1
  Sn  Sn29  1  0.343001  0.074434  0.750000  1
  Sn  Sn30  1  0.656999  0.925566  0.250000  1
  Sn  Sn31  1  0.156999  0.574434  0.250000  1
