# generated using pymatgen
data_Ca3Mn2O7
_symmetry_space_group_name_H-M   'P 1'
_cell_length_a   5.43970497
_cell_length_b   5.33646457
_cell_length_c   10.01330724
_cell_angle_alpha   90.00000000
_cell_angle_beta   105.76091486
_cell_angle_gamma   90.00000000
_symmetry_Int_Tables_number   1
_chemical_formula_structural   Ca3Mn2O7
_chemical_formula_sum   'Ca6 Mn4 O14'
_cell_volume   279.74589099
_cell_formula_units_Z   2
loop_
 _symmetry_equiv_pos_site_id
 _symmetry_equiv_pos_as_xyz
  1  'x, y, z'
loop_
 _atom_site_type_symbol
 _atom_site_label
 _atom_site_symmetry_multiplicity
 _atom_site_fract_x
 _atom_site_fract_y
 _atom_site_fract_z
 _atom_site_occupancy
  O  O0  1  0.113644  0.750000  0.606446  1
  O  O1  1  0.507198  0.750000  0.393554  1
  O  O2  1  0.886356  0.250000  0.393554  1
  O  O3  1  0.492802  0.250000  0.606446  1
  O  O4  1  0.418182  0.500000  0.836364  1
  O  O5  1  0.581818  0.000000  0.163636  1
  O  O6  1  0.581818  0.500000  0.163636  1
  O  O7  1  0.418182  0.000000  0.836364  1
  O  O8  1  0.883830  0.500000  0.767660  1
  O  O9  1  0.116170  0.000000  0.232341  1
  O  O10  1  0.831949  0.250000  0.000000  1
  O  O11  1  0.168051  0.750000  0.000000  1
  O  O12  1  0.883830  0.000000  0.767660  1
  O  O13  1  0.116170  0.500000  0.232341  1
  Ca  Ca14  1  0.258911  0.250000  0.000000  1
  Ca  Ca15  1  0.741089  0.750000  0.000000  1
  Ca  Ca16  1  0.448963  0.250000  0.372413  1
  Ca  Ca17  1  0.076550  0.250000  0.627587  1
  Ca  Ca18  1  0.923450  0.750000  0.372413  1
  Ca  Ca19  1  0.551037  0.750000  0.627587  1
  Mn  Mn20  1  0.652932  0.250000  0.802299  1
  Mn  Mn21  1  0.850633  0.250000  0.197701  1
  Mn  Mn22  1  0.347068  0.750000  0.197701  1
  Mn  Mn23  1  0.149367  0.750000  0.802299  1
