# generated using pymatgen
data_Na4Fe2O5
_symmetry_space_group_name_H-M   'P 1'
_cell_length_a   5.76627050
_cell_length_b   9.27634011
_cell_length_c   11.99611350
_cell_angle_alpha   105.04811510
_cell_angle_beta   90.00000000
_cell_angle_gamma   90.00000000
_symmetry_Int_Tables_number   1
_chemical_formula_structural   Na4Fe2O5
_chemical_formula_sum   'Na16 Fe8 O20'
_cell_volume   619.66666267
_cell_formula_units_Z   4
loop_
 _symmetry_equiv_pos_site_id
 _symmetry_equiv_pos_as_xyz
  1  'x, y, z'
loop_
 _atom_site_type_symbol
 _atom_site_label
 _atom_site_symmetry_multiplicity
 _atom_site_fract_x
 _atom_site_fract_y
 _atom_site_fract_z
 _atom_site_occupancy
  O  O0  1  0.069006  0.690282  0.801397  1
  O  O1  1  0.669726  0.758253  0.176250  1
  O  O2  1  0.830274  0.258254  0.676251  1
  O  O3  1  0.330274  0.241747  0.823749  1
  O  O4  1  0.738905  0.916342  0.946806  1
  O  O5  1  0.238905  0.583659  0.553194  1
  O  O6  1  0.261095  0.083658  0.053193  1
  O  O7  1  0.761095  0.416341  0.446806  1
  O  O8  1  0.237585  0.610179  0.057441  1
  O  O9  1  0.737585  0.889821  0.442558  1
  O  O10  1  0.762415  0.389821  0.942558  1
  O  O11  1  0.262415  0.110179  0.557442  1
  O  O12  1  0.016264  0.981514  0.738954  1
  O  O13  1  0.169726  0.741746  0.323749  1
  O  O14  1  0.516264  0.518486  0.761046  1
  O  O15  1  0.983736  0.018486  0.261046  1
  O  O16  1  0.569006  0.809717  0.698603  1
  O  O17  1  0.483736  0.481514  0.238955  1
  O  O18  1  0.430994  0.190283  0.301396  1
  O  O19  1  0.930994  0.309718  0.198603  1
  Na  Na20  1  0.071893  0.837876  0.033448  1
  Na  Na21  1  0.571893  0.662123  0.466552  1
  Na  Na22  1  0.928106  0.162124  0.966552  1
  Na  Na23  1  0.428107  0.337877  0.533448  1
  Na  Na24  1  0.588777  0.664760  0.961627  1
  Na  Na25  1  0.088777  0.835240  0.538373  1
  Na  Na26  1  0.411223  0.335240  0.038373  1
  Na  Na27  1  0.911223  0.164760  0.461626  1
  Na  Na28  1  0.378399  0.994409  0.866317  1
  Na  Na29  1  0.878399  0.505592  0.633684  1
  Na  Na30  1  0.621601  0.005591  0.133684  1
  Na  Na31  1  0.121601  0.494408  0.366316  1
  Na  Na32  1  0.615827  0.015940  0.622441  1
  Na  Na33  1  0.115827  0.484060  0.877559  1
  Na  Na34  1  0.384173  0.984060  0.377558  1
  Na  Na35  1  0.884173  0.515940  0.122442  1
  Fe  Fe36  1  0.342304  0.658353  0.703200  1
  Fe  Fe37  1  0.657696  0.341647  0.296800  1
  Fe  Fe38  1  0.157696  0.158352  0.203201  1
  Fe  Fe39  1  0.385011  0.657514  0.199431  1
  Fe  Fe40  1  0.885011  0.842486  0.300570  1
  Fe  Fe41  1  0.614989  0.342486  0.800569  1
  Fe  Fe42  1  0.114989  0.157514  0.699431  1
  Fe  Fe43  1  0.842304  0.841648  0.796800  1
