# generated using pymatgen
data_K3(Cu4S3)2
_symmetry_space_group_name_H-M   'P 1'
_cell_length_a   3.85599007
_cell_length_b   8.87928530
_cell_length_c   9.87058665
_cell_angle_alpha   106.11285525
_cell_angle_beta   90.00000000
_cell_angle_gamma   102.54075659
_symmetry_Int_Tables_number   1
_chemical_formula_structural   K3(Cu4S3)2
_chemical_formula_sum   'K3 Cu8 S6'
_cell_volume   316.27636571
_cell_formula_units_Z   1
loop_
 _symmetry_equiv_pos_site_id
 _symmetry_equiv_pos_as_xyz
  1  'x, y, z'
loop_
 _atom_site_type_symbol
 _atom_site_label
 _atom_site_symmetry_multiplicity
 _atom_site_fract_x
 _atom_site_fract_y
 _atom_site_fract_z
 _atom_site_occupancy
  S  S0  1  0.652942  0.305885  0.653191  1
  S  S1  1  0.161041  0.322083  0.023714  1
  S  S2  1  0.838959  0.677917  0.976286  1
  S  S3  1  0.347058  0.694115  0.346809  1
  S  S4  1  0.955638  0.911277  0.703491  1
  S  S5  1  0.044362  0.088723  0.296509  1
  K  K6  1  0.306895  0.613790  0.705072  1
  K  K7  1  0.693105  0.386210  0.294928  1
  K  K8  1  0.500000  0.000000  0.000000  1
  Cu  Cu9  1  0.486230  0.972461  0.359852  1
  Cu  Cu10  1  0.513770  0.027539  0.640148  1
  Cu  Cu11  1  0.303861  0.607721  0.087156  1
  Cu  Cu12  1  0.090061  0.180121  0.535668  1
  Cu  Cu13  1  0.909939  0.819879  0.464332  1
  Cu  Cu14  1  0.092731  0.185462  0.797060  1
  Cu  Cu15  1  0.907269  0.814538  0.202940  1
  Cu  Cu16  1  0.696139  0.392279  0.912844  1
