# generated using pymatgen
data_RbO3
_symmetry_space_group_name_H-M   'P 1'
_cell_length_a   6.17611380
_cell_length_b   6.65622520
_cell_length_c   7.66190326
_cell_angle_alpha   102.27656311
_cell_angle_beta   90.00000000
_cell_angle_gamma   90.00000000
_symmetry_Int_Tables_number   1
_chemical_formula_structural   RbO3
_chemical_formula_sum   'Rb4 O12'
_cell_volume   307.77509803
_cell_formula_units_Z   4
loop_
 _symmetry_equiv_pos_site_id
 _symmetry_equiv_pos_as_xyz
  1  'x, y, z'
loop_
 _atom_site_type_symbol
 _atom_site_label
 _atom_site_symmetry_multiplicity
 _atom_site_fract_x
 _atom_site_fract_y
 _atom_site_fract_z
 _atom_site_occupancy
  O  O0  1  0.562589  0.689950  0.797285  1
  O  O1  1  0.062589  0.810050  0.702715  1
  O  O2  1  0.437411  0.310050  0.202715  1
  O  O3  1  0.937411  0.189950  0.297285  1
  O  O4  1  0.794191  0.109640  0.400120  1
  O  O5  1  0.294191  0.390360  0.099880  1
  O  O6  1  0.205809  0.890360  0.599880  1
  O  O7  1  0.705809  0.609640  0.900120  1
  O  O8  1  0.742864  0.242620  0.557412  1
  O  O9  1  0.242864  0.257380  0.942588  1
  O  O10  1  0.257136  0.757380  0.442588  1
  O  O11  1  0.757136  0.742620  0.057412  1
  Rb  Rb12  1  0.256680  0.361949  0.585419  1
  Rb  Rb13  1  0.756680  0.138051  0.914581  1
  Rb  Rb14  1  0.743320  0.638051  0.414581  1
  Rb  Rb15  1  0.243320  0.861949  0.085419  1
