# generated using pymatgen
data_TeMoWSe2S
_symmetry_space_group_name_H-M   'P 1'
_cell_length_a   3.34072241
_cell_length_b   3.34072478
_cell_length_c   38.02315582
_cell_angle_alpha   89.99958432
_cell_angle_beta   90.00000000
_cell_angle_gamma   119.99997661
_symmetry_Int_Tables_number   1
_chemical_formula_structural   TeMoWSe2S
_chemical_formula_sum   'Te2 Mo2 W2 Se4 S2'
_cell_volume   367.50223317
_cell_formula_units_Z   2
loop_
 _symmetry_equiv_pos_site_id
 _symmetry_equiv_pos_as_xyz
  1  'x, y, z'
loop_
 _atom_site_type_symbol
 _atom_site_label
 _atom_site_symmetry_multiplicity
 _atom_site_fract_x
 _atom_site_fract_y
 _atom_site_fract_z
 _atom_site_occupancy
  Te  Te0  1  0.666645  0.333288  0.044066  1
  Te  Te1  1  0.666647  0.333293  0.143773  1
  Mo  Mo2  1  0.333305  0.666611  0.093898  1
  Mo  Mo3  1  0.333312  0.666623  0.469643  1
  W  W4  1  0.666688  0.333377  0.281792  1
  W  W5  1  0.666689  0.333377  0.657557  1
  Se  Se6  1  0.333358  0.666718  0.701545  1
  Se  Se7  1  0.666648  0.333296  0.425843  1
  Se  Se8  1  0.666649  0.333296  0.513483  1
  Se  Se9  1  0.333355  0.666710  0.613525  1
  S  S10  1  0.333352  0.666706  0.321847  1
  S  S11  1  0.333352  0.666706  0.241776  1
