# generated using pymatgen
data_SrCu(Si2O5)2
_symmetry_space_group_name_H-M   'P 1'
_cell_length_a   7.44542941
_cell_length_b   7.44542941
_cell_length_c   15.92885171
_cell_angle_alpha   90.00000000
_cell_angle_beta   90.00000000
_cell_angle_gamma   90.00000000
_symmetry_Int_Tables_number   1
_chemical_formula_structural   SrCu(Si2O5)2
_chemical_formula_sum   'Sr4 Si16 Cu4 O40'
_cell_volume   883.00664146
_cell_formula_units_Z   4
loop_
 _symmetry_equiv_pos_site_id
 _symmetry_equiv_pos_as_xyz
  1  'x, y, z'
loop_
 _atom_site_type_symbol
 _atom_site_label
 _atom_site_symmetry_multiplicity
 _atom_site_fract_x
 _atom_site_fract_y
 _atom_site_fract_z
 _atom_site_occupancy
  O  O0  1  0.013996  0.363810  0.587153  1
  O  O1  1  0.486004  0.136190  0.587153  1
  O  O2  1  0.863810  0.513996  0.912847  1
  O  O3  1  0.363810  0.486004  0.587153  1
  O  O4  1  0.136190  0.013996  0.587153  1
  O  O5  1  0.986004  0.863810  0.912847  1
  O  O6  1  0.513996  0.636190  0.912847  1
  O  O7  1  0.636190  0.986004  0.912847  1
  O  O8  1  0.986004  0.636190  0.412847  1
  O  O9  1  0.513996  0.863810  0.412847  1
  O  O10  1  0.136190  0.486004  0.087153  1
  O  O11  1  0.636190  0.513996  0.412847  1
  O  O12  1  0.863810  0.986004  0.412847  1
  O  O13  1  0.013996  0.136190  0.087153  1
  O  O14  1  0.486004  0.363810  0.087153  1
  O  O15  1  0.998686  0.287483  0.368593  1
  O  O16  1  0.363810  0.013996  0.087153  1
  O  O17  1  0.498686  0.787483  0.631407  1
  O  O18  1  0.212517  0.501314  0.868593  1
  O  O19  1  0.712517  0.498686  0.631407  1
  O  O20  1  0.787483  0.001314  0.631407  1
  O  O21  1  0.998686  0.212517  0.868593  1
  O  O22  1  0.501314  0.287483  0.868593  1
  O  O23  1  0.287483  0.998686  0.868593  1
  O  O24  1  0.465302  0.965302  0.250000  1
  O  O25  1  0.534698  0.465302  0.250000  1
  O  O26  1  0.965302  0.034698  0.250000  1
  O  O27  1  0.034698  0.534698  0.250000  1
  O  O28  1  0.534698  0.034698  0.750000  1
  O  O29  1  0.465302  0.534698  0.750000  1
  O  O30  1  0.034698  0.965302  0.750000  1
  O  O31  1  0.965302  0.465302  0.750000  1
  O  O32  1  0.712517  0.001314  0.131407  1
  O  O33  1  0.498686  0.712517  0.131407  1
  O  O34  1  0.001314  0.787483  0.131407  1
  O  O35  1  0.212517  0.998686  0.368593  1
  O  O36  1  0.287483  0.501314  0.368593  1
  O  O37  1  0.787483  0.498686  0.131407  1
  O  O38  1  0.501314  0.212517  0.368593  1
  O  O39  1  0.001314  0.712517  0.631407  1
  Si  Si40  1  0.930223  0.507636  0.651374  1
  Si  Si41  1  0.569777  0.992364  0.651374  1
  Si  Si42  1  0.007636  0.430223  0.848626  1
  Si  Si43  1  0.507636  0.569777  0.651374  1
  Si  Si44  1  0.992364  0.930223  0.651374  1
  Si  Si45  1  0.069777  0.007636  0.848626  1
  Si  Si46  1  0.430223  0.492364  0.848626  1
  Si  Si47  1  0.492364  0.069777  0.848626  1
  Si  Si48  1  0.069777  0.492364  0.348626  1
  Si  Si49  1  0.430223  0.007636  0.348626  1
  Si  Si50  1  0.992364  0.569777  0.151374  1
  Si  Si51  1  0.492364  0.430223  0.348626  1
  Si  Si52  1  0.007636  0.069777  0.348626  1
  Si  Si53  1  0.930223  0.992364  0.151374  1
  Si  Si54  1  0.569777  0.507636  0.151374  1
  Si  Si55  1  0.507636  0.930223  0.151374  1
  Cu  Cu56  1  0.250000  0.250000  0.590345  1
  Cu  Cu57  1  0.750000  0.750000  0.909655  1
  Cu  Cu58  1  0.750000  0.750000  0.409655  1
  Cu  Cu59  1  0.250000  0.250000  0.090345  1
  Sr  Sr60  1  0.250000  0.750000  0.500000  1
  Sr  Sr61  1  0.750000  0.250000  0.500000  1
  Sr  Sr62  1  0.750000  0.250000  0.000000  1
  Sr  Sr63  1  0.250000  0.750000  0.000000  1
