# generated using pymatgen
data_Te2Mo3W(Se2S)2
_symmetry_space_group_name_H-M   'P 1'
_cell_length_a   3.34364439
_cell_length_b   3.34365870
_cell_length_c   38.09537559
_cell_angle_alpha   89.99997935
_cell_angle_beta   90.00000000
_cell_angle_gamma   119.99985856
_symmetry_Int_Tables_number   1
_chemical_formula_structural   Te2Mo3W(Se2S)2
_chemical_formula_sum   'Te2 Mo3 W1 Se4 S2'
_cell_volume   368.84638653
_cell_formula_units_Z   1
loop_
 _symmetry_equiv_pos_site_id
 _symmetry_equiv_pos_as_xyz
  1  'x, y, z'
loop_
 _atom_site_type_symbol
 _atom_site_label
 _atom_site_symmetry_multiplicity
 _atom_site_fract_x
 _atom_site_fract_y
 _atom_site_fract_z
 _atom_site_occupancy
  Te  Te0  1  0.666653  0.333306  0.419915  1
  Te  Te1  1  0.666654  0.333307  0.519421  1
  Mo  Mo2  1  0.333308  0.666616  0.093938  1
  Mo  Mo3  1  0.333316  0.666633  0.469657  1
  Mo  Mo4  1  0.666690  0.333380  0.657574  1
  W  W5  1  0.666686  0.333372  0.281742  1
  Se  Se6  1  0.333348  0.666697  0.325740  1
  Se  Se7  1  0.333357  0.666715  0.701363  1
  Se  Se8  1  0.333348  0.666698  0.237754  1
  Se  Se9  1  0.333351  0.666702  0.613775  1
  S  S10  1  0.666635  0.333269  0.054123  1
  S  S11  1  0.666653  0.333305  0.133746  1
