# generated using pymatgen
data_Te2Mo(WSe2)3
_symmetry_space_group_name_H-M   'P 1'
_cell_length_a   3.37850978
_cell_length_b   3.37850715
_cell_length_c   38.53096034
_cell_angle_alpha   89.99960510
_cell_angle_beta   90.00000000
_cell_angle_gamma   120.00002575
_symmetry_Int_Tables_number   1
_chemical_formula_structural   Te2Mo(WSe2)3
_chemical_formula_sum   'Te2 Mo1 W3 Se6'
_cell_volume   380.88193543
_cell_formula_units_Z   1
loop_
 _symmetry_equiv_pos_site_id
 _symmetry_equiv_pos_as_xyz
  1  'x, y, z'
loop_
 _atom_site_type_symbol
 _atom_site_label
 _atom_site_symmetry_multiplicity
 _atom_site_fract_x
 _atom_site_fract_y
 _atom_site_fract_z
 _atom_site_occupancy
  Te  Te0  1  0.333362  0.666724  0.330592  1
  Te  Te1  1  0.333357  0.666715  0.233023  1
  Mo  Mo2  1  0.666691  0.333382  0.281795  1
  W  W3  1  0.333308  0.666617  0.093896  1
  W  W4  1  0.333312  0.666624  0.469681  1
  W  W5  1  0.666690  0.333380  0.657529  1
  Se  Se6  1  0.333354  0.666708  0.700672  1
  Se  Se7  1  0.666638  0.333274  0.050771  1
  Se  Se8  1  0.666639  0.333277  0.426549  1
  Se  Se9  1  0.666648  0.333296  0.137050  1
  Se  Se10  1  0.666650  0.333300  0.512802  1
  Se  Se11  1  0.333351  0.666703  0.614388  1
