# generated using pymatgen
data_LiScP2O7
_symmetry_space_group_name_H-M   'P 1'
_cell_length_a   5.01522908
_cell_length_b   7.11600232
_cell_length_c   8.52197514
_cell_angle_alpha   90.00000000
_cell_angle_beta   90.00000000
_cell_angle_gamma   108.91558209
_symmetry_Int_Tables_number   1
_chemical_formula_structural   LiScP2O7
_chemical_formula_sum   'Li2 Sc2 P4 O14'
_cell_volume   287.71134335
_cell_formula_units_Z   2
loop_
 _symmetry_equiv_pos_site_id
 _symmetry_equiv_pos_as_xyz
  1  'x, y, z'
loop_
 _atom_site_type_symbol
 _atom_site_label
 _atom_site_symmetry_multiplicity
 _atom_site_fract_x
 _atom_site_fract_y
 _atom_site_fract_z
 _atom_site_occupancy
  Li  Li0  1  0.816956  0.341113  0.353683  1
  Li  Li1  1  0.183044  0.658887  0.853683  1
  O  O2  1  0.035863  0.861253  0.330216  1
  O  O3  1  0.596142  0.762646  0.157784  1
  O  O4  1  0.403858  0.237354  0.657784  1
  O  O5  1  0.801765  0.505935  0.539238  1
  O  O6  1  0.198235  0.494065  0.039238  1
  O  O7  1  0.402016  0.592767  0.677054  1
  O  O8  1  0.855961  0.120718  0.202573  1
  O  O9  1  0.144039  0.879282  0.702573  1
  O  O10  1  0.597984  0.407233  0.177054  1
  O  O11  1  0.757859  0.484550  0.835886  1
  O  O12  1  0.593375  0.917836  0.429364  1
  O  O13  1  0.242141  0.515450  0.335886  1
  O  O14  1  0.406625  0.082164  0.929364  1
  O  O15  1  0.964137  0.138747  0.830216  1
  P  P16  1  0.401028  0.532597  0.179301  1
  P  P17  1  0.780303  0.919896  0.287095  1
  P  P18  1  0.219697  0.080104  0.787095  1
  P  P19  1  0.598972  0.467403  0.679301  1
  Sc  Sc20  1  0.788715  0.268234  0.000806  1
  Sc  Sc21  1  0.211285  0.731766  0.500806  1
