# generated using pymatgen
data_Na2Zn3Se4
_symmetry_space_group_name_H-M   'P 1'
_cell_length_a   6.04324346
_cell_length_b   9.11929737
_cell_length_c   9.11929775
_cell_angle_alpha   71.59765406
_cell_angle_beta   70.64965060
_cell_angle_gamma   70.64964758
_symmetry_Int_Tables_number   1
_chemical_formula_structural   Na2Zn3Se4
_chemical_formula_sum   'Na4 Zn6 Se8'
_cell_volume   435.25841294
_cell_formula_units_Z   2
loop_
 _symmetry_equiv_pos_site_id
 _symmetry_equiv_pos_as_xyz
  1  'x, y, z'
loop_
 _atom_site_type_symbol
 _atom_site_label
 _atom_site_symmetry_multiplicity
 _atom_site_fract_x
 _atom_site_fract_y
 _atom_site_fract_z
 _atom_site_occupancy
  Na  Na0  1  0.735402  0.625146  0.374854  1
  Na  Na1  1  0.264598  0.374854  0.625146  1
  Na  Na2  1  0.764598  0.125146  0.874854  1
  Na  Na3  1  0.235402  0.874854  0.125146  1
  Zn  Zn4  1  0.750000  0.750000  0.750000  1
  Zn  Zn5  1  0.250000  0.250000  0.250000  1
  Zn  Zn6  1  0.250000  0.972221  0.527779  1
  Zn  Zn7  1  0.250000  0.527779  0.972221  1
  Zn  Zn8  1  0.750000  0.027779  0.472221  1
  Zn  Zn9  1  0.750000  0.472221  0.027779  1
  Se  Se10  1  0.594204  0.006182  0.266353  1
  Se  Se11  1  0.133261  0.266353  0.006182  1
  Se  Se12  1  0.905796  0.233647  0.493818  1
  Se  Se13  1  0.366739  0.493818  0.233647  1
  Se  Se14  1  0.405796  0.993818  0.733647  1
  Se  Se15  1  0.866739  0.733647  0.993818  1
  Se  Se16  1  0.094204  0.766353  0.506182  1
  Se  Se17  1  0.633261  0.506182  0.766353  1
