# generated using pymatgen
data_BaSiO3
_symmetry_space_group_name_H-M   'P 1'
_cell_length_a   5.51827350
_cell_length_b   5.51827349
_cell_length_c   13.28025082
_cell_angle_alpha   90.00000000
_cell_angle_beta   90.00000000
_cell_angle_gamma   120.00000003
_symmetry_Int_Tables_number   1
_chemical_formula_structural   BaSiO3
_chemical_formula_sum   'Ba6 Si6 O18'
_cell_volume   350.22194171
_cell_formula_units_Z   6
loop_
 _symmetry_equiv_pos_site_id
 _symmetry_equiv_pos_as_xyz
  1  'x, y, z'
loop_
 _atom_site_type_symbol
 _atom_site_label
 _atom_site_symmetry_multiplicity
 _atom_site_fract_x
 _atom_site_fract_y
 _atom_site_fract_z
 _atom_site_occupancy
  O  O0  1  0.833408  0.166592  0.419941  1
  O  O1  1  0.833408  0.666817  0.419941  1
  O  O2  1  0.333183  0.166592  0.419941  1
  O  O3  1  0.666817  0.833408  0.919941  1
  O  O4  1  0.166592  0.333183  0.580059  1
  O  O5  1  0.166592  0.833408  0.919941  1
  O  O6  1  0.166592  0.333183  0.919941  1
  O  O7  1  0.833408  0.166592  0.080059  1
  O  O8  1  0.333183  0.166592  0.080059  1
  O  O9  1  0.666817  0.833408  0.580059  1
  O  O10  1  0.166592  0.833408  0.580059  1
  O  O11  1  0.833408  0.666817  0.080059  1
  O  O12  1  0.524818  0.049636  0.250000  1
  O  O13  1  0.475182  0.524818  0.750000  1
  O  O14  1  0.049636  0.524818  0.750000  1
  O  O15  1  0.950364  0.475182  0.250000  1
  O  O16  1  0.524818  0.475182  0.250000  1
  O  O17  1  0.475182  0.950364  0.750000  1
  Si  Si18  1  0.333333  0.666667  0.656236  1
  Si  Si19  1  0.666667  0.333333  0.156236  1
  Si  Si20  1  0.666667  0.333333  0.343764  1
  Si  Si21  1  0.333333  0.666667  0.843764  1
  Si  Si22  1  0.000000  0.000000  0.500000  1
  Si  Si23  1  0.000000  0.000000  0.000000  1
  Ba  Ba24  1  0.333333  0.666667  0.404819  1
  Ba  Ba25  1  0.666667  0.333333  0.904819  1
  Ba  Ba26  1  0.666667  0.333333  0.595181  1
  Ba  Ba27  1  0.333333  0.666667  0.095181  1
  Ba  Ba28  1  0.000000  0.000000  0.750000  1
  Ba  Ba29  1  0.000000  0.000000  0.250000  1
