# generated using pymatgen
data_SrGe2
_symmetry_space_group_name_H-M   'P 1'
_cell_length_a   6.59840190
_cell_length_b   8.89943678
_cell_length_c   11.23077356
_cell_angle_alpha   90.00000000
_cell_angle_beta   90.00000000
_cell_angle_gamma   90.00000000
_symmetry_Int_Tables_number   1
_chemical_formula_structural   SrGe2
_chemical_formula_sum   'Sr8 Ge16'
_cell_volume   659.49416510
_cell_formula_units_Z   8
loop_
 _symmetry_equiv_pos_site_id
 _symmetry_equiv_pos_as_xyz
  1  'x, y, z'
loop_
 _atom_site_type_symbol
 _atom_site_label
 _atom_site_symmetry_multiplicity
 _atom_site_fract_x
 _atom_site_fract_y
 _atom_site_fract_z
 _atom_site_occupancy
  Ge  Ge0  1  0.945551  0.305861  0.650443  1
  Ge  Ge1  1  0.445551  0.694139  0.349557  1
  Ge  Ge2  1  0.554449  0.805861  0.849557  1
  Ge  Ge3  1  0.054449  0.194139  0.150443  1
  Ge  Ge4  1  0.054449  0.694139  0.349557  1
  Ge  Ge5  1  0.554449  0.305861  0.650443  1
  Ge  Ge6  1  0.445551  0.194139  0.150443  1
  Ge  Ge7  1  0.945551  0.805861  0.849557  1
  Ge  Ge8  1  0.750000  0.563993  0.907482  1
  Ge  Ge9  1  0.250000  0.436007  0.092518  1
  Ge  Ge10  1  0.750000  0.063993  0.592518  1
  Ge  Ge11  1  0.250000  0.936007  0.407482  1
  Ge  Ge12  1  0.750000  0.801400  0.048180  1
  Ge  Ge13  1  0.250000  0.198600  0.951820  1
  Ge  Ge14  1  0.750000  0.301400  0.451820  1
  Ge  Ge15  1  0.250000  0.698600  0.548180  1
  Sr  Sr16  1  0.250000  0.351954  0.406784  1
  Sr  Sr17  1  0.750000  0.648046  0.593216  1
  Sr  Sr18  1  0.250000  0.851954  0.093216  1
  Sr  Sr19  1  0.750000  0.148046  0.906784  1
  Sr  Sr20  1  0.250000  0.515616  0.806300  1
  Sr  Sr21  1  0.750000  0.484384  0.193700  1
  Sr  Sr22  1  0.250000  0.015616  0.693700  1
  Sr  Sr23  1  0.750000  0.984384  0.306300  1
