# generated using pymatgen
data_K3SbO3
_symmetry_space_group_name_H-M   'P 1'
_cell_length_a   8.53006809
_cell_length_b   8.53006809
_cell_length_c   8.53006809
_cell_angle_alpha   90.00000000
_cell_angle_beta   90.00000000
_cell_angle_gamma   90.00000000
_symmetry_Int_Tables_number   1
_chemical_formula_structural   K3SbO3
_chemical_formula_sum   'K12 Sb4 O12'
_cell_volume   620.66533999
_cell_formula_units_Z   4
loop_
 _symmetry_equiv_pos_site_id
 _symmetry_equiv_pos_as_xyz
  1  'x, y, z'
loop_
 _atom_site_type_symbol
 _atom_site_label
 _atom_site_symmetry_multiplicity
 _atom_site_fract_x
 _atom_site_fract_y
 _atom_site_fract_z
 _atom_site_occupancy
  O  O0  1  0.495570  0.786035  0.941653  1
  O  O1  1  0.995570  0.713965  0.058347  1
  O  O2  1  0.504430  0.286035  0.558347  1
  O  O3  1  0.713965  0.058347  0.995570  1
  O  O4  1  0.786035  0.941653  0.495570  1
  O  O5  1  0.941653  0.495570  0.786035  1
  O  O6  1  0.286035  0.558347  0.504430  1
  O  O7  1  0.213965  0.441653  0.004430  1
  O  O8  1  0.441653  0.004430  0.213965  1
  O  O9  1  0.004430  0.213965  0.441653  1
  O  O10  1  0.558347  0.504430  0.286035  1
  O  O11  1  0.058347  0.995570  0.713965  1
  K  K12  1  0.019794  0.019794  0.019794  1
  K  K13  1  0.480206  0.980206  0.519794  1
  K  K14  1  0.519794  0.480206  0.980206  1
  K  K15  1  0.980206  0.519794  0.480206  1
  K  K16  1  0.217636  0.717636  0.782364  1
  K  K17  1  0.282364  0.282364  0.282364  1
  K  K18  1  0.213042  0.286958  0.713042  1
  K  K19  1  0.286958  0.713042  0.213042  1
  K  K20  1  0.713042  0.213042  0.286958  1
  K  K21  1  0.786958  0.786958  0.786958  1
  K  K22  1  0.717636  0.782364  0.217636  1
  K  K23  1  0.782364  0.217636  0.717636  1
  Sb  Sb24  1  0.487863  0.012137  0.987863  1
  Sb  Sb25  1  0.012137  0.987863  0.487863  1
  Sb  Sb26  1  0.987863  0.487863  0.012137  1
  Sb  Sb27  1  0.512137  0.512137  0.512137  1
