# generated using pymatgen
data_TlMo2(PO4)3
_symmetry_space_group_name_H-M   'P 1'
_cell_length_a   9.03054448
_cell_length_b   9.45025846
_cell_length_c   12.51052515
_cell_angle_alpha   90.00000000
_cell_angle_beta   90.00000000
_cell_angle_gamma   90.00000000
_symmetry_Int_Tables_number   1
_chemical_formula_structural   TlMo2(PO4)3
_chemical_formula_sum   'Tl4 Mo8 P12 O48'
_cell_volume   1067.66046874
_cell_formula_units_Z   4
loop_
 _symmetry_equiv_pos_site_id
 _symmetry_equiv_pos_as_xyz
  1  'x, y, z'
loop_
 _atom_site_type_symbol
 _atom_site_label
 _atom_site_symmetry_multiplicity
 _atom_site_fract_x
 _atom_site_fract_y
 _atom_site_fract_z
 _atom_site_occupancy
  O  O0  1  0.642015  0.589944  0.750000  1
  O  O1  1  0.642015  0.910056  0.250000  1
  O  O2  1  0.357985  0.089944  0.750000  1
  O  O3  1  0.357985  0.410056  0.250000  1
  O  O4  1  0.065091  0.161181  0.421079  1
  O  O5  1  0.065091  0.338819  0.578921  1
  O  O6  1  0.934909  0.661181  0.078921  1
  O  O7  1  0.934909  0.838819  0.921079  1
  O  O8  1  0.934909  0.838819  0.578921  1
  O  O9  1  0.934909  0.661181  0.421079  1
  O  O10  1  0.065091  0.338819  0.921079  1
  O  O11  1  0.065091  0.161181  0.078921  1
  O  O12  1  0.429914  0.895914  0.384140  1
  O  O13  1  0.429914  0.604086  0.615860  1
  O  O14  1  0.570086  0.395914  0.115860  1
  O  O15  1  0.570086  0.104086  0.884140  1
  O  O16  1  0.570086  0.104086  0.615860  1
  O  O17  1  0.613299  0.797436  0.621896  1
  O  O18  1  0.570086  0.395914  0.384140  1
  O  O19  1  0.429914  0.895914  0.115860  1
  O  O20  1  0.386701  0.202564  0.378104  1
  O  O21  1  0.386701  0.297436  0.621896  1
  O  O22  1  0.613299  0.702564  0.121896  1
  O  O23  1  0.613299  0.797436  0.878104  1
  O  O24  1  0.212956  0.018597  0.250000  1
  O  O25  1  0.212956  0.481403  0.750000  1
  O  O26  1  0.787044  0.518597  0.250000  1
  O  O27  1  0.787044  0.981403  0.750000  1
  O  O28  1  0.125902  0.846593  0.070449  1
  O  O29  1  0.125902  0.653407  0.929551  1
  O  O30  1  0.874098  0.346593  0.429551  1
  O  O31  1  0.874098  0.153407  0.570449  1
  O  O32  1  0.874098  0.153407  0.929551  1
  O  O33  1  0.874098  0.346593  0.070449  1
  O  O34  1  0.125902  0.653407  0.570449  1
  O  O35  1  0.125902  0.846593  0.429551  1
  O  O36  1  0.300110  0.049485  0.937513  1
  O  O37  1  0.300110  0.450515  0.062487  1
  O  O38  1  0.699890  0.549485  0.562487  1
  O  O39  1  0.699890  0.950515  0.437513  1
  O  O40  1  0.699890  0.950515  0.062487  1
  O  O41  1  0.699890  0.549485  0.937513  1
  O  O42  1  0.300110  0.450515  0.437513  1
  O  O43  1  0.300110  0.049485  0.562487  1
  O  O44  1  0.386701  0.202564  0.121896  1
  O  O45  1  0.386701  0.297436  0.878104  1
  O  O46  1  0.613299  0.702564  0.378104  1
  O  O47  1  0.429914  0.604086  0.884140  1
  P  P48  1  0.407456  0.361801  0.369689  1
  P  P49  1  0.407456  0.138199  0.630311  1
  P  P50  1  0.592544  0.861801  0.130311  1
  P  P51  1  0.592544  0.638199  0.869689  1
  P  P52  1  0.592544  0.638199  0.630311  1
  P  P53  1  0.592544  0.861801  0.369689  1
  P  P54  1  0.407456  0.138199  0.869689  1
  P  P55  1  0.407456  0.361801  0.130311  1
  P  P56  1  0.972027  0.250000  0.500000  1
  P  P57  1  0.972027  0.250000  0.000000  1
  P  P58  1  0.027973  0.750000  0.500000  1
  P  P59  1  0.027973  0.750000  0.000000  1
  Mo  Mo60  1  0.752091  0.969995  0.899828  1
  Mo  Mo61  1  0.247909  0.469995  0.899828  1
  Mo  Mo62  1  0.752091  0.530005  0.399828  1
  Mo  Mo63  1  0.752091  0.969995  0.600172  1
  Mo  Mo64  1  0.247909  0.030005  0.399828  1
  Mo  Mo65  1  0.247909  0.469995  0.600172  1
  Mo  Mo66  1  0.752091  0.530005  0.100172  1
  Mo  Mo67  1  0.247909  0.030005  0.100172  1
  Tl  Tl68  1  0.830572  0.163595  0.250000  1
  Tl  Tl69  1  0.830572  0.336405  0.750000  1
  Tl  Tl70  1  0.169428  0.663595  0.250000  1
  Tl  Tl71  1  0.169428  0.836405  0.750000  1
