# generated using pymatgen
data_Na5Tb(WO4)4
_symmetry_space_group_name_H-M   'P 1'
_cell_length_a   10.04482907
_cell_length_b   10.04482907
_cell_length_c   10.04482907
_cell_angle_alpha   108.97270055
_cell_angle_beta   108.97270053
_cell_angle_gamma   110.47292861
_symmetry_Int_Tables_number   1
_chemical_formula_structural   Na5Tb(WO4)4
_chemical_formula_sum   'Na10 Tb2 W8 O32'
_cell_volume   780.02045418
_cell_formula_units_Z   2
loop_
 _symmetry_equiv_pos_site_id
 _symmetry_equiv_pos_as_xyz
  1  'x, y, z'
loop_
 _atom_site_type_symbol
 _atom_site_label
 _atom_site_symmetry_multiplicity
 _atom_site_fract_x
 _atom_site_fract_y
 _atom_site_fract_z
 _atom_site_occupancy
  O  O0  1  0.521060  0.013043  0.152783  1
  O  O1  1  0.513042  0.860259  0.491982  1
  O  O2  1  0.868277  0.021060  0.008018  1
  O  O3  1  0.360260  0.368278  0.347217  1
  O  O4  1  0.478940  0.986958  0.847217  1
  O  O5  1  0.486958  0.139741  0.508018  1
  O  O6  1  0.131723  0.978940  0.991983  1
  O  O7  1  0.639741  0.631723  0.652783  1
  O  O8  1  0.575217  0.772661  0.924380  1
  O  O9  1  0.272660  0.848280  0.197444  1
  O  O10  1  0.150836  0.075216  0.302556  1
  O  O11  1  0.348281  0.650836  0.575620  1
  O  O12  1  0.424784  0.227339  0.075619  1
  O  O13  1  0.727340  0.151720  0.802556  1
  O  O14  1  0.849164  0.924783  0.697444  1
  O  O15  1  0.651720  0.349164  0.424381  1
  O  O16  1  0.243438  0.670777  0.868139  1
  O  O17  1  0.170778  0.802639  0.427340  1
  O  O18  1  0.875300  0.743439  0.072661  1
  O  O19  1  0.302640  0.375300  0.631861  1
  O  O20  1  0.947095  0.663846  0.648537  1
  O  O21  1  0.163847  0.015310  0.716752  1
  O  O22  1  0.798557  0.447095  0.783248  1
  O  O23  1  0.515309  0.298557  0.851463  1
  O  O24  1  0.052906  0.336153  0.351463  1
  O  O25  1  0.836154  0.984691  0.283248  1
  O  O26  1  0.756561  0.329222  0.131861  1
  O  O27  1  0.484690  0.701442  0.148536  1
  O  O28  1  0.697361  0.624700  0.368139  1
  O  O29  1  0.124700  0.256562  0.927340  1
  O  O30  1  0.829223  0.197361  0.572661  1
  O  O31  1  0.201442  0.552906  0.216752  1
  Na  Na32  1  0.200908  0.775952  0.664422  1
  Na  Na33  1  0.275951  0.111529  0.575043  1
  Na  Na34  1  0.036486  0.700908  0.924957  1
  Na  Na35  1  0.611529  0.536486  0.835578  1
  Na  Na36  1  0.799091  0.224049  0.335577  1
  Na  Na37  1  0.875000  0.625000  0.250000  1
  Na  Na38  1  0.963513  0.299092  0.075043  1
  Na  Na39  1  0.388471  0.463514  0.164422  1
  Na  Na40  1  0.125000  0.375000  0.750000  1
  Na  Na41  1  0.724048  0.888471  0.424957  1
  Tb  Tb42  1  0.375000  0.125000  0.250000  1
  Tb  Tb43  1  0.625000  0.875001  0.750001  1
  W  W44  1  0.456570  0.796725  0.026337  1
  W  W45  1  0.296725  0.770388  0.340155  1
  W  W46  1  0.930233  0.956570  0.159845  1
  W  W47  1  0.270388  0.430233  0.473663  1
  W  W48  1  0.543430  0.203276  0.973663  1
  W  W49  1  0.703275  0.229612  0.659845  1
  W  W50  1  0.069767  0.043431  0.840155  1
  W  W51  1  0.729612  0.569767  0.526337  1
