# generated using pymatgen
data_BaZnSnS4
_symmetry_space_group_name_H-M   'P 1'
_cell_length_a   12.61563231
_cell_length_b   12.61563231
_cell_length_c   12.91352909
_cell_angle_alpha   104.69545253
_cell_angle_beta   104.69545249
_cell_angle_gamma   118.72833048
_symmetry_Int_Tables_number   1
_chemical_formula_structural   BaZnSnS4
_chemical_formula_sum   'Ba8 Zn8 Sn8 S32'
_cell_volume   1563.05976459
_cell_formula_units_Z   8
loop_
 _symmetry_equiv_pos_site_id
 _symmetry_equiv_pos_as_xyz
  1  'x, y, z'
loop_
 _atom_site_type_symbol
 _atom_site_label
 _atom_site_symmetry_multiplicity
 _atom_site_fract_x
 _atom_site_fract_y
 _atom_site_fract_z
 _atom_site_occupancy
  S  S0  1  0.451941  0.202292  0.411271  1
  S  S1  1  0.791021  0.040669  0.588729  1
  S  S2  1  0.952292  0.701941  0.911271  1
  S  S3  1  0.790669  0.041021  0.088729  1
  S  S4  1  0.454056  0.204424  0.910758  1
  S  S5  1  0.293666  0.543297  0.089242  1
  S  S6  1  0.954424  0.704056  0.410758  1
  S  S7  1  0.293297  0.543666  0.589242  1
  S  S8  1  0.186841  0.781330  0.248056  1
  S  S9  1  0.533274  0.938785  0.751944  1
  S  S10  1  0.531330  0.436841  0.748056  1
  S  S11  1  0.688785  0.783274  0.251944  1
  S  S12  1  0.222080  0.284962  0.248403  1
  S  S13  1  0.036559  0.973677  0.751597  1
  S  S14  1  0.034962  0.472080  0.748403  1
  S  S15  1  0.723677  0.286559  0.251597  1
  S  S16  1  0.066547  0.467618  0.248439  1
  S  S17  1  0.219179  0.818108  0.751561  1
  S  S18  1  0.217618  0.316547  0.748439  1
  S  S19  1  0.568108  0.469179  0.251561  1
  S  S20  1  0.016987  0.964009  0.248183  1
  S  S21  1  0.715826  0.768804  0.751817  1
  S  S22  1  0.714009  0.266987  0.748183  1
  S  S23  1  0.518804  0.965826  0.251817  1
  S  S24  1  0.453277  0.701568  0.411511  1
  S  S25  1  0.290057  0.041766  0.588489  1
  S  S26  1  0.451568  0.703277  0.911511  1
  S  S27  1  0.791766  0.540057  0.088489  1
  S  S28  1  0.291906  0.042564  0.088160  1
  S  S29  1  0.954404  0.203746  0.911840  1
  S  S30  1  0.792564  0.541906  0.588160  1
  S  S31  1  0.953746  0.204404  0.411840  1
  Zn  Zn32  1  0.336719  0.982640  0.249480  1
  Zn  Zn33  1  0.837239  0.983160  0.250520  1
  Zn  Zn34  1  0.732640  0.586719  0.749480  1
  Zn  Zn35  1  0.733160  0.087239  0.750520  1
  Zn  Zn36  1  0.265043  0.485743  0.249468  1
  Zn  Zn37  1  0.236275  0.015575  0.750532  1
  Zn  Zn38  1  0.235743  0.515043  0.749468  1
  Zn  Zn39  1  0.765575  0.486275  0.250532  1
  Sn  Sn40  1  0.904820  0.263882  0.249832  1
  Sn  Sn41  1  0.984126  0.760163  0.248533  1
  Sn  Sn42  1  0.485593  0.761630  0.251467  1
  Sn  Sn43  1  0.510163  0.234126  0.748533  1
  Sn  Sn44  1  0.014050  0.654988  0.750168  1
  Sn  Sn45  1  0.404988  0.264050  0.250168  1
  Sn  Sn46  1  0.013882  0.154820  0.749832  1
  Sn  Sn47  1  0.511630  0.735593  0.751467  1
  Ba  Ba48  1  0.246044  0.247568  0.496745  1
  Ba  Ba49  1  0.750823  0.749299  0.503255  1
  Ba  Ba50  1  0.997568  0.496044  0.996745  1
  Ba  Ba51  1  0.499299  0.000823  0.003255  1
  Ba  Ba52  1  0.249767  0.749767  0.500000  1
  Ba  Ba53  1  0.499767  0.499767  0.000000  1
  Ba  Ba54  1  0.747322  0.247322  0.500000  1
  Ba  Ba55  1  0.997322  0.997322  0.000000  1
