# generated using pymatgen
data_KCdC3(NO)3
_symmetry_space_group_name_H-M   'P 1'
_cell_length_a   3.73366192
_cell_length_b   10.11600367
_cell_length_c   18.60877235
_cell_angle_alpha   90.00000000
_cell_angle_beta   90.00000000
_cell_angle_gamma   90.00000000
_symmetry_Int_Tables_number   1
_chemical_formula_structural   KCdC3(NO)3
_chemical_formula_sum   'K4 Cd4 C12 N12 O12'
_cell_volume   702.84845030
_cell_formula_units_Z   4
loop_
 _symmetry_equiv_pos_site_id
 _symmetry_equiv_pos_as_xyz
  1  'x, y, z'
loop_
 _atom_site_type_symbol
 _atom_site_label
 _atom_site_symmetry_multiplicity
 _atom_site_fract_x
 _atom_site_fract_y
 _atom_site_fract_z
 _atom_site_occupancy
  K  K0  1  0.750000  0.429927  0.164393  1
  K  K1  1  0.250000  0.070073  0.664393  1
  K  K2  1  0.250000  0.570073  0.835607  1
  K  K3  1  0.750000  0.929927  0.335607  1
  Cd  Cd4  1  0.250000  0.636739  0.456038  1
  Cd  Cd5  1  0.250000  0.136739  0.043962  1
  Cd  Cd6  1  0.750000  0.363261  0.543962  1
  Cd  Cd7  1  0.750000  0.863261  0.956038  1
  C  C8  1  0.750000  0.864392  0.529185  1
  C  C9  1  0.250000  0.585854  0.624562  1
  C  C10  1  0.750000  0.852020  0.787823  1
  C  C11  1  0.250000  0.085854  0.875438  1
  C  C12  1  0.750000  0.914146  0.124562  1
  C  C13  1  0.250000  0.647980  0.287823  1
  C  C14  1  0.750000  0.364392  0.970815  1
  C  C15  1  0.750000  0.414146  0.375438  1
  C  C16  1  0.250000  0.147980  0.212177  1
  C  C17  1  0.750000  0.352020  0.712177  1
  C  C18  1  0.250000  0.135608  0.470815  1
  C  C19  1  0.250000  0.635608  0.029185  1
  N  N20  1  0.750000  0.975849  0.068322  1
  N  N21  1  0.250000  0.214646  0.158602  1
  N  N22  1  0.250000  0.024151  0.931678  1
  N  N23  1  0.750000  0.475849  0.431678  1
  N  N24  1  0.750000  0.768046  0.490833  1
  N  N25  1  0.250000  0.524151  0.568322  1
  N  N26  1  0.250000  0.231954  0.509167  1
  N  N27  1  0.750000  0.785354  0.841398  1
  N  N28  1  0.750000  0.285354  0.658602  1
  N  N29  1  0.250000  0.731954  0.990833  1
  N  N30  1  0.750000  0.268046  0.009167  1
  N  N31  1  0.250000  0.714646  0.341398  1
  O  O32  1  0.750000  0.960793  0.567179  1
  O  O33  1  0.250000  0.083315  0.266776  1
  O  O34  1  0.250000  0.646935  0.679494  1
  O  O35  1  0.750000  0.460793  0.932821  1
  O  O36  1  0.250000  0.146935  0.820506  1
  O  O37  1  0.250000  0.583315  0.233224  1
  O  O38  1  0.250000  0.039207  0.432821  1
  O  O39  1  0.750000  0.853065  0.179494  1
  O  O40  1  0.750000  0.353065  0.320506  1
  O  O41  1  0.750000  0.916685  0.733224  1
  O  O42  1  0.750000  0.416685  0.766776  1
  O  O43  1  0.250000  0.539207  0.067179  1
