# generated using pymatgen
data_Sr3Sc(BO3)3
_symmetry_space_group_name_H-M   'P 1'
_cell_length_a   7.73694598
_cell_length_b   7.73694598
_cell_length_c   7.73694598
_cell_angle_alpha   105.05803166
_cell_angle_beta   105.05803167
_cell_angle_gamma   105.05803167
_symmetry_Int_Tables_number   1
_chemical_formula_structural   Sr3Sc(BO3)3
_chemical_formula_sum   'Sr6 Sc2 B6 O18'
_cell_volume   404.40204038
_cell_formula_units_Z   2
loop_
 _symmetry_equiv_pos_site_id
 _symmetry_equiv_pos_as_xyz
  1  'x, y, z'
loop_
 _atom_site_type_symbol
 _atom_site_label
 _atom_site_symmetry_multiplicity
 _atom_site_fract_x
 _atom_site_fract_y
 _atom_site_fract_z
 _atom_site_occupancy
  B  B0  1  0.041315  0.288201  0.372590  1
  B  B1  1  0.288201  0.372590  0.041315  1
  B  B2  1  0.372590  0.041315  0.288201  1
  B  B3  1  0.711799  0.627410  0.958685  1
  B  B4  1  0.627410  0.958685  0.711799  1
  B  B5  1  0.958685  0.711799  0.627410  1
  O  O6  1  0.256214  0.176840  0.981824  1
  O  O7  1  0.176840  0.981824  0.256214  1
  O  O8  1  0.190579  0.450754  0.926748  1
  O  O9  1  0.926748  0.190579  0.450754  1
  O  O10  1  0.450754  0.926748  0.190579  1
  O  O11  1  0.549246  0.073252  0.809422  1
  O  O12  1  0.809422  0.549246  0.073252  1
  O  O13  1  0.073252  0.809422  0.549246  1
  O  O14  1  0.431663  0.491873  0.216248  1
  O  O15  1  0.216248  0.431663  0.491873  1
  O  O16  1  0.491873  0.216248  0.431663  1
  O  O17  1  0.568337  0.508127  0.783752  1
  O  O18  1  0.783752  0.568337  0.508127  1
  O  O19  1  0.508127  0.783752  0.568337  1
  O  O20  1  0.018176  0.743786  0.823160  1
  O  O21  1  0.823160  0.018176  0.743786  1
  O  O22  1  0.743786  0.823160  0.018176  1
  O  O23  1  0.981824  0.256214  0.176840  1
  Sc  Sc24  1  0.000000  0.000000  0.000000  1
  Sc  Sc25  1  0.500000  0.500000  0.500000  1
  Sr  Sr26  1  0.262510  0.159841  0.650521  1
  Sr  Sr27  1  0.159841  0.650521  0.262510  1
  Sr  Sr28  1  0.650521  0.262510  0.159841  1
  Sr  Sr29  1  0.737490  0.840159  0.349479  1
  Sr  Sr30  1  0.840159  0.349479  0.737490  1
  Sr  Sr31  1  0.349479  0.737490  0.840159  1
