# generated using pymatgen
data_Ho2Re2Si2C
_symmetry_space_group_name_H-M   'P 1'
_cell_length_a   3.98349421
_cell_length_b   5.81395585
_cell_length_c   5.97049604
_cell_angle_alpha   71.80546835
_cell_angle_beta   70.51267842
_cell_angle_gamma   69.96583802
_symmetry_Int_Tables_number   1
_chemical_formula_structural   Ho2Re2Si2C
_chemical_formula_sum   'Ho2 Re2 Si2 C1'
_cell_volume   119.36847183
_cell_formula_units_Z   1
loop_
 _symmetry_equiv_pos_site_id
 _symmetry_equiv_pos_as_xyz
  1  'x, y, z'
loop_
 _atom_site_type_symbol
 _atom_site_label
 _atom_site_symmetry_multiplicity
 _atom_site_fract_x
 _atom_site_fract_y
 _atom_site_fract_z
 _atom_site_occupancy
  Ho  Ho0  1  0.427989  0.844816  0.299205  1
  Ho  Ho1  1  0.572011  0.155184  0.700795  1
  Re  Re2  1  0.792421  0.321931  0.093227  1
  Re  Re3  1  0.207579  0.678068  0.906773  1
  Si  Si4  1  0.858306  0.602832  0.680557  1
  Si  Si5  1  0.141694  0.397168  0.319443  1
  C  C6  1  -0.000000  0.000000  -0.000000  1
