# generated using pymatgen
data_K2SiF6
_symmetry_space_group_name_H-M   'P 1'
_cell_length_a   5.74107918
_cell_length_b   5.74107918
_cell_length_c   9.41976954
_cell_angle_alpha   90.00000000
_cell_angle_beta   90.00000000
_cell_angle_gamma   119.99999998
_symmetry_Int_Tables_number   1
_chemical_formula_structural   K2SiF6
_chemical_formula_sum   'K4 Si2 F12'
_cell_volume   268.87968028
_cell_formula_units_Z   2
loop_
 _symmetry_equiv_pos_site_id
 _symmetry_equiv_pos_as_xyz
  1  'x, y, z'
loop_
 _atom_site_type_symbol
 _atom_site_label
 _atom_site_symmetry_multiplicity
 _atom_site_fract_x
 _atom_site_fract_y
 _atom_site_fract_z
 _atom_site_occupancy
  F  F0  1  0.948037  0.474018  0.368780  1
  F  F1  1  0.474018  0.948037  0.868780  1
  F  F2  1  0.474018  0.525982  0.868780  1
  F  F3  1  0.525982  0.474018  0.368780  1
  F  F4  1  0.525982  0.051963  0.368780  1
  F  F5  1  0.051963  0.525982  0.868780  1
  F  F6  1  0.619320  0.809660  0.078307  1
  F  F7  1  0.809660  0.619320  0.578307  1
  F  F8  1  0.809660  0.190340  0.578307  1
  F  F9  1  0.190340  0.809660  0.078307  1
  F  F10  1  0.190340  0.380680  0.078307  1
  F  F11  1  0.380680  0.190340  0.578307  1
  Si  Si12  1  0.666667  0.333333  0.475654  1
  Si  Si13  1  0.333333  0.666667  0.975654  1
  K  K14  1  0.000000  0.000000  0.312370  1
  K  K15  1  0.000000  0.000000  0.812370  1
  K  K16  1  0.333333  0.666667  0.591655  1
  K  K17  1  0.666667  0.333333  0.091655  1
