# generated using pymatgen
data_Te2MoW3(Se2S)2
_symmetry_space_group_name_H-M   'P 1'
_cell_length_a   3.34538061
_cell_length_b   3.34536222
_cell_length_c   38.12395770
_cell_angle_alpha   89.99997134
_cell_angle_beta   90.00000000
_cell_angle_gamma   120.00018191
_symmetry_Int_Tables_number   1
_chemical_formula_structural   Te2MoW3(Se2S)2
_chemical_formula_sum   'Te2 Mo1 W3 Se4 S2'
_cell_volume   369.50174906
_cell_formula_units_Z   1
loop_
 _symmetry_equiv_pos_site_id
 _symmetry_equiv_pos_as_xyz
  1  'x, y, z'
loop_
 _atom_site_type_symbol
 _atom_site_label
 _atom_site_symmetry_multiplicity
 _atom_site_fract_x
 _atom_site_fract_y
 _atom_site_fract_z
 _atom_site_occupancy
  Te  Te0  1  0.333351  0.666702  0.707605  1
  Te  Te1  1  0.333355  0.666711  0.607553  1
  Mo  Mo2  1  0.666672  0.333345  0.281787  1
  W  W3  1  0.333312  0.666624  0.093912  1
  W  W4  1  0.333308  0.666616  0.469622  1
  W  W5  1  0.666688  0.333377  0.657608  1
  Se  Se6  1  0.666647  0.333294  0.049973  1
  Se  Se7  1  0.666634  0.333268  0.425677  1
  Se  Se8  1  0.666647  0.333294  0.137859  1
  Se  Se9  1  0.666649  0.333297  0.513578  1
  S  S10  1  0.333368  0.666736  0.321583  1
  S  S11  1  0.333368  0.666738  0.241991  1
