# generated using pymatgen
data_Zn3(AsO4)2
_symmetry_space_group_name_H-M   'P 1'
_cell_length_a   5.33991208
_cell_length_b   7.94616956
_cell_length_c   8.66666112
_cell_angle_alpha   90.00000000
_cell_angle_beta   90.00000000
_cell_angle_gamma   96.76286606
_symmetry_Int_Tables_number   1
_chemical_formula_structural   Zn3(AsO4)2
_chemical_formula_sum   'Zn6 As4 O16'
_cell_volume   365.18369944
_cell_formula_units_Z   2
loop_
 _symmetry_equiv_pos_site_id
 _symmetry_equiv_pos_as_xyz
  1  'x, y, z'
loop_
 _atom_site_type_symbol
 _atom_site_label
 _atom_site_symmetry_multiplicity
 _atom_site_fract_x
 _atom_site_fract_y
 _atom_site_fract_z
 _atom_site_occupancy
  O  O0  1  0.429580  0.135552  0.933737  1
  O  O1  1  0.070419  0.364448  0.433737  1
  O  O2  1  0.570419  0.864448  0.066263  1
  O  O3  1  0.929581  0.635552  0.566263  1
  O  O4  1  0.169263  0.381545  0.804322  1
  O  O5  1  0.330737  0.118455  0.304322  1
  O  O6  1  0.830737  0.618455  0.195678  1
  O  O7  1  0.669263  0.881545  0.695678  1
  O  O8  1  0.688269  0.464535  0.863307  1
  O  O9  1  0.811731  0.035465  0.363307  1
  O  O10  1  0.073977  0.746558  0.868213  1
  O  O11  1  0.426023  0.753442  0.368213  1
  O  O12  1  0.926023  0.253442  0.131787  1
  O  O13  1  0.573977  0.246558  0.631787  1
  O  O14  1  0.188269  0.964535  0.636693  1
  O  O15  1  0.311731  0.535465  0.136693  1
  Zn  Zn16  1  0.411421  0.890494  0.859550  1
  Zn  Zn17  1  0.088579  0.609506  0.359550  1
  Zn  Zn18  1  0.588579  0.109506  0.140450  1
  Zn  Zn19  1  0.911421  0.390494  0.640450  1
  Zn  Zn20  1  0.000000  0.500000  0.000000  1
  Zn  Zn21  1  0.500000  0.000000  0.500000  1
  As  As22  1  0.958328  0.806103  0.691110  1
  As  As23  1  0.541672  0.693897  0.191110  1
  As  As24  1  0.041672  0.193897  0.308890  1
  As  As25  1  0.458328  0.306103  0.808890  1
