# generated using pymatgen
data_Te2MoWS2
_symmetry_space_group_name_H-M   'P 1'
_cell_length_a   3.35497830
_cell_length_b   3.35499906
_cell_length_c   38.57229831
_cell_angle_alpha   90.00042861
_cell_angle_beta   90.00000000
_cell_angle_gamma   119.99979530
_symmetry_Int_Tables_number   1
_chemical_formula_structural   Te2MoWS2
_chemical_formula_sum   'Te4 Mo2 W2 S4'
_cell_volume   376.00114102
_cell_formula_units_Z   2
loop_
 _symmetry_equiv_pos_site_id
 _symmetry_equiv_pos_as_xyz
  1  'x, y, z'
loop_
 _atom_site_type_symbol
 _atom_site_label
 _atom_site_symmetry_multiplicity
 _atom_site_fract_x
 _atom_site_fract_y
 _atom_site_fract_z
 _atom_site_occupancy
  Te  Te0  1  0.333359  0.666719  0.330579  1
  Te  Te1  1  0.666641  0.333281  0.420879  1
  Te  Te2  1  0.666646  0.333290  0.518895  1
  Te  Te3  1  0.333354  0.666710  0.232564  1
  Mo  Mo4  1  0.333314  0.666629  0.469906  1
  Mo  Mo5  1  0.666686  0.333371  0.281552  1
  W  W6  1  0.333310  0.666621  0.093915  1
  W  W7  1  0.666690  0.333379  0.657543  1
  S  S8  1  0.333358  0.666718  0.696915  1
  S  S9  1  0.666642  0.333282  0.054543  1
  S  S10  1  0.666646  0.333292  0.133305  1
  S  S11  1  0.333354  0.666708  0.618153  1
