# generated using pymatgen
data_NaMgF3
_symmetry_space_group_name_H-M   'P 1'
_cell_length_a   3.04839812
_cell_length_b   5.27970271
_cell_length_c   7.51050953
_cell_angle_alpha   90.00000000
_cell_angle_beta   90.00000000
_cell_angle_gamma   106.77956358
_symmetry_Int_Tables_number   1
_chemical_formula_structural   NaMgF3
_chemical_formula_sum   'Na2 Mg2 F6'
_cell_volume   115.73219712
_cell_formula_units_Z   2
loop_
 _symmetry_equiv_pos_site_id
 _symmetry_equiv_pos_as_xyz
  1  'x, y, z'
loop_
 _atom_site_type_symbol
 _atom_site_label
 _atom_site_symmetry_multiplicity
 _atom_site_fract_x
 _atom_site_fract_y
 _atom_site_fract_z
 _atom_site_occupancy
  Na  Na0  1  0.256471  0.512942  0.750000  1
  Na  Na1  1  0.743529  0.487058  0.250000  1
  Mg  Mg2  1  0.000000  0.000000  0.500000  1
  Mg  Mg3  1  0.000000  0.000000  0.000000  1
  F  F4  1  0.373649  0.747298  0.445160  1
  F  F5  1  0.626351  0.252702  0.945160  1
  F  F6  1  0.373649  0.747298  0.054840  1
  F  F7  1  0.626351  0.252702  0.554840  1
  F  F8  1  0.068109  0.136217  0.250000  1
  F  F9  1  0.931891  0.863783  0.750000  1
