# generated using pymatgen
data_Te2W2SeS
_symmetry_space_group_name_H-M   'P 1'
_cell_length_a   3.39840408
_cell_length_b   3.39842259
_cell_length_c   39.08121730
_cell_angle_alpha   90.00207252
_cell_angle_beta   90.00000000
_cell_angle_gamma   119.99981981
_symmetry_Int_Tables_number   1
_chemical_formula_structural   Te2W2SeS
_chemical_formula_sum   'Te4 W4 Se2 S2'
_cell_volume   390.88760663
_cell_formula_units_Z   2
loop_
 _symmetry_equiv_pos_site_id
 _symmetry_equiv_pos_as_xyz
  1  'x, y, z'
loop_
 _atom_site_type_symbol
 _atom_site_label
 _atom_site_symmetry_multiplicity
 _atom_site_fract_x
 _atom_site_fract_y
 _atom_site_fract_z
 _atom_site_occupancy
  Te  Te0  1  0.333317  0.666635  0.329756  1
  Te  Te1  1  0.666636  0.333272  0.421649  1
  Te  Te2  1  0.666620  0.333239  0.518009  1
  Te  Te3  1  0.333325  0.666651  0.233406  1
  W  W4  1  0.333292  0.666585  0.093905  1
  W  W5  1  0.333291  0.666582  0.469858  1
  W  W6  1  0.666651  0.333302  0.281557  1
  W  W7  1  0.666764  0.333528  0.657603  1
  Se  Se8  1  0.333454  0.666909  0.699940  1
  Se  Se9  1  0.333393  0.666788  0.615219  1
  S  S10  1  0.666625  0.333249  0.055376  1
  S  S11  1  0.666631  0.333262  0.132471  1
