# generated using pymatgen
data_Lu2Co3Si5
_symmetry_space_group_name_H-M   'P 1'
_cell_length_a   5.43011823
_cell_length_b   7.77345048
_cell_length_c   7.77345048
_cell_angle_alpha   93.73691046
_cell_angle_beta   108.91656927
_cell_angle_gamma   108.91656925
_symmetry_Int_Tables_number   1
_chemical_formula_structural   Lu2Co3Si5
_chemical_formula_sum   'Lu4 Co6 Si10'
_cell_volume   288.27315328
_cell_formula_units_Z   2
loop_
 _symmetry_equiv_pos_site_id
 _symmetry_equiv_pos_as_xyz
  1  'x, y, z'
loop_
 _atom_site_type_symbol
 _atom_site_label
 _atom_site_symmetry_multiplicity
 _atom_site_fract_x
 _atom_site_fract_y
 _atom_site_fract_z
 _atom_site_occupancy
  Si  Si0  1  0.250000  0.772958  0.227042  1
  Si  Si1  1  0.750000  0.227042  0.772958  1
  Si  Si2  1  0.250000  0.511772  0.488228  1
  Si  Si3  1  0.750000  0.488228  0.511772  1
  Si  Si4  1  0.250000  0.211986  0.788014  1
  Si  Si5  1  0.750000  0.788014  0.211986  1
  Si  Si6  1  0.166828  0.068074  0.263667  1
  Si  Si7  1  0.666828  0.263667  0.068074  1
  Si  Si8  1  0.833172  0.931926  0.736333  1
  Si  Si9  1  0.333172  0.736333  0.931926  1
  Co  Co10  1  0.750000  0.996916  0.003084  1
  Co  Co11  1  0.625962  0.737716  0.458800  1
  Co  Co12  1  0.125963  0.458800  0.737716  1
  Co  Co13  1  0.374038  0.262284  0.541200  1
  Co  Co14  1  0.250000  0.003084  0.996916  1
  Co  Co15  1  0.874038  0.541200  0.262284  1
  Lu  Lu16  1  0.735529  0.594401  0.870176  1
  Lu  Lu17  1  0.764471  0.129824  0.405599  1
  Lu  Lu18  1  0.264471  0.405599  0.129824  1
  Lu  Lu19  1  0.235529  0.870176  0.594401  1
