# generated using pymatgen
data_CsKNa2Li12(SiO4)4
_symmetry_space_group_name_H-M   'P 1'
_cell_length_a   6.45199743
_cell_length_b   8.53285575
_cell_length_c   8.53285575
_cell_angle_alpha   81.78226336
_cell_angle_beta   67.78594585
_cell_angle_gamma   67.78594580
_symmetry_Int_Tables_number   1
_chemical_formula_structural   CsKNa2Li12(SiO4)4
_chemical_formula_sum   'Cs1 K1 Na2 Li12 Si4 O16'
_cell_volume   402.62115373
_cell_formula_units_Z   1
loop_
 _symmetry_equiv_pos_site_id
 _symmetry_equiv_pos_as_xyz
  1  'x, y, z'
loop_
 _atom_site_type_symbol
 _atom_site_label
 _atom_site_symmetry_multiplicity
 _atom_site_fract_x
 _atom_site_fract_y
 _atom_site_fract_z
 _atom_site_occupancy
  Li  Li0  1  0.926335  0.363208  0.784122  1
  Li  Li1  1  0.289543  0.784122  0.636792  1
  Li  Li2  1  0.073665  0.636792  0.215878  1
  Li  Li3  1  0.710457  0.215878  0.363208  1
  Li  Li4  1  0.853393  0.128734  0.645935  1
  Li  Li5  1  0.499328  0.354065  0.128734  1
  Li  Li6  1  0.146607  0.871266  0.354065  1
  Li  Li7  1  0.628062  0.871266  0.354065  1
  Li  Li8  1  0.371938  0.128734  0.645935  1
  Li  Li9  1  0.017873  0.354065  0.128734  1
  Li  Li10  1  0.500672  0.645935  0.871266  1
  Li  Li11  1  0.982127  0.645935  0.871266  1
  O  O12  1  0.378697  0.701057  0.111767  1
  O  O13  1  0.079754  0.111767  0.298943  1
  O  O14  1  0.191521  0.298943  0.888233  1
  O  O15  1  0.490464  0.888233  0.701057  1
  O  O16  1  0.920246  0.888233  0.701057  1
  O  O17  1  0.621303  0.298943  0.888233  1
  O  O18  1  0.509536  0.111767  0.298943  1
  O  O19  1  0.808479  0.701057  0.111767  1
  O  O20  1  0.439086  0.722710  0.399118  1
  O  O21  1  0.838204  0.600882  0.722710  1
  O  O22  1  0.161796  0.399118  0.277290  1
  O  O23  1  0.560914  0.277290  0.600882  1
  O  O24  1  0.100343  0.227360  0.571954  1
  O  O25  1  0.672297  0.428046  0.227360  1
  O  O26  1  0.327703  0.571954  0.772640  1
  O  O27  1  0.899657  0.772640  0.428046  1
  Na  Na28  1  0.250000  0.500000  0.500000  1
  Na  Na29  1  0.750000  0.500000  0.500000  1
  Si  Si30  1  0.785381  0.793124  0.636113  1
  Si  Si31  1  0.214619  0.206876  0.363887  1
  Si  Si32  1  0.421495  0.363887  0.793124  1
  Si  Si33  1  0.578505  0.636113  0.206876  1
  K  K34  1  0.500000  0.000000  0.000000  1
  Cs  Cs35  1  0.000000  0.000000  0.000000  1
