# generated using pymatgen
data_Rb2NbAgS4
_symmetry_space_group_name_H-M   'P 1'
_cell_length_a   5.98152712
_cell_length_b   7.59468760
_cell_length_c   12.41543383
_cell_angle_alpha   84.55662200
_cell_angle_beta   76.06087905
_cell_angle_gamma   66.80904623
_symmetry_Int_Tables_number   1
_chemical_formula_structural   Rb2NbAgS4
_chemical_formula_sum   'Rb4 Nb2 Ag2 S8'
_cell_volume   503.16641867
_cell_formula_units_Z   2
loop_
 _symmetry_equiv_pos_site_id
 _symmetry_equiv_pos_as_xyz
  1  'x, y, z'
loop_
 _atom_site_type_symbol
 _atom_site_label
 _atom_site_symmetry_multiplicity
 _atom_site_fract_x
 _atom_site_fract_y
 _atom_site_fract_z
 _atom_site_occupancy
  S  S0  1  0.564054  0.553053  0.638724  1
  S  S1  1  0.255831  0.946947  0.861276  1
  S  S2  1  0.882892  0.553053  0.861276  1
  S  S3  1  0.797222  0.946947  0.638724  1
  S  S4  1  0.435946  0.446947  0.361276  1
  S  S5  1  0.202778  0.053053  0.361276  1
  S  S6  1  0.117108  0.446947  0.138724  1
  S  S7  1  0.744169  0.053053  0.138724  1
  Rb  Rb8  1  0.554022  0.250000  0.891955  1
  Rb  Rb9  1  0.445978  0.750000  0.108045  1
  Rb  Rb10  1  0.195978  0.250000  0.608045  1
  Rb  Rb11  1  0.804022  0.750000  0.391955  1
  Nb  Nb12  1  0.625000  0.750000  0.750000  1
  Nb  Nb13  1  0.375000  0.250000  0.250000  1
  Ag  Ag14  1  0.125000  0.750000  0.750000  1
  Ag  Ag15  1  0.875000  0.250000  0.250000  1
