# generated using pymatgen
data_BaCo2Si2O7
_symmetry_space_group_name_H-M   'P 1'
_cell_length_a   7.36953113
_cell_length_b   7.45388114
_cell_length_c   13.86067472
_cell_angle_alpha   89.93691057
_cell_angle_beta   89.87237684
_cell_angle_gamma   60.37363792
_symmetry_Int_Tables_number   1
_chemical_formula_structural   BaCo2Si2O7
_chemical_formula_sum   'Ba4 Co8 Si8 O28'
_cell_volume   661.84926914
_cell_formula_units_Z   4
loop_
 _symmetry_equiv_pos_site_id
 _symmetry_equiv_pos_as_xyz
  1  'x, y, z'
loop_
 _atom_site_type_symbol
 _atom_site_label
 _atom_site_symmetry_multiplicity
 _atom_site_fract_x
 _atom_site_fract_y
 _atom_site_fract_z
 _atom_site_occupancy
  O  O0  1  0.987534  0.774361  0.946136  1
  O  O1  1  0.238104  0.774361  0.553864  1
  O  O2  1  0.012465  0.225639  0.053864  1
  O  O3  1  0.761897  0.225639  0.446136  1
  O  O4  1  0.920118  0.728823  0.755523  1
  O  O5  1  0.351058  0.728823  0.744477  1
  O  O6  1  0.079881  0.271177  0.244477  1
  O  O7  1  0.648941  0.271177  0.255523  1
  O  O8  1  0.604533  0.974549  0.877883  1
  O  O9  1  0.420917  0.974549  0.622117  1
  O  O10  1  0.395466  0.025451  0.122117  1
  O  O11  1  0.579084  0.025451  0.377883  1
  O  O12  1  0.317850  0.363902  0.866580  1
  O  O13  1  0.318247  0.363902  0.633420  1
  O  O14  1  0.682149  0.636098  0.133419  1
  O  O15  1  0.681752  0.636098  0.366581  1
  O  O16  1  0.615908  0.272848  0.989457  1
  O  O17  1  0.111246  0.272848  0.510543  1
  O  O18  1  0.384093  0.727152  0.010544  1
  O  O19  1  0.888755  0.727152  0.489457  1
  O  O20  1  0.350997  0.439944  0.383715  1
  O  O21  1  0.209059  0.439944  0.116286  1
  O  O22  1  0.649003  0.560056  0.616286  1
  O  O23  1  0.790941  0.560056  0.883715  1
  O  O24  1  0.718151  0.230388  0.797685  1
  O  O25  1  0.281850  0.769613  0.202315  1
  O  O26  1  0.051462  0.230388  0.702315  1
  O  O27  1  0.948539  0.769613  0.297685  1
  Si  Si28  1  0.572839  0.213773  0.881370  1
  Si  Si29  1  0.213389  0.213773  0.618630  1
  Si  Si30  1  0.427162  0.786227  0.118630  1
  Si  Si31  1  0.786612  0.786227  0.381370  1
  Si  Si32  1  0.834280  0.754195  0.866837  1
  Si  Si33  1  0.411524  0.754195  0.633163  1
  Si  Si34  1  0.165719  0.245805  0.133163  1
  Si  Si35  1  0.588475  0.245805  0.366837  1
  Co  Co36  1  0.737837  0.460613  0.009751  1
  Co  Co37  1  0.801550  0.460613  0.490249  1
  Co  Co38  1  0.772980  0.454042  0.250000  1
  Co  Co39  1  0.198450  0.539386  0.509751  1
  Co  Co40  1  0.771598  0.456804  0.750000  1
  Co  Co41  1  0.228401  0.543197  0.250000  1
  Co  Co42  1  0.227021  0.545959  0.750000  1
  Co  Co43  1  0.262163  0.539386  0.990248  1
  Ba  Ba44  1  0.780606  0.034595  0.622606  1
  Ba  Ba45  1  0.184798  0.034595  0.877393  1
  Ba  Ba46  1  0.219395  0.965405  0.377393  1
  Ba  Ba47  1  0.815201  0.965405  0.122606  1
