# generated using pymatgen
data_Cs2Ti(CuSe2)2
_symmetry_space_group_name_H-M   'P 1'
_cell_length_a   5.91354259
_cell_length_b   5.91354259
_cell_length_c   14.54037929
_cell_angle_alpha   90.00000000
_cell_angle_beta   90.00000000
_cell_angle_gamma   90.00000000
_symmetry_Int_Tables_number   1
_chemical_formula_structural   Cs2Ti(CuSe2)2
_chemical_formula_sum   'Cs4 Ti2 Cu4 Se8'
_cell_volume   508.47685968
_cell_formula_units_Z   2
loop_
 _symmetry_equiv_pos_site_id
 _symmetry_equiv_pos_as_xyz
  1  'x, y, z'
loop_
 _atom_site_type_symbol
 _atom_site_label
 _atom_site_symmetry_multiplicity
 _atom_site_fract_x
 _atom_site_fract_y
 _atom_site_fract_z
 _atom_site_occupancy
  Ti  Ti0  1  0.500000  0.500000  0.250000  1
  Ti  Ti1  1  0.500000  0.500000  0.750000  1
  Cu  Cu2  1  0.000000  0.500000  0.750000  1
  Cu  Cu3  1  0.500000  0.000000  0.750000  1
  Cu  Cu4  1  0.500000  0.000000  0.250000  1
  Cu  Cu5  1  0.000000  0.500000  0.250000  1
  Se  Se6  1  0.739867  0.260133  0.156823  1
  Se  Se7  1  0.739867  0.739867  0.343177  1
  Se  Se8  1  0.260133  0.260133  0.656823  1
  Se  Se9  1  0.739867  0.739867  0.656823  1
  Se  Se10  1  0.260133  0.260133  0.343177  1
  Se  Se11  1  0.739867  0.260133  0.843177  1
  Se  Se12  1  0.260133  0.739867  0.843177  1
  Se  Se13  1  0.260133  0.739867  0.156823  1
  Cs  Cs14  1  0.757431  0.757431  0.000000  1
  Cs  Cs15  1  0.242569  0.757431  0.500000  1
  Cs  Cs16  1  0.757431  0.242569  0.500000  1
  Cs  Cs17  1  0.242569  0.242569  0.000000  1
