# generated using pymatgen
data_Ca4SiN4
_symmetry_space_group_name_H-M   'P 1'
_cell_length_a   9.20334746
_cell_length_b   5.99299680
_cell_length_c   11.03291815
_cell_angle_alpha   90.00000000
_cell_angle_beta   116.40004006
_cell_angle_gamma   90.00000000
_symmetry_Int_Tables_number   1
_chemical_formula_structural   Ca4SiN4
_chemical_formula_sum   'Ca16 Si4 N16'
_cell_volume   545.06511391
_cell_formula_units_Z   4
loop_
 _symmetry_equiv_pos_site_id
 _symmetry_equiv_pos_as_xyz
  1  'x, y, z'
loop_
 _atom_site_type_symbol
 _atom_site_label
 _atom_site_symmetry_multiplicity
 _atom_site_fract_x
 _atom_site_fract_y
 _atom_site_fract_z
 _atom_site_occupancy
  Ca  Ca0  1  0.648407  0.077537  0.653980  1
  Ca  Ca1  1  0.351593  0.577537  0.846020  1
  Ca  Ca2  1  0.351593  0.922463  0.346020  1
  Ca  Ca3  1  0.648407  0.422463  0.153980  1
  Ca  Ca4  1  0.545705  0.080937  0.879173  1
  Ca  Ca5  1  0.454295  0.580937  0.620827  1
  Ca  Ca6  1  0.454295  0.919063  0.120827  1
  Ca  Ca7  1  0.545705  0.419063  0.379173  1
  Ca  Ca8  1  0.144729  0.150893  0.768312  1
  Ca  Ca9  1  0.855271  0.650893  0.731688  1
  Ca  Ca10  1  0.855271  0.849107  0.231688  1
  Ca  Ca11  1  0.144729  0.349107  0.268312  1
  Ca  Ca12  1  0.080767  0.744321  0.543264  1
  Ca  Ca13  1  0.919233  0.244321  0.956736  1
  Ca  Ca14  1  0.919233  0.255679  0.456736  1
  Ca  Ca15  1  0.080767  0.755679  0.043264  1
  Si  Si16  1  0.266789  0.146871  0.548101  1
  Si  Si17  1  0.733211  0.646871  0.951899  1
  Si  Si18  1  0.733211  0.853129  0.451899  1
  Si  Si19  1  0.266789  0.353129  0.048101  1
  N  N20  1  0.405722  0.254167  0.987986  1
  N  N21  1  0.594278  0.754167  0.512014  1
  N  N22  1  0.594278  0.745833  0.012014  1
  N  N23  1  0.405722  0.245833  0.487986  1
  N  N24  1  0.337987  0.931848  0.674351  1
  N  N25  1  0.662013  0.431848  0.825649  1
  N  N26  1  0.662013  0.068152  0.325649  1
  N  N27  1  0.337987  0.568152  0.174351  1
  N  N28  1  0.199780  0.379753  0.611212  1
  N  N29  1  0.800220  0.879753  0.888788  1
  N  N30  1  0.800220  0.620247  0.388788  1
  N  N31  1  0.199780  0.120247  0.111212  1
  N  N32  1  0.100980  0.468958  0.894713  1
  N  N33  1  0.899020  0.968958  0.605287  1
  N  N34  1  0.899020  0.531042  0.105287  1
  N  N35  1  0.100980  0.031042  0.394713  1
