# generated using pymatgen
data_Yb4Si2S3O7
_symmetry_space_group_name_H-M   'P 1'
_cell_length_a   11.04273600
_cell_length_b   11.04273600
_cell_length_c   11.04273600
_cell_angle_alpha   96.56156188
_cell_angle_beta   116.28680046
_cell_angle_gamma   116.28680044
_symmetry_Int_Tables_number   1
_chemical_formula_structural   Yb4Si2S3O7
_chemical_formula_sum   'Yb16 Si8 S12 O28'
_cell_volume   998.51889400
_cell_formula_units_Z   4
loop_
 _symmetry_equiv_pos_site_id
 _symmetry_equiv_pos_as_xyz
  1  'x, y, z'
loop_
 _atom_site_type_symbol
 _atom_site_label
 _atom_site_symmetry_multiplicity
 _atom_site_fract_x
 _atom_site_fract_y
 _atom_site_fract_z
 _atom_site_occupancy
  O  O0  1  0.250000  0.862137  0.612137  1
  O  O1  1  0.750000  0.612137  0.862137  1
  O  O2  1  0.750000  0.137863  0.387863  1
  O  O3  1  0.250000  0.387863  0.137863  1
  O  O4  1  0.485338  0.911672  0.143074  1
  O  O5  1  0.014662  0.157735  0.426333  1
  O  O6  1  0.014662  0.856926  0.088328  1
  O  O7  1  0.268598  0.426333  0.911672  1
  O  O8  1  0.231402  0.143074  0.157735  1
  O  O9  1  0.231402  0.088328  0.573667  1
  O  O10  1  0.268598  0.842265  0.856926  1
  O  O11  1  0.485338  0.573667  0.842265  1
  O  O12  1  0.514662  0.088328  0.856926  1
  O  O13  1  0.985338  0.842265  0.573667  1
  O  O14  1  0.985338  0.143074  0.911672  1
  O  O15  1  0.731402  0.573667  0.088328  1
  O  O16  1  0.768598  0.856926  0.842265  1
  O  O17  1  0.768598  0.911672  0.426333  1
  O  O18  1  0.731402  0.157735  0.143074  1
  O  O19  1  0.514662  0.426333  0.157735  1
  O  O20  1  0.478686  0.832990  0.811676  1
  O  O21  1  0.021314  0.832990  0.354304  1
  O  O22  1  0.021314  0.188324  0.167010  1
  O  O23  1  0.521314  0.354304  0.832990  1
  O  O24  1  0.978686  0.811676  0.832990  1
  O  O25  1  0.978686  0.167010  0.645696  1
  O  O26  1  0.521314  0.167010  0.188324  1
  O  O27  1  0.478686  0.645696  0.167010  1
  Si  Si28  1  0.378795  0.911422  0.790218  1
  Si  Si29  1  0.121205  0.911422  0.532627  1
  Si  Si30  1  0.121205  0.209782  0.088578  1
  Si  Si31  1  0.621205  0.532627  0.911422  1
  Si  Si32  1  0.878795  0.790218  0.911422  1
  Si  Si33  1  0.878795  0.088578  0.467373  1
  Si  Si34  1  0.621205  0.088578  0.209782  1
  Si  Si35  1  0.378795  0.467373  0.088578  1
  S  S36  1  0.250000  0.125000  0.875000  1
  S  S37  1  0.750000  0.875000  0.125000  1
  S  S38  1  0.750000  0.375000  0.625000  1
  S  S39  1  0.250000  0.625000  0.375000  1
  S  S40  1  0.586515  0.000000  0.586515  1
  S  S41  1  0.586515  0.586515  0.500000  1
  S  S42  1  0.913485  0.413485  0.000000  1
  S  S43  1  0.913485  0.500000  0.413485  1
  S  S44  1  0.413485  0.000000  0.413485  1
  S  S45  1  0.413485  0.413485  0.500000  1
  S  S46  1  0.086515  0.586515  0.000000  1
  S  S47  1  0.086515  0.500000  0.586515  1
  Yb  Yb48  1  0.503618  0.685246  0.688864  1
  Yb  Yb49  1  0.996382  0.685246  0.181628  1
  Yb  Yb50  1  0.996382  0.311136  0.314754  1
  Yb  Yb51  1  0.496382  0.181628  0.685246  1
  Yb  Yb52  1  0.003618  0.688864  0.685246  1
  Yb  Yb53  1  0.003618  0.314754  0.818372  1
  Yb  Yb54  1  0.496382  0.314754  0.311136  1
  Yb  Yb55  1  0.503618  0.818372  0.314754  1
  Yb  Yb56  1  0.916403  0.958202  0.708202  1
  Yb  Yb57  1  0.750000  0.708202  0.291798  1
  Yb  Yb58  1  0.750000  0.041798  0.958202  1
  Yb  Yb59  1  0.583597  0.291798  0.041798  1
  Yb  Yb60  1  0.083597  0.041798  0.291798  1
  Yb  Yb61  1  0.250000  0.291798  0.708202  1
  Yb  Yb62  1  0.250000  0.958202  0.041798  1
  Yb  Yb63  1  0.416403  0.708202  0.958202  1
