# generated using pymatgen
data_Si2NiSe4
_symmetry_space_group_name_H-M   'P 1'
_cell_length_a   3.47928662
_cell_length_b   6.45054295
_cell_length_c   6.88716202
_cell_angle_alpha   110.72542677
_cell_angle_beta   104.63095758
_cell_angle_gamma   90.00000000
_symmetry_Int_Tables_number   1
_chemical_formula_structural   Si2NiSe4
_chemical_formula_sum   'Si2 Ni1 Se4'
_cell_volume   139.19583901
_cell_formula_units_Z   1
loop_
 _symmetry_equiv_pos_site_id
 _symmetry_equiv_pos_as_xyz
  1  'x, y, z'
loop_
 _atom_site_type_symbol
 _atom_site_label
 _atom_site_symmetry_multiplicity
 _atom_site_fract_x
 _atom_site_fract_y
 _atom_site_fract_z
 _atom_site_occupancy
  Si  Si0  1  0.260134  0.279643  0.520268  1
  Si  Si1  1  0.739866  0.720357  0.479732  1
  Ni  Ni2  1  0.000000  0.000000  0.000000  1
  Se  Se3  1  0.128132  0.474139  0.256263  1
  Se  Se4  1  0.871868  0.525861  0.743737  1
  Se  Se5  1  0.376983  0.011767  0.753965  1
  Se  Se6  1  0.623017  0.988233  0.246035  1
