# generated using pymatgen
data_EuAsO4
_symmetry_space_group_name_H-M   'P 1'
_cell_length_a   6.12031016
_cell_length_b   6.12031016
_cell_length_c   6.12031015
_cell_angle_alpha   106.48310259
_cell_angle_beta   106.48310253
_cell_angle_gamma   115.62853779
_symmetry_Int_Tables_number   1
_chemical_formula_structural   EuAsO4
_chemical_formula_sum   'Eu2 As2 O8'
_cell_volume   174.93636063
_cell_formula_units_Z   2
loop_
 _symmetry_equiv_pos_site_id
 _symmetry_equiv_pos_as_xyz
  1  'x, y, z'
loop_
 _atom_site_type_symbol
 _atom_site_label
 _atom_site_symmetry_multiplicity
 _atom_site_fract_x
 _atom_site_fract_y
 _atom_site_fract_z
 _atom_site_occupancy
  O  O0  1  0.795423  0.365948  0.070526  1
  O  O1  1  0.724897  0.795423  0.929474  1
  O  O2  1  0.365948  0.795423  0.570526  1
  O  O3  1  0.795423  0.724897  0.429474  1
  O  O4  1  0.275103  0.204577  0.070526  1
  O  O5  1  0.204577  0.634052  0.929474  1
  O  O6  1  0.204577  0.275103  0.570526  1
  O  O7  1  0.634052  0.204577  0.429474  1
  As  As8  1  0.375000  0.625000  0.750000  1
  As  As9  1  0.625000  0.375000  0.250000  1
  Eu  Eu10  1  0.125000  0.875000  0.250000  1
  Eu  Eu11  1  0.875000  0.125000  0.750000  1
