# generated using pymatgen
data_Tl2B2Se7
_symmetry_space_group_name_H-M   'P 1'
_cell_length_a   7.42878150
_cell_length_b   8.66275853
_cell_length_c   11.35398587
_cell_angle_alpha   75.08027083
_cell_angle_beta   70.90446788
_cell_angle_gamma   64.61003578
_symmetry_Int_Tables_number   1
_chemical_formula_structural   Tl2B2Se7
_chemical_formula_sum   'Tl4 B4 Se14'
_cell_volume   617.86853911
_cell_formula_units_Z   2
loop_
 _symmetry_equiv_pos_site_id
 _symmetry_equiv_pos_as_xyz
  1  'x, y, z'
loop_
 _atom_site_type_symbol
 _atom_site_label
 _atom_site_symmetry_multiplicity
 _atom_site_fract_x
 _atom_site_fract_y
 _atom_site_fract_z
 _atom_site_occupancy
  B  B0  1  0.605180  0.883158  0.349494  1
  B  B1  1  0.837832  0.616842  0.150506  1
  B  B2  1  0.394820  0.116842  0.650506  1
  B  B3  1  0.162168  0.383158  0.849494  1
  Se  Se4  1  0.182838  0.236148  0.021345  1
  Se  Se5  1  0.440331  0.263852  0.478655  1
  Se  Se6  1  0.817162  0.763852  0.978655  1
  Se  Se7  1  0.559669  0.736148  0.521345  1
  Se  Se8  1  0.142804  0.632313  0.831623  1
  Se  Se9  1  0.606740  0.867687  0.668377  1
  Se  Se10  1  0.857196  0.367687  0.168377  1
  Se  Se11  1  0.393260  0.132313  0.331623  1
  Se  Se12  1  0.939860  0.394876  0.773443  1
  Se  Se13  1  0.108180  0.105124  0.726557  1
  Se  Se14  1  0.060140  0.605124  0.226557  1
  Se  Se15  1  0.891820  0.894876  0.273443  1
  Se  Se16  1  0.458355  0.250000  0.750000  1
  Se  Se17  1  0.541645  0.750000  0.250000  1
  Tl  Tl18  1  0.107631  0.676775  0.536163  1
  Tl  Tl19  1  0.320569  0.823225  0.963837  1
  Tl  Tl20  1  0.892369  0.323225  0.463837  1
  Tl  Tl21  1  0.679431  0.176775  0.036163  1
