# generated using pymatgen
data_K2MgSiO4
_symmetry_space_group_name_H-M   'P 1'
_cell_length_a   5.53821553
_cell_length_b   11.11310192
_cell_length_c   15.78207218
_cell_angle_alpha   90.00000000
_cell_angle_beta   90.00000000
_cell_angle_gamma   90.00000000
_symmetry_Int_Tables_number   1
_chemical_formula_structural   K2MgSiO4
_chemical_formula_sum   'K16 Mg8 Si8 O32'
_cell_volume   971.33530839
_cell_formula_units_Z   8
loop_
 _symmetry_equiv_pos_site_id
 _symmetry_equiv_pos_as_xyz
  1  'x, y, z'
loop_
 _atom_site_type_symbol
 _atom_site_label
 _atom_site_symmetry_multiplicity
 _atom_site_fract_x
 _atom_site_fract_y
 _atom_site_fract_z
 _atom_site_occupancy
  O  O0  1  0.221073  0.512218  0.286772  1
  O  O1  1  0.778927  0.487782  0.786772  1
  O  O2  1  0.778927  0.012218  0.286772  1
  O  O3  1  0.221073  0.987782  0.786772  1
  O  O4  1  0.560914  0.352063  0.341775  1
  O  O5  1  0.439086  0.647937  0.841775  1
  O  O6  1  0.439086  0.852063  0.341775  1
  O  O7  1  0.560914  0.147937  0.841775  1
  O  O8  1  0.418645  0.084931  0.389317  1
  O  O9  1  0.581355  0.915069  0.889317  1
  O  O10  1  0.581355  0.584931  0.389317  1
  O  O11  1  0.418645  0.415069  0.889317  1
  O  O12  1  0.840280  0.207293  0.493069  1
  O  O13  1  0.159720  0.792707  0.993069  1
  O  O14  1  0.159720  0.707293  0.493069  1
  O  O15  1  0.706806  0.709357  0.020899  1
  O  O16  1  0.324824  0.478772  0.726109  1
  O  O17  1  0.675176  0.521228  0.226109  1
  O  O18  1  0.675176  0.978772  0.726109  1
  O  O19  1  0.324824  0.021228  0.226109  1
  O  O20  1  0.943667  0.673614  0.646497  1
  O  O21  1  0.056333  0.326386  0.146497  1
  O  O22  1  0.056333  0.173614  0.646497  1
  O  O23  1  0.943667  0.826386  0.146497  1
  O  O24  1  0.086890  0.894622  0.597916  1
  O  O25  1  0.913110  0.105378  0.097916  1
  O  O26  1  0.913110  0.394622  0.597916  1
  O  O27  1  0.086890  0.605378  0.097916  1
  O  O28  1  0.706806  0.790643  0.520899  1
  O  O29  1  0.293194  0.209357  0.020899  1
  O  O30  1  0.293194  0.290643  0.520899  1
  O  O31  1  0.840280  0.292707  0.993069  1
  Mg  Mg32  1  0.991668  0.990369  0.188749  1
  Mg  Mg33  1  0.008332  0.009631  0.688749  1
  Mg  Mg34  1  0.008332  0.490369  0.188749  1
  Mg  Mg35  1  0.991668  0.509631  0.688749  1
  Mg  Mg36  1  0.531460  0.260804  0.936334  1
  Mg  Mg37  1  0.468540  0.739196  0.436334  1
  Mg  Mg38  1  0.468540  0.760804  0.936334  1
  Mg  Mg39  1  0.531460  0.239196  0.436334  1
  Si  Si40  1  0.509065  0.007686  0.811072  1
  Si  Si41  1  0.490935  0.992314  0.311072  1
  Si  Si42  1  0.490935  0.507686  0.811072  1
  Si  Si43  1  0.509065  0.492314  0.311072  1
  Si  Si44  1  0.973431  0.735185  0.064458  1
  Si  Si45  1  0.026569  0.264815  0.564458  1
  Si  Si46  1  0.026569  0.235185  0.064458  1
  Si  Si47  1  0.973431  0.764815  0.564458  1
  K  K48  1  0.051432  0.235063  0.313968  1
  K  K49  1  0.948568  0.764937  0.813968  1
  K  K50  1  0.948568  0.735063  0.313968  1
  K  K51  1  0.051432  0.264937  0.813968  1
  K  K52  1  0.004602  0.490143  0.438179  1
  K  K53  1  0.995398  0.509857  0.938179  1
  K  K54  1  0.995398  0.990143  0.438179  1
  K  K55  1  0.004602  0.009857  0.938179  1
  K  K56  1  0.456885  0.760524  0.683593  1
  K  K57  1  0.543115  0.239476  0.183593  1
  K  K58  1  0.543115  0.260524  0.683593  1
  K  K59  1  0.456885  0.739476  0.183593  1
  K  K60  1  0.493633  0.508214  0.561292  1
  K  K61  1  0.506367  0.491786  0.061291  1
  K  K62  1  0.506367  0.008214  0.561292  1
  K  K63  1  0.493633  0.991786  0.061291  1
