# generated using pymatgen
data_TaSe2
_symmetry_space_group_name_H-M   'P 1'
_cell_length_a   3.47579514
_cell_length_b   3.47560883
_cell_length_c   14.11564220
_cell_angle_alpha   90.00000000
_cell_angle_beta   90.00000000
_cell_angle_gamma   120.00177322
_symmetry_Int_Tables_number   1
_chemical_formula_structural   TaSe2
_chemical_formula_sum   'Ta2 Se4'
_cell_volume   147.67554315
_cell_formula_units_Z   2
loop_
 _symmetry_equiv_pos_site_id
 _symmetry_equiv_pos_as_xyz
  1  'x, y, z'
loop_
 _atom_site_type_symbol
 _atom_site_label
 _atom_site_symmetry_multiplicity
 _atom_site_fract_x
 _atom_site_fract_y
 _atom_site_fract_z
 _atom_site_occupancy
  Ta  Ta0  1  0.333409  0.666818  0.250000  1
  Ta  Ta1  1  0.666591  0.333182  0.750000  1
  Se  Se2  1  0.333307  0.666614  0.868739  1
  Se  Se3  1  0.666693  0.333386  0.131261  1
  Se  Se4  1  0.666693  0.333386  0.368739  1
  Se  Se5  1  0.333307  0.666614  0.631261  1
