# generated using pymatgen
data_Rb2CrO4
_symmetry_space_group_name_H-M   'P 1'
_cell_length_a   6.20521678
_cell_length_b   8.14335755
_cell_length_c   10.97725217
_cell_angle_alpha   90.00000000
_cell_angle_beta   90.00000000
_cell_angle_gamma   90.00000000
_symmetry_Int_Tables_number   1
_chemical_formula_structural   Rb2CrO4
_chemical_formula_sum   'Rb8 Cr4 O16'
_cell_volume   554.69481067
_cell_formula_units_Z   4
loop_
 _symmetry_equiv_pos_site_id
 _symmetry_equiv_pos_as_xyz
  1  'x, y, z'
loop_
 _atom_site_type_symbol
 _atom_site_label
 _atom_site_symmetry_multiplicity
 _atom_site_fract_x
 _atom_site_fract_y
 _atom_site_fract_z
 _atom_site_occupancy
  O  O0  1  0.970033  0.802863  0.851766  1
  O  O1  1  0.470033  0.197137  0.148234  1
  O  O2  1  0.529967  0.302863  0.648234  1
  O  O3  1  0.029967  0.697137  0.351766  1
  O  O4  1  0.029967  0.197137  0.148234  1
  O  O5  1  0.529967  0.802863  0.851766  1
  O  O6  1  0.470033  0.697137  0.351766  1
  O  O7  1  0.970033  0.302863  0.648234  1
  O  O8  1  0.250000  0.203578  0.933973  1
  O  O9  1  0.750000  0.796422  0.066027  1
  O  O10  1  0.250000  0.703578  0.566027  1
  O  O11  1  0.750000  0.296422  0.433973  1
  O  O12  1  0.750000  0.027218  0.582637  1
  O  O13  1  0.250000  0.972782  0.417363  1
  O  O14  1  0.750000  0.527218  0.917363  1
  O  O15  1  0.250000  0.472782  0.082637  1
  Cr  Cr16  1  0.250000  0.268720  0.078626  1
  Cr  Cr17  1  0.750000  0.731280  0.921374  1
  Cr  Cr18  1  0.250000  0.768720  0.421374  1
  Cr  Cr19  1  0.750000  0.231280  0.578626  1
  Rb  Rb20  1  0.250000  0.512009  0.801734  1
  Rb  Rb21  1  0.750000  0.487991  0.198266  1
  Rb  Rb22  1  0.250000  0.012009  0.698266  1
  Rb  Rb23  1  0.750000  0.987991  0.301734  1
  Rb  Rb24  1  0.250000  0.829838  0.085275  1
  Rb  Rb25  1  0.750000  0.170162  0.914725  1
  Rb  Rb26  1  0.250000  0.329838  0.414725  1
  Rb  Rb27  1  0.750000  0.670162  0.585275  1
