# generated using pymatgen
data_TaAlO4
_symmetry_space_group_name_H-M   'P 1'
_cell_length_a   3.81314202
_cell_length_b   6.42400180
_cell_length_c   6.51563868
_cell_angle_alpha   106.86510637
_cell_angle_beta   90.00000000
_cell_angle_gamma   107.26482544
_symmetry_Int_Tables_number   1
_chemical_formula_structural   TaAlO4
_chemical_formula_sum   'Ta2 Al2 O8'
_cell_volume   145.20931835
_cell_formula_units_Z   2
loop_
 _symmetry_equiv_pos_site_id
 _symmetry_equiv_pos_as_xyz
  1  'x, y, z'
loop_
 _atom_site_type_symbol
 _atom_site_label
 _atom_site_symmetry_multiplicity
 _atom_site_fract_x
 _atom_site_fract_y
 _atom_site_fract_z
 _atom_site_occupancy
  O  O0  1  0.358294  0.716588  0.796616  1
  O  O1  1  0.641706  0.283412  0.203384  1
  O  O2  1  0.942679  0.885358  0.136118  1
  O  O3  1  0.057321  0.114642  0.863882  1
  O  O4  1  0.141141  0.282282  0.525838  1
  O  O5  1  0.858859  0.717718  0.474162  1
  O  O6  1  0.261942  0.523883  0.141748  1
  O  O7  1  0.738058  0.476117  0.858252  1
  Al  Al8  1  0.799309  0.598619  0.179615  1
  Al  Al9  1  0.200691  0.401381  0.820385  1
  Ta  Ta10  1  0.894430  0.788859  0.766918  1
  Ta  Ta11  1  0.105570  0.211141  0.233082  1
