# generated using pymatgen
data_CrN2
_symmetry_space_group_name_H-M   'P 1'
_cell_length_a   17.07825128
_cell_length_b   17.07825128
_cell_length_c   17.07825128
_cell_angle_alpha   109.47121878
_cell_angle_beta   109.47122156
_cell_angle_gamma   109.47122156
_symmetry_Int_Tables_number   1
_chemical_formula_structural   CrN2
_chemical_formula_sum   'Cr24 N48'
_cell_volume   3834.49615889
_cell_formula_units_Z   24
loop_
 _symmetry_equiv_pos_site_id
 _symmetry_equiv_pos_as_xyz
  1  'x, y, z'
loop_
 _atom_site_type_symbol
 _atom_site_label
 _atom_site_symmetry_multiplicity
 _atom_site_fract_x
 _atom_site_fract_y
 _atom_site_fract_z
 _atom_site_occupancy
  Cr  Cr0  1  0.302830  0.727722  0.424892  1
  Cr  Cr1  1  0.424892  0.697170  0.122062  1
  Cr  Cr2  1  0.272278  0.575108  0.697170  1
  Cr  Cr3  1  0.727722  0.302830  0.424892  1
  Cr  Cr4  1  0.697170  0.424892  0.122062  1
  Cr  Cr5  1  0.575108  0.272278  0.697170  1
  Cr  Cr6  1  0.302830  0.877938  0.575108  1
  Cr  Cr7  1  0.575108  0.302830  0.877938  1
  Cr  Cr8  1  0.877938  0.575108  0.302830  1
  Cr  Cr9  1  0.877938  0.302830  0.575108  1
  Cr  Cr10  1  0.302830  0.575108  0.877938  1
  Cr  Cr11  1  0.575108  0.877938  0.302830  1
  Cr  Cr12  1  0.697170  0.272278  0.575108  1
  Cr  Cr13  1  0.424892  0.302830  0.727722  1
  Cr  Cr14  1  0.122062  0.424892  0.697170  1
  Cr  Cr15  1  0.122062  0.697170  0.424892  1
  Cr  Cr16  1  0.697170  0.575108  0.272278  1
  Cr  Cr17  1  0.424892  0.727722  0.302830  1
  Cr  Cr18  1  0.697170  0.122062  0.424892  1
  Cr  Cr19  1  0.575108  0.697170  0.272278  1
  Cr  Cr20  1  0.727722  0.424892  0.302830  1
  Cr  Cr21  1  0.272278  0.697170  0.575108  1
  Cr  Cr22  1  0.302830  0.424892  0.727722  1
  Cr  Cr23  1  0.424892  0.122062  0.697170  1
  N  N24  1  0.678630  0.178630  0.357259  1
  N  N25  1  0.500000  0.321370  0.678630  1
  N  N26  1  0.821370  0.500000  0.178630  1
  N  N27  1  0.178630  0.678630  0.357259  1
  N  N28  1  0.321370  0.500000  0.678630  1
  N  N29  1  0.500000  0.821370  0.178630  1
  N  N30  1  0.821370  0.321370  0.642741  1
  N  N31  1  0.642741  0.821370  0.321370  1
  N  N32  1  0.321370  0.642741  0.821370  1
  N  N33  1  0.321370  0.821370  0.642741  1
  N  N34  1  0.821370  0.642741  0.321370  1
  N  N35  1  0.642741  0.321370  0.821370  1
  N  N36  1  0.178630  0.821370  0.500000  1
  N  N37  1  0.357259  0.678630  0.178630  1
  N  N38  1  0.678630  0.500000  0.321370  1
  N  N39  1  0.678630  0.321370  0.500000  1
  N  N40  1  0.178630  0.500000  0.821370  1
  N  N41  1  0.357259  0.178630  0.678630  1
  N  N42  1  0.321370  0.678630  0.500000  1
  N  N43  1  0.500000  0.178630  0.821370  1
  N  N44  1  0.178630  0.357259  0.678630  1
  N  N45  1  0.821370  0.178630  0.500000  1
  N  N46  1  0.678630  0.357259  0.178630  1
  N  N47  1  0.500000  0.678630  0.321370  1
  N  N48  1  0.350071  0.850071  0.500000  1
  N  N49  1  0.500000  0.649929  0.149929  1
  N  N50  1  0.149929  0.500000  0.649929  1
  N  N51  1  0.850071  0.350071  0.500000  1
  N  N52  1  0.649929  0.500000  0.149929  1
  N  N53  1  0.500000  0.149929  0.649929  1
  N  N54  1  0.500000  0.350071  0.850071  1
  N  N55  1  0.850071  0.500000  0.350071  1
  N  N56  1  0.350071  0.500000  0.850071  1
  N  N57  1  0.500000  0.850071  0.350071  1
  N  N58  1  0.649929  0.149929  0.500000  1
  N  N59  1  0.149929  0.649929  0.500000  1
  N  N60  1  0.291596  0.645798  0.645798  1
  N  N61  1  0.354202  0.708404  0.354202  1
  N  N62  1  0.354202  0.645798  0.000000  1
  N  N63  1  0.645798  0.291596  0.645798  1
  N  N64  1  0.708404  0.354202  0.354202  1
  N  N65  1  0.645798  0.354202  1.000000  1
  N  N66  1  -0.000000  0.645798  0.354202  1
  N  N67  1  0.354202  0.000000  0.645798  1
  N  N68  1  0.645798  1.000000  0.354202  1
  N  N69  1  -0.000000  0.354202  0.645798  1
  N  N70  1  0.354202  0.354202  0.708404  1
  N  N71  1  0.645798  0.645798  0.291596  1
