# generated using pymatgen
data_SrZn2(AsO4)2
_symmetry_space_group_name_H-M   'P 1'
_cell_length_a   8.74395974
_cell_length_b   9.44062629
_cell_length_c   9.90812975
_cell_angle_alpha   90.00000000
_cell_angle_beta   90.00000000
_cell_angle_gamma   91.82087417
_symmetry_Int_Tables_number   1
_chemical_formula_structural   SrZn2(AsO4)2
_chemical_formula_sum   'Sr4 Zn8 As8 O32'
_cell_volume   817.48781525
_cell_formula_units_Z   4
loop_
 _symmetry_equiv_pos_site_id
 _symmetry_equiv_pos_as_xyz
  1  'x, y, z'
loop_
 _atom_site_type_symbol
 _atom_site_label
 _atom_site_symmetry_multiplicity
 _atom_site_fract_x
 _atom_site_fract_y
 _atom_site_fract_z
 _atom_site_occupancy
  O  O0  1  0.263266  0.167411  0.430921  1
  O  O1  1  0.736734  0.332589  0.930921  1
  O  O2  1  0.736734  0.832589  0.569079  1
  O  O3  1  0.263266  0.667411  0.069079  1
  O  O4  1  0.216570  0.499154  0.633205  1
  O  O5  1  0.783430  0.000846  0.133205  1
  O  O6  1  0.783430  0.500846  0.366795  1
  O  O7  1  0.216570  0.999154  0.866795  1
  O  O8  1  0.568784  0.616976  0.701602  1
  O  O9  1  0.431216  0.883024  0.201602  1
  O  O10  1  0.431216  0.383024  0.298398  1
  O  O11  1  0.568784  0.116976  0.798398  1
  O  O12  1  0.915655  0.567856  0.706992  1
  O  O13  1  0.084345  0.932144  0.206992  1
  O  O14  1  0.084345  0.432144  0.293008  1
  O  O15  1  0.915655  0.067856  0.793008  1
  O  O16  1  0.435430  0.382726  0.875180  1
  O  O17  1  0.564570  0.117274  0.375180  1
  O  O18  1  0.564570  0.617274  0.124820  1
  O  O19  1  0.435430  0.882726  0.624820  1
  O  O20  1  0.974232  0.802361  0.897181  1
  O  O21  1  0.025768  0.697639  0.397181  1
  O  O22  1  0.025768  0.197639  0.102819  1
  O  O23  1  0.974232  0.302361  0.602819  1
  O  O24  1  0.520293  0.812358  0.934948  1
  O  O25  1  0.479707  0.687642  0.434948  1
  O  O26  1  0.479707  0.187642  0.065052  1
  O  O27  1  0.520293  0.312358  0.565052  1
  O  O28  1  0.069732  0.880444  0.631536  1
  O  O29  1  0.930268  0.619556  0.131536  1
  O  O30  1  0.930268  0.119556  0.368464  1
  O  O31  1  0.069732  0.380444  0.868464  1
  Zn  Zn32  1  0.422363  0.450407  0.686062  1
  Zn  Zn33  1  0.577637  0.049593  0.186062  1
  Zn  Zn34  1  0.577637  0.549593  0.313938  1
  Zn  Zn35  1  0.422363  0.950407  0.813938  1
  Zn  Zn36  1  0.925995  0.220668  0.926380  1
  Zn  Zn37  1  0.074005  0.279332  0.426380  1
  Zn  Zn38  1  0.074005  0.779332  0.073620  1
  Zn  Zn39  1  0.925995  0.720668  0.573620  1
  As  As40  1  0.441647  0.250433  0.416544  1
  As  As41  1  0.558353  0.249567  0.916544  1
  As  As42  1  0.558353  0.749567  0.583456  1
  As  As43  1  0.441647  0.750433  0.083456  1
  As  As44  1  0.950772  0.062901  0.204067  1
  As  As45  1  0.049228  0.437099  0.704067  1
  As  As46  1  0.049228  0.937099  0.795933  1
  As  As47  1  0.950772  0.562901  0.295933  1
  Sr  Sr48  1  0.749961  0.615124  0.916807  1
  Sr  Sr49  1  0.250039  0.884876  0.416807  1
  Sr  Sr50  1  0.250039  0.384876  0.083193  1
  Sr  Sr51  1  0.749961  0.115124  0.583193  1
