# generated using pymatgen
data_Ca3GeO
_symmetry_space_group_name_H-M   'P 1'
_cell_length_a   6.72936387
_cell_length_b   6.70106362
_cell_length_c   9.48002131
_cell_angle_alpha   90.00000000
_cell_angle_beta   90.00000000
_cell_angle_gamma   90.00000000
_symmetry_Int_Tables_number   1
_chemical_formula_structural   Ca3GeO
_chemical_formula_sum   'Ca12 Ge4 O4'
_cell_volume   427.49108949
_cell_formula_units_Z   4
loop_
 _symmetry_equiv_pos_site_id
 _symmetry_equiv_pos_as_xyz
  1  'x, y, z'
loop_
 _atom_site_type_symbol
 _atom_site_label
 _atom_site_symmetry_multiplicity
 _atom_site_fract_x
 _atom_site_fract_y
 _atom_site_fract_z
 _atom_site_occupancy
  O  O0  1  0.500000  0.000000  0.500000  1
  O  O1  1  0.000000  0.500000  0.500000  1
  O  O2  1  0.000000  0.500000  0.000000  1
  O  O3  1  0.500000  0.000000  0.000000  1
  Ca  Ca4  1  0.249898  0.750101  0.477862  1
  Ca  Ca5  1  0.250102  0.250101  0.022138  1
  Ca  Ca6  1  0.749898  0.749899  0.522138  1
  Ca  Ca7  1  0.250102  0.250101  0.477862  1
  Ca  Ca8  1  0.249898  0.750101  0.022138  1
  Ca  Ca9  1  0.749898  0.749899  0.977862  1
  Ca  Ca10  1  0.956812  0.499905  0.250000  1
  Ca  Ca11  1  0.750102  0.249899  0.522138  1
  Ca  Ca12  1  0.043188  0.500095  0.750000  1
  Ca  Ca13  1  0.456812  0.000095  0.750000  1
  Ca  Ca14  1  0.543188  0.999905  0.250000  1
  Ca  Ca15  1  0.750102  0.249899  0.977862  1
  Ge  Ge16  1  0.998421  0.000092  0.750000  1
  Ge  Ge17  1  0.498421  0.499908  0.250000  1
  Ge  Ge18  1  0.501579  0.500092  0.750000  1
  Ge  Ge19  1  0.001579  0.999908  0.250000  1
