# generated using pymatgen
data_Te2MoW3(Se2S)2
_symmetry_space_group_name_H-M   'P 1'
_cell_length_a   3.34047932
_cell_length_b   3.34047819
_cell_length_c   38.07664660
_cell_angle_alpha   89.99976781
_cell_angle_beta   90.00000000
_cell_angle_gamma   120.00001117
_symmetry_Int_Tables_number   1
_chemical_formula_structural   Te2MoW3(Se2S)2
_chemical_formula_sum   'Te2 Mo1 W3 Se4 S2'
_cell_volume   367.96516345
_cell_formula_units_Z   1
loop_
 _symmetry_equiv_pos_site_id
 _symmetry_equiv_pos_as_xyz
  1  'x, y, z'
loop_
 _atom_site_type_symbol
 _atom_site_label
 _atom_site_symmetry_multiplicity
 _atom_site_fract_x
 _atom_site_fract_y
 _atom_site_fract_z
 _atom_site_occupancy
  Te  Te0  1  0.666648  0.333295  0.044090  1
  Te  Te1  1  0.666649  0.333296  0.143695  1
  Mo  Mo2  1  0.333309  0.666618  0.093878  1
  W  W3  1  0.333311  0.666621  0.469653  1
  W  W4  1  0.666694  0.333387  0.281826  1
  W  W5  1  0.666687  0.333373  0.657538  1
  Se  Se6  1  0.333361  0.666722  0.325814  1
  Se  Se7  1  0.333346  0.666693  0.701503  1
  Se  Se8  1  0.333354  0.666708  0.237866  1
  Se  Se9  1  0.333353  0.666707  0.613555  1
  S  S10  1  0.666644  0.333287  0.429668  1
  S  S11  1  0.666646  0.333292  0.509664  1
