# generated using pymatgen
data_MoW3(SeS3)2
_symmetry_space_group_name_H-M   'P 1'
_cell_length_a   3.22160798
_cell_length_b   3.22156155
_cell_length_c   36.37825474
_cell_angle_alpha   90.00007602
_cell_angle_beta   90.00000000
_cell_angle_gamma   120.00047674
_symmetry_Int_Tables_number   1
_chemical_formula_structural   MoW3(SeS3)2
_chemical_formula_sum   'Mo1 W3 Se2 S6'
_cell_volume   326.97122233
_cell_formula_units_Z   1
loop_
 _symmetry_equiv_pos_site_id
 _symmetry_equiv_pos_as_xyz
  1  'x, y, z'
loop_
 _atom_site_type_symbol
 _atom_site_label
 _atom_site_symmetry_multiplicity
 _atom_site_fract_x
 _atom_site_fract_y
 _atom_site_fract_z
 _atom_site_occupancy
  Mo  Mo0  1  0.666690  0.333381  0.281799  1
  W  W1  1  0.333310  0.666621  0.093917  1
  W  W2  1  0.333312  0.666623  0.469656  1
  W  W3  1  0.666689  0.333378  0.657553  1
  Se  Se4  1  0.333354  0.666708  0.704874  1
  Se  Se5  1  0.333353  0.666707  0.610240  1
  S  S6  1  0.333357  0.666716  0.324578  1
  S  S7  1  0.666643  0.333284  0.050977  1
  S  S8  1  0.666646  0.333291  0.426725  1
  S  S9  1  0.666646  0.333291  0.136857  1
  S  S10  1  0.666645  0.333289  0.512572  1
  S  S11  1  0.333355  0.666712  0.239000  1
