# generated using pymatgen
data_Ti3FeS6
_symmetry_space_group_name_H-M   'P 1'
_cell_length_a   5.93561199
_cell_length_b   5.93561199
_cell_length_c   11.59406913
_cell_angle_alpha   90.00000000
_cell_angle_beta   90.00000000
_cell_angle_gamma   119.99999996
_symmetry_Int_Tables_number   1
_chemical_formula_structural   Ti3FeS6
_chemical_formula_sum   'Ti6 Fe2 S12'
_cell_volume   353.75087608
_cell_formula_units_Z   2
loop_
 _symmetry_equiv_pos_site_id
 _symmetry_equiv_pos_as_xyz
  1  'x, y, z'
loop_
 _atom_site_type_symbol
 _atom_site_label
 _atom_site_symmetry_multiplicity
 _atom_site_fract_x
 _atom_site_fract_y
 _atom_site_fract_z
 _atom_site_occupancy
  S  S0  1  0.668229  0.666105  0.624455  1
  S  S1  1  0.333895  0.002124  0.624455  1
  S  S2  1  0.997876  0.331771  0.624455  1
  S  S3  1  0.333895  0.331771  0.875545  1
  S  S4  1  0.997876  0.666105  0.875545  1
  S  S5  1  0.668229  0.002124  0.875545  1
  S  S6  1  0.331771  0.333895  0.375545  1
  S  S7  1  0.666105  0.997876  0.375545  1
  S  S8  1  0.331771  0.997876  0.124455  1
  S  S9  1  0.002124  0.333895  0.124455  1
  S  S10  1  0.666105  0.668229  0.124455  1
  S  S11  1  0.002124  0.668229  0.375545  1
  Ti  Ti12  1  0.666667  0.333333  0.499106  1
  Ti  Ti13  1  0.666667  0.333333  0.000894  1
  Ti  Ti14  1  0.333333  0.666667  0.500894  1
  Ti  Ti15  1  0.333333  0.666667  0.999106  1
  Ti  Ti16  1  0.666667  0.333333  0.750000  1
  Ti  Ti17  1  0.333333  0.666667  0.250000  1
  Fe  Fe18  1  0.000000  0.000000  0.500000  1
  Fe  Fe19  1  0.000000  0.000000  0.000000  1
