# generated using pymatgen
data_K2CeAl(SiO3)4
_symmetry_space_group_name_H-M   'P 1'
_cell_length_a   7.46231519
_cell_length_b   14.07806204
_cell_length_c   14.13678348
_cell_angle_alpha   64.74163437
_cell_angle_beta   74.69646443
_cell_angle_gamma   74.63105859
_symmetry_Int_Tables_number   1
_chemical_formula_structural   K2CeAl(SiO3)4
_chemical_formula_sum   'K8 Ce4 Al4 Si16 O48'
_cell_volume   1275.59473534
_cell_formula_units_Z   4
loop_
 _symmetry_equiv_pos_site_id
 _symmetry_equiv_pos_as_xyz
  1  'x, y, z'
loop_
 _atom_site_type_symbol
 _atom_site_label
 _atom_site_symmetry_multiplicity
 _atom_site_fract_x
 _atom_site_fract_y
 _atom_site_fract_z
 _atom_site_occupancy
  K  K0  1  0.190331  0.088057  0.525662  1
  K  K1  1  0.195950  0.588057  0.025662  1
  K  K2  1  0.809669  0.911943  0.474338  1
  K  K3  1  0.804050  0.411943  0.974338  1
  K  K4  1  0.279131  0.388599  0.536877  1
  K  K5  1  0.795392  0.888599  0.036877  1
  K  K6  1  0.720869  0.611401  0.463123  1
  K  K7  1  0.204608  0.111401  0.963123  1
  Ce  Ce8  1  0.556585  0.711132  0.750599  1
  Ce  Ce9  1  0.981684  0.211132  0.250599  1
  Ce  Ce10  1  0.443415  0.288868  0.249401  1
  Ce  Ce11  1  0.018316  0.788868  0.749401  1
  Al  Al12  1  0.740130  0.413909  0.728566  1
  Al  Al13  1  0.117396  0.913909  0.228566  1
  Al  Al14  1  0.259870  0.586091  0.271434  1
  Al  Al15  1  0.882604  0.086091  0.771434  1
  Si  Si16  1  0.695298  0.677183  0.995959  1
  Si  Si17  1  0.631559  0.177183  0.495959  1
  Si  Si18  1  0.304702  0.322817  0.004041  1
  Si  Si19  1  0.368441  0.822817  0.504041  1
  Si  Si20  1  0.678751  0.475458  0.209580  1
  Si  Si21  1  0.636211  0.975458  0.709580  1
  Si  Si22  1  0.321249  0.524542  0.790420  1
  Si  Si23  1  0.363789  0.024542  0.290420  1
  Si  Si24  1  0.026070  0.576123  0.658882  1
  Si  Si25  1  0.738925  0.076123  0.158882  1
  Si  Si26  1  0.973930  0.423877  0.341118  1
  Si  Si27  1  0.261075  0.923877  0.841118  1
  Si  Si28  1  0.798744  0.299361  0.577863  1
  Si  Si29  1  0.324032  0.799361  0.077863  1
  Si  Si30  1  0.201256  0.700639  0.422137  1
  Si  Si31  1  0.675968  0.200639  0.922137  1
  O  O32  1  0.239932  0.528837  0.690687  1
  O  O33  1  0.540543  0.028837  0.190687  1
  O  O34  1  0.760068  0.471163  0.309313  1
  O  O35  1  0.459457  0.971163  0.809313  1
  O  O36  1  0.050539  0.646546  0.529502  1
  O  O37  1  0.773413  0.146546  0.029502  1
  O  O38  1  0.949461  0.353454  0.470498  1
  O  O39  1  0.226587  0.853454  0.970498  1
  O  O40  1  0.926634  0.198318  0.655445  1
  O  O41  1  0.219604  0.698318  0.155445  1
  O  O42  1  0.073366  0.801682  0.344555  1
  O  O43  1  0.780396  0.301682  0.844555  1
  O  O44  1  0.553194  0.762925  0.048680  1
  O  O45  1  0.635202  0.262925  0.548680  1
  O  O46  1  0.446806  0.237075  0.951320  1
  O  O47  1  0.364798  0.737075  0.451320  1
  O  O48  1  0.763544  0.568715  0.100154  1
  O  O49  1  0.567587  0.068715  0.600154  1
  O  O50  1  0.236456  0.431285  0.899846  1
  O  O51  1  0.432413  0.931285  0.399846  1
  O  O52  1  0.162370  0.854076  0.568211  1
  O  O53  1  0.415343  0.354076  0.068211  1
  O  O54  1  0.837630  0.145924  0.431789  1
  O  O55  1  0.584657  0.645924  0.931789  1
  O  O56  1  0.541361  0.769891  0.570113  1
  O  O57  1  0.118635  0.269891  0.070113  1
  O  O58  1  0.458639  0.230109  0.429887  1
  O  O59  1  0.881365  0.730109  0.929887  1
  O  O60  1  0.939895  0.474574  0.675672  1
  O  O61  1  0.909859  0.974574  0.175672  1
  O  O62  1  0.060105  0.525426  0.324328  1
  O  O63  1  0.090141  0.025426  0.824328  1
  O  O64  1  0.447844  0.493557  0.236088  1
  O  O65  1  0.822511  0.993557  0.736088  1
  O  O66  1  0.552156  0.506443  0.763912  1
  O  O67  1  0.177489  0.006443  0.263912  1
  O  O68  1  0.689789  0.388429  0.627915  1
  O  O69  1  0.293867  0.888429  0.127915  1
  O  O70  1  0.310211  0.611571  0.372085  1
  O  O71  1  0.706133  0.111571  0.872085  1
  O  O72  1  0.898705  0.649236  0.723416  1
  O  O73  1  0.728643  0.149236  0.223416  1
  O  O74  1  0.101295  0.350764  0.276584  1
  O  O75  1  0.271357  0.850764  0.776584  1
  O  O76  1  0.702791  0.861430  0.696366  1
  O  O77  1  0.739413  0.361430  0.196366  1
  O  O78  1  0.297209  0.138570  0.303634  1
  O  O79  1  0.260587  0.638570  0.803634  1
