# generated using pymatgen
data_Te2MoWSeS
_symmetry_space_group_name_H-M   'P 1'
_cell_length_a   3.39384690
_cell_length_b   3.39383848
_cell_length_c   38.80844076
_cell_angle_alpha   90.00011161
_cell_angle_beta   90.00000000
_cell_angle_gamma   120.00008206
_symmetry_Int_Tables_number   1
_chemical_formula_structural   Te2MoWSeS
_chemical_formula_sum   'Te4 Mo2 W2 Se2 S2'
_cell_volume   387.11489602
_cell_formula_units_Z   2
loop_
 _symmetry_equiv_pos_site_id
 _symmetry_equiv_pos_as_xyz
  1  'x, y, z'
loop_
 _atom_site_type_symbol
 _atom_site_label
 _atom_site_symmetry_multiplicity
 _atom_site_fract_x
 _atom_site_fract_y
 _atom_site_fract_z
 _atom_site_occupancy
  Te  Te0  1  0.666647  0.333293  0.045604  1
  Te  Te1  1  0.666648  0.333295  0.421370  1
  Te  Te2  1  0.666649  0.333297  0.142224  1
  Te  Te3  1  0.666645  0.333288  0.518000  1
  Mo  Mo4  1  0.333310  0.666620  0.093900  1
  Mo  Mo5  1  0.333312  0.666625  0.469664  1
  W  W6  1  0.666688  0.333375  0.281789  1
  W  W7  1  0.666691  0.333382  0.657539  1
  Se  Se8  1  0.333352  0.666704  0.324506  1
  Se  Se9  1  0.333348  0.666698  0.239087  1
  S  S10  1  0.333357  0.666715  0.696389  1
  S  S11  1  0.333354  0.666709  0.618676  1
