# generated using pymatgen
data_Pu2InPd2
_symmetry_space_group_name_H-M   'P 1'
_cell_length_a   3.69734314
_cell_length_b   7.70944204
_cell_length_c   7.70944204
_cell_angle_alpha   90.00000000
_cell_angle_beta   90.00000000
_cell_angle_gamma   90.00000000
_symmetry_Int_Tables_number   1
_chemical_formula_structural   Pu2InPd2
_chemical_formula_sum   'Pu4 In2 Pd4'
_cell_volume   219.75342551
_cell_formula_units_Z   2
loop_
 _symmetry_equiv_pos_site_id
 _symmetry_equiv_pos_as_xyz
  1  'x, y, z'
loop_
 _atom_site_type_symbol
 _atom_site_label
 _atom_site_symmetry_multiplicity
 _atom_site_fract_x
 _atom_site_fract_y
 _atom_site_fract_z
 _atom_site_occupancy
  Pd  Pd0  1  0.000000  0.131982  0.368018  1
  Pd  Pd1  1  0.000000  0.368018  0.868018  1
  Pd  Pd2  1  0.000000  0.631982  0.131982  1
  Pd  Pd3  1  0.000000  0.868018  0.631982  1
  In  In4  1  0.000000  0.000000  0.000000  1
  In  In5  1  0.000000  0.500000  0.500000  1
  Pu  Pu6  1  0.500000  0.829967  0.329967  1
  Pu  Pu7  1  0.500000  0.670033  0.829967  1
  Pu  Pu8  1  0.500000  0.329967  0.170033  1
  Pu  Pu9  1  0.500000  0.170033  0.670033  1
