# generated using pymatgen
data_Na2Cu(Si2O5)2
_symmetry_space_group_name_H-M   'P 1'
_cell_length_a   7.00711682
_cell_length_b   7.76162864
_cell_length_c   9.85659137
_cell_angle_alpha   105.79380321
_cell_angle_beta   98.89900341
_cell_angle_gamma   114.61474375
_symmetry_Int_Tables_number   1
_chemical_formula_structural   Na2Cu(Si2O5)2
_chemical_formula_sum   'Na4 Si8 Cu2 O20'
_cell_volume   446.39659795
_cell_formula_units_Z   2
loop_
 _symmetry_equiv_pos_site_id
 _symmetry_equiv_pos_as_xyz
  1  'x, y, z'
loop_
 _atom_site_type_symbol
 _atom_site_label
 _atom_site_symmetry_multiplicity
 _atom_site_fract_x
 _atom_site_fract_y
 _atom_site_fract_z
 _atom_site_occupancy
  Na  Na0  1  0.316193  0.856582  0.579056  1
  Na  Na1  1  0.680426  0.780183  0.022613  1
  Na  Na2  1  0.319591  0.219815  0.977392  1
  Na  Na3  1  0.683817  0.143421  0.420949  1
  Si  Si4  1  0.220154  0.852486  0.147564  1
  Si  Si5  1  0.433733  0.628433  0.250715  1
  Si  Si6  1  0.853059  0.608464  0.264446  1
  Cu  Cu7  1  0.813286  0.855148  0.573715  1
  Si  Si8  1  0.043188  0.746215  0.808375  1
  Si  Si9  1  0.146955  0.391538  0.735559  1
  Si  Si10  1  0.566275  0.371564  0.749283  1
  Cu  Cu11  1  0.186565  0.144810  0.426231  1
  Si  Si12  1  0.956824  0.253793  0.191624  1
  Si  Si13  1  0.779859  0.147515  0.852440  1
  O  O14  1  0.598386  0.552285  0.181048  1
  O  O15  1  0.614749  0.251915  0.856245  1
  O  O16  1  0.959272  0.776224  0.429453  1
  O  O17  1  0.533937  0.775398  0.421482  1
  O  O18  1  0.330480  0.065886  0.283518  1
  O  O19  1  0.466058  0.224606  0.578514  1
  O  O20  1  0.178349  0.882117  0.987635  1
  O  O21  1  0.040729  0.223781  0.570553  1
  O  O22  1  0.401628  0.447717  0.818957  1
  O  O23  1  0.669523  0.934121  0.716488  1
  O  O24  1  0.981453  0.680157  0.146772  1
  O  O25  1  0.821663  0.117881  0.012367  1
  O  O26  1  0.209898  0.409433  0.204596  1
  O  O27  1  0.790117  0.590570  0.795411  1
  O  O28  1  0.385264  0.748089  0.143761  1
  O  O29  1  0.068650  0.910379  0.733283  1
  O  O30  1  0.841657  0.390124  0.259815  1
  O  O31  1  0.018561  0.319844  0.853234  1
  O  O32  1  0.931347  0.089624  0.266713  1
  O  O33  1  0.158356  0.609881  0.740190  1
