# generated using pymatgen
data_Th7Fe3
_symmetry_space_group_name_H-M   'P 1'
_cell_length_a   9.68330560
_cell_length_b   9.68330560
_cell_length_c   6.23407569
_cell_angle_alpha   90.00000000
_cell_angle_beta   90.00000000
_cell_angle_gamma   120.00000001
_symmetry_Int_Tables_number   1
_chemical_formula_structural   Th7Fe3
_chemical_formula_sum   'Th14 Fe6'
_cell_volume   506.23244813
_cell_formula_units_Z   2
loop_
 _symmetry_equiv_pos_site_id
 _symmetry_equiv_pos_as_xyz
  1  'x, y, z'
loop_
 _atom_site_type_symbol
 _atom_site_label
 _atom_site_symmetry_multiplicity
 _atom_site_fract_x
 _atom_site_fract_y
 _atom_site_fract_z
 _atom_site_occupancy
  Fe  Fe0  1  0.815243  0.184757  0.293094  1
  Fe  Fe1  1  0.630485  0.815243  0.793094  1
  Fe  Fe2  1  0.184757  0.369515  0.793094  1
  Fe  Fe3  1  0.815243  0.630485  0.293094  1
  Fe  Fe4  1  0.369515  0.184757  0.293094  1
  Fe  Fe5  1  0.184757  0.815243  0.793094  1
  Th  Th6  1  0.333333  0.666667  0.030852  1
  Th  Th7  1  0.666667  0.333333  0.530852  1
  Th  Th8  1  0.124876  0.875124  0.249914  1
  Th  Th9  1  0.249752  0.124876  0.749914  1
  Th  Th10  1  0.875124  0.750248  0.749914  1
  Th  Th11  1  0.124876  0.249752  0.249914  1
  Th  Th12  1  0.750248  0.875124  0.249914  1
  Th  Th13  1  0.875124  0.124876  0.749914  1
  Th  Th14  1  0.542127  0.457873  0.056708  1
  Th  Th15  1  0.084254  0.542127  0.556708  1
  Th  Th16  1  0.457873  0.915746  0.556708  1
  Th  Th17  1  0.542127  0.084254  0.056708  1
  Th  Th18  1  0.915746  0.457873  0.056708  1
  Th  Th19  1  0.457873  0.542127  0.556708  1
