# generated using pymatgen
data_Te4MoW3(SeS)2
_symmetry_space_group_name_H-M   'P 1'
_cell_length_a   3.40279295
_cell_length_b   3.40284061
_cell_length_c   38.76562177
_cell_angle_alpha   89.99960215
_cell_angle_beta   90.00000000
_cell_angle_gamma   119.99953654
_symmetry_Int_Tables_number   1
_chemical_formula_structural   Te4MoW3(SeS)2
_chemical_formula_sum   'Te4 Mo1 W3 Se2 S2'
_cell_volume   388.73759729
_cell_formula_units_Z   1
loop_
 _symmetry_equiv_pos_site_id
 _symmetry_equiv_pos_as_xyz
  1  'x, y, z'
loop_
 _atom_site_type_symbol
 _atom_site_label
 _atom_site_symmetry_multiplicity
 _atom_site_fract_x
 _atom_site_fract_y
 _atom_site_fract_z
 _atom_site_occupancy
  Te  Te0  1  0.333354  0.666709  0.330376  1
  Te  Te1  1  0.333353  0.666707  0.706108  1
  Te  Te2  1  0.333360  0.666722  0.233277  1
  Te  Te3  1  0.333359  0.666719  0.608928  1
  Mo  Mo4  1  0.333297  0.666594  0.469666  1
  W  W5  1  0.333312  0.666623  0.093892  1
  W  W6  1  0.666688  0.333376  0.281823  1
  W  W7  1  0.666689  0.333377  0.657538  1
  Se  Se8  1  0.666646  0.333292  0.051223  1
  Se  Se9  1  0.666644  0.333288  0.136586  1
  S  S10  1  0.666653  0.333305  0.430977  1
  S  S11  1  0.666645  0.333289  0.508355  1
