# generated using pymatgen
data_TeMoWSeS2
_symmetry_space_group_name_H-M   'P 1'
_cell_length_a   3.30417244
_cell_length_b   3.30416788
_cell_length_c   37.59459593
_cell_angle_alpha   90.00016078
_cell_angle_beta   90.00000000
_cell_angle_gamma   120.00004562
_symmetry_Int_Tables_number   1
_chemical_formula_structural   TeMoWSeS2
_chemical_formula_sum   'Te2 Mo2 W2 Se2 S4'
_cell_volume   355.45175544
_cell_formula_units_Z   2
loop_
 _symmetry_equiv_pos_site_id
 _symmetry_equiv_pos_as_xyz
  1  'x, y, z'
loop_
 _atom_site_type_symbol
 _atom_site_label
 _atom_site_symmetry_multiplicity
 _atom_site_fract_x
 _atom_site_fract_y
 _atom_site_fract_z
 _atom_site_occupancy
  Te  Te0  1  0.333352  0.666704  0.708370  1
  Te  Te1  1  0.333355  0.666710  0.606738  1
  Mo  Mo2  1  0.333310  0.666620  0.093902  1
  Mo  Mo3  1  0.666692  0.333385  0.657567  1
  W  W4  1  0.333309  0.666619  0.469648  1
  W  W5  1  0.666692  0.333384  0.281798  1
  Se  Se6  1  0.666641  0.333280  0.049275  1
  Se  Se7  1  0.666647  0.333293  0.138566  1
  S  S8  1  0.333354  0.666710  0.322599  1
  S  S9  1  0.666647  0.333293  0.428853  1
  S  S10  1  0.666645  0.333290  0.510439  1
  S  S11  1  0.333356  0.666713  0.240994  1
