# generated using pymatgen
data_Te2MoWSeS
_symmetry_space_group_name_H-M   'P 1'
_cell_length_a   3.40130402
_cell_length_b   3.40130121
_cell_length_c   38.71129277
_cell_angle_alpha   90.00021119
_cell_angle_beta   90.00000000
_cell_angle_gamma   120.00002735
_symmetry_Int_Tables_number   1
_chemical_formula_structural   Te2MoWSeS
_chemical_formula_sum   'Te4 Mo2 W2 Se2 S2'
_cell_volume   387.84547827
_cell_formula_units_Z   2
loop_
 _symmetry_equiv_pos_site_id
 _symmetry_equiv_pos_as_xyz
  1  'x, y, z'
loop_
 _atom_site_type_symbol
 _atom_site_label
 _atom_site_symmetry_multiplicity
 _atom_site_fract_x
 _atom_site_fract_y
 _atom_site_fract_z
 _atom_site_occupancy
  Te  Te0  1  0.666644  0.333287  0.045513  1
  Te  Te1  1  0.666643  0.333286  0.420910  1
  Te  Te2  1  0.666645  0.333289  0.142358  1
  Te  Te3  1  0.666650  0.333299  0.518326  1
  Mo  Mo4  1  0.333307  0.666613  0.093910  1
  Mo  Mo5  1  0.666692  0.333385  0.281795  1
  W  W6  1  0.333312  0.666624  0.469632  1
  W  W7  1  0.666690  0.333379  0.657587  1
  Se  Se8  1  0.333352  0.666706  0.700347  1
  Se  Se9  1  0.333350  0.666702  0.614790  1
  S  S10  1  0.333360  0.666720  0.320555  1
  S  S11  1  0.333355  0.666710  0.243027  1
