# generated using pymatgen
data_MoW3(SeS3)2
_symmetry_space_group_name_H-M   'P 1'
_cell_length_a   3.22249530
_cell_length_b   3.22250113
_cell_length_c   36.37688944
_cell_angle_alpha   89.99985005
_cell_angle_beta   90.00000000
_cell_angle_gamma   119.99994011
_symmetry_Int_Tables_number   1
_chemical_formula_structural   MoW3(SeS3)2
_chemical_formula_sum   'Mo1 W3 Se2 S6'
_cell_volume   327.14615880
_cell_formula_units_Z   1
loop_
 _symmetry_equiv_pos_site_id
 _symmetry_equiv_pos_as_xyz
  1  'x, y, z'
loop_
 _atom_site_type_symbol
 _atom_site_label
 _atom_site_symmetry_multiplicity
 _atom_site_fract_x
 _atom_site_fract_y
 _atom_site_fract_z
 _atom_site_occupancy
  Mo  Mo0  1  0.333310  0.666619  0.093908  1
  W  W1  1  0.333311  0.666622  0.469654  1
  W  W2  1  0.666691  0.333383  0.281800  1
  W  W3  1  0.666689  0.333379  0.657567  1
  Se  Se4  1  0.333351  0.666703  0.704858  1
  Se  Se5  1  0.333352  0.666704  0.610267  1
  S  S6  1  0.333354  0.666709  0.324693  1
  S  S7  1  0.666648  0.333295  0.051185  1
  S  S8  1  0.666648  0.333296  0.426764  1
  S  S9  1  0.666645  0.333288  0.136634  1
  S  S10  1  0.666647  0.333294  0.512529  1
  S  S11  1  0.333354  0.666709  0.238889  1
