# generated using pymatgen
data_Pu(TeO3)2
_symmetry_space_group_name_H-M   'P 1'
_cell_length_a   7.03038344
_cell_length_b   7.42166467
_cell_length_c   11.30738343
_cell_angle_alpha   90.00000000
_cell_angle_beta   90.00000000
_cell_angle_gamma   107.83980216
_symmetry_Int_Tables_number   1
_chemical_formula_structural   Pu(TeO3)2
_chemical_formula_sum   'Pu4 Te8 O24'
_cell_volume   561.61856133
_cell_formula_units_Z   4
loop_
 _symmetry_equiv_pos_site_id
 _symmetry_equiv_pos_as_xyz
  1  'x, y, z'
loop_
 _atom_site_type_symbol
 _atom_site_label
 _atom_site_symmetry_multiplicity
 _atom_site_fract_x
 _atom_site_fract_y
 _atom_site_fract_z
 _atom_site_occupancy
  O  O0  1  0.316150  0.876953  0.274602  1
  O  O1  1  0.183850  0.623047  0.774602  1
  O  O2  1  0.683850  0.123047  0.725398  1
  O  O3  1  0.816150  0.376953  0.225398  1
  O  O4  1  0.949571  0.815830  0.400526  1
  O  O5  1  0.550429  0.684170  0.900526  1
  O  O6  1  0.050429  0.184170  0.599474  1
  O  O7  1  0.449571  0.315830  0.099474  1
  O  O8  1  0.321957  0.796087  0.520328  1
  O  O9  1  0.178043  0.703913  0.020328  1
  O  O10  1  0.678043  0.203913  0.479672  1
  O  O11  1  0.821957  0.296087  0.979672  1
  O  O12  1  0.861918  0.838762  0.741349  1
  O  O13  1  0.638082  0.661238  0.241349  1
  O  O14  1  0.138082  0.161238  0.258651  1
  O  O15  1  0.361918  0.338762  0.758651  1
  O  O16  1  0.584437  0.583665  0.596943  1
  O  O17  1  0.915563  0.916335  0.096943  1
  O  O18  1  0.415563  0.416335  0.403057  1
  O  O19  1  0.084437  0.083665  0.903057  1
  O  O20  1  0.930374  0.540729  0.595033  1
  O  O21  1  0.569626  0.959271  0.095033  1
  O  O22  1  0.069626  0.459271  0.404967  1
  O  O23  1  0.430374  0.040729  0.904967  1
  Te  Te24  1  0.226490  0.961016  0.417664  1
  Te  Te25  1  0.273510  0.538984  0.917664  1
  Te  Te26  1  0.773510  0.038984  0.582336  1
  Te  Te27  1  0.726490  0.461016  0.082336  1
  Te  Te28  1  0.261992  0.071238  0.775588  1
  Te  Te29  1  0.238008  0.428762  0.275588  1
  Te  Te30  1  0.738008  0.928762  0.224412  1
  Te  Te31  1  0.761992  0.571238  0.724412  1
  Pu  Pu32  1  0.241141  0.508120  0.590136  1
  Pu  Pu33  1  0.258859  0.991880  0.090136  1
  Pu  Pu34  1  0.758859  0.491880  0.409864  1
  Pu  Pu35  1  0.741141  0.008120  0.909864  1
