# generated using pymatgen
data_Na2LiB5(PO7)2
_symmetry_space_group_name_H-M   'P 1'
_cell_length_a   8.31478955
_cell_length_b   9.28962090
_cell_length_c   8.44542320
_cell_angle_alpha   90.00000000
_cell_angle_beta   115.86303137
_cell_angle_gamma   90.00000000
_symmetry_Int_Tables_number   1
_chemical_formula_structural   Na2LiB5(PO7)2
_chemical_formula_sum   'Na4 Li2 B10 P4 O28'
_cell_volume   586.99673857
_cell_formula_units_Z   2
loop_
 _symmetry_equiv_pos_site_id
 _symmetry_equiv_pos_as_xyz
  1  'x, y, z'
loop_
 _atom_site_type_symbol
 _atom_site_label
 _atom_site_symmetry_multiplicity
 _atom_site_fract_x
 _atom_site_fract_y
 _atom_site_fract_z
 _atom_site_occupancy
  Na  Na0  1  0.603315  0.250000  0.535580  1
  Na  Na1  1  0.396685  0.750000  0.464420  1
  Na  Na2  1  0.835227  0.250000  0.959709  1
  Na  Na3  1  0.164773  0.750000  0.040291  1
  Li  Li4  1  0.015679  0.250000  0.716681  1
  Li  Li5  1  0.984321  0.750000  0.283319  1
  B  B6  1  0.265106  0.250000  0.545078  1
  B  B7  1  0.734894  0.750000  0.454922  1
  B  B8  1  0.280828  0.250000  0.098113  1
  B  B9  1  0.719172  0.750000  0.901887  1
  B  B10  1  0.948547  0.250000  0.348785  1
  B  B11  1  0.051453  0.750000  0.651215  1
  B  B12  1  0.414433  0.250000  0.884137  1
  B  B13  1  0.585567  0.750000  0.115863  1
  B  B14  1  0.610180  0.250000  0.198256  1
  B  B15  1  0.389820  0.750000  0.801744  1
  P  P16  1  0.153756  0.441826  0.273492  1
  P  P17  1  0.846244  0.941826  0.726508  1
  P  P18  1  0.846244  0.558174  0.726508  1
  P  P19  1  0.153756  0.058174  0.273492  1
  O  O20  1  0.298469  0.381578  0.452614  1
  O  O21  1  0.701531  0.881578  0.547386  1
  O  O22  1  0.701531  0.618422  0.547386  1
  O  O23  1  0.298469  0.118422  0.452614  1
  O  O24  1  0.032476  0.881777  0.751288  1
  O  O25  1  0.967524  0.381777  0.248712  1
  O  O26  1  0.967524  0.118223  0.248712  1
  O  O27  1  0.032476  0.618223  0.751288  1
  O  O28  1  0.186202  0.381967  0.115801  1
  O  O29  1  0.813798  0.881967  0.884199  1
  O  O30  1  0.813798  0.618033  0.884199  1
  O  O31  1  0.186202  0.118033  0.115801  1
  O  O32  1  0.156060  0.896215  0.268008  1
  O  O33  1  0.843940  0.396215  0.731992  1
  O  O34  1  0.843940  0.103785  0.731992  1
  O  O35  1  0.156060  0.603785  0.268008  1
  O  O36  1  0.408590  0.250000  0.720684  1
  O  O37  1  0.591410  0.750000  0.279316  1
  O  O38  1  0.085931  0.250000  0.527064  1
  O  O39  1  0.914069  0.750000  0.472936  1
  O  O40  1  0.266665  0.250000  0.917705  1
  O  O41  1  0.733335  0.750000  0.082295  1
  O  O42  1  0.463980  0.250000  0.231994  1
  O  O43  1  0.536020  0.750000  0.768006  1
  O  O44  1  0.772613  0.250000  0.340423  1
  O  O45  1  0.227387  0.750000  0.659577  1
  O  O46  1  0.587658  0.250000  0.024111  1
  O  O47  1  0.412342  0.750000  0.975889  1
