# generated using pymatgen
data_YBe2B5O11
_symmetry_space_group_name_H-M   'P 1'
_cell_length_a   25.83481064
_cell_length_b   4.36660161
_cell_length_c   6.72502867
_cell_angle_alpha   90.00000000
_cell_angle_beta   90.00000000
_cell_angle_gamma   90.00000000
_symmetry_Int_Tables_number   1
_chemical_formula_structural   YBe2B5O11
_chemical_formula_sum   'Y4 Be8 B20 O44'
_cell_volume   758.65267484
_cell_formula_units_Z   4
loop_
 _symmetry_equiv_pos_site_id
 _symmetry_equiv_pos_as_xyz
  1  'x, y, z'
loop_
 _atom_site_type_symbol
 _atom_site_label
 _atom_site_symmetry_multiplicity
 _atom_site_fract_x
 _atom_site_fract_y
 _atom_site_fract_z
 _atom_site_occupancy
  Y  Y0  1  0.919570  0.864684  0.368237  1
  Y  Y1  1  0.080430  0.135316  0.868237  1
  Y  Y2  1  0.580430  0.364684  0.868237  1
  Y  Y3  1  0.419570  0.635316  0.368237  1
  Be  Be4  1  0.790885  0.169670  0.451456  1
  Be  Be5  1  0.209115  0.830330  0.951456  1
  Be  Be6  1  0.709115  0.669670  0.951456  1
  Be  Be7  1  0.290885  0.330330  0.451456  1
  Be  Be8  1  0.793268  0.667084  0.227258  1
  Be  Be9  1  0.206732  0.332916  0.727258  1
  Be  Be10  1  0.706732  0.167084  0.727258  1
  Be  Be11  1  0.293268  0.832916  0.227258  1
  B  B12  1  0.869875  0.374310  0.039898  1
  B  B13  1  0.130125  0.625690  0.539898  1
  B  B14  1  0.630125  0.874310  0.539898  1
  B  B15  1  0.369875  0.125690  0.039898  1
  B  B16  1  0.870779  0.146042  0.709741  1
  B  B17  1  0.129221  0.853958  0.209741  1
  B  B18  1  0.629221  0.646042  0.209741  1
  B  B19  1  0.370779  0.353958  0.709741  1
  B  B20  1  0.943410  0.025896  0.938939  1
  B  B21  1  0.056590  0.974104  0.438939  1
  B  B22  1  0.556590  0.525896  0.438939  1
  B  B23  1  0.443410  0.474104  0.938939  1
  B  B24  1  0.997973  0.537539  0.959633  1
  B  B25  1  0.002027  0.462461  0.459633  1
  B  B26  1  0.502027  0.037539  0.459633  1
  B  B27  1  0.497973  0.962461  0.959633  1
  B  B28  1  0.751706  0.181573  0.086530  1
  B  B29  1  0.248294  0.818427  0.586530  1
  B  B30  1  0.748294  0.681573  0.586530  1
  B  B31  1  0.251706  0.318427  0.086530  1
  O  O32  1  0.850036  0.351571  0.846525  1
  O  O33  1  0.149964  0.648429  0.346525  1
  O  O34  1  0.649964  0.851571  0.346525  1
  O  O35  1  0.350036  0.148429  0.846525  1
  O  O36  1  0.047400  0.628500  0.928154  1
  O  O37  1  0.952600  0.371500  0.428154  1
  O  O38  1  0.452600  0.128500  0.428154  1
  O  O39  1  0.547400  0.871500  0.928154  1
  O  O40  1  0.917201  0.992866  0.745827  1
  O  O41  1  0.082799  0.007134  0.245827  1
  O  O42  1  0.582799  0.492866  0.245827  1
  O  O43  1  0.417201  0.507134  0.745827  1
  O  O44  1  0.990522  0.221579  0.927284  1
  O  O45  1  0.009478  0.778421  0.427284  1
  O  O46  1  0.509478  0.721579  0.427284  1
  O  O47  1  0.490522  0.278421  0.927284  1
  O  O48  1  0.907724  0.157079  0.087741  1
  O  O49  1  0.092276  0.842921  0.587741  1
  O  O50  1  0.592276  0.657079  0.587741  1
  O  O51  1  0.407724  0.342921  0.087741  1
  O  O52  1  0.849503  0.086192  0.528071  1
  O  O53  1  0.150497  0.913808  0.028071  1
  O  O54  1  0.650497  0.586192  0.028071  1
  O  O55  1  0.349503  0.413808  0.528071  1
  O  O56  1  0.853958  0.580007  0.178431  1
  O  O57  1  0.146042  0.419993  0.678431  1
  O  O58  1  0.646042  0.080007  0.678431  1
  O  O59  1  0.353958  0.919993  0.178431  1
  O  O60  1  0.957278  0.723473  0.019361  1
  O  O61  1  0.042722  0.276527  0.519361  1
  O  O62  1  0.542722  0.223473  0.519361  1
  O  O63  1  0.457278  0.776527  0.019361  1
  O  O64  1  0.783371  0.032196  0.221934  1
  O  O65  1  0.216629  0.967804  0.721934  1
  O  O66  1  0.716629  0.532196  0.721934  1
  O  O67  1  0.283371  0.467804  0.221934  1
  O  O68  1  0.752061  0.496353  0.085408  1
  O  O69  1  0.247939  0.503647  0.585408  1
  O  O70  1  0.747939  0.996353  0.585408  1
  O  O71  1  0.252061  0.003647  0.085408  1
  O  O72  1  0.720427  0.031288  0.953181  1
  O  O73  1  0.279573  0.968712  0.453181  1
  O  O74  1  0.779573  0.531288  0.453181  1
  O  O75  1  0.220427  0.468712  0.953181  1
