# generated using pymatgen
data_Cr5O12
_symmetry_space_group_name_H-M   'P 1'
_cell_length_a   8.39147485
_cell_length_b   8.42677235
_cell_length_c   12.27027098
_cell_angle_alpha   90.00000000
_cell_angle_beta   90.00000000
_cell_angle_gamma   90.00000000
_symmetry_Int_Tables_number   1
_chemical_formula_structural   Cr5O12
_chemical_formula_sum   'Cr20 O48'
_cell_volume   867.66826375
_cell_formula_units_Z   4
loop_
 _symmetry_equiv_pos_site_id
 _symmetry_equiv_pos_as_xyz
  1  'x, y, z'
loop_
 _atom_site_type_symbol
 _atom_site_label
 _atom_site_symmetry_multiplicity
 _atom_site_fract_x
 _atom_site_fract_y
 _atom_site_fract_z
 _atom_site_occupancy
  O  O0  1  0.642960  0.008181  0.754067  1
  O  O1  1  0.142960  0.491818  0.745933  1
  O  O2  1  0.857040  0.008181  0.245933  1
  O  O3  1  0.357039  0.491818  0.254067  1
  O  O4  1  0.357039  0.991818  0.245933  1
  O  O5  1  0.857040  0.508181  0.254067  1
  O  O6  1  0.142960  0.991818  0.754067  1
  O  O7  1  0.642960  0.508181  0.745933  1
  O  O8  1  0.623602  0.220377  0.568950  1
  O  O9  1  0.123602  0.279623  0.931050  1
  O  O10  1  0.876397  0.220377  0.431050  1
  O  O11  1  0.376397  0.279623  0.068950  1
  O  O12  1  0.376397  0.779623  0.431050  1
  O  O13  1  0.876397  0.720377  0.068950  1
  O  O14  1  0.123602  0.779623  0.568950  1
  O  O15  1  0.623602  0.720377  0.931050  1
  O  O16  1  0.145197  0.015427  0.419697  1
  O  O17  1  0.354803  0.515428  0.919697  1
  O  O18  1  0.645196  0.984573  0.419697  1
  O  O19  1  0.145197  0.515428  0.080303  1
  O  O20  1  0.915170  0.273419  0.752204  1
  O  O21  1  0.415170  0.226581  0.747795  1
  O  O22  1  0.584830  0.273419  0.247795  1
  O  O23  1  0.084831  0.226581  0.252204  1
  O  O24  1  0.084831  0.726581  0.247795  1
  O  O25  1  0.584830  0.773420  0.252204  1
  O  O26  1  0.415170  0.726581  0.752204  1
  O  O27  1  0.915170  0.773420  0.747795  1
  O  O28  1  0.647133  0.221847  0.920857  1
  O  O29  1  0.147133  0.278155  0.579143  1
  O  O30  1  0.852866  0.221847  0.079143  1
  O  O31  1  0.352867  0.278155  0.420857  1
  O  O32  1  0.352867  0.778154  0.079143  1
  O  O33  1  0.852866  0.721846  0.420857  1
  O  O34  1  0.147133  0.778154  0.920857  1
  O  O35  1  0.647133  0.721846  0.579143  1
  O  O36  1  0.911988  0.014692  0.898704  1
  O  O37  1  0.411987  0.485308  0.601297  1
  O  O38  1  0.588012  0.014692  0.101296  1
  O  O39  1  0.088012  0.485308  0.398704  1
  O  O40  1  0.088012  0.985308  0.101296  1
  O  O41  1  0.588012  0.514692  0.398704  1
  O  O42  1  0.411987  0.985308  0.898704  1
  O  O43  1  0.911988  0.514692  0.601297  1
  O  O44  1  0.854804  0.484573  0.919697  1
  O  O45  1  0.354803  0.015427  0.580303  1
  O  O46  1  0.645196  0.484573  0.080303  1
  O  O47  1  0.854804  0.984573  0.580303  1
  Cr  Cr48  1  0.890233  0.747996  0.586501  1
  Cr  Cr49  1  0.390234  0.752004  0.913499  1
  Cr  Cr50  1  0.609767  0.747996  0.413498  1
  Cr  Cr51  1  0.109767  0.752004  0.086501  1
  Cr  Cr52  1  0.109767  0.252004  0.413498  1
  Cr  Cr53  1  0.609767  0.247996  0.086501  1
  Cr  Cr54  1  0.390234  0.252004  0.586501  1
  Cr  Cr55  1  0.890233  0.247996  0.913499  1
  Cr  Cr56  1  0.528150  0.610064  0.671686  1
  Cr  Cr57  1  0.028149  0.889937  0.828314  1
  Cr  Cr58  1  0.971850  0.610064  0.328314  1
  Cr  Cr59  1  0.471851  0.889937  0.171686  1
  Cr  Cr60  1  0.471851  0.389936  0.328314  1
  Cr  Cr61  1  0.971850  0.110064  0.171686  1
  Cr  Cr62  1  0.028149  0.389936  0.671686  1
  Cr  Cr63  1  0.528150  0.110064  0.828314  1
  Cr  Cr64  1  0.750000  0.103212  0.500000  1
  Cr  Cr65  1  0.250000  0.396788  0.000000  1
  Cr  Cr66  1  0.250000  0.896788  0.500000  1
  Cr  Cr67  1  0.750000  0.603212  0.000000  1
