# generated using pymatgen
data_Te4Mo3W(SeS)2
_symmetry_space_group_name_H-M   'P 1'
_cell_length_a   3.39822009
_cell_length_b   3.39803123
_cell_length_c   39.29139124
_cell_angle_alpha   89.99597611
_cell_angle_beta   90.00000280
_cell_angle_gamma   119.99684978
_symmetry_Int_Tables_number   1
_chemical_formula_structural   Te4Mo3W(SeS)2
_chemical_formula_sum   'Te4 Mo3 W1 Se2 S2'
_cell_volume   392.93497941
_cell_formula_units_Z   1
loop_
 _symmetry_equiv_pos_site_id
 _symmetry_equiv_pos_as_xyz
  1  'x, y, z'
loop_
 _atom_site_type_symbol
 _atom_site_label
 _atom_site_symmetry_multiplicity
 _atom_site_fract_x
 _atom_site_fract_y
 _atom_site_fract_z
 _atom_site_occupancy
  Te  Te0  1  0.333303  0.666634  0.330158  1
  Te  Te1  1  0.666660  0.333282  0.045520  1
  Te  Te2  1  0.666618  0.333218  0.140925  1
  Te  Te3  1  0.333381  0.666763  0.234744  1
  Mo  Mo4  1  0.333277  0.666578  0.093226  1
  Mo  Mo5  1  0.333338  0.666651  0.469692  1
  Mo  Mo6  1  0.666726  0.333402  0.282457  1
  W  W7  1  0.666776  0.333506  0.657550  1
  Se  Se8  1  0.333343  0.666687  0.699596  1
  Se  Se9  1  0.333420  0.666838  0.615464  1
  S  S10  1  0.666585  0.333219  0.431462  1
  S  S11  1  0.666574  0.333222  0.507954  1
