# generated using pymatgen
data_Zr3ZnN
_symmetry_space_group_name_H-M   'P 1'
_cell_length_a   6.01338312
_cell_length_b   6.01338312
_cell_length_c   8.97382728
_cell_angle_alpha   90.00000000
_cell_angle_beta   90.00000000
_cell_angle_gamma   147.49750972
_symmetry_Int_Tables_number   1
_chemical_formula_structural   Zr3ZnN
_chemical_formula_sum   'Zr6 Zn2 N2'
_cell_volume   174.36592047
_cell_formula_units_Z   2
loop_
 _symmetry_equiv_pos_site_id
 _symmetry_equiv_pos_as_xyz
  1  'x, y, z'
loop_
 _atom_site_type_symbol
 _atom_site_label
 _atom_site_symmetry_multiplicity
 _atom_site_fract_x
 _atom_site_fract_y
 _atom_site_fract_z
 _atom_site_occupancy
  Zr  Zr0  1  0.625878  0.374122  0.047080  1
  Zr  Zr1  1  0.374122  0.625878  0.547080  1
  Zr  Zr2  1  0.374122  0.625878  0.952920  1
  Zr  Zr3  1  0.625878  0.374122  0.452920  1
  Zr  Zr4  1  0.953083  0.046917  0.250000  1
  Zr  Zr5  1  0.046917  0.953083  0.750000  1
  Zn  Zn6  1  0.255370  0.744630  0.250000  1
  Zn  Zn7  1  0.744630  0.255370  0.750000  1
  N  N8  1  -0.000000  -0.000000  0.000000  1
  N  N9  1  0.000000  0.000000  0.500000  1
