# generated using pymatgen
data_BaMnP2O7
_symmetry_space_group_name_H-M   'P 1'
_cell_length_a   5.51918709
_cell_length_b   7.48119123
_cell_length_c   7.69957832
_cell_angle_alpha   102.67362664
_cell_angle_beta   91.29736739
_cell_angle_gamma   93.84880622
_symmetry_Int_Tables_number   1
_chemical_formula_structural   BaMnP2O7
_chemical_formula_sum   'Ba2 Mn2 P4 O14'
_cell_volume   309.24283473
_cell_formula_units_Z   2
loop_
 _symmetry_equiv_pos_site_id
 _symmetry_equiv_pos_as_xyz
  1  'x, y, z'
loop_
 _atom_site_type_symbol
 _atom_site_label
 _atom_site_symmetry_multiplicity
 _atom_site_fract_x
 _atom_site_fract_y
 _atom_site_fract_z
 _atom_site_occupancy
  O  O0  1  0.546063  0.271813  0.389071  1
  O  O1  1  0.453937  0.728187  0.610929  1
  O  O2  1  0.782147  0.987174  0.739888  1
  O  O3  1  0.217853  0.012826  0.260112  1
  O  O4  1  0.098694  0.334405  0.401331  1
  O  O5  1  0.901306  0.665595  0.598669  1
  O  O6  1  0.732270  0.870131  0.408553  1
  O  O7  1  0.267730  0.129869  0.591447  1
  O  O8  1  0.079591  0.389703  0.804273  1
  O  O9  1  0.920409  0.610297  0.195727  1
  O  O10  1  0.541068  0.379820  0.800104  1
  O  O11  1  0.458932  0.620180  0.199896  1
  O  O12  1  0.285538  0.145943  0.924354  1
  O  O13  1  0.714462  0.854057  0.075646  1
  P  P14  1  0.704204  0.733487  0.211477  1
  P  P15  1  0.295796  0.266513  0.788523  1
  P  P16  1  0.713339  0.814881  0.601763  1
  P  P17  1  0.286661  0.185119  0.398237  1
  Mn  Mn18  1  0.198718  0.620424  0.398481  1
  Mn  Mn19  1  0.801282  0.379576  0.601519  1
  Ba  Ba20  1  0.213282  0.776957  0.937012  1
  Ba  Ba21  1  0.786718  0.223043  0.062988  1
