# generated using pymatgen
data_Tm3FeSi3
_symmetry_space_group_name_H-M   'P 1'
_cell_length_a   4.11690878
_cell_length_b   5.56723082
_cell_length_c   12.61698841
_cell_angle_alpha   84.92490045
_cell_angle_beta   80.61025237
_cell_angle_gamma   68.30012360
_symmetry_Int_Tables_number   1
_chemical_formula_structural   Tm3FeSi3
_chemical_formula_sum   'Tm6 Fe2 Si6'
_cell_volume   264.96057484
_cell_formula_units_Z   2
loop_
 _symmetry_equiv_pos_site_id
 _symmetry_equiv_pos_as_xyz
  1  'x, y, z'
loop_
 _atom_site_type_symbol
 _atom_site_label
 _atom_site_symmetry_multiplicity
 _atom_site_fract_x
 _atom_site_fract_y
 _atom_site_fract_z
 _atom_site_occupancy
  Si  Si0  1  0.142790  0.257721  0.456699  1
  Si  Si1  1  0.857210  0.742279  0.543301  1
  Si  Si2  1  0.114748  0.845834  0.924669  1
  Si  Si3  1  0.885252  0.154166  0.075331  1
  Si  Si4  1  0.054344  0.133314  0.757997  1
  Si  Si5  1  0.945656  0.866686  0.242003  1
  Fe  Fe6  1  0.752792  0.079147  0.415269  1
  Fe  Fe7  1  0.247208  0.920853  0.584731  1
  Tm  Tm8  1  0.748602  0.732617  0.770180  1
  Tm  Tm9  1  0.251398  0.267383  0.229820  1
  Tm  Tm10  1  0.523852  0.331737  0.620559  1
  Tm  Tm11  1  0.476148  0.668263  0.379441  1
  Tm  Tm12  1  0.399080  0.282739  0.919101  1
  Tm  Tm13  1  0.600920  0.717261  0.080899  1
