# generated using pymatgen
data_Te2MoWS2
_symmetry_space_group_name_H-M   'P 1'
_cell_length_a   3.35802250
_cell_length_b   3.35820799
_cell_length_c   38.32338657
_cell_angle_alpha   89.99957545
_cell_angle_beta   90.00000000
_cell_angle_gamma   119.99817282
_symmetry_Int_Tables_number   1
_chemical_formula_structural   Te2MoWS2
_chemical_formula_sum   'Te4 Mo2 W2 S4'
_cell_volume   374.27748318
_cell_formula_units_Z   2
loop_
 _symmetry_equiv_pos_site_id
 _symmetry_equiv_pos_as_xyz
  1  'x, y, z'
loop_
 _atom_site_type_symbol
 _atom_site_label
 _atom_site_symmetry_multiplicity
 _atom_site_fract_x
 _atom_site_fract_y
 _atom_site_fract_z
 _atom_site_occupancy
  Te  Te0  1  0.333350  0.666700  0.707199  1
  Te  Te1  1  0.666636  0.333272  0.044536  1
  Te  Te2  1  0.666643  0.333286  0.143303  1
  Te  Te3  1  0.333372  0.666745  0.607861  1
  Mo  Mo4  1  0.333311  0.666621  0.093892  1
  Mo  Mo5  1  0.333297  0.666594  0.469658  1
  W  W6  1  0.666713  0.333426  0.281810  1
  W  W7  1  0.666690  0.333381  0.657557  1
  S  S8  1  0.333339  0.666679  0.321444  1
  S  S9  1  0.666653  0.333305  0.430184  1
  S  S10  1  0.666650  0.333299  0.509130  1
  S  S11  1  0.333345  0.666691  0.242175  1
