# generated using pymatgen
data_Pr2NiO4
_symmetry_space_group_name_H-M   'P 1'
_cell_length_a   5.44864597
_cell_length_b   5.68985343
_cell_length_c   6.73582367
_cell_angle_alpha   90.00000000
_cell_angle_beta   113.85684357
_cell_angle_gamma   90.00000000
_symmetry_Int_Tables_number   1
_chemical_formula_structural   Pr2NiO4
_chemical_formula_sum   'Pr4 Ni2 O8'
_cell_volume   190.98182519
_cell_formula_units_Z   2
loop_
 _symmetry_equiv_pos_site_id
 _symmetry_equiv_pos_as_xyz
  1  'x, y, z'
loop_
 _atom_site_type_symbol
 _atom_site_label
 _atom_site_symmetry_multiplicity
 _atom_site_fract_x
 _atom_site_fract_y
 _atom_site_fract_z
 _atom_site_occupancy
  O  O0  1  0.321147  0.433214  0.642294  1
  O  O1  1  0.678852  0.566787  0.357707  1
  O  O2  1  0.178854  0.933213  0.357706  1
  O  O3  1  0.821146  0.066787  0.642294  1
  O  O4  1  0.269183  0.250001  0.038366  1
  O  O5  1  0.230818  0.750000  0.961634  1
  O  O6  1  0.769183  0.250001  0.038367  1
  O  O7  1  0.730817  0.750000  0.961634  1
  Ni  Ni8  1  0.500001  0.499999  0.000001  1
  Ni  Ni9  1  0.000000  0.000000  0.000000  1
  Pr  Pr10  1  0.863125  0.483502  0.726251  1
  Pr  Pr11  1  0.136874  0.516499  0.273749  1
  Pr  Pr12  1  0.363125  0.016500  0.726250  1
  Pr  Pr13  1  0.636875  0.983501  0.273750  1
