# generated using pymatgen
data_AgMoPO6
_symmetry_space_group_name_H-M   'P 1'
_cell_length_a   6.43510587
_cell_length_b   12.19040824
_cell_length_c   12.32497551
_cell_angle_alpha   90.00000000
_cell_angle_beta   92.96904609
_cell_angle_gamma   90.00000000
_symmetry_Int_Tables_number   1
_chemical_formula_structural   AgMoPO6
_chemical_formula_sum   'Ag8 Mo8 P8 O48'
_cell_volume   965.55418326
_cell_formula_units_Z   8
loop_
 _symmetry_equiv_pos_site_id
 _symmetry_equiv_pos_as_xyz
  1  'x, y, z'
loop_
 _atom_site_type_symbol
 _atom_site_label
 _atom_site_symmetry_multiplicity
 _atom_site_fract_x
 _atom_site_fract_y
 _atom_site_fract_z
 _atom_site_occupancy
  O  O0  1  0.718568  0.834487  0.257126  1
  O  O1  1  0.781431  0.334487  0.242874  1
  O  O2  1  0.281431  0.165513  0.742874  1
  O  O3  1  0.218569  0.665513  0.757126  1
  O  O4  1  0.747448  0.537223  0.142989  1
  O  O5  1  0.752552  0.037223  0.357011  1
  O  O6  1  0.252552  0.462777  0.857011  1
  O  O7  1  0.247448  0.962777  0.642989  1
  O  O8  1  0.207248  0.702781  0.271452  1
  O  O9  1  0.292753  0.202781  0.228548  1
  O  O10  1  0.792752  0.297219  0.728547  1
  O  O11  1  0.707247  0.797219  0.771453  1
  O  O12  1  0.269689  0.673090  0.494166  1
  O  O13  1  0.230310  0.173090  0.005834  1
  O  O14  1  0.730311  0.326910  0.505833  1
  O  O15  1  0.769690  0.826910  0.994167  1
  O  O16  1  0.271170  0.570321  0.062012  1
  O  O17  1  0.772517  0.737616  0.466234  1
  O  O18  1  0.728830  0.429679  0.937988  1
  O  O19  1  0.771169  0.929680  0.562012  1
  O  O20  1  0.243722  0.978013  0.253339  1
  O  O21  1  0.256277  0.478013  0.246661  1
  O  O22  1  0.756278  0.021987  0.746661  1
  O  O23  1  0.743723  0.521987  0.753339  1
  O  O24  1  0.940805  0.569409  0.381711  1
  O  O25  1  0.559195  0.069410  0.118289  1
  O  O26  1  0.059195  0.430591  0.618289  1
  O  O27  1  0.440805  0.930591  0.881711  1
  O  O28  1  0.558514  0.596408  0.356114  1
  O  O29  1  0.941485  0.096409  0.143886  1
  O  O30  1  0.441486  0.403592  0.643886  1
  O  O31  1  0.058516  0.903591  0.856114  1
  O  O32  1  0.939703  0.605741  0.915330  1
  O  O33  1  0.560298  0.105740  0.584670  1
  O  O34  1  0.060297  0.394259  0.084670  1
  O  O35  1  0.439702  0.894260  0.415330  1
  O  O36  1  0.555739  0.614732  0.904012  1
  O  O37  1  0.944260  0.114733  0.595988  1
  O  O38  1  0.444261  0.385267  0.095988  1
  O  O39  1  0.055740  0.885268  0.404012  1
  O  O40  1  0.713527  0.553733  0.544756  1
  O  O41  1  0.786472  0.053732  0.955244  1
  O  O42  1  0.286473  0.446267  0.455245  1
  O  O43  1  0.213528  0.946268  0.044756  1
  O  O44  1  0.272517  0.762385  0.966234  1
  O  O45  1  0.227483  0.262384  0.533766  1
  O  O46  1  0.727483  0.237615  0.033766  1
  O  O47  1  0.228831  0.070321  0.437988  1
  P  P48  1  0.241900  0.960560  0.376482  1
  P  P49  1  0.258099  0.460559  0.123518  1
  P  P50  1  0.758100  0.039440  0.623519  1
  P  P51  1  0.741901  0.539441  0.876481  1
  P  P52  1  0.748018  0.614443  0.437704  1
  P  P53  1  0.751982  0.114443  0.062296  1
  P  P54  1  0.251982  0.385556  0.562296  1
  P  P55  1  0.248018  0.885557  0.937704  1
  Mo  Mo56  1  0.741695  0.898000  0.386424  1
  Mo  Mo57  1  0.758305  0.398000  0.113576  1
  Mo  Mo58  1  0.258305  0.102000  0.613576  1
  Mo  Mo59  1  0.241695  0.601999  0.886424  1
  Mo  Mo60  1  0.245588  0.600394  0.370396  1
  Mo  Mo61  1  0.254411  0.100394  0.129604  1
  Mo  Mo62  1  0.754412  0.399606  0.629604  1
  Mo  Mo63  1  0.745589  0.899606  0.870396  1
  Ag  Ag64  1  0.018087  0.801788  0.144812  1
  Ag  Ag65  1  0.481912  0.301788  0.355188  1
  Ag  Ag66  1  0.981913  0.198212  0.855189  1
  Ag  Ag67  1  0.518088  0.698212  0.644811  1
  Ag  Ag68  1  0.559764  0.710419  0.121822  1
  Ag  Ag69  1  0.940237  0.210419  0.378177  1
  Ag  Ag70  1  0.440236  0.289581  0.878177  1
  Ag  Ag71  1  0.059764  0.789581  0.621822  1
