# generated using pymatgen
data_KPrGeSe4
_symmetry_space_group_name_H-M   'P 1'
_cell_length_a   6.97772526
_cell_length_b   7.15458742
_cell_length_c   9.19580228
_cell_angle_alpha   90.00000000
_cell_angle_beta   107.60573349
_cell_angle_gamma   90.00000000
_symmetry_Int_Tables_number   1
_chemical_formula_structural   KPrGeSe4
_chemical_formula_sum   'K2 Pr2 Ge2 Se8'
_cell_volume   437.57658890
_cell_formula_units_Z   2
loop_
 _symmetry_equiv_pos_site_id
 _symmetry_equiv_pos_as_xyz
  1  'x, y, z'
loop_
 _atom_site_type_symbol
 _atom_site_label
 _atom_site_symmetry_multiplicity
 _atom_site_fract_x
 _atom_site_fract_y
 _atom_site_fract_z
 _atom_site_occupancy
  K  K0  1  0.744144  0.504330  0.936978  1
  K  K1  1  0.255856  0.004330  0.063022  1
  Ge  Ge2  1  0.777893  0.031803  0.677107  1
  Ge  Ge3  1  0.222107  0.531803  0.322893  1
  Se  Se4  1  0.983046  0.757709  0.711282  1
  Se  Se5  1  0.029885  0.270519  0.728279  1
  Se  Se6  1  0.422484  0.536136  0.157957  1
  Se  Se7  1  0.577516  0.036136  0.842043  1
  Se  Se8  1  0.573102  0.097307  0.423479  1
  Se  Se9  1  0.426898  0.597307  0.576521  1
  Se  Se10  1  0.970115  0.770519  0.271721  1
  Se  Se11  1  0.016954  0.257709  0.288718  1
  Pr  Pr12  1  0.771139  0.498895  0.447711  1
  Pr  Pr13  1  0.228861  0.998895  0.552289  1
