# generated using pymatgen
data_RbDy(SO4)2
_symmetry_space_group_name_H-M   'P 1'
_cell_length_a   5.34935102
_cell_length_b   9.58404987
_cell_length_c   13.55566696
_cell_angle_alpha   90.00000000
_cell_angle_beta   90.00000000
_cell_angle_gamma   90.00000000
_symmetry_Int_Tables_number   1
_chemical_formula_structural   RbDy(SO4)2
_chemical_formula_sum   'Rb4 Dy4 S8 O32'
_cell_volume   694.97799238
_cell_formula_units_Z   4
loop_
 _symmetry_equiv_pos_site_id
 _symmetry_equiv_pos_as_xyz
  1  'x, y, z'
loop_
 _atom_site_type_symbol
 _atom_site_label
 _atom_site_symmetry_multiplicity
 _atom_site_fract_x
 _atom_site_fract_y
 _atom_site_fract_z
 _atom_site_occupancy
  O  O0  1  0.012531  0.847535  0.099588  1
  O  O1  1  0.012531  0.652465  0.900412  1
  O  O2  1  0.487469  0.847535  0.400412  1
  O  O3  1  0.487469  0.652465  0.599588  1
  O  O4  1  0.987469  0.152465  0.900412  1
  O  O5  1  0.987469  0.347535  0.099588  1
  O  O6  1  0.512531  0.152465  0.599588  1
  O  O7  1  0.512531  0.347535  0.400412  1
  O  O8  1  0.565179  0.842584  0.142374  1
  O  O9  1  0.565179  0.657416  0.857626  1
  O  O10  1  0.934821  0.842584  0.357626  1
  O  O11  1  0.934821  0.657416  0.642374  1
  O  O12  1  0.434821  0.157416  0.857626  1
  O  O13  1  0.434821  0.342584  0.142374  1
  O  O14  1  0.065179  0.157416  0.642374  1
  O  O15  1  0.065179  0.342584  0.357626  1
  O  O16  1  0.281318  0.564136  0.390341  1
  O  O17  1  0.281318  0.935864  0.609659  1
  O  O18  1  0.218682  0.564136  0.109659  1
  O  O19  1  0.218682  0.935864  0.890341  1
  O  O20  1  0.718682  0.435864  0.609659  1
  O  O21  1  0.718682  0.064136  0.390341  1
  O  O22  1  0.781318  0.435864  0.890341  1
  O  O23  1  0.781318  0.064136  0.109659  1
  O  O24  1  0.185534  0.397492  0.522261  1
  O  O25  1  0.185534  0.102508  0.477739  1
  O  O26  1  0.314466  0.397492  0.977739  1
  O  O27  1  0.314466  0.102508  0.022261  1
  O  O28  1  0.814466  0.602508  0.477739  1
  O  O29  1  0.814466  0.897492  0.522261  1
  O  O30  1  0.685534  0.602508  0.022261  1
  O  O31  1  0.685534  0.897492  0.977739  1
  S  S32  1  0.764021  0.913460  0.082887  1
  S  S33  1  0.764021  0.586540  0.917113  1
  S  S34  1  0.735979  0.913460  0.417113  1
  S  S35  1  0.735979  0.586540  0.582887  1
  S  S36  1  0.235979  0.086540  0.917113  1
  S  S37  1  0.235979  0.413460  0.082887  1
  S  S38  1  0.264021  0.086540  0.582887  1
  S  S39  1  0.264021  0.413460  0.417113  1
  Rb  Rb40  1  0.250000  0.077687  0.250000  1
  Rb  Rb41  1  0.250000  0.422313  0.750000  1
  Rb  Rb42  1  0.750000  0.922313  0.750000  1
  Rb  Rb43  1  0.750000  0.577687  0.250000  1
  Dy  Dy44  1  0.172881  0.750000  0.500000  1
  Dy  Dy45  1  0.327119  0.750000  0.000000  1
  Dy  Dy46  1  0.827119  0.250000  0.500000  1
  Dy  Dy47  1  0.672881  0.250000  0.000000  1
