# generated using pymatgen
data_Te2Mo2W(SeS)2
_symmetry_space_group_name_H-M   'P 1'
_cell_length_a   3.35149796
_cell_length_b   3.35156959
_cell_length_c   30.93880656
_cell_angle_alpha   90.00076392
_cell_angle_beta   90.00002112
_cell_angle_gamma   119.99806004
_symmetry_Int_Tables_number   1
_chemical_formula_structural   Te2Mo2W(SeS)2
_chemical_formula_sum   'Te2 Mo2 W1 Se2 S2'
_cell_volume   300.97462320
_cell_formula_units_Z   1
loop_
 _symmetry_equiv_pos_site_id
 _symmetry_equiv_pos_as_xyz
  1  'x, y, z'
loop_
 _atom_site_type_symbol
 _atom_site_label
 _atom_site_symmetry_multiplicity
 _atom_site_fract_x
 _atom_site_fract_y
 _atom_site_fract_z
 _atom_site_occupancy
  Te  Te0  1  0.666643  0.333285  0.516732  1
  Te  Te1  1  0.666640  0.333279  0.639886  1
  Mo  Mo2  1  0.333310  0.666620  0.115649  1
  Mo  Mo3  1  0.666710  0.333417  0.346963  1
  W  W4  1  0.333309  0.666617  0.578334  1
  Se  Se5  1  0.666645  0.333290  0.061874  1
  Se  Se6  1  0.666651  0.333301  0.169460  1
  S  S7  1  0.333349  0.666698  0.395911  1
  S  S8  1  0.333345  0.666691  0.298033  1
