# generated using pymatgen
data_Ho2Ge2Os
_symmetry_space_group_name_H-M   'P 1'
_cell_length_a   4.29798719
_cell_length_b   5.79712419
_cell_length_c   9.19088716
_cell_angle_alpha   81.39831594
_cell_angle_beta   76.47804994
_cell_angle_gamma   68.24120908
_symmetry_Int_Tables_number   1
_chemical_formula_structural   Ho2Ge2Os
_chemical_formula_sum   'Ho4 Ge4 Os2'
_cell_volume   206.28660071
_cell_formula_units_Z   2
loop_
 _symmetry_equiv_pos_site_id
 _symmetry_equiv_pos_as_xyz
  1  'x, y, z'
loop_
 _atom_site_type_symbol
 _atom_site_label
 _atom_site_symmetry_multiplicity
 _atom_site_fract_x
 _atom_site_fract_y
 _atom_site_fract_z
 _atom_site_occupancy
  Ge  Ge0  1  0.487227  0.150230  0.875315  1
  Ge  Ge1  1  0.357559  0.723176  0.561706  1
  Ge  Ge2  1  0.512773  0.849770  0.124685  1
  Ge  Ge3  1  0.642441  0.276824  0.438294  1
  Ho  Ho4  1  0.816351  0.252243  0.115056  1
  Ho  Ho5  1  0.004097  0.666590  0.325216  1
  Ho  Ho6  1  0.183649  0.747757  0.884944  1
  Ho  Ho7  1  0.995903  0.333410  0.674784  1
  Os  Os8  1  0.729947  0.908078  0.632027  1
  Os  Os9  1  0.270053  0.091922  0.367973  1
