# generated using pymatgen
data_Te4MoW3(SeS)2
_symmetry_space_group_name_H-M   'P 1'
_cell_length_a   3.39414877
_cell_length_b   3.39437742
_cell_length_c   38.75347986
_cell_angle_alpha   90.00000886
_cell_angle_beta   90.00000000
_cell_angle_gamma   119.99777187
_symmetry_Int_Tables_number   1
_chemical_formula_structural   Te4MoW3(SeS)2
_chemical_formula_sum   'Te4 Mo1 W3 Se2 S2'
_cell_volume   386.67143603
_cell_formula_units_Z   1
loop_
 _symmetry_equiv_pos_site_id
 _symmetry_equiv_pos_as_xyz
  1  'x, y, z'
loop_
 _atom_site_type_symbol
 _atom_site_label
 _atom_site_symmetry_multiplicity
 _atom_site_fract_x
 _atom_site_fract_y
 _atom_site_fract_z
 _atom_site_occupancy
  Te  Te0  1  0.333353  0.666708  0.706176  1
  Te  Te1  1  0.666639  0.333277  0.045638  1
  Te  Te2  1  0.666647  0.333294  0.142234  1
  Te  Te3  1  0.333372  0.666746  0.608895  1
  Mo  Mo4  1  0.333308  0.666616  0.093905  1
  W  W5  1  0.333312  0.666625  0.469642  1
  W  W6  1  0.666708  0.333416  0.281790  1
  W  W7  1  0.666689  0.333378  0.657568  1
  Se  Se8  1  0.666649  0.333297  0.426968  1
  Se  Se9  1  0.666650  0.333299  0.512332  1
  S  S10  1  0.333336  0.666673  0.320668  1
  S  S11  1  0.333336  0.666673  0.242933  1
