# generated using pymatgen
data_LaYbSe3
_symmetry_space_group_name_H-M   'P 1'
_cell_length_a   4.20440025
_cell_length_b   7.57814848
_cell_length_c   9.30070998
_cell_angle_alpha   90.00000000
_cell_angle_beta   90.00000000
_cell_angle_gamma   106.10526071
_symmetry_Int_Tables_number   1
_chemical_formula_structural   LaYbSe3
_chemical_formula_sum   'La2 Yb2 Se6'
_cell_volume   284.70515180
_cell_formula_units_Z   2
loop_
 _symmetry_equiv_pos_site_id
 _symmetry_equiv_pos_as_xyz
  1  'x, y, z'
loop_
 _atom_site_type_symbol
 _atom_site_label
 _atom_site_symmetry_multiplicity
 _atom_site_fract_x
 _atom_site_fract_y
 _atom_site_fract_z
 _atom_site_occupancy
  Se  Se0  1  0.891720  0.783441  0.250000  1
  Se  Se1  1  0.108280  0.216559  0.750000  1
  Se  Se2  1  0.361086  0.722173  0.577791  1
  Se  Se3  1  0.638914  0.277827  0.422209  1
  Se  Se4  1  0.361086  0.722173  0.922209  1
  Se  Se5  1  0.638914  0.277827  0.077791  1
  La  La6  1  0.749778  0.499556  0.750000  1
  La  La7  1  0.250222  0.500444  0.250000  1
  Yb  Yb8  1  0.000000  0.000000  0.000000  1
  Yb  Yb9  1  0.000000  0.000000  0.500000  1
