# generated using pymatgen
data_KNa2Si12(BO10)3
_symmetry_space_group_name_H-M   'P 1'
_cell_length_a   10.36794100
_cell_length_b   10.36794100
_cell_length_c   13.67762961
_cell_angle_alpha   90.00000000
_cell_angle_beta   90.00000000
_cell_angle_gamma   120.00000000
_symmetry_Int_Tables_number   1
_chemical_formula_structural   KNa2Si12(BO10)3
_chemical_formula_sum   'K2 Na4 Si24 B6 O60'
_cell_volume   1273.28758559
_cell_formula_units_Z   2
loop_
 _symmetry_equiv_pos_site_id
 _symmetry_equiv_pos_as_xyz
  1  'x, y, z'
loop_
 _atom_site_type_symbol
 _atom_site_label
 _atom_site_symmetry_multiplicity
 _atom_site_fract_x
 _atom_site_fract_y
 _atom_site_fract_z
 _atom_site_occupancy
  B  B0  1  0.000000  0.500000  0.250000  1
  B  B1  1  0.500000  0.500000  0.750000  1
  B  B2  1  0.500000  0.000000  0.750000  1
  B  B3  1  0.000000  0.500000  0.750000  1
  B  B4  1  0.500000  0.500000  0.250000  1
  B  B5  1  0.500000  0.000000  0.250000  1
  O  O6  1  0.189024  0.282211  0.132080  1
  O  O7  1  0.099771  0.628973  0.687819  1
  O  O8  1  0.099771  0.470798  0.812181  1
  O  O9  1  0.529202  0.900229  0.687819  1
  O  O10  1  0.470798  0.099771  0.687819  1
  O  O11  1  0.628973  0.529202  0.687819  1
  O  O12  1  0.371027  0.470798  0.687819  1
  O  O13  1  0.628973  0.099771  0.812181  1
  O  O14  1  0.470798  0.371027  0.812181  1
  O  O15  1  0.529202  0.628973  0.812181  1
  O  O16  1  0.371027  0.900229  0.812181  1
  O  O17  1  0.900229  0.529202  0.812181  1
  O  O18  1  0.099771  0.628973  0.312181  1
  O  O19  1  0.371027  0.470798  0.312181  1
  O  O20  1  0.529202  0.900229  0.312181  1
  O  O21  1  0.470798  0.099771  0.312181  1
  O  O22  1  0.900229  0.529202  0.187819  1
  O  O23  1  0.900229  0.371027  0.312181  1
  O  O24  1  0.628973  0.529202  0.312181  1
  O  O25  1  0.371027  0.900229  0.187819  1
  O  O26  1  0.529202  0.628973  0.187819  1
  O  O27  1  0.470798  0.371027  0.187819  1
  O  O28  1  0.628973  0.099771  0.187819  1
  O  O29  1  0.093187  0.282211  0.632080  1
  O  O30  1  0.810976  0.093187  0.632080  1
  O  O31  1  0.906813  0.717789  0.632080  1
  O  O32  1  0.282211  0.189024  0.632080  1
  O  O33  1  0.717789  0.810976  0.632080  1
  O  O34  1  0.189024  0.282211  0.867920  1
  O  O35  1  0.189024  0.906813  0.632080  1
  O  O36  1  0.082253  0.394180  0.000000  1
  O  O37  1  0.688073  0.082253  0.000000  1
  O  O38  1  0.394180  0.311927  0.000000  1
  O  O39  1  0.605820  0.688073  0.000000  1
  O  O40  1  0.311927  0.917747  0.000000  1
  O  O41  1  0.688073  0.605820  0.500000  1
  O  O42  1  0.917747  0.311927  0.500000  1
  O  O43  1  0.917747  0.605820  0.000000  1
  O  O44  1  0.394180  0.082253  0.500000  1
  O  O45  1  0.605820  0.917747  0.500000  1
  O  O46  1  0.311927  0.394180  0.500000  1
  O  O47  1  0.082253  0.688073  0.500000  1
  O  O48  1  0.900229  0.371027  0.687819  1
  O  O49  1  0.906813  0.189024  0.132080  1
  O  O50  1  0.282211  0.093187  0.132080  1
  O  O51  1  0.717789  0.906813  0.132080  1
  O  O52  1  0.093187  0.810976  0.132080  1
  O  O53  1  0.906813  0.717789  0.367920  1
  O  O54  1  0.810976  0.093187  0.367920  1
  O  O55  1  0.810976  0.717789  0.132080  1
  O  O56  1  0.282211  0.189024  0.367920  1
  O  O57  1  0.717789  0.810976  0.367920  1
  O  O58  1  0.093187  0.282211  0.367920  1
  O  O59  1  0.189024  0.906813  0.367920  1
  O  O60  1  0.810976  0.717789  0.867920  1
  O  O61  1  0.093187  0.810976  0.867920  1
  O  O62  1  0.717789  0.906813  0.867920  1
  O  O63  1  0.282211  0.093187  0.867920  1
  O  O64  1  0.906813  0.189024  0.867920  1
  O  O65  1  0.099771  0.470798  0.187819  1
  Na  Na66  1  0.666667  0.333333  0.250000  1
  Na  Na67  1  0.666667  0.333333  0.750000  1
  Na  Na68  1  0.333333  0.666667  0.750000  1
  Na  Na69  1  0.333333  0.666667  0.250000  1
  Si  Si70  1  0.269225  0.337827  0.387044  1
  Si  Si71  1  0.068602  0.730775  0.612956  1
  Si  Si72  1  0.269225  0.337827  0.612956  1
  Si  Si73  1  0.730775  0.068602  0.887044  1
  Si  Si74  1  0.337827  0.269225  0.887044  1
  Si  Si75  1  0.662173  0.730775  0.887044  1
  Si  Si76  1  0.269225  0.931398  0.887044  1
  Si  Si77  1  0.931398  0.662173  0.887044  1
  Si  Si78  1  0.068602  0.730775  0.387044  1
  Si  Si79  1  0.068602  0.337827  0.887044  1
  Si  Si80  1  0.662173  0.931398  0.387044  1
  Si  Si81  1  0.662173  0.931398  0.612956  1
  Si  Si82  1  0.931398  0.662173  0.112956  1
  Si  Si83  1  0.931398  0.269225  0.387044  1
  Si  Si84  1  0.730775  0.662173  0.387044  1
  Si  Si85  1  0.269225  0.931398  0.112956  1
  Si  Si86  1  0.662173  0.730775  0.112956  1
  Si  Si87  1  0.337827  0.269225  0.112956  1
  Si  Si88  1  0.730775  0.068602  0.112956  1
  Si  Si89  1  0.068602  0.337827  0.112956  1
  Si  Si90  1  0.337827  0.068602  0.612956  1
  Si  Si91  1  0.730775  0.662173  0.612956  1
  Si  Si92  1  0.931398  0.269225  0.612956  1
  Si  Si93  1  0.337827  0.068602  0.387044  1
  K  K94  1  0.000000  0.000000  0.750000  1
  K  K95  1  0.000000  0.000000  0.250000  1
