# generated using pymatgen
data_Ca3ZrSi2O9
_symmetry_space_group_name_H-M   'P 1'
_cell_length_a   7.44342364
_cell_length_b   10.33124913
_cell_length_c   10.52680596
_cell_angle_alpha   90.00000000
_cell_angle_beta   91.07273409
_cell_angle_gamma   90.00000000
_symmetry_Int_Tables_number   1
_chemical_formula_structural   Ca3ZrSi2O9
_chemical_formula_sum   'Ca12 Zr4 Si8 O36'
_cell_volume   809.36806773
_cell_formula_units_Z   4
loop_
 _symmetry_equiv_pos_site_id
 _symmetry_equiv_pos_as_xyz
  1  'x, y, z'
loop_
 _atom_site_type_symbol
 _atom_site_label
 _atom_site_symmetry_multiplicity
 _atom_site_fract_x
 _atom_site_fract_y
 _atom_site_fract_z
 _atom_site_occupancy
  O  O0  1  0.656051  0.607828  0.484688  1
  O  O1  1  0.343949  0.107828  0.015312  1
  O  O2  1  0.343949  0.392172  0.515312  1
  O  O3  1  0.656051  0.892172  0.984688  1
  O  O4  1  0.096270  0.889774  0.010294  1
  O  O5  1  0.903730  0.389774  0.489706  1
  O  O6  1  0.903730  0.110226  0.989706  1
  O  O7  1  0.096270  0.610226  0.510294  1
  O  O8  1  0.379209  0.833536  0.460294  1
  O  O9  1  0.620791  0.333536  0.039706  1
  O  O10  1  0.620791  0.166464  0.539706  1
  O  O11  1  0.379209  0.666464  0.960294  1
  O  O12  1  0.307398  0.999515  0.263187  1
  O  O13  1  0.692602  0.499515  0.236813  1
  O  O14  1  0.139943  0.123271  0.529417  1
  O  O15  1  0.692602  0.000485  0.736813  1
  O  O16  1  0.356779  0.764696  0.726516  1
  O  O17  1  0.643221  0.264696  0.773484  1
  O  O18  1  0.643221  0.235304  0.273484  1
  O  O19  1  0.356779  0.735304  0.226516  1
  O  O20  1  0.106936  0.236130  0.243786  1
  O  O21  1  0.893064  0.736130  0.256214  1
  O  O22  1  0.893064  0.763870  0.756214  1
  O  O23  1  0.106936  0.263870  0.743786  1
  O  O24  1  0.617510  0.605674  0.775166  1
  O  O25  1  0.382490  0.105674  0.724834  1
  O  O26  1  0.382490  0.394326  0.224834  1
  O  O27  1  0.617510  0.894326  0.275166  1
  O  O28  1  0.084272  0.996205  0.750862  1
  O  O29  1  0.915728  0.496205  0.749138  1
  O  O30  1  0.915728  0.003795  0.249138  1
  O  O31  1  0.084272  0.503795  0.250862  1
  O  O32  1  0.139943  0.376729  0.029417  1
  O  O33  1  0.860057  0.876729  0.470583  1
  O  O34  1  0.860057  0.623271  0.970583  1
  O  O35  1  0.307398  0.500485  0.763187  1
  Si  Si36  1  0.402345  0.864983  0.310578  1
  Si  Si37  1  0.597655  0.364983  0.189422  1
  Si  Si38  1  0.597655  0.135017  0.689422  1
  Si  Si39  1  0.402345  0.635017  0.810578  1
  Si  Si40  1  0.833640  0.875678  0.318077  1
  Si  Si41  1  0.166360  0.375678  0.181923  1
  Si  Si42  1  0.166360  0.124322  0.681923  1
  Si  Si43  1  0.833640  0.624322  0.818077  1
  Ca  Ca44  1  0.635110  0.077138  0.114101  1
  Ca  Ca45  1  0.364890  0.577138  0.385898  1
  Ca  Ca46  1  0.364890  0.922862  0.885899  1
  Ca  Ca47  1  0.635110  0.422862  0.614101  1
  Ca  Ca48  1  0.118811  0.675062  0.089605  1
  Ca  Ca49  1  0.881189  0.175062  0.410395  1
  Ca  Ca50  1  0.881189  0.324938  0.910395  1
  Ca  Ca51  1  0.118811  0.824938  0.589605  1
  Ca  Ca52  1  0.627016  0.696189  0.099287  1
  Ca  Ca53  1  0.372984  0.196189  0.400713  1
  Ca  Ca54  1  0.372984  0.303811  0.900713  1
  Ca  Ca55  1  0.627016  0.803811  0.599287  1
  Zr  Zr56  1  0.123519  0.436012  0.615144  1
  Zr  Zr57  1  0.876481  0.936012  0.884856  1
  Zr  Zr58  1  0.876481  0.563988  0.384856  1
  Zr  Zr59  1  0.123519  0.063988  0.115144  1
