# generated using pymatgen
data_K2NbAgS4
_symmetry_space_group_name_H-M   'P 1'
_cell_length_a   5.96465187
_cell_length_b   7.38939585
_cell_length_c   11.93209906
_cell_angle_alpha   84.21042913
_cell_angle_beta   75.52595348
_cell_angle_gamma   66.19686447
_symmetry_Int_Tables_number   1
_chemical_formula_structural   K2NbAgS4
_chemical_formula_sum   'K4 Nb2 Ag2 S8'
_cell_volume   465.90220988
_cell_formula_units_Z   2
loop_
 _symmetry_equiv_pos_site_id
 _symmetry_equiv_pos_as_xyz
  1  'x, y, z'
loop_
 _atom_site_type_symbol
 _atom_site_label
 _atom_site_symmetry_multiplicity
 _atom_site_fract_x
 _atom_site_fract_y
 _atom_site_fract_z
 _atom_site_occupancy
  S  S0  1  0.883854  0.545518  0.865709  1
  S  S1  1  0.795081  0.954482  0.634291  1
  S  S2  1  0.570628  0.545518  0.634291  1
  S  S3  1  0.250437  0.954482  0.865709  1
  S  S4  1  0.116146  0.454482  0.134291  1
  S  S5  1  0.749563  0.045518  0.134291  1
  S  S6  1  0.429372  0.454482  0.365709  1
  S  S7  1  0.204919  0.045518  0.365709  1
  K  K8  1  0.194646  0.250000  0.610708  1
  K  K9  1  0.805354  0.750000  0.389292  1
  K  K10  1  0.555354  0.250000  0.889292  1
  K  K11  1  0.444646  0.750000  0.110708  1
  Nb  Nb12  1  0.375000  0.250000  0.250000  1
  Nb  Nb13  1  0.625000  0.750000  0.750000  1
  Ag  Ag14  1  0.875000  0.250000  0.250000  1
  Ag  Ag15  1  0.125000  0.750000  0.750000  1
