# generated using pymatgen
data_Ho2Ge5Rh3
_symmetry_space_group_name_H-M   'P 1'
_cell_length_a   5.88265848
_cell_length_b   8.34830300
_cell_length_c   8.34830300
_cell_angle_alpha   94.40597096
_cell_angle_beta   108.63919800
_cell_angle_gamma   108.63919813
_symmetry_Int_Tables_number   1
_chemical_formula_structural   Ho2Ge5Rh3
_chemical_formula_sum   'Ho4 Ge10 Rh6'
_cell_volume   360.71988556
_cell_formula_units_Z   2
loop_
 _symmetry_equiv_pos_site_id
 _symmetry_equiv_pos_as_xyz
  1  'x, y, z'
loop_
 _atom_site_type_symbol
 _atom_site_label
 _atom_site_symmetry_multiplicity
 _atom_site_fract_x
 _atom_site_fract_y
 _atom_site_fract_z
 _atom_site_occupancy
  Ge  Ge0  1  0.250000  0.986517  0.013483  1
  Ge  Ge1  1  0.750000  0.013483  0.986517  1
  Ge  Ge2  1  0.250000  0.293098  0.706902  1
  Ge  Ge3  1  0.750000  0.706902  0.293098  1
  Ge  Ge4  1  0.250000  0.722298  0.277702  1
  Ge  Ge5  1  0.750000  0.277702  0.722298  1
  Ge  Ge6  1  0.169162  0.764777  0.575368  1
  Ge  Ge7  1  0.669162  0.575368  0.764777  1
  Ge  Ge8  1  0.830838  0.235223  0.424632  1
  Ge  Ge9  1  0.330838  0.424632  0.235223  1
  Rh  Rh10  1  0.873814  0.761401  0.045436  1
  Rh  Rh11  1  0.750000  0.502538  0.497462  1
  Rh  Rh12  1  0.373814  0.045436  0.761401  1
  Rh  Rh13  1  0.126186  0.238599  0.954564  1
  Rh  Rh14  1  0.626186  0.954564  0.238599  1
  Rh  Rh15  1  0.250000  0.497462  0.502538  1
  Ho  Ho16  1  0.236619  0.091069  0.370240  1
  Ho  Ho17  1  0.263381  0.629760  0.908931  1
  Ho  Ho18  1  0.763381  0.908931  0.629760  1
  Ho  Ho19  1  0.736619  0.370240  0.091069  1
