# generated using pymatgen
data_YbMnGe
_symmetry_space_group_name_H-M   'P 1'
_cell_length_a   4.23664312
_cell_length_b   7.19543647
_cell_length_c   7.61825852
_cell_angle_alpha   90.00000000
_cell_angle_beta   90.00000000
_cell_angle_gamma   90.00000000
_symmetry_Int_Tables_number   1
_chemical_formula_structural   YbMnGe
_chemical_formula_sum   'Yb4 Mn4 Ge4'
_cell_volume   232.23877455
_cell_formula_units_Z   4
loop_
 _symmetry_equiv_pos_site_id
 _symmetry_equiv_pos_as_xyz
  1  'x, y, z'
loop_
 _atom_site_type_symbol
 _atom_site_label
 _atom_site_symmetry_multiplicity
 _atom_site_fract_x
 _atom_site_fract_y
 _atom_site_fract_z
 _atom_site_occupancy
  Yb  Yb0  1  0.750000  0.989621  0.316551  1
  Yb  Yb1  1  0.250000  0.010379  0.683449  1
  Yb  Yb2  1  0.250000  0.510379  0.816551  1
  Yb  Yb3  1  0.750000  0.489621  0.183449  1
  Mn  Mn4  1  0.750000  0.870448  0.942952  1
  Mn  Mn5  1  0.250000  0.629552  0.442952  1
  Mn  Mn6  1  0.750000  0.370448  0.557048  1
  Mn  Mn7  1  0.250000  0.129552  0.057048  1
  Ge  Ge8  1  0.750000  0.213234  0.888064  1
  Ge  Ge9  1  0.250000  0.786766  0.111936  1
  Ge  Ge10  1  0.250000  0.286766  0.388064  1
  Ge  Ge11  1  0.750000  0.713234  0.611936  1
