# generated using pymatgen
data_KY(MoO4)2
_symmetry_space_group_name_H-M   'P 1'
_cell_length_a   5.14741412
_cell_length_b   8.10279251
_cell_length_c   18.94080886
_cell_angle_alpha   90.00000000
_cell_angle_beta   90.00000000
_cell_angle_gamma   90.00000000
_symmetry_Int_Tables_number   1
_chemical_formula_structural   KY(MoO4)2
_chemical_formula_sum   'K4 Y4 Mo8 O32'
_cell_volume   789.99137354
_cell_formula_units_Z   4
loop_
 _symmetry_equiv_pos_site_id
 _symmetry_equiv_pos_as_xyz
  1  'x, y, z'
loop_
 _atom_site_type_symbol
 _atom_site_label
 _atom_site_symmetry_multiplicity
 _atom_site_fract_x
 _atom_site_fract_y
 _atom_site_fract_z
 _atom_site_occupancy
  O  O0  1  0.599341  0.512598  0.186461  1
  O  O1  1  0.099341  0.487402  0.313539  1
  O  O2  1  0.900659  0.012598  0.313539  1
  O  O3  1  0.400659  0.987402  0.186461  1
  O  O4  1  0.400659  0.487402  0.813539  1
  O  O5  1  0.900659  0.512598  0.686461  1
  O  O6  1  0.099341  0.987402  0.686461  1
  O  O7  1  0.599341  0.012598  0.813539  1
  O  O8  1  0.752074  0.497482  0.035508  1
  O  O9  1  0.252074  0.502518  0.464492  1
  O  O10  1  0.747926  0.997482  0.464492  1
  O  O11  1  0.247926  0.002518  0.035508  1
  O  O12  1  0.247926  0.502518  0.964492  1
  O  O13  1  0.747926  0.497482  0.535508  1
  O  O14  1  0.252074  0.002518  0.535508  1
  O  O15  1  0.752074  0.997482  0.964492  1
  O  O16  1  0.266377  0.831568  0.904887  1
  O  O17  1  0.766377  0.168432  0.595113  1
  O  O18  1  0.233623  0.331568  0.595113  1
  O  O19  1  0.733623  0.668432  0.904887  1
  O  O20  1  0.733623  0.168432  0.095113  1
  O  O21  1  0.233623  0.831568  0.404887  1
  O  O22  1  0.766377  0.668432  0.404887  1
  O  O23  1  0.266377  0.331568  0.095113  1
  O  O24  1  0.258401  0.182795  0.907865  1
  O  O25  1  0.758401  0.817205  0.592135  1
  O  O26  1  0.241599  0.682795  0.592135  1
  O  O27  1  0.741599  0.317205  0.907865  1
  O  O28  1  0.741599  0.817205  0.092135  1
  O  O29  1  0.241599  0.182795  0.407865  1
  O  O30  1  0.758401  0.317205  0.407865  1
  O  O31  1  0.258401  0.682795  0.092135  1
  K  K32  1  0.000000  0.750000  0.224189  1
  K  K33  1  0.500000  0.250000  0.275811  1
  K  K34  1  0.000000  0.250000  0.775811  1
  K  K35  1  0.500000  0.750000  0.724189  1
  Y  Y36  1  0.500000  0.750000  0.496662  1
  Y  Y37  1  0.000000  0.250000  0.003338  1
  Y  Y38  1  0.500000  0.250000  0.503338  1
  Y  Y39  1  0.000000  0.750000  0.996662  1
  Mo  Mo40  1  0.477508  0.507864  0.099952  1
  Mo  Mo41  1  0.977508  0.492136  0.400048  1
  Mo  Mo42  1  0.022492  0.007864  0.400048  1
  Mo  Mo43  1  0.522492  0.992136  0.099952  1
  Mo  Mo44  1  0.522492  0.492136  0.900048  1
  Mo  Mo45  1  0.022492  0.507864  0.599952  1
  Mo  Mo46  1  0.977508  0.992136  0.599952  1
  Mo  Mo47  1  0.477508  0.007864  0.900048  1
