# generated using pymatgen
data_SrV6O15
_symmetry_space_group_name_H-M   'P 1'
_cell_length_a   7.38121179
_cell_length_b   10.44807340
_cell_length_c   15.62229214
_cell_angle_alpha   109.97985481
_cell_angle_beta   90.00000000
_cell_angle_gamma   90.00000000
_symmetry_Int_Tables_number   1
_chemical_formula_structural   SrV6O15
_chemical_formula_sum   'Sr4 V24 O60'
_cell_volume   1132.26999929
_cell_formula_units_Z   4
loop_
 _symmetry_equiv_pos_site_id
 _symmetry_equiv_pos_as_xyz
  1  'x, y, z'
loop_
 _atom_site_type_symbol
 _atom_site_label
 _atom_site_symmetry_multiplicity
 _atom_site_fract_x
 _atom_site_fract_y
 _atom_site_fract_z
 _atom_site_occupancy
  O  O0  1  0.612971  0.315396  0.850074  1
  O  O1  1  0.112971  0.184604  0.649926  1
  O  O2  1  0.387029  0.684604  0.149926  1
  O  O3  1  0.887029  0.815396  0.350074  1
  O  O4  1  0.139537  0.319604  0.854036  1
  O  O5  1  0.639537  0.180396  0.645964  1
  O  O6  1  0.860463  0.680396  0.145964  1
  O  O7  1  0.360463  0.819604  0.354036  1
  O  O8  1  0.627948  0.919609  0.492235  1
  O  O9  1  0.127948  0.580391  0.007765  1
  O  O10  1  0.372052  0.080391  0.507765  1
  O  O11  1  0.872052  0.419609  0.992235  1
  O  O12  1  0.124439  0.921532  0.503610  1
  O  O13  1  0.624439  0.578468  0.996390  1
  O  O14  1  0.875561  0.078468  0.496390  1
  O  O15  1  0.375561  0.421532  0.003610  1
  O  O16  1  0.628301  0.403290  0.140146  1
  O  O17  1  0.128301  0.096710  0.359854  1
  O  O18  1  0.371699  0.596710  0.859854  1
  O  O19  1  0.871699  0.903290  0.640146  1
  O  O20  1  0.120728  0.402982  0.136158  1
  O  O21  1  0.123003  0.198319  0.986823  1
  O  O22  1  0.620728  0.097018  0.363842  1
  O  O23  1  0.379272  0.902982  0.636158  1
  O  O24  1  0.625814  0.200907  0.987741  1
  O  O25  1  0.125814  0.299093  0.512259  1
  O  O26  1  0.374186  0.799093  0.012259  1
  O  O27  1  0.874186  0.700907  0.487741  1
  O  O28  1  0.375074  0.753927  0.749993  1
  O  O29  1  0.875074  0.746073  0.750007  1
  O  O30  1  0.624926  0.246073  0.250007  1
  O  O31  1  0.124925  0.253927  0.249993  1
  O  O32  1  0.374189  0.987269  0.937653  1
  O  O33  1  0.874189  0.512731  0.562347  1
  O  O34  1  0.625811  0.012731  0.062347  1
  O  O35  1  0.125811  0.487269  0.437653  1
  O  O36  1  0.875622  0.983589  0.929678  1
  O  O37  1  0.375622  0.516411  0.570322  1
  O  O38  1  0.124378  0.016411  0.070322  1
  O  O39  1  0.624378  0.483589  0.429678  1
  O  O40  1  0.375307  0.186965  0.116213  1
  O  O41  1  0.875307  0.313035  0.383787  1
  O  O42  1  0.624693  0.813035  0.883787  1
  O  O43  1  0.124693  0.686965  0.616213  1
  O  O44  1  0.874495  0.185581  0.116315  1
  O  O45  1  0.374495  0.314419  0.383685  1
  O  O46  1  0.125505  0.814419  0.883685  1
  O  O47  1  0.625505  0.685581  0.616315  1
  O  O48  1  0.358746  0.532943  0.313537  1
  O  O49  1  0.858746  0.967057  0.186463  1
  O  O50  1  0.641254  0.467057  0.686463  1
  O  O51  1  0.141254  0.032943  0.813537  1
  O  O52  1  0.891353  0.532813  0.315490  1
  O  O53  1  0.391353  0.967187  0.184510  1
  O  O54  1  0.108647  0.467187  0.684510  1
  O  O55  1  0.608647  0.032813  0.815490  1
  O  O56  1  0.376997  0.698319  0.486823  1
  O  O57  1  0.876997  0.801681  0.013177  1
  O  O58  1  0.623003  0.301681  0.513177  1
  O  O59  1  0.879272  0.597018  0.863842  1
  V  V60  1  0.619294  0.377665  0.964609  1
  V  V61  1  0.119294  0.122335  0.535391  1
  V  V62  1  0.380706  0.622335  0.035391  1
  V  V63  1  0.880706  0.877665  0.464609  1
  V  V64  1  0.125402  0.378092  0.968547  1
  V  V65  1  0.625402  0.121908  0.531453  1
  V  V66  1  0.874598  0.621908  0.031453  1
  V  V67  1  0.374598  0.878092  0.468547  1
  V  V68  1  0.625506  0.242861  0.130140  1
  V  V69  1  0.125506  0.257139  0.369860  1
  V  V70  1  0.374494  0.757139  0.869860  1
  V  V71  1  0.874494  0.742861  0.630140  1
  V  V72  1  0.124304  0.241274  0.133519  1
  V  V73  1  0.624304  0.258726  0.366481  1
  V  V74  1  0.875696  0.758726  0.866481  1
  V  V75  1  0.375696  0.741274  0.633519  1
  V  V76  1  0.624569  0.020541  0.916864  1
  V  V77  1  0.124569  0.479459  0.583136  1
  V  V78  1  0.375431  0.979459  0.083136  1
  V  V79  1  0.875431  0.520541  0.416864  1
  V  V80  1  0.126351  0.021265  0.914999  1
  V  V81  1  0.626351  0.478735  0.585001  1
  V  V82  1  0.873649  0.978735  0.085001  1
  V  V83  1  0.373649  0.521265  0.414999  1
  Sr  Sr84  1  0.123208  0.653090  0.244729  1
  Sr  Sr85  1  0.623208  0.846910  0.255271  1
  Sr  Sr86  1  0.876792  0.346910  0.755271  1
  Sr  Sr87  1  0.376792  0.153090  0.744729  1
