# generated using pymatgen
data_Te2Mo(WSe2)3
_symmetry_space_group_name_H-M   'P 1'
_cell_length_a   3.37795113
_cell_length_b   3.37790065
_cell_length_c   38.52153754
_cell_angle_alpha   89.99995275
_cell_angle_beta   90.00000000
_cell_angle_gamma   120.00049429
_symmetry_Int_Tables_number   1
_chemical_formula_structural   Te2Mo(WSe2)3
_chemical_formula_sum   'Te2 Mo1 W3 Se6'
_cell_volume   380.65568072
_cell_formula_units_Z   1
loop_
 _symmetry_equiv_pos_site_id
 _symmetry_equiv_pos_as_xyz
  1  'x, y, z'
loop_
 _atom_site_type_symbol
 _atom_site_label
 _atom_site_symmetry_multiplicity
 _atom_site_fract_x
 _atom_site_fract_y
 _atom_site_fract_z
 _atom_site_occupancy
  Te  Te0  1  0.666646  0.333291  0.045051  1
  Te  Te1  1  0.666645  0.333290  0.142788  1
  Mo  Mo2  1  0.333305  0.666610  0.093913  1
  W  W3  1  0.333311  0.666621  0.469667  1
  W  W4  1  0.666688  0.333375  0.281814  1
  W  W5  1  0.666689  0.333377  0.657533  1
  Se  Se6  1  0.333363  0.666727  0.325013  1
  Se  Se7  1  0.333354  0.666709  0.700737  1
  Se  Se8  1  0.666647  0.333292  0.426464  1
  Se  Se9  1  0.666645  0.333289  0.512864  1
  Se  Se10  1  0.333353  0.666706  0.238587  1
  Se  Se11  1  0.333356  0.666713  0.614315  1
