# generated using pymatgen
data_Ba2ClF3
_symmetry_space_group_name_H-M   'P 1'
_cell_length_a   4.49755399
_cell_length_b   4.49776112
_cell_length_c   7.50075645
_cell_angle_alpha   89.99999997
_cell_angle_beta   89.99967762
_cell_angle_gamma   120.00152296
_symmetry_Int_Tables_number   1
_chemical_formula_structural   Ba2ClF3
_chemical_formula_sum   'Ba2 Cl1 F3'
_cell_volume   131.40194759
_cell_formula_units_Z   1
loop_
 _symmetry_equiv_pos_site_id
 _symmetry_equiv_pos_as_xyz
  1  'x, y, z'
loop_
 _atom_site_type_symbol
 _atom_site_label
 _atom_site_symmetry_multiplicity
 _atom_site_fract_x
 _atom_site_fract_y
 _atom_site_fract_z
 _atom_site_occupancy
  Ba  Ba0  1  0.666630  0.333315  0.201239  1
  Ba  Ba1  1  0.333370  0.666685  0.798761  1
  Cl  Cl2  1  0.000000  0.000000  0.500000  1
  F  F3  1  -0.000000  -0.000000  0.000000  1
  F  F4  1  0.666625  0.333313  0.835733  1
  F  F5  1  0.333375  0.666687  0.164267  1
