# generated using pymatgen
data_Te2MoW2(SeS)2
_symmetry_space_group_name_H-M   'P 1'
_cell_length_a   3.35142383
_cell_length_b   3.35138654
_cell_length_c   30.98378815
_cell_angle_alpha   90.00000712
_cell_angle_beta   90.00000000
_cell_angle_gamma   120.00036797
_symmetry_Int_Tables_number   1
_chemical_formula_structural   Te2MoW2(SeS)2
_chemical_formula_sum   'Te2 Mo1 W2 Se2 S2'
_cell_volume   301.38206925
_cell_formula_units_Z   1
loop_
 _symmetry_equiv_pos_site_id
 _symmetry_equiv_pos_as_xyz
  1  'x, y, z'
loop_
 _atom_site_type_symbol
 _atom_site_label
 _atom_site_symmetry_multiplicity
 _atom_site_fract_x
 _atom_site_fract_y
 _atom_site_fract_z
 _atom_site_occupancy
  Te  Te0  1  0.666648  0.333296  0.516825  1
  Te  Te1  1  0.666643  0.333286  0.639782  1
  Mo  Mo2  1  0.666709  0.333419  0.346970  1
  W  W3  1  0.333309  0.666618  0.115656  1
  W  W4  1  0.333312  0.666625  0.578329  1
  Se  Se5  1  0.666646  0.333291  0.061678  1
  Se  Se6  1  0.666648  0.333295  0.169650  1
  S  S7  1  0.333342  0.666685  0.395867  1
  S  S8  1  0.333342  0.666686  0.298085  1
