# generated using pymatgen
data_Te3MoWS
_symmetry_space_group_name_H-M   'P 1'
_cell_length_a   3.45780258
_cell_length_b   3.45781327
_cell_length_c   38.94991690
_cell_angle_alpha   90.00809643
_cell_angle_beta   90.00000000
_cell_angle_gamma   119.99989773
_symmetry_Int_Tables_number   1
_chemical_formula_structural   Te3MoWS
_chemical_formula_sum   'Te6 Mo2 W2 S2'
_cell_volume   403.31032434
_cell_formula_units_Z   2
loop_
 _symmetry_equiv_pos_site_id
 _symmetry_equiv_pos_as_xyz
  1  'x, y, z'
loop_
 _atom_site_type_symbol
 _atom_site_label
 _atom_site_symmetry_multiplicity
 _atom_site_fract_x
 _atom_site_fract_y
 _atom_site_fract_z
 _atom_site_occupancy
  Te  Te0  1  0.333328  0.666658  0.705393  1
  Te  Te1  1  0.666645  0.333288  0.046090  1
  Te  Te2  1  0.666652  0.333302  0.422050  1
  Te  Te3  1  0.666750  0.333499  0.141534  1
  Te  Te4  1  0.666757  0.333513  0.516968  1
  Te  Te5  1  0.333161  0.666324  0.609984  1
  Mo  Mo6  1  0.333372  0.666744  0.469517  1
  Mo  Mo7  1  0.666686  0.333373  0.281894  1
  W  W8  1  0.333360  0.666720  0.093785  1
  W  W9  1  0.666582  0.333164  0.657726  1
  S  S10  1  0.333400  0.666802  0.320116  1
  S  S11  1  0.333306  0.666614  0.243692  1
