# generated using pymatgen
data_Sr5(Ga3O7)2
_symmetry_space_group_name_H-M   'P 1'
_cell_length_a   8.28094426
_cell_length_b   8.28493876
_cell_length_c   11.00438122
_cell_angle_alpha   90.00000000
_cell_angle_beta   92.30999291
_cell_angle_gamma   90.00000000
_symmetry_Int_Tables_number   1
_chemical_formula_structural   Sr5(Ga3O7)2
_chemical_formula_sum   'Sr10 Ga12 O28'
_cell_volume   754.36534912
_cell_formula_units_Z   2
loop_
 _symmetry_equiv_pos_site_id
 _symmetry_equiv_pos_as_xyz
  1  'x, y, z'
loop_
 _atom_site_type_symbol
 _atom_site_label
 _atom_site_symmetry_multiplicity
 _atom_site_fract_x
 _atom_site_fract_y
 _atom_site_fract_z
 _atom_site_occupancy
  Sr  Sr0  1  0.000000  0.000000  0.500000  1
  Sr  Sr1  1  0.000000  0.500000  0.000000  1
  Sr  Sr2  1  0.408388  0.252988  0.502475  1
  Sr  Sr3  1  0.591612  0.752988  0.997525  1
  Sr  Sr4  1  0.591612  0.747012  0.497525  1
  Sr  Sr5  1  0.408388  0.247012  0.002475  1
  Sr  Sr6  1  0.160762  0.592009  0.470218  1
  Sr  Sr7  1  0.839238  0.092009  0.029782  1
  Sr  Sr8  1  0.839238  0.407991  0.529782  1
  Sr  Sr9  1  0.160762  0.907991  0.970218  1
  Ga  Ga10  1  0.730815  0.086222  0.746318  1
  Ga  Ga11  1  0.269185  0.586222  0.753682  1
  Ga  Ga12  1  0.269185  0.913778  0.253682  1
  Ga  Ga13  1  0.730815  0.413778  0.246318  1
  Ga  Ga14  1  0.613988  0.441190  0.787171  1
  Ga  Ga15  1  0.386012  0.941190  0.712829  1
  Ga  Ga16  1  0.386012  0.558810  0.212829  1
  Ga  Ga17  1  0.613988  0.058810  0.287171  1
  Ga  Ga18  1  0.895441  0.728558  0.760608  1
  Ga  Ga19  1  0.104559  0.228558  0.739392  1
  Ga  Ga20  1  0.104559  0.271442  0.239392  1
  Ga  Ga21  1  0.895441  0.771442  0.260608  1
  O  O22  1  0.662157  0.238164  0.860961  1
  O  O23  1  0.337843  0.738164  0.639039  1
  O  O24  1  0.337843  0.761836  0.139039  1
  O  O25  1  0.662157  0.261836  0.360961  1
  O  O26  1  0.835131  0.922610  0.838658  1
  O  O27  1  0.164869  0.422610  0.661342  1
  O  O28  1  0.164869  0.077390  0.161342  1
  O  O29  1  0.835131  0.577390  0.338658  1
  O  O30  1  0.772098  0.582130  0.849959  1
  O  O31  1  0.227902  0.082130  0.650041  1
  O  O32  1  0.227902  0.417870  0.150041  1
  O  O33  1  0.772098  0.917870  0.349959  1
  O  O34  1  0.574884  0.010109  0.634585  1
  O  O35  1  0.425116  0.510109  0.865415  1
  O  O36  1  0.425116  0.989891  0.365415  1
  O  O37  1  0.574884  0.489891  0.134585  1
  O  O38  1  0.898804  0.181082  0.661314  1
  O  O39  1  0.101196  0.681082  0.838686  1
  O  O40  1  0.101196  0.818918  0.338686  1
  O  O41  1  0.898804  0.318918  0.161314  1
  O  O42  1  0.894661  0.720703  0.594503  1
  O  O43  1  0.105339  0.220703  0.905497  1
  O  O44  1  0.105339  0.279297  0.405497  1
  O  O45  1  0.894661  0.779297  0.094503  1
  O  O46  1  0.588352  0.441476  0.622045  1
  O  O47  1  0.411648  0.941476  0.877955  1
  O  O48  1  0.411648  0.558524  0.377955  1
  O  O49  1  0.588352  0.058524  0.122045  1
