# generated using pymatgen
data_ThCu6
_symmetry_space_group_name_H-M   'P 1'
_cell_length_a   5.09092101
_cell_length_b   8.05432572
_cell_length_c   10.11178877
_cell_angle_alpha   90.00000000
_cell_angle_beta   90.00000000
_cell_angle_gamma   90.00000000
_symmetry_Int_Tables_number   1
_chemical_formula_structural   ThCu6
_chemical_formula_sum   'Th4 Cu24'
_cell_volume   414.62313987
_cell_formula_units_Z   4
loop_
 _symmetry_equiv_pos_site_id
 _symmetry_equiv_pos_as_xyz
  1  'x, y, z'
loop_
 _atom_site_type_symbol
 _atom_site_label
 _atom_site_symmetry_multiplicity
 _atom_site_fract_x
 _atom_site_fract_y
 _atom_site_fract_z
 _atom_site_occupancy
  Th  Th0  1  0.250000  0.261476  0.567041  1
  Th  Th1  1  0.750000  0.738524  0.432959  1
  Th  Th2  1  0.250000  0.761476  0.932959  1
  Th  Th3  1  0.750000  0.238524  0.067041  1
  Cu  Cu4  1  0.994707  0.059734  0.310708  1
  Cu  Cu5  1  0.250000  0.561323  0.401477  1
  Cu  Cu6  1  0.750000  0.105069  0.516030  1
  Cu  Cu7  1  0.750000  0.353535  0.358149  1
  Cu  Cu8  1  0.750000  0.686192  0.741799  1
  Cu  Cu9  1  0.250000  0.313808  0.258201  1
  Cu  Cu10  1  0.750000  0.605069  0.983970  1
  Cu  Cu11  1  0.005293  0.940266  0.689292  1
  Cu  Cu12  1  0.750000  0.938677  0.901477  1
  Cu  Cu13  1  0.750000  0.438677  0.598523  1
  Cu  Cu14  1  0.005293  0.440266  0.810708  1
  Cu  Cu15  1  0.505293  0.059734  0.310708  1
  Cu  Cu16  1  0.494707  0.440266  0.810708  1
  Cu  Cu17  1  0.250000  0.146465  0.858149  1
  Cu  Cu18  1  0.250000  0.894931  0.483970  1
  Cu  Cu19  1  0.750000  0.186192  0.758201  1
  Cu  Cu20  1  0.750000  0.853535  0.141851  1
  Cu  Cu21  1  0.505293  0.559734  0.189292  1
  Cu  Cu22  1  0.250000  0.061323  0.098523  1
  Cu  Cu23  1  0.250000  0.646465  0.641851  1
  Cu  Cu24  1  0.494707  0.940266  0.689292  1
  Cu  Cu25  1  0.250000  0.394931  0.016030  1
  Cu  Cu26  1  0.250000  0.813808  0.241799  1
  Cu  Cu27  1  0.994707  0.559734  0.189292  1
