# generated using pymatgen
data_Li2Ca2Si2O7
_symmetry_space_group_name_H-M   'P 1'
_cell_length_a   5.15706282
_cell_length_b   5.15700789
_cell_length_c   41.69612537
_cell_angle_alpha   89.99990210
_cell_angle_beta   89.99997060
_cell_angle_gamma   120.00013279
_symmetry_Int_Tables_number   1
_chemical_formula_structural   Li2Ca2Si2O7
_chemical_formula_sum   'Li12 Ca12 Si12 O42'
_cell_volume   960.34209886
_cell_formula_units_Z   6
loop_
 _symmetry_equiv_pos_site_id
 _symmetry_equiv_pos_as_xyz
  1  'x, y, z'
loop_
 _atom_site_type_symbol
 _atom_site_label
 _atom_site_symmetry_multiplicity
 _atom_site_fract_x
 _atom_site_fract_y
 _atom_site_fract_z
 _atom_site_occupancy
  Li  Li0  1  0.697747  0.285658  0.693158  1
  Li  Li1  1  0.714346  0.412090  0.026493  1
  Li  Li2  1  0.587909  0.302250  0.359829  1
  Li  Li3  1  0.302250  0.714342  0.193158  1
  Li  Li4  1  0.285655  0.587911  0.526493  1
  Li  Li5  1  0.412087  0.697749  0.859829  1
  Li  Li6  1  0.285683  0.697761  0.640164  1
  Li  Li7  1  0.412076  0.714323  0.306834  1
  Li  Li8  1  0.302246  0.587925  0.973500  1
  Li  Li9  1  0.714313  0.302239  0.140163  1
  Li  Li10  1  0.587920  0.285676  0.806834  1
  Li  Li11  1  0.697753  0.412072  0.473499  1
  Ca  Ca12  1  0.960877  0.960886  0.666658  1
  Ca  Ca13  1  0.039211  -0.000011  0.999990  1
  Ca  Ca14  1  0.000007  0.039122  0.333323  1
  Ca  Ca15  1  0.039121  0.039120  0.166658  1
  Ca  Ca16  1  0.960877  0.000006  0.499991  1
  Ca  Ca17  1  -0.000010  0.960874  0.833323  1
  Ca  Ca18  1  0.963811  0.927490  0.749994  1
  Ca  Ca19  1  0.072505  0.036325  0.083329  1
  Ca  Ca20  1  0.963675  0.036189  0.416660  1
  Ca  Ca21  1  0.036186  0.072508  0.249994  1
  Ca  Ca22  1  0.927485  0.963673  0.583329  1
  Ca  Ca23  1  0.036320  0.963814  0.916660  1
  Si  Si24  1  0.353401  0.626820  0.712506  1
  Si  Si25  1  0.373207  0.726566  0.045836  1
  Si  Si26  1  0.273430  0.646626  0.379170  1
  Si  Si27  1  0.646596  0.373180  0.212506  1
  Si  Si28  1  0.626796  0.273435  0.545836  1
  Si  Si29  1  0.726567  0.353374  0.879170  1
  Si  Si30  1  0.626805  0.353382  0.620821  1
  Si  Si31  1  0.726590  0.373182  0.287485  1
  Si  Si32  1  0.646634  0.273431  0.954155  1
  Si  Si33  1  0.373191  0.646619  0.120820  1
  Si  Si34  1  0.273407  0.626816  0.787485  1
  Si  Si35  1  0.353371  0.726571  0.454154  1
  O  O36  1  0.388078  0.776172  0.749998  1
  O  O37  1  0.223805  0.611885  0.083328  1
  O  O38  1  0.388097  0.611899  0.416667  1
  O  O39  1  0.611918  0.223826  0.249998  1
  O  O40  1  0.776194  0.388118  0.583328  1
  O  O41  1  0.611900  0.388099  0.916667  1
  O  O42  1  0.665672  0.620097  0.707780  1
  O  O43  1  0.379888  0.045559  0.041116  1
  O  O44  1  0.954459  0.334341  0.374441  1
  O  O45  1  0.334325  0.379903  0.207780  1
  O  O46  1  0.620107  0.954437  0.541116  1
  O  O47  1  0.045538  0.665660  0.874441  1
  O  O48  1  0.620134  0.665690  0.625547  1
  O  O49  1  0.045584  0.379884  0.292209  1
  O  O50  1  0.334305  0.954434  0.958872  1
  O  O51  1  0.379866  0.334313  0.125547  1
  O  O52  1  0.954412  0.620113  0.792209  1
  O  O53  1  0.665697  0.045569  0.458872  1
  O  O54  1  0.059160  0.292010  0.711498  1
  O  O55  1  0.707991  0.767149  0.044837  1
  O  O56  1  0.232852  0.940839  0.378167  1
  O  O57  1  0.940837  0.707989  0.211498  1
  O  O58  1  0.292011  0.232857  0.544838  1
  O  O59  1  0.767145  0.059161  0.878167  1
  O  O60  1  0.292017  0.059174  0.621820  1
  O  O61  1  0.767163  0.707988  0.288490  1
  O  O62  1  0.940829  0.232845  0.955149  1
  O  O63  1  0.707981  0.940827  0.121820  1
  O  O64  1  0.232834  0.292011  0.788490  1
  O  O65  1  0.059170  0.767153  0.455149  1
  O  O66  1  0.867486  0.344470  0.645487  1
  O  O67  1  0.655518  0.523003  0.978825  1
  O  O68  1  0.476988  0.132499  0.312151  1
  O  O69  1  0.132510  0.655530  0.145487  1
  O  O70  1  0.344484  0.476998  0.478825  1
  O  O71  1  0.523007  0.867499  0.812152  1
  O  O72  1  0.344473  0.867505  0.687841  1
  O  O73  1  0.523041  0.655548  0.354505  1
  O  O74  1  0.132516  0.476981  0.021166  1
  O  O75  1  0.655523  0.132496  0.187841  1
  O  O76  1  0.476957  0.344453  0.854505  1
  O  O77  1  0.867487  0.523021  0.521166  1
