# generated using pymatgen
data_BaPr2MnS5
_symmetry_space_group_name_H-M   'P 1'
_cell_length_a   7.96970993
_cell_length_b   7.96970993
_cell_length_c   8.90016359
_cell_angle_alpha   116.59802611
_cell_angle_beta   116.59802614
_cell_angle_gamma   89.99999996
_symmetry_Int_Tables_number   1
_chemical_formula_structural   BaPr2MnS5
_chemical_formula_sum   'Ba2 Pr4 Mn2 S10'
_cell_volume   437.54727442
_cell_formula_units_Z   2
loop_
 _symmetry_equiv_pos_site_id
 _symmetry_equiv_pos_as_xyz
  1  'x, y, z'
loop_
 _atom_site_type_symbol
 _atom_site_label
 _atom_site_symmetry_multiplicity
 _atom_site_fract_x
 _atom_site_fract_y
 _atom_site_fract_z
 _atom_site_occupancy
  S  S0  1  0.483901  0.983901  0.268001  1
  S  S1  1  0.215901  0.715901  0.731999  1
  S  S2  1  0.516099  0.016099  0.731999  1
  S  S3  1  0.715901  0.516099  0.731999  1
  S  S4  1  0.016099  0.215901  0.731999  1
  S  S5  1  0.284099  0.483901  0.268001  1
  S  S6  1  0.983901  0.784099  0.268001  1
  S  S7  1  0.784099  0.284099  0.268001  1
  S  S8  1  0.000000  0.000000  0.000000  1
  S  S9  1  0.500000  0.500000  0.000000  1
  Mn  Mn10  1  0.750000  0.250000  0.500000  1
  Mn  Mn11  1  0.250000  0.750000  0.500000  1
  Ba  Ba12  1  0.750000  0.750000  0.500000  1
  Ba  Ba13  1  0.250000  0.250000  0.500000  1
  Pr  Pr14  1  0.661903  0.838097  0.000000  1
  Pr  Pr15  1  0.161903  0.661903  0.000000  1
  Pr  Pr16  1  0.838097  0.338097  0.000000  1
  Pr  Pr17  1  0.338097  0.161903  0.000000  1
