# generated using pymatgen
data_Na2Co(Si2O5)2
_symmetry_space_group_name_H-M   'P 1'
_cell_length_a   7.01334678
_cell_length_b   7.86413728
_cell_length_c   9.88994077
_cell_angle_alpha   102.19797300
_cell_angle_beta   102.25390318
_cell_angle_gamma   114.91043174
_symmetry_Int_Tables_number   1
_chemical_formula_structural   Na2Co(Si2O5)2
_chemical_formula_sum   'Na4 Co2 Si8 O20'
_cell_volume   454.77887361
_cell_formula_units_Z   2
loop_
 _symmetry_equiv_pos_site_id
 _symmetry_equiv_pos_as_xyz
  1  'x, y, z'
loop_
 _atom_site_type_symbol
 _atom_site_label
 _atom_site_symmetry_multiplicity
 _atom_site_fract_x
 _atom_site_fract_y
 _atom_site_fract_z
 _atom_site_occupancy
  O  O0  1  0.981276  0.792489  0.197865  1
  O  O1  1  0.018724  0.207511  0.802135  1
  O  O2  1  0.849232  0.553013  0.867208  1
  O  O3  1  0.150768  0.446987  0.132792  1
  O  O4  1  0.573704  0.622070  0.182928  1
  O  O5  1  0.426296  0.377929  0.817072  1
  O  O6  1  0.247627  0.602440  0.859637  1
  O  O7  1  0.752373  0.397560  0.140364  1
  O  O8  1  0.886460  0.645466  0.418575  1
  O  O9  1  0.113539  0.354534  0.581426  1
  O  O10  1  0.425979  0.598139  0.416273  1
  O  O11  1  0.574022  0.401861  0.583727  1
  O  O12  1  0.065580  0.792938  0.728134  1
  O  O13  1  0.934420  0.207063  0.271866  1
  O  O14  1  0.784186  0.103278  0.977191  1
  O  O15  1  0.215814  0.896722  0.022808  1
  O  O16  1  0.604637  0.156670  0.729544  1
  O  O17  1  0.655000  0.837666  0.719484  1
  O  O18  1  0.345000  0.162335  0.280516  1
  O  O19  1  0.395363  0.843330  0.270457  1
  Na  Na20  1  0.656649  0.767232  0.984466  1
  Na  Na21  1  0.737863  0.274817  0.421427  1
  Na  Na22  1  0.262137  0.725183  0.578573  1
  Na  Na23  1  0.343351  0.232768  0.015534  1
  Si  Si24  1  0.908428  0.286639  0.137607  1
  Si  Si25  1  0.091572  0.713361  0.862392  1
  Si  Si26  1  0.234965  0.928622  0.198231  1
  Si  Si27  1  0.612772  0.371492  0.740926  1
  Si  Si28  1  0.387229  0.628508  0.259075  1
  Si  Si29  1  0.189826  0.380728  0.751674  1
  Si  Si30  1  0.810173  0.619270  0.248325  1
  Si  Si31  1  0.765035  0.071376  0.801769  1
  Co  Co32  1  0.756027  0.692638  0.581429  1
  Co  Co33  1  0.243973  0.307363  0.418571  1
