# generated using pymatgen
data_Mo3W(SeS)4
_symmetry_space_group_name_H-M   'P 1'
_cell_length_a   3.25695457
_cell_length_b   3.25702959
_cell_length_c   41.62656289
_cell_angle_alpha   90.00003602
_cell_angle_beta   89.99991157
_cell_angle_gamma   119.99915405
_symmetry_Int_Tables_number   1
_chemical_formula_structural   Mo3W(SeS)4
_chemical_formula_sum   'Mo3 W1 Se4 S4'
_cell_volume   382.41796957
_cell_formula_units_Z   1
loop_
 _symmetry_equiv_pos_site_id
 _symmetry_equiv_pos_as_xyz
  1  'x, y, z'
loop_
 _atom_site_type_symbol
 _atom_site_label
 _atom_site_symmetry_multiplicity
 _atom_site_fract_x
 _atom_site_fract_y
 _atom_site_fract_z
 _atom_site_occupancy
  Mo  Mo0  1  0.333514  0.667033  0.092555  1
  Mo  Mo1  1  0.333316  0.666639  0.466806  1
  Mo  Mo2  1  0.666628  0.333244  0.280178  1
  W  W3  1  0.666549  0.333098  0.663379  1
  Se  Se4  1  0.333208  0.666419  0.704397  1
  Se  Se5  1  0.666671  0.333344  0.426016  1
  Se  Se6  1  0.666634  0.333279  0.507611  1
  Se  Se7  1  0.333211  0.666420  0.622325  1
  S  S8  1  0.333263  0.666516  0.317270  1
  S  S9  1  0.666848  0.333699  0.055472  1
  S  S10  1  0.666859  0.333729  0.129650  1
  S  S11  1  0.333299  0.666581  0.243090  1
