# generated using pymatgen
data_ThMnSe3
_symmetry_space_group_name_H-M   'P 1'
_cell_length_a   4.05233617
_cell_length_b   6.68220472
_cell_length_c   9.37008654
_cell_angle_alpha   90.00000000
_cell_angle_beta   90.00000000
_cell_angle_gamma   107.65101655
_symmetry_Int_Tables_number   1
_chemical_formula_structural   ThMnSe3
_chemical_formula_sum   'Th2 Mn2 Se6'
_cell_volume   241.78300388
_cell_formula_units_Z   2
loop_
 _symmetry_equiv_pos_site_id
 _symmetry_equiv_pos_as_xyz
  1  'x, y, z'
loop_
 _atom_site_type_symbol
 _atom_site_label
 _atom_site_symmetry_multiplicity
 _atom_site_fract_x
 _atom_site_fract_y
 _atom_site_fract_z
 _atom_site_occupancy
  Mn  Mn0  1  0.000000  0.000000  0.500000  1
  Mn  Mn1  1  0.000000  0.000000  0.000000  1
  Se  Se2  1  0.082160  0.164321  0.750000  1
  Se  Se3  1  0.917840  0.835679  0.250000  1
  Se  Se4  1  0.356926  0.713852  0.942238  1
  Se  Se5  1  0.643074  0.286148  0.057762  1
  Se  Se6  1  0.643074  0.286148  0.442238  1
  Se  Se7  1  0.356926  0.713852  0.557762  1
  Th  Th8  1  0.249323  0.498646  0.250000  1
  Th  Th9  1  0.750677  0.501354  0.750000  1
