# generated using pymatgen
data_FeSb2C6(OF2)6
_symmetry_space_group_name_H-M   'P 1'
_cell_length_a   8.39484312
_cell_length_b   8.39484312
_cell_length_c   12.67469371
_cell_angle_alpha   90.00000000
_cell_angle_beta   90.00000000
_cell_angle_gamma   90.00000000
_symmetry_Int_Tables_number   1
_chemical_formula_structural   FeSb2C6(OF2)6
_chemical_formula_sum   'Fe2 Sb4 C12 O12 F24'
_cell_volume   893.22864575
_cell_formula_units_Z   2
loop_
 _symmetry_equiv_pos_site_id
 _symmetry_equiv_pos_as_xyz
  1  'x, y, z'
loop_
 _atom_site_type_symbol
 _atom_site_label
 _atom_site_symmetry_multiplicity
 _atom_site_fract_x
 _atom_site_fract_y
 _atom_site_fract_z
 _atom_site_occupancy
  C  C0  1  0.121907  0.805553  0.000000  1
  C  C1  1  0.378093  0.305552  0.500000  1
  C  C2  1  0.000000  0.000000  0.151440  1
  C  C3  1  0.500000  0.500000  0.348559  1
  C  C4  1  0.000000  0.000000  0.848560  1
  C  C5  1  0.500000  0.500000  0.651441  1
  C  C6  1  0.621907  0.694447  0.500000  1
  C  C7  1  0.805553  0.878093  0.000000  1
  C  C8  1  0.305552  0.621907  0.500000  1
  C  C9  1  0.694447  0.378093  0.500000  1
  C  C10  1  0.194448  0.121907  0.000000  1
  C  C11  1  0.878093  0.194448  0.000000  1
  O  O12  1  0.692731  0.809378  0.500000  1
  O  O13  1  0.500000  0.500000  0.740907  1
  O  O14  1  0.000000  0.000000  0.759092  1
  O  O15  1  0.500000  0.500000  0.259093  1
  O  O16  1  0.000000  0.000000  0.240907  1
  O  O17  1  0.307269  0.190621  0.500000  1
  O  O18  1  0.309378  0.192731  0.000000  1
  O  O19  1  0.807269  0.309378  0.000000  1
  O  O20  1  0.192731  0.690622  0.000000  1
  O  O21  1  0.809378  0.307269  0.500000  1
  O  O22  1  0.190621  0.692731  0.500000  1
  O  O23  1  0.690622  0.807269  0.000000  1
  F  F24  1  0.338709  0.161290  0.750000  1
  F  F25  1  0.161290  0.661291  0.250000  1
  F  F26  1  0.838709  0.338709  0.750000  1
  F  F27  1  0.661291  0.838709  0.250000  1
  F  F28  1  0.161290  0.661291  0.750000  1
  F  F29  1  0.661291  0.838709  0.750000  1
  F  F30  1  0.620025  0.107378  0.141807  1
  F  F31  1  0.892621  0.620025  0.141807  1
  F  F32  1  0.107378  0.379975  0.141807  1
  F  F33  1  0.120025  0.392621  0.358193  1
  F  F34  1  0.879976  0.607379  0.358193  1
  F  F35  1  0.379975  0.892621  0.141807  1
  F  F36  1  0.607379  0.120025  0.358193  1
  F  F37  1  0.838709  0.338709  0.250000  1
  F  F38  1  0.379975  0.892621  0.858193  1
  F  F39  1  0.107378  0.379975  0.858193  1
  F  F40  1  0.892621  0.620025  0.858193  1
  F  F41  1  0.879976  0.607379  0.641807  1
  F  F42  1  0.120025  0.392621  0.641807  1
  F  F43  1  0.620025  0.107378  0.858193  1
  F  F44  1  0.392621  0.879976  0.641807  1
  F  F45  1  0.607379  0.120025  0.641807  1
  F  F46  1  0.338709  0.161290  0.250000  1
  F  F47  1  0.392621  0.879976  0.358193  1
  Fe  Fe48  1  0.500000  0.500000  0.500000  1
  Fe  Fe49  1  0.000000  0.000000  0.000000  1
  Sb  Sb50  1  0.000000  0.500000  0.750000  1
  Sb  Sb51  1  0.500000  0.000000  0.750000  1
  Sb  Sb52  1  0.500000  0.000000  0.250000  1
  Sb  Sb53  1  0.000000  0.500000  0.250000  1
