# generated using pymatgen
data_Cr3N4
_symmetry_space_group_name_H-M   'P 1'
_cell_length_a   6.65543850
_cell_length_b   7.67186724
_cell_length_c   7.67186724
_cell_angle_alpha   119.99999656
_cell_angle_beta   90.00000000
_cell_angle_gamma   90.00000000
_symmetry_Int_Tables_number   1
_chemical_formula_structural   Cr3N4
_chemical_formula_sum   'Cr12 N16'
_cell_volume   339.24189401
_cell_formula_units_Z   4
loop_
 _symmetry_equiv_pos_site_id
 _symmetry_equiv_pos_as_xyz
  1  'x, y, z'
loop_
 _atom_site_type_symbol
 _atom_site_label
 _atom_site_symmetry_multiplicity
 _atom_site_fract_x
 _atom_site_fract_y
 _atom_site_fract_z
 _atom_site_occupancy
  Cr  Cr0  1  0.269947  0.463940  0.099942  1
  Cr  Cr1  1  0.269947  0.636002  0.536060  1
  Cr  Cr2  1  0.269947  0.900058  0.363998  1
  Cr  Cr3  1  0.769947  0.363998  0.900058  1
  Cr  Cr4  1  0.769947  0.099942  0.463940  1
  Cr  Cr5  1  0.769947  0.536060  0.636002  1
  Cr  Cr6  1  0.515060  0.196457  0.241449  1
  Cr  Cr7  1  0.515060  0.044992  0.803543  1
  Cr  Cr8  1  0.515060  0.758551  0.955008  1
  Cr  Cr9  1  0.015060  0.955008  0.758551  1
  Cr  Cr10  1  0.015060  0.241449  0.196457  1
  Cr  Cr11  1  0.015060  0.803543  0.044992  1
  N  N12  1  0.363147  -0.000000  -0.000000  1
  N  N13  1  0.863147  -0.000000  -0.000000  1
  N  N14  1  0.669071  -0.000000  -0.000000  1
  N  N15  1  0.169071  -0.000000  -0.000000  1
  N  N16  1  0.502262  0.322709  0.954491  1
  N  N17  1  0.502262  0.631782  0.677291  1
  N  N18  1  0.502262  0.045509  0.368218  1
  N  N19  1  0.002262  0.368218  0.045509  1
  N  N20  1  0.002262  0.954491  0.322709  1
  N  N21  1  0.002262  0.677291  0.631782  1
  N  N22  1  0.285325  0.383340  0.303417  1
  N  N23  1  0.285325  0.920077  0.616660  1
  N  N24  1  0.285325  0.696583  0.079923  1
  N  N25  1  0.785325  0.079923  0.696583  1
  N  N26  1  0.785325  0.303417  0.383340  1
  N  N27  1  0.785325  0.616660  0.920077  1
