# generated using pymatgen
data_Te2W2SeS
_symmetry_space_group_name_H-M   'P 1'
_cell_length_a   3.39690518
_cell_length_b   3.39691463
_cell_length_c   38.87313929
_cell_angle_alpha   90.00050604
_cell_angle_beta   90.00000000
_cell_angle_gamma   119.99990799
_symmetry_Int_Tables_number   1
_chemical_formula_structural   Te2W2SeS
_chemical_formula_sum   'Te4 W4 Se2 S2'
_cell_volume   388.46214632
_cell_formula_units_Z   2
loop_
 _symmetry_equiv_pos_site_id
 _symmetry_equiv_pos_as_xyz
  1  'x, y, z'
loop_
 _atom_site_type_symbol
 _atom_site_label
 _atom_site_symmetry_multiplicity
 _atom_site_fract_x
 _atom_site_fract_y
 _atom_site_fract_z
 _atom_site_occupancy
  Te  Te0  1  0.333366  0.666732  0.706011  1
  Te  Te1  1  0.666645  0.333289  0.421159  1
  Te  Te2  1  0.666642  0.333282  0.518032  1
  Te  Te3  1  0.333355  0.666711  0.609146  1
  W  W4  1  0.333307  0.666614  0.093929  1
  W  W5  1  0.333311  0.666622  0.469610  1
  W  W6  1  0.666688  0.333376  0.281806  1
  W  W7  1  0.666688  0.333375  0.657614  1
  Se  Se8  1  0.666641  0.333282  0.051355  1
  Se  Se9  1  0.666645  0.333290  0.136496  1
  S  S10  1  0.333355  0.666712  0.320597  1
  S  S11  1  0.333357  0.666715  0.242992  1
