# generated using pymatgen
data_CrCuN6Cl5
_symmetry_space_group_name_H-M   'P 1'
_cell_length_a   12.88272913
_cell_length_b   12.88272913
_cell_length_c   12.88272913
_cell_angle_alpha   60.00000000
_cell_angle_beta   60.00000000
_cell_angle_gamma   60.00000000
_symmetry_Int_Tables_number   1
_chemical_formula_structural   CrCuN6Cl5
_chemical_formula_sum   'Cr8 Cu8 N48 Cl40'
_cell_volume   1511.84973773
_cell_formula_units_Z   8
loop_
 _symmetry_equiv_pos_site_id
 _symmetry_equiv_pos_as_xyz
  1  'x, y, z'
loop_
 _atom_site_type_symbol
 _atom_site_label
 _atom_site_symmetry_multiplicity
 _atom_site_fract_x
 _atom_site_fract_y
 _atom_site_fract_z
 _atom_site_occupancy
  Cr  Cr0  1  0.500000  0.000000  0.500000  1
  Cr  Cr1  1  0.500000  0.500000  0.000000  1
  Cr  Cr2  1  0.000000  0.500000  0.500000  1
  Cr  Cr3  1  0.500000  0.500000  0.500000  1
  Cr  Cr4  1  0.000000  0.500000  0.000000  1
  Cr  Cr5  1  0.500000  0.000000  0.000000  1
  Cr  Cr6  1  0.000000  0.000000  0.500000  1
  Cr  Cr7  1  0.000000  0.000000  0.000000  1
  Cu  Cu8  1  0.250000  0.750000  0.250000  1
  Cu  Cu9  1  0.250000  0.250000  0.750000  1
  Cu  Cu10  1  0.750000  0.250000  0.250000  1
  Cu  Cu11  1  0.250000  0.250000  0.250000  1
  Cu  Cu12  1  0.750000  0.250000  0.750000  1
  Cu  Cu13  1  0.750000  0.750000  0.250000  1
  Cu  Cu14  1  0.250000  0.750000  0.750000  1
  Cu  Cu15  1  0.750000  0.750000  0.750000  1
  N  N16  1  0.555637  0.071899  0.555991  1
  N  N17  1  0.316473  0.555991  0.071899  1
  N  N18  1  0.071899  0.555637  0.316473  1
  N  N19  1  0.555991  0.316473  0.555637  1
  N  N20  1  0.071899  0.555991  0.555637  1
  N  N21  1  0.555991  0.071899  0.316473  1
  N  N22  1  0.555637  0.316473  0.071899  1
  N  N23  1  0.316473  0.555637  0.555991  1
  N  N24  1  0.555991  0.555637  0.071899  1
  N  N25  1  0.071899  0.316473  0.555991  1
  N  N26  1  0.316473  0.071899  0.555637  1
  N  N27  1  0.555637  0.555991  0.316473  1
  N  N28  1  0.444363  0.928101  0.444009  1
  N  N29  1  0.683527  0.444009  0.928101  1
  N  N30  1  0.928101  0.444363  0.683527  1
  N  N31  1  0.444009  0.683527  0.444363  1
  N  N32  1  0.928101  0.444009  0.444363  1
  N  N33  1  0.444009  0.928101  0.683527  1
  N  N34  1  0.444363  0.683527  0.928101  1
  N  N35  1  0.683527  0.444363  0.444009  1
  N  N36  1  0.444009  0.444363  0.928101  1
  N  N37  1  0.928101  0.683527  0.444009  1
  N  N38  1  0.683527  0.928101  0.444363  1
  N  N39  1  0.444363  0.444009  0.683527  1
  N  N40  1  0.055991  0.571899  0.055637  1
  N  N41  1  0.571899  0.055991  0.816473  1
  N  N42  1  0.816473  0.055637  0.571899  1
  N  N43  1  0.055637  0.816473  0.055991  1
  N  N44  1  0.055637  0.055991  0.571899  1
  N  N45  1  0.816473  0.571899  0.055991  1
  N  N46  1  0.571899  0.816473  0.055637  1
  N  N47  1  0.055991  0.055637  0.816473  1
  N  N48  1  0.571899  0.055637  0.055991  1
  N  N49  1  0.055991  0.816473  0.571899  1
  N  N50  1  0.055637  0.571899  0.816473  1
  N  N51  1  0.816473  0.055991  0.055637  1
  N  N52  1  0.944009  0.428101  0.944363  1
  N  N53  1  0.428101  0.944009  0.183527  1
  N  N54  1  0.183527  0.944363  0.428101  1
  N  N55  1  0.944363  0.183527  0.944009  1
  N  N56  1  0.944363  0.944009  0.428101  1
  N  N57  1  0.183527  0.428101  0.944009  1
  N  N58  1  0.428101  0.183527  0.944363  1
  N  N59  1  0.944009  0.944363  0.183527  1
  N  N60  1  0.428101  0.944363  0.944009  1
  N  N61  1  0.944009  0.183527  0.428101  1
  N  N62  1  0.944363  0.428101  0.183527  1
  N  N63  1  0.183527  0.944009  0.944363  1
  Cl  Cl64  1  0.314405  0.556786  0.314405  1
  Cl  Cl65  1  0.314405  0.314405  0.556786  1
  Cl  Cl66  1  0.556786  0.314405  0.314405  1
  Cl  Cl67  1  0.314405  0.314405  0.314405  1
  Cl  Cl68  1  0.685595  0.443214  0.685595  1
  Cl  Cl69  1  0.685595  0.685595  0.443214  1
  Cl  Cl70  1  0.443214  0.685595  0.685595  1
  Cl  Cl71  1  0.685595  0.685595  0.685595  1
  Cl  Cl72  1  0.814405  0.056786  0.814405  1
  Cl  Cl73  1  0.056786  0.814405  0.814405  1
  Cl  Cl74  1  0.814405  0.814405  0.056786  1
  Cl  Cl75  1  0.814405  0.814405  0.814405  1
  Cl  Cl76  1  0.185595  0.943214  0.185595  1
  Cl  Cl77  1  0.943214  0.185595  0.185595  1
  Cl  Cl78  1  0.185595  0.185595  0.943214  1
  Cl  Cl79  1  0.185595  0.185595  0.185595  1
  Cl  Cl80  1  0.500314  0.250000  0.750000  1
  Cl  Cl81  1  0.999686  0.750000  0.250000  1
  Cl  Cl82  1  0.250000  0.500314  0.999686  1
  Cl  Cl83  1  0.750000  0.999686  0.500314  1
  Cl  Cl84  1  0.250000  0.750000  0.500314  1
  Cl  Cl85  1  0.750000  0.250000  0.999686  1
  Cl  Cl86  1  0.500314  0.999686  0.250000  1
  Cl  Cl87  1  0.999686  0.500314  0.750000  1
  Cl  Cl88  1  0.750000  0.500314  0.250000  1
  Cl  Cl89  1  0.250000  0.999686  0.750000  1
  Cl  Cl90  1  0.999686  0.250000  0.500314  1
  Cl  Cl91  1  0.500314  0.750000  0.999686  1
  Cl  Cl92  1  0.499686  0.750000  0.250000  1
  Cl  Cl93  1  0.000314  0.250000  0.750000  1
  Cl  Cl94  1  0.750000  0.499686  0.000314  1
  Cl  Cl95  1  0.250000  0.000314  0.499686  1
  Cl  Cl96  1  0.750000  0.250000  0.499686  1
  Cl  Cl97  1  0.250000  0.750000  0.000314  1
  Cl  Cl98  1  0.499686  0.000314  0.750000  1
  Cl  Cl99  1  0.000314  0.499686  0.250000  1
  Cl  Cl100  1  0.250000  0.499686  0.750000  1
  Cl  Cl101  1  0.750000  0.000314  0.250000  1
  Cl  Cl102  1  0.000314  0.750000  0.499686  1
  Cl  Cl103  1  0.499686  0.250000  0.000314  1
