# generated using pymatgen
data_SrGa2(SiO4)2
_symmetry_space_group_name_H-M   'P 1'
_cell_length_a   8.50430951
_cell_length_b   9.13560802
_cell_length_c   9.61765926
_cell_angle_alpha   90.00000000
_cell_angle_beta   90.00000000
_cell_angle_gamma   90.68364011
_symmetry_Int_Tables_number   1
_chemical_formula_structural   SrGa2(SiO4)2
_chemical_formula_sum   'Sr4 Ga8 Si8 O32'
_cell_volume   747.16236184
_cell_formula_units_Z   4
loop_
 _symmetry_equiv_pos_site_id
 _symmetry_equiv_pos_as_xyz
  1  'x, y, z'
loop_
 _atom_site_type_symbol
 _atom_site_label
 _atom_site_symmetry_multiplicity
 _atom_site_fract_x
 _atom_site_fract_y
 _atom_site_fract_z
 _atom_site_occupancy
  O  O0  1  0.736317  0.818288  0.575781  1
  O  O1  1  0.263683  0.681712  0.075781  1
  O  O2  1  0.263683  0.181712  0.424219  1
  O  O3  1  0.736317  0.318288  0.924219  1
  O  O4  1  0.774408  0.507146  0.353832  1
  O  O5  1  0.225592  0.992854  0.853832  1
  O  O6  1  0.225592  0.492854  0.646168  1
  O  O7  1  0.774408  0.007146  0.146168  1
  O  O8  1  0.436497  0.393792  0.305849  1
  O  O9  1  0.563503  0.106207  0.805849  1
  O  O10  1  0.563503  0.606208  0.694151  1
  O  O11  1  0.436497  0.893792  0.194151  1
  O  O12  1  0.073047  0.428191  0.301012  1
  O  O13  1  0.926953  0.071809  0.801012  1
  O  O14  1  0.926953  0.571809  0.698988  1
  O  O15  1  0.073047  0.928191  0.198988  1
  O  O16  1  0.559084  0.624956  0.128362  1
  O  O17  1  0.440916  0.875044  0.628362  1
  O  O18  1  0.440916  0.375044  0.871638  1
  O  O19  1  0.559084  0.124956  0.371638  1
  O  O20  1  0.015653  0.193038  0.097327  1
  O  O21  1  0.984347  0.306962  0.597327  1
  O  O22  1  0.984347  0.806962  0.902673  1
  O  O23  1  0.015653  0.693038  0.402673  1
  O  O24  1  0.488572  0.190017  0.068086  1
  O  O25  1  0.511428  0.309983  0.568086  1
  O  O26  1  0.511428  0.809983  0.931914  1
  O  O27  1  0.488572  0.690017  0.431914  1
  O  O28  1  0.938383  0.121667  0.363636  1
  O  O29  1  0.061617  0.378333  0.863636  1
  O  O30  1  0.061617  0.878333  0.636364  1
  O  O31  1  0.938383  0.621667  0.136364  1
  Si  Si32  1  0.559739  0.741901  0.582624  1
  Si  Si33  1  0.440261  0.758099  0.082624  1
  Si  Si34  1  0.440261  0.258099  0.417376  1
  Si  Si35  1  0.559739  0.241901  0.917376  1
  Si  Si36  1  0.054213  0.937033  0.798640  1
  Si  Si37  1  0.945787  0.562967  0.298640  1
  Si  Si38  1  0.945787  0.062967  0.201360  1
  Si  Si39  1  0.054213  0.437033  0.701360  1
  Ga  Ga40  1  0.573069  0.554421  0.309500  1
  Ga  Ga41  1  0.426931  0.945579  0.809500  1
  Ga  Ga42  1  0.426931  0.445579  0.690500  1
  Ga  Ga43  1  0.573069  0.054421  0.190500  1
  Ga  Ga44  1  0.069923  0.774070  0.075959  1
  Ga  Ga45  1  0.930077  0.725930  0.575959  1
  Ga  Ga46  1  0.930077  0.225930  0.924041  1
  Ga  Ga47  1  0.069923  0.274070  0.424041  1
  Sr  Sr48  1  0.251464  0.389006  0.085435  1
  Sr  Sr49  1  0.748536  0.110994  0.585435  1
  Sr  Sr50  1  0.748536  0.610994  0.914565  1
  Sr  Sr51  1  0.251464  0.889006  0.414565  1
