# generated using pymatgen
data_Na2ZrCo(P2O7)2
_symmetry_space_group_name_H-M   'P 1'
_cell_length_a   7.04016880
_cell_length_b   6.61422211
_cell_length_c   6.62549382
_cell_angle_alpha   81.87261433
_cell_angle_beta   66.05390265
_cell_angle_gamma   85.44203255
_symmetry_Int_Tables_number   1
_chemical_formula_structural   Na2ZrCo(P2O7)2
_chemical_formula_sum   'Na2 Zr1 Co1 P4 O14'
_cell_volume   279.04771512
_cell_formula_units_Z   1
loop_
 _symmetry_equiv_pos_site_id
 _symmetry_equiv_pos_as_xyz
  1  'x, y, z'
loop_
 _atom_site_type_symbol
 _atom_site_label
 _atom_site_symmetry_multiplicity
 _atom_site_fract_x
 _atom_site_fract_y
 _atom_site_fract_z
 _atom_site_occupancy
  O  O0  1  0.972869  0.044495  0.670063  1
  O  O1  1  0.421258  0.745337  0.485999  1
  O  O2  1  0.482491  0.372470  0.812516  1
  O  O3  1  0.357875  0.293968  0.518438  1
  O  O4  1  0.771651  0.759078  0.640174  1
  O  O5  1  0.687504  0.131854  0.528183  1
  O  O6  1  0.342659  0.022763  0.836878  1
  O  O7  1  0.736936  0.553490  0.251319  1
  O  O8  1  0.080244  0.684455  0.950509  1
  O  O9  1  0.969341  0.325712  0.974568  1
  O  O10  1  0.014299  0.970089  0.290392  1
  O  O11  1  0.693149  0.927249  0.130183  1
  O  O12  1  0.070830  0.419000  0.277895  1
  O  O13  1  0.456601  0.666070  0.106409  1
  Na  Na14  1  0.394322  0.251135  0.181178  1
  Na  Na15  1  0.090413  0.535083  0.575680  1
  P  P16  1  0.457961  0.217345  0.675532  1
  P  P17  1  0.863410  0.967754  0.536368  1
  P  P18  1  0.974874  0.492669  0.117513  1
  P  P19  1  0.563593  0.729304  0.243730  1
  Co  Co20  1  0.458898  0.693887  0.788692  1
  Zr  Zr21  1  0.005721  0.008892  0.970981  1
