# generated using pymatgen
data_RbNd(PO3)4
_symmetry_space_group_name_H-M   'P 1'
_cell_length_a   7.68878777
_cell_length_b   7.68878777
_cell_length_c   10.82154867
_cell_angle_alpha   100.90466311
_cell_angle_beta   100.90466309
_cell_angle_gamma   116.72402946
_symmetry_Int_Tables_number   1
_chemical_formula_structural   RbNd(PO3)4
_chemical_formula_sum   'Rb2 Nd2 P8 O24'
_cell_volume   532.95358440
_cell_formula_units_Z   2
loop_
 _symmetry_equiv_pos_site_id
 _symmetry_equiv_pos_as_xyz
  1  'x, y, z'
loop_
 _atom_site_type_symbol
 _atom_site_label
 _atom_site_symmetry_multiplicity
 _atom_site_fract_x
 _atom_site_fract_y
 _atom_site_fract_z
 _atom_site_occupancy
  O  O0  1  0.835921  0.359192  0.090619  1
  O  O1  1  0.140808  0.664079  0.409381  1
  O  O2  1  0.164079  0.640808  0.909381  1
  O  O3  1  0.859192  0.335921  0.590619  1
  O  O4  1  0.251538  0.669696  0.159331  1
  O  O5  1  0.830304  0.248462  0.340669  1
  O  O6  1  0.748462  0.330304  0.840669  1
  O  O7  1  0.169696  0.751538  0.659331  1
  O  O8  1  0.357599  0.988818  0.089779  1
  O  O9  1  0.511182  0.142401  0.410221  1
  O  O10  1  0.642401  0.011182  0.910221  1
  O  O11  1  0.488818  0.857599  0.589779  1
  O  O12  1  0.689127  0.704990  0.888123  1
  O  O13  1  0.795010  0.810873  0.611877  1
  O  O14  1  0.310873  0.295010  0.111877  1
  O  O15  1  0.204990  0.189127  0.388124  1
  O  O16  1  0.100787  0.985838  0.895599  1
  O  O17  1  0.514162  0.399213  0.604401  1
  O  O18  1  0.899213  0.014162  0.104401  1
  O  O19  1  0.485838  0.600787  0.395599  1
  O  O20  1  0.472620  0.221398  0.944927  1
  O  O21  1  0.278602  0.027380  0.555073  1
  O  O22  1  0.527380  0.778602  0.055073  1
  O  O23  1  0.721398  0.972620  0.444927  1
  P  P24  1  0.748046  0.194511  0.450502  1
  P  P25  1  0.305489  0.751954  0.049497  1
  P  P26  1  0.251954  0.805489  0.549497  1
  P  P27  1  0.694511  0.248046  0.950503  1
  P  P28  1  0.619326  0.793231  0.511016  1
  P  P29  1  0.706769  0.880674  0.988984  1
  P  P30  1  0.380674  0.206769  0.488984  1
  P  P31  1  0.293231  0.119326  0.011016  1
  Rb  Rb32  1  0.807489  0.692511  0.250000  1
  Rb  Rb33  1  0.192511  0.307489  0.750000  1
  Nd  Nd34  1  0.122798  0.377202  0.250000  1
  Nd  Nd35  1  0.877202  0.622798  0.750000  1
