# generated using pymatgen
data_Y3(Si3Os)4
_symmetry_space_group_name_H-M   'P 1'
_cell_length_a   8.16885491
_cell_length_b   8.17151501
_cell_length_c   10.15447343
_cell_angle_alpha   90.00000000
_cell_angle_beta   113.71762143
_cell_angle_gamma   90.00000000
_symmetry_Int_Tables_number   1
_chemical_formula_structural   Y3(Si3Os)4
_chemical_formula_sum   'Y6 Si24 Os8'
_cell_volume   620.58030577
_cell_formula_units_Z   2
loop_
 _symmetry_equiv_pos_site_id
 _symmetry_equiv_pos_as_xyz
  1  'x, y, z'
loop_
 _atom_site_type_symbol
 _atom_site_label
 _atom_site_symmetry_multiplicity
 _atom_site_fract_x
 _atom_site_fract_y
 _atom_site_fract_z
 _atom_site_occupancy
  Si  Si0  1  0.204766  0.500000  0.409531  1
  Si  Si1  1  0.295234  0.000000  0.590469  1
  Si  Si2  1  0.795234  0.500000  0.590469  1
  Si  Si3  1  0.704766  0.000000  0.409531  1
  Si  Si4  1  0.667477  0.166988  0.000000  1
  Si  Si5  1  0.167477  0.333012  0.000000  1
  Si  Si6  1  0.832523  0.666988  0.000000  1
  Si  Si7  1  0.332523  0.833012  0.000000  1
  Si  Si8  1  0.610751  0.995221  0.765816  1
  Si  Si9  1  0.344935  0.504779  0.234184  1
  Si  Si10  1  0.889249  0.495221  0.234184  1
  Si  Si11  1  0.155065  0.004779  0.765816  1
  Si  Si12  1  0.389249  0.004779  0.234184  1
  Si  Si13  1  0.655065  0.495221  0.765816  1
  Si  Si14  1  0.886056  0.727760  0.765843  1
  Si  Si15  1  0.620213  0.772240  0.234157  1
  Si  Si16  1  0.613944  0.227760  0.234157  1
  Si  Si17  1  0.879787  0.272240  0.765843  1
  Si  Si18  1  0.113944  0.272240  0.234157  1
  Si  Si19  1  0.379787  0.227760  0.765843  1
  Si  Si20  1  0.386056  0.772240  0.765843  1
  Si  Si21  1  0.120213  0.727760  0.234157  1
  Si  Si22  1  0.844935  0.995221  0.234184  1
  Si  Si23  1  0.110751  0.504779  0.765816  1
  Y  Y24  1  0.001997  0.750000  0.500000  1
  Y  Y25  1  0.498003  0.250000  0.500000  1
  Y  Y26  1  0.998003  0.250000  0.500000  1
  Y  Y27  1  0.501997  0.750000  0.500000  1
  Y  Y28  1  0.000000  0.000000  0.000000  1
  Y  Y29  1  0.500000  0.500000  0.000000  1
  Os  Os30  1  0.627099  0.872499  0.000000  1
  Os  Os31  1  0.127099  0.627501  0.000000  1
  Os  Os32  1  0.372901  0.127501  0.000000  1
  Os  Os33  1  0.872901  0.372499  0.000000  1
  Os  Os34  1  0.830855  0.000000  0.661709  1
  Os  Os35  1  0.669145  0.500000  0.338291  1
  Os  Os36  1  0.169145  0.000000  0.338291  1
  Os  Os37  1  0.330855  0.500000  0.661709  1
