# generated using pymatgen
data_MoW2(Se2S)2
_symmetry_space_group_name_H-M   'P 1'
_cell_length_a   3.27664069
_cell_length_b   3.27660679
_cell_length_c   30.22521169
_cell_angle_alpha   90.00008959
_cell_angle_beta   90.00000000
_cell_angle_gamma   120.00034210
_symmetry_Int_Tables_number   1
_chemical_formula_structural   MoW2(Se2S)2
_chemical_formula_sum   'Mo1 W2 Se4 S2'
_cell_volume   281.02932054
_cell_formula_units_Z   1
loop_
 _symmetry_equiv_pos_site_id
 _symmetry_equiv_pos_as_xyz
  1  'x, y, z'
loop_
 _atom_site_type_symbol
 _atom_site_label
 _atom_site_symmetry_multiplicity
 _atom_site_fract_x
 _atom_site_fract_y
 _atom_site_fract_z
 _atom_site_occupancy
  Mo  Mo0  1  0.333311  0.666623  0.115643  1
  W  W1  1  0.333312  0.666624  0.578342  1
  W  W2  1  0.666685  0.333370  0.346986  1
  Se  Se3  1  0.333351  0.666703  0.403159  1
  Se  Se4  1  0.666645  0.333290  0.522109  1
  Se  Se5  1  0.666645  0.333290  0.634560  1
  Se  Se6  1  0.333362  0.666726  0.290761  1
  S  S7  1  0.666644  0.333287  0.064739  1
  S  S8  1  0.666645  0.333288  0.166543  1
