# generated using pymatgen
data_Nb2Hg2O7
_symmetry_space_group_name_H-M   'P 1'
_cell_length_a   7.55752835
_cell_length_b   7.55752835
_cell_length_c   7.55752835
_cell_angle_alpha   59.99999997
_cell_angle_beta   59.99999996
_cell_angle_gamma   60.00000001
_symmetry_Int_Tables_number   1
_chemical_formula_structural   Nb2Hg2O7
_chemical_formula_sum   'Nb4 Hg4 O14'
_cell_volume   305.22799032
_cell_formula_units_Z   2
loop_
 _symmetry_equiv_pos_site_id
 _symmetry_equiv_pos_as_xyz
  1  'x, y, z'
loop_
 _atom_site_type_symbol
 _atom_site_label
 _atom_site_symmetry_multiplicity
 _atom_site_fract_x
 _atom_site_fract_y
 _atom_site_fract_z
 _atom_site_occupancy
  O  O0  1  0.625000  0.625001  0.625000  1
  O  O1  1  0.375000  0.375000  0.375001  1
  O  O2  1  0.314760  0.935239  0.935241  1
  O  O3  1  0.064760  0.685240  0.685240  1
  O  O4  1  0.935239  0.314760  0.935241  1
  O  O5  1  0.935240  0.935239  0.314761  1
  O  O6  1  0.314761  0.314760  0.935240  1
  O  O7  1  0.314760  0.935239  0.314761  1
  O  O8  1  0.935239  0.314760  0.314761  1
  O  O9  1  0.685239  0.685240  0.064761  1
  O  O10  1  0.064760  0.064760  0.685241  1
  O  O11  1  0.064760  0.685240  0.064760  1
  O  O12  1  0.685240  0.064760  0.685241  1
  O  O13  1  0.685240  0.064760  0.064761  1
  Nb  Nb14  1  0.000001  0.500000  0.000001  1
  Nb  Nb15  1  0.500000  0.000000  0.000001  1
  Nb  Nb16  1  0.000000  0.000000  0.500000  1
  Nb  Nb17  1  0.000000  0.000000  0.000000  1
  Hg  Hg18  1  0.500000  0.000000  0.500001  1
  Hg  Hg19  1  0.000001  0.500000  0.500001  1
  Hg  Hg20  1  0.500000  0.500000  0.000000  1
  Hg  Hg21  1  0.500000  0.500000  0.500000  1
