# generated using pymatgen
data_K3BeF5
_symmetry_space_group_name_H-M   'P 1'
_cell_length_a   7.23718494
_cell_length_b   7.23718494
_cell_length_c   7.51592997
_cell_angle_alpha   118.78055867
_cell_angle_beta   118.78055867
_cell_angle_gamma   90.00000000
_symmetry_Int_Tables_number   1
_chemical_formula_structural   K3BeF5
_chemical_formula_sum   'K6 Be2 F10'
_cell_volume   288.31438602
_cell_formula_units_Z   2
loop_
 _symmetry_equiv_pos_site_id
 _symmetry_equiv_pos_as_xyz
  1  'x, y, z'
loop_
 _atom_site_type_symbol
 _atom_site_label
 _atom_site_symmetry_multiplicity
 _atom_site_fract_x
 _atom_site_fract_y
 _atom_site_fract_z
 _atom_site_occupancy
  K  K0  1  -0.000000  0.500000  -0.000000  1
  K  K1  1  0.500000  -0.000000  0.000001  1
  K  K2  1  0.570939  0.570939  0.499998  1
  K  K3  1  0.929059  0.929059  0.499998  1
  K  K4  1  0.070939  0.429059  0.499998  1
  K  K5  1  0.429059  0.070940  0.499998  1
  Be  Be6  1  0.000000  0.000000  -0.000000  1
  Be  Be7  1  0.500000  0.500000  0.000000  1
  F  F8  1  0.750000  0.250000  0.500001  1
  F  F9  1  0.250000  0.750000  0.500000  1
  F  F10  1  0.791689  0.039095  0.830784  1
  F  F11  1  0.039094  0.791690  0.830784  1
  F  F12  1  0.960907  0.960906  0.169217  1
  F  F13  1  0.208312  0.208311  0.169217  1
  F  F14  1  0.460906  0.708310  0.169217  1
  F  F15  1  0.708311  0.460906  0.169217  1
  F  F16  1  0.539094  0.539095  0.830784  1
  F  F17  1  0.291689  0.291690  0.830784  1
