# generated using pymatgen
data_Ba5V5O14
_symmetry_space_group_name_H-M   'P 1'
_cell_length_a   5.88416320
_cell_length_b   5.88416321
_cell_length_c   12.28445467
_cell_angle_alpha   90.00000000
_cell_angle_beta   90.00000000
_cell_angle_gamma   119.99999996
_symmetry_Int_Tables_number   1
_chemical_formula_structural   Ba5V5O14
_chemical_formula_sum   'Ba5 V5 O14'
_cell_volume   368.34597934
_cell_formula_units_Z   1
loop_
 _symmetry_equiv_pos_site_id
 _symmetry_equiv_pos_as_xyz
  1  'x, y, z'
loop_
 _atom_site_type_symbol
 _atom_site_label
 _atom_site_symmetry_multiplicity
 _atom_site_fract_x
 _atom_site_fract_y
 _atom_site_fract_z
 _atom_site_occupancy
  O  O0  1  0.847445  0.152555  0.396723  1
  O  O1  1  0.847445  0.694891  0.396723  1
  O  O2  1  0.305111  0.152555  0.396723  1
  O  O3  1  0.694891  0.847446  0.603278  1
  O  O4  1  0.152555  0.305110  0.603278  1
  O  O5  1  0.152555  0.847446  0.603278  1
  O  O6  1  0.829834  0.170167  0.818149  1
  O  O7  1  0.829834  0.659668  0.818149  1
  O  O8  1  0.340332  0.170167  0.818149  1
  O  O9  1  0.659668  0.829834  0.181850  1
  O  O10  1  0.333333  0.666666  0.989822  1
  O  O11  1  0.666666  0.333333  0.010179  1
  O  O12  1  0.170166  0.340331  0.181850  1
  O  O13  1  0.170166  0.829834  0.181850  1
  V  V14  1  0.000000  0.000000  0.500000  1
  V  V15  1  0.666666  0.333333  0.870097  1
  V  V16  1  0.333333  0.666666  0.129902  1
  V  V17  1  0.000000  0.000000  0.285852  1
  V  V18  1  0.000000  0.000000  0.714148  1
  Ba  Ba19  1  0.666666  0.333333  0.567138  1
  Ba  Ba20  1  0.333333  0.666666  0.432861  1
  Ba  Ba21  1  0.666666  0.333333  0.240829  1
  Ba  Ba22  1  0.333333  0.666666  0.759171  1
  Ba  Ba23  1  0.000000  0.000000  0.000000  1
