# generated using pymatgen
data_TeMoWSe2S
_symmetry_space_group_name_H-M   'P 1'
_cell_length_a   3.34267406
_cell_length_b   3.34264263
_cell_length_c   38.04269135
_cell_angle_alpha   90.00027097
_cell_angle_beta   89.99999409
_cell_angle_gamma   120.00029354
_symmetry_Int_Tables_number   1
_chemical_formula_structural   TeMoWSe2S
_chemical_formula_sum   'Te2 Mo2 W2 Se4 S2'
_cell_volume   368.11588636
_cell_formula_units_Z   2
loop_
 _symmetry_equiv_pos_site_id
 _symmetry_equiv_pos_as_xyz
  1  'x, y, z'
loop_
 _atom_site_type_symbol
 _atom_site_label
 _atom_site_symmetry_multiplicity
 _atom_site_fract_x
 _atom_site_fract_y
 _atom_site_fract_z
 _atom_site_occupancy
  Te  Te0  1  0.333355  0.666710  0.707647  1
  Te  Te1  1  0.333347  0.666695  0.607441  1
  Mo  Mo2  1  0.333309  0.666618  0.093901  1
  Mo  Mo3  1  0.666686  0.333374  0.281819  1
  W  W4  1  0.333311  0.666620  0.469665  1
  W  W5  1  0.666687  0.333375  0.657570  1
  Se  Se6  1  0.333365  0.666731  0.325567  1
  Se  Se7  1  0.666643  0.333285  0.050152  1
  Se  Se8  1  0.666650  0.333299  0.137677  1
  Se  Se9  1  0.333358  0.666716  0.238015  1
  S  S10  1  0.666643  0.333286  0.429640  1
  S  S11  1  0.666646  0.333292  0.509655  1
