# generated using pymatgen
data_HoMnGa
_symmetry_space_group_name_H-M   'P 1'
_cell_length_a   7.42607645
_cell_length_b   7.42607644
_cell_length_c   3.67343311
_cell_angle_alpha   90.00000000
_cell_angle_beta   90.00000000
_cell_angle_gamma   119.99999999
_symmetry_Int_Tables_number   1
_chemical_formula_structural   HoMnGa
_chemical_formula_sum   'Ho3 Mn3 Ga3'
_cell_volume   175.43716440
_cell_formula_units_Z   3
loop_
 _symmetry_equiv_pos_site_id
 _symmetry_equiv_pos_as_xyz
  1  'x, y, z'
loop_
 _atom_site_type_symbol
 _atom_site_label
 _atom_site_symmetry_multiplicity
 _atom_site_fract_x
 _atom_site_fract_y
 _atom_site_fract_z
 _atom_site_occupancy
  Mn  Mn0  1  0.666667  0.333333  0.000000  1
  Mn  Mn1  1  0.333333  0.666667  0.000000  1
  Mn  Mn2  1  0.000000  0.000000  0.500000  1
  Ga  Ga3  1  0.726368  0.726368  0.000000  1
  Ga  Ga4  1  0.273632  0.000000  0.000000  1
  Ga  Ga5  1  0.000000  0.273632  0.000000  1
  Ho  Ho6  1  0.000000  0.601544  0.500000  1
  Ho  Ho7  1  0.601544  0.000000  0.500000  1
  Ho  Ho8  1  0.398456  0.398456  0.500000  1
