# generated using pymatgen
data_TeWS
_symmetry_space_group_name_H-M   'P 1'
_cell_length_a   3.35759538
_cell_length_b   3.35759695
_cell_length_c   39.39591026
_cell_angle_alpha   89.99750953
_cell_angle_beta   90.00000000
_cell_angle_gamma   119.99998450
_symmetry_Int_Tables_number   1
_chemical_formula_structural   TeWS
_chemical_formula_sum   'Te4 W4 S4'
_cell_volume   384.62610697
_cell_formula_units_Z   4
loop_
 _symmetry_equiv_pos_site_id
 _symmetry_equiv_pos_as_xyz
  1  'x, y, z'
loop_
 _atom_site_type_symbol
 _atom_site_label
 _atom_site_symmetry_multiplicity
 _atom_site_fract_x
 _atom_site_fract_y
 _atom_site_fract_z
 _atom_site_occupancy
  Te  Te0  1  0.333343  0.666686  0.329041  1
  Te  Te1  1  0.666657  0.333314  0.422417  1
  Te  Te2  1  0.666616  0.333230  0.518979  1
  Te  Te3  1  0.333384  0.666770  0.232479  1
  W  W4  1  0.333300  0.666600  0.093821  1
  W  W5  1  0.333305  0.666610  0.470737  1
  W  W6  1  0.666695  0.333390  0.280721  1
  W  W7  1  0.666700  0.333400  0.657637  1
  S  S8  1  0.333360  0.666720  0.696139  1
  S  S9  1  0.666640  0.333280  0.055319  1
  S  S10  1  0.666624  0.333246  0.132358  1
  S  S11  1  0.333376  0.666754  0.619100  1
