# generated using pymatgen
data_CsB3PbF12
_symmetry_space_group_name_H-M   'P 1'
_cell_length_a   6.86533571
_cell_length_b   6.89184780
_cell_length_c   6.89184782
_cell_angle_alpha   94.56274871
_cell_angle_beta   90.82859048
_cell_angle_gamma   90.82858899
_symmetry_Int_Tables_number   1
_chemical_formula_structural   CsB3PbF12
_chemical_formula_sum   'Cs1 B3 Pb1 F12'
_cell_volume   324.97944707
_cell_formula_units_Z   1
loop_
 _symmetry_equiv_pos_site_id
 _symmetry_equiv_pos_as_xyz
  1  'x, y, z'
loop_
 _atom_site_type_symbol
 _atom_site_label
 _atom_site_symmetry_multiplicity
 _atom_site_fract_x
 _atom_site_fract_y
 _atom_site_fract_z
 _atom_site_occupancy
  Cs  Cs0  1  0.409274  0.478498  0.478498  1
  B  B1  1  0.487835  0.008218  0.008218  1
  B  B2  1  0.020318  0.977242  0.506455  1
  B  B3  1  0.020318  0.506455  0.977242  1
  Pb  Pb4  1  0.934890  0.048475  0.048475  1
  F  F5  1  0.578800  0.063564  0.837217  1
  F  F6  1  0.578800  0.837217  0.063564  1
  F  F7  1  0.519006  0.158766  0.158766  1
  F  F8  1  0.285916  0.972383  0.972383  1
  F  F9  1  0.124156  0.101698  0.382383  1
  F  F10  1  0.122254  0.806848  0.523178  1
  F  F11  1  0.001814  0.081965  0.692369  1
  F  F12  1  0.834181  0.941269  0.419472  1
  F  F13  1  0.122254  0.523178  0.806848  1
  F  F14  1  0.124156  0.382383  0.101698  1
  F  F15  1  0.001814  0.692369  0.081965  1
  F  F16  1  0.834181  0.419472  0.941269  1
