# generated using pymatgen
data_Sr2Ge2Se5
_symmetry_space_group_name_H-M   'P 1'
_cell_length_a   8.60553027
_cell_length_b   9.32577931
_cell_length_c   12.46774478
_cell_angle_alpha   90.00000000
_cell_angle_beta   90.00000000
_cell_angle_gamma   93.93405539
_symmetry_Int_Tables_number   1
_chemical_formula_structural   Sr2Ge2Se5
_chemical_formula_sum   'Sr8 Ge8 Se20'
_cell_volume   998.21968009
_cell_formula_units_Z   4
loop_
 _symmetry_equiv_pos_site_id
 _symmetry_equiv_pos_as_xyz
  1  'x, y, z'
loop_
 _atom_site_type_symbol
 _atom_site_label
 _atom_site_symmetry_multiplicity
 _atom_site_fract_x
 _atom_site_fract_y
 _atom_site_fract_z
 _atom_site_occupancy
  Ge  Ge0  1  0.297227  0.812596  0.019089  1
  Ge  Ge1  1  0.702773  0.187404  0.980911  1
  Ge  Ge2  1  0.797227  0.312596  0.480911  1
  Ge  Ge3  1  0.202773  0.687404  0.519089  1
  Ge  Ge4  1  0.005306  0.163986  0.550293  1
  Ge  Ge5  1  0.494694  0.336014  0.050293  1
  Ge  Ge6  1  0.994694  0.836014  0.449707  1
  Ge  Ge7  1  0.505306  0.663986  0.949707  1
  Se  Se8  1  0.843094  0.939835  0.590408  1
  Se  Se9  1  0.656906  0.560165  0.090408  1
  Se  Se10  1  0.156906  0.060165  0.409592  1
  Se  Se11  1  0.343094  0.439835  0.909592  1
  Se  Se12  1  0.656924  0.719666  0.794384  1
  Se  Se13  1  0.156924  0.219666  0.705616  1
  Se  Se14  1  0.843076  0.780334  0.294384  1
  Se  Se15  1  0.343076  0.280334  0.205616  1
  Se  Se16  1  0.793334  0.542708  0.558366  1
  Se  Se17  1  0.706666  0.957292  0.058366  1
  Se  Se18  1  0.206666  0.457292  0.441634  1
  Se  Se19  1  0.293334  0.042708  0.941634  1
  Se  Se20  1  0.462797  0.788346  0.491044  1
  Se  Se21  1  0.037203  0.711654  0.991044  1
  Se  Se22  1  0.537203  0.211654  0.508956  1
  Se  Se23  1  0.962797  0.288346  0.008956  1
  Se  Se24  1  0.688012  0.203094  0.788097  1
  Se  Se25  1  0.811988  0.296906  0.288097  1
  Se  Se26  1  0.311988  0.796906  0.211903  1
  Se  Se27  1  0.188012  0.703094  0.711903  1
  Sr  Sr28  1  0.940716  0.475960  0.801272  1
  Sr  Sr29  1  0.559284  0.024040  0.301272  1
  Sr  Sr30  1  0.059284  0.524040  0.198728  1
  Sr  Sr31  1  0.440716  0.975960  0.698728  1
  Sr  Sr32  1  0.455469  0.467110  0.662047  1
  Sr  Sr33  1  0.044531  0.032890  0.162047  1
  Sr  Sr34  1  0.544531  0.532890  0.337953  1
  Sr  Sr35  1  0.955469  0.967110  0.837953  1
