# generated using pymatgen
data_Te4MoW
_symmetry_space_group_name_H-M   'P 1'
_cell_length_a   3.55962720
_cell_length_b   3.55949345
_cell_length_c   40.10774455
_cell_angle_alpha   90.00061037
_cell_angle_beta   90.00000000
_cell_angle_gamma   120.00124301
_symmetry_Int_Tables_number   1
_chemical_formula_structural   Te4MoW
_chemical_formula_sum   'Te8 Mo2 W2'
_cell_volume   440.09470839
_cell_formula_units_Z   2
loop_
 _symmetry_equiv_pos_site_id
 _symmetry_equiv_pos_as_xyz
  1  'x, y, z'
loop_
 _atom_site_type_symbol
 _atom_site_label
 _atom_site_symmetry_multiplicity
 _atom_site_fract_x
 _atom_site_fract_y
 _atom_site_fract_z
 _atom_site_occupancy
  Te  Te0  1  0.333352  0.666705  0.327098  1
  Te  Te1  1  0.333356  0.666714  0.702656  1
  Te  Te2  1  0.666644  0.333286  0.048802  1
  Te  Te3  1  0.666648  0.333295  0.424360  1
  Te  Te4  1  0.666649  0.333296  0.139063  1
  Te  Te5  1  0.666647  0.333292  0.514968  1
  Te  Te6  1  0.333353  0.666708  0.236490  1
  Te  Te7  1  0.333351  0.666704  0.612395  1
  Mo  Mo8  1  0.333306  0.666611  0.093917  1
  Mo  Mo9  1  0.666694  0.333389  0.657541  1
  W  W10  1  0.333307  0.666613  0.469658  1
  W  W11  1  0.666693  0.333387  0.281800  1
