# generated using pymatgen
data_Te2W
_symmetry_space_group_name_H-M   'P 1'
_cell_length_a   3.55677840
_cell_length_b   3.55641070
_cell_length_c   25.05412981
_cell_angle_alpha   90.00016243
_cell_angle_beta   90.00000000
_cell_angle_gamma   120.00342019
_symmetry_Int_Tables_number   1
_chemical_formula_structural   Te2W
_chemical_formula_sum   'Te4 W2'
_cell_volume   274.45029539
_cell_formula_units_Z   2
loop_
 _symmetry_equiv_pos_site_id
 _symmetry_equiv_pos_as_xyz
  1  'x, y, z'
loop_
 _atom_site_type_symbol
 _atom_site_label
 _atom_site_symmetry_multiplicity
 _atom_site_fract_x
 _atom_site_fract_y
 _atom_site_fract_z
 _atom_site_occupancy
  Te  Te0  1  0.333346  0.666693  0.523895  1
  Te  Te1  1  0.666654  0.333307  0.077973  1
  Te  Te2  1  0.666654  0.333308  0.222976  1
  Te  Te3  1  0.333346  0.666692  0.378892  1
  W  W4  1  0.333293  0.666586  0.150436  1
  W  W5  1  0.666707  0.333414  0.451432  1
