# generated using pymatgen
data_K2Pd(NO2)4
_symmetry_space_group_name_H-M   'P 1'
_cell_length_a   7.91632905
_cell_length_b   9.71498047
_cell_length_c   12.93821754
_cell_angle_alpha   90.00000000
_cell_angle_beta   90.00000000
_cell_angle_gamma   97.43144455
_symmetry_Int_Tables_number   1
_chemical_formula_structural   K2Pd(NO2)4
_chemical_formula_sum   'K8 Pd4 N16 O32'
_cell_volume   986.68126290
_cell_formula_units_Z   4
loop_
 _symmetry_equiv_pos_site_id
 _symmetry_equiv_pos_as_xyz
  1  'x, y, z'
loop_
 _atom_site_type_symbol
 _atom_site_label
 _atom_site_symmetry_multiplicity
 _atom_site_fract_x
 _atom_site_fract_y
 _atom_site_fract_z
 _atom_site_occupancy
  N  N0  1  0.754431  0.580627  0.478554  1
  N  N1  1  0.512371  0.394657  0.363242  1
  N  N2  1  0.987629  0.605343  0.863242  1
  N  N3  1  0.487629  0.605343  0.636758  1
  N  N4  1  0.012371  0.394657  0.136758  1
  N  N5  1  0.745569  0.419373  0.978554  1
  N  N6  1  0.245569  0.419373  0.521446  1
  N  N7  1  0.254431  0.580627  0.021446  1
  N  N8  1  0.764685  0.007376  0.066726  1
  N  N9  1  0.735315  0.992624  0.566726  1
  N  N10  1  0.235315  0.992624  0.933274  1
  N  N11  1  0.264685  0.007376  0.433274  1
  N  N12  1  0.430867  0.108014  0.627192  1
  N  N13  1  0.069133  0.891986  0.127192  1
  N  N14  1  0.569133  0.891986  0.372808  1
  N  N15  1  0.930867  0.108014  0.872808  1
  O  O16  1  0.302780  0.627718  0.107964  1
  O  O17  1  0.197220  0.372282  0.607964  1
  O  O18  1  0.697220  0.372282  0.892036  1
  O  O19  1  0.802780  0.627718  0.392036  1
  O  O20  1  0.933250  0.432649  0.213532  1
  O  O21  1  0.566750  0.567351  0.713532  1
  O  O22  1  0.066750  0.567351  0.786468  1
  O  O23  1  0.599435  0.296787  0.355187  1
  O  O24  1  0.433250  0.432649  0.286468  1
  O  O25  1  0.099435  0.296787  0.144813  1
  O  O26  1  0.400565  0.703213  0.644813  1
  O  O27  1  0.900565  0.703213  0.855187  1
  O  O28  1  0.298155  0.066282  0.676203  1
  O  O29  1  0.201845  0.933718  0.176203  1
  O  O30  1  0.701845  0.933718  0.323797  1
  O  O31  1  0.798155  0.066282  0.823797  1
  O  O32  1  0.522884  0.216295  0.655313  1
  O  O33  1  0.977116  0.783705  0.155313  1
  O  O34  1  0.477116  0.783705  0.344687  1
  O  O35  1  0.022884  0.216295  0.844687  1
  O  O36  1  0.147595  0.910347  0.450080  1
  O  O37  1  0.352405  0.089653  0.950080  1
  O  O38  1  0.852405  0.089653  0.549920  1
  O  O39  1  0.647595  0.910347  0.049920  1
  O  O40  1  0.239883  0.106771  0.376542  1
  O  O41  1  0.260117  0.893229  0.876542  1
  O  O42  1  0.760117  0.893229  0.623458  1
  O  O43  1  0.739883  0.106771  0.123458  1
  O  O44  1  0.358430  0.580625  0.948612  1
  O  O45  1  0.141570  0.419375  0.448612  1
  O  O46  1  0.641570  0.419375  0.051388  1
  O  O47  1  0.858430  0.580625  0.551388  1
  K  K48  1  0.649677  0.658408  0.183043  1
  K  K49  1  0.850323  0.341592  0.683043  1
  K  K50  1  0.350323  0.341592  0.816957  1
  K  K51  1  0.149677  0.658408  0.316957  1
  K  K52  1  0.915674  0.189081  0.343074  1
  K  K53  1  0.584326  0.810919  0.843074  1
  K  K54  1  0.084326  0.810919  0.656926  1
  K  K55  1  0.415674  0.189081  0.156926  1
  Pd  Pd56  1  0.500000  0.500000  0.500000  1
  Pd  Pd57  1  0.000000  0.500000  0.000000  1
  Pd  Pd58  1  0.000000  0.000000  0.000000  1
  Pd  Pd59  1  0.500000  0.000000  0.500000  1
