# generated using pymatgen
data_Rb3Sn4Au
_symmetry_space_group_name_H-M   'P 1'
_cell_length_a   6.71240128
_cell_length_b   7.19824082
_cell_length_c   13.55545742
_cell_angle_alpha   90.00000000
_cell_angle_beta   90.00000000
_cell_angle_gamma   90.00000000
_symmetry_Int_Tables_number   1
_chemical_formula_structural   Rb3Sn4Au
_chemical_formula_sum   'Rb6 Sn8 Au2'
_cell_volume   654.96555490
_cell_formula_units_Z   2
loop_
 _symmetry_equiv_pos_site_id
 _symmetry_equiv_pos_as_xyz
  1  'x, y, z'
loop_
 _atom_site_type_symbol
 _atom_site_label
 _atom_site_symmetry_multiplicity
 _atom_site_fract_x
 _atom_site_fract_y
 _atom_site_fract_z
 _atom_site_occupancy
  Rb  Rb0  1  0.548175  0.250000  0.250000  1
  Rb  Rb1  1  0.451825  0.750000  0.750000  1
  Rb  Rb2  1  0.823071  0.750000  0.995900  1
  Rb  Rb3  1  0.823071  0.750000  0.504100  1
  Rb  Rb4  1  0.176929  0.250000  0.004100  1
  Rb  Rb5  1  0.176929  0.250000  0.495900  1
  Sn  Sn6  1  0.324399  0.750000  0.134465  1
  Sn  Sn7  1  0.324399  0.750000  0.365535  1
  Sn  Sn8  1  0.031835  0.528405  0.250000  1
  Sn  Sn9  1  0.031835  0.971595  0.250000  1
  Sn  Sn10  1  0.968165  0.028405  0.750000  1
  Sn  Sn11  1  0.968165  0.471595  0.750000  1
  Sn  Sn12  1  0.675601  0.250000  0.634465  1
  Sn  Sn13  1  0.675601  0.250000  0.865535  1
  Au  Au14  1  0.678668  0.750000  0.250000  1
  Au  Au15  1  0.321332  0.250000  0.750000  1
