# generated using pymatgen
data_Yb4As3
_symmetry_space_group_name_H-M   'P 1'
_cell_length_a   7.69178994
_cell_length_b   7.69178994
_cell_length_c   7.69178994
_cell_angle_alpha   109.47122063
_cell_angle_beta   109.47122064
_cell_angle_gamma   109.47122062
_symmetry_Int_Tables_number   1
_chemical_formula_structural   Yb4As3
_chemical_formula_sum   'Yb8 As6'
_cell_volume   350.31630809
_cell_formula_units_Z   2
loop_
 _symmetry_equiv_pos_site_id
 _symmetry_equiv_pos_as_xyz
  1  'x, y, z'
loop_
 _atom_site_type_symbol
 _atom_site_label
 _atom_site_symmetry_multiplicity
 _atom_site_fract_x
 _atom_site_fract_y
 _atom_site_fract_z
 _atom_site_occupancy
  As  As0  1  0.750000  0.875000  0.125000  1
  As  As1  1  0.625000  0.375000  0.250000  1
  As  As2  1  0.875000  0.125000  0.750000  1
  As  As3  1  0.125000  0.750000  0.875000  1
  As  As4  1  0.375000  0.250000  0.625000  1
  As  As5  1  0.250000  0.625000  0.375000  1
  Yb  Yb6  1  0.356201  0.500000  0.000000  1
  Yb  Yb7  1  0.643799  0.643799  0.643799  1
  Yb  Yb8  1  0.500000  0.000000  0.356201  1
  Yb  Yb9  1  0.000000  0.356201  0.500000  1
  Yb  Yb10  1  0.500000  0.000000  0.856201  1
  Yb  Yb11  1  0.000000  0.856201  0.500000  1
  Yb  Yb12  1  0.856201  0.500000  0.000000  1
  Yb  Yb13  1  0.143799  0.143799  0.143799  1
