# generated using pymatgen
data_CsTbCdSe3
_symmetry_space_group_name_H-M   'P 1'
_cell_length_a   4.32036533
_cell_length_b   8.47331226
_cell_length_c   11.23763923
_cell_angle_alpha   90.00000000
_cell_angle_beta   90.00000000
_cell_angle_gamma   104.77000495
_symmetry_Int_Tables_number   1
_chemical_formula_structural   CsTbCdSe3
_chemical_formula_sum   'Cs2 Tb2 Cd2 Se6'
_cell_volume   397.79188973
_cell_formula_units_Z   2
loop_
 _symmetry_equiv_pos_site_id
 _symmetry_equiv_pos_as_xyz
  1  'x, y, z'
loop_
 _atom_site_type_symbol
 _atom_site_label
 _atom_site_symmetry_multiplicity
 _atom_site_fract_x
 _atom_site_fract_y
 _atom_site_fract_z
 _atom_site_occupancy
  Se  Se0  1  0.939359  0.878718  0.250000  1
  Se  Se1  1  0.060641  0.121282  0.750000  1
  Se  Se2  1  0.383054  0.766108  0.545964  1
  Se  Se3  1  0.383054  0.766108  0.954036  1
  Se  Se4  1  0.616946  0.233892  0.045964  1
  Se  Se5  1  0.616946  0.233892  0.454036  1
  Cd  Cd6  1  0.461045  0.922089  0.750000  1
  Cd  Cd7  1  0.538955  0.077911  0.250000  1
  Cs  Cs8  1  0.255578  0.511155  0.250000  1
  Cs  Cs9  1  0.744422  0.488845  0.750000  1
  Tb  Tb10  1  0.000000  0.000000  0.500000  1
  Tb  Tb11  1  0.000000  0.000000  0.000000  1
