# generated using pymatgen
data_SmF3
_symmetry_space_group_name_H-M   'P 1'
_cell_length_a   7.03063099
_cell_length_b   7.03063099
_cell_length_c   6.97925839
_cell_angle_alpha   90.00000000
_cell_angle_beta   90.00000000
_cell_angle_gamma   119.99999997
_symmetry_Int_Tables_number   1
_chemical_formula_structural   SmF3
_chemical_formula_sum   'Sm6 F18'
_cell_volume   298.76417321
_cell_formula_units_Z   6
loop_
 _symmetry_equiv_pos_site_id
 _symmetry_equiv_pos_as_xyz
  1  'x, y, z'
loop_
 _atom_site_type_symbol
 _atom_site_label
 _atom_site_symmetry_multiplicity
 _atom_site_fract_x
 _atom_site_fract_y
 _atom_site_fract_z
 _atom_site_occupancy
  F  F0  1  0.000000  0.000000  0.750000  1
  F  F1  1  0.000000  0.000000  0.250000  1
  F  F2  1  0.333333  0.666667  0.499042  1
  F  F3  1  0.666667  0.333333  0.999042  1
  F  F4  1  0.666667  0.333333  0.500958  1
  F  F5  1  0.333333  0.666667  0.000958  1
  F  F6  1  0.344219  0.000433  0.167076  1
  F  F7  1  0.343786  0.344219  0.667076  1
  F  F8  1  0.000433  0.656214  0.667076  1
  F  F9  1  0.999567  0.343786  0.167076  1
  F  F10  1  0.656214  0.655781  0.167076  1
  F  F11  1  0.343786  0.999567  0.832924  1
  F  F12  1  0.655781  0.656214  0.832924  1
  F  F13  1  0.655781  0.999567  0.667076  1
  F  F14  1  0.000433  0.344219  0.832924  1
  F  F15  1  0.999567  0.655781  0.332924  1
  F  F16  1  0.656214  0.000433  0.332924  1
  F  F17  1  0.344219  0.343786  0.332924  1
  Sm  Sm18  1  0.668578  0.668578  0.500000  1
  Sm  Sm19  1  0.000000  0.668578  0.000000  1
  Sm  Sm20  1  0.668578  0.000000  0.000000  1
  Sm  Sm21  1  0.331422  0.000000  0.500000  1
  Sm  Sm22  1  0.000000  0.331422  0.500000  1
  Sm  Sm23  1  0.331422  0.331422  0.000000  1
