# generated using pymatgen
data_Ca2B2O5
_symmetry_space_group_name_H-M   'P 1'
_cell_length_a   3.58937429
_cell_length_b   6.40523609
_cell_length_c   19.42802454
_cell_angle_alpha   90.00000000
_cell_angle_beta   92.35387817
_cell_angle_gamma   90.00000000
_symmetry_Int_Tables_number   1
_chemical_formula_structural   Ca2B2O5
_chemical_formula_sum   'Ca8 B8 O20'
_cell_volume   446.28873787
_cell_formula_units_Z   4
loop_
 _symmetry_equiv_pos_site_id
 _symmetry_equiv_pos_as_xyz
  1  'x, y, z'
loop_
 _atom_site_type_symbol
 _atom_site_label
 _atom_site_symmetry_multiplicity
 _atom_site_fract_x
 _atom_site_fract_y
 _atom_site_fract_z
 _atom_site_occupancy
  Ca  Ca0  1  0.286504  0.549965  0.709971  1
  Ca  Ca1  1  0.713496  0.049965  0.790029  1
  Ca  Ca2  1  0.713496  0.450035  0.290029  1
  Ca  Ca3  1  0.286504  0.950035  0.209971  1
  Ca  Ca4  1  0.752807  0.305651  0.561766  1
  Ca  Ca5  1  0.247193  0.805651  0.938234  1
  Ca  Ca6  1  0.247193  0.694349  0.438234  1
  Ca  Ca7  1  0.752807  0.194349  0.061766  1
  B  B8  1  0.163461  0.033136  0.656724  1
  B  B9  1  0.836539  0.533136  0.843276  1
  B  B10  1  0.836539  0.966864  0.343276  1
  B  B11  1  0.163461  0.466864  0.156724  1
  B  B12  1  0.177067  0.247789  0.917628  1
  B  B13  1  0.822933  0.747789  0.582372  1
  B  B14  1  0.822933  0.752211  0.082372  1
  B  B15  1  0.177067  0.252211  0.417628  1
  O  O16  1  0.756794  0.693697  0.515009  1
  O  O17  1  0.243206  0.193697  0.984991  1
  O  O18  1  0.243206  0.306303  0.484991  1
  O  O19  1  0.756794  0.806303  0.015009  1
  O  O20  1  0.768070  0.607710  0.634246  1
  O  O21  1  0.231930  0.107710  0.865754  1
  O  O22  1  0.231930  0.392290  0.365754  1
  O  O23  1  0.768070  0.892290  0.134246  1
  O  O24  1  0.286717  0.233319  0.647731  1
  O  O25  1  0.713283  0.733319  0.852269  1
  O  O26  1  0.713283  0.766681  0.352269  1
  O  O27  1  0.286717  0.266681  0.147731  1
  O  O28  1  0.968713  0.950463  0.596846  1
  O  O29  1  0.031287  0.450463  0.903154  1
  O  O30  1  0.031287  0.049537  0.403154  1
  O  O31  1  0.968713  0.549537  0.096846  1
  O  O32  1  0.203446  0.924183  0.717208  1
  O  O33  1  0.796554  0.424183  0.782792  1
  O  O34  1  0.796554  0.075817  0.282792  1
  O  O35  1  0.203446  0.575817  0.217208  1
