# generated using pymatgen
data_MgAlF5
_symmetry_space_group_name_H-M   'P 1'
_cell_length_a   3.32349262
_cell_length_b   5.84735674
_cell_length_c   5.84735674
_cell_angle_alpha   88.28702429
_cell_angle_beta   73.48970601
_cell_angle_gamma   73.48970601
_symmetry_Int_Tables_number   1
_chemical_formula_structural   MgAlF5
_chemical_formula_sum   'Mg1 Al1 F5'
_cell_volume   104.29790046
_cell_formula_units_Z   1
loop_
 _symmetry_equiv_pos_site_id
 _symmetry_equiv_pos_as_xyz
  1  'x, y, z'
loop_
 _atom_site_type_symbol
 _atom_site_label
 _atom_site_symmetry_multiplicity
 _atom_site_fract_x
 _atom_site_fract_y
 _atom_site_fract_z
 _atom_site_occupancy
  Mg  Mg0  1  -0.000000  0.500000  0.500000  1
  Al  Al1  1  0.500000  0.000000  0.000000  1
  F  F2  1  0.662374  0.337626  0.337626  1
  F  F3  1  0.337626  0.662374  0.662374  1
  F  F4  1  0.500000  0.209458  0.790542  1
  F  F5  1  0.500000  0.790542  0.209458  1
  F  F6  1  0.000000  0.000000  0.000000  1
