# generated using pymatgen
data_MoW3(SeS3)2
_symmetry_space_group_name_H-M   'P 1'
_cell_length_a   3.22353866
_cell_length_b   3.22353280
_cell_length_c   36.39703664
_cell_angle_alpha   90.00036982
_cell_angle_beta   90.00000000
_cell_angle_gamma   120.00006016
_symmetry_Int_Tables_number   1
_chemical_formula_structural   MoW3(SeS3)2
_chemical_formula_sum   'Mo1 W3 Se2 S6'
_cell_volume   327.53775697
_cell_formula_units_Z   1
loop_
 _symmetry_equiv_pos_site_id
 _symmetry_equiv_pos_as_xyz
  1  'x, y, z'
loop_
 _atom_site_type_symbol
 _atom_site_label
 _atom_site_symmetry_multiplicity
 _atom_site_fract_x
 _atom_site_fract_y
 _atom_site_fract_z
 _atom_site_occupancy
  Mo  Mo0  1  0.333308  0.666616  0.093914  1
  W  W1  1  0.333305  0.666611  0.469668  1
  W  W2  1  0.666693  0.333386  0.281816  1
  W  W3  1  0.666691  0.333381  0.657533  1
  Se  Se4  1  0.333350  0.666702  0.329043  1
  Se  Se5  1  0.333358  0.666717  0.234525  1
  S  S6  1  0.333362  0.666725  0.700417  1
  S  S7  1  0.666643  0.333286  0.051230  1
  S  S8  1  0.666645  0.333289  0.426841  1
  S  S9  1  0.666647  0.333293  0.136574  1
  S  S10  1  0.666645  0.333289  0.512518  1
  S  S11  1  0.333352  0.666705  0.614669  1
