# generated using pymatgen
data_KNaFe(Si2O5)2
_symmetry_space_group_name_H-M   'P 1'
_cell_length_a   7.05698828
_cell_length_b   8.30659405
_cell_length_c   10.07255299
_cell_angle_alpha   106.20540459
_cell_angle_beta   100.04060827
_cell_angle_gamma   113.83963583
_symmetry_Int_Tables_number   1
_chemical_formula_structural   KNaFe(Si2O5)2
_chemical_formula_sum   'K2 Na2 Fe2 Si8 O20'
_cell_volume   490.11656532
_cell_formula_units_Z   2
loop_
 _symmetry_equiv_pos_site_id
 _symmetry_equiv_pos_as_xyz
  1  'x, y, z'
loop_
 _atom_site_type_symbol
 _atom_site_label
 _atom_site_symmetry_multiplicity
 _atom_site_fract_x
 _atom_site_fract_y
 _atom_site_fract_z
 _atom_site_occupancy
  O  O0  1  0.618900  0.546181  0.713899  1
  O  O1  1  0.381100  0.453819  0.286101  1
  O  O2  1  0.533940  0.321850  0.865932  1
  O  O3  1  0.466060  0.678150  0.134068  1
  O  O4  1  0.958292  0.211632  0.562416  1
  O  O5  1  0.041708  0.788368  0.437584  1
  O  O6  1  0.121615  0.257882  0.840006  1
  O  O7  1  0.878385  0.742118  0.159994  1
  O  O8  1  0.886853  0.419865  0.793519  1
  O  O9  1  0.113147  0.580135  0.206481  1
  O  O10  1  0.269615  0.564096  0.768701  1
  O  O11  1  0.730385  0.435904  0.231299  1
  O  O12  1  0.330452  0.187446  0.038773  1
  O  O13  1  0.669548  0.812554  0.961227  1
  O  O14  1  0.437581  0.154128  0.288370  1
  O  O15  1  0.562419  0.845872  0.711630  1
  O  O16  1  0.803334  0.042309  0.242150  1
  O  O17  1  0.196666  0.957691  0.757850  1
  O  O18  1  0.505007  0.831561  0.418507  1
  O  O19  1  0.494993  0.168439  0.581493  1
  Na  Na20  1  0.838139  0.871022  0.589987  1
  Na  Na21  1  0.161861  0.128978  0.410013  1
  Si  Si22  1  0.473083  0.307284  0.215353  1
  Si  Si23  1  0.526917  0.692716  0.784647  1
  Si  Si24  1  0.057306  0.356478  0.729972  1
  Si  Si25  1  0.942694  0.643522  0.270028  1
  Si  Si26  1  0.294084  0.173406  0.868687  1
  Si  Si27  1  0.705916  0.826594  0.131313  1
  Si  Si28  1  0.624887  0.355992  0.730195  1
  Si  Si29  1  0.375113  0.644008  0.269805  1
  K  K30  1  0.156597  0.797952  0.984482  1
  K  K31  1  0.843403  0.202048  0.015518  1
  Fe  Fe32  1  0.342910  0.892558  0.591646  1
  Fe  Fe33  1  0.657090  0.107442  0.408354  1
