# generated using pymatgen
data_K3B(SO4)3
_symmetry_space_group_name_H-M   'P 1'
_cell_length_a   7.17100201
_cell_length_b   13.97505784
_cell_length_c   13.97505784
_cell_angle_alpha   62.68967612
_cell_angle_beta   75.13370261
_cell_angle_gamma   75.13370261
_symmetry_Int_Tables_number   1
_chemical_formula_structural   K3B(SO4)3
_chemical_formula_sum   'K12 B4 S12 O48'
_cell_volume   1186.92587146
_cell_formula_units_Z   4
loop_
 _symmetry_equiv_pos_site_id
 _symmetry_equiv_pos_as_xyz
  1  'x, y, z'
loop_
 _atom_site_type_symbol
 _atom_site_label
 _atom_site_symmetry_multiplicity
 _atom_site_fract_x
 _atom_site_fract_y
 _atom_site_fract_z
 _atom_site_occupancy
  K  K0  1  0.462452  0.295713  0.062753  1
  K  K1  1  0.320918  0.204287  0.437247  1
  K  K2  1  0.037548  0.937247  0.704287  1
  K  K3  1  0.179082  0.562753  0.795713  1
  K  K4  1  0.537548  0.704287  0.937247  1
  K  K5  1  0.679082  0.795713  0.562753  1
  K  K6  1  0.962452  0.062753  0.295713  1
  K  K7  1  0.820918  0.437247  0.204287  1
  K  K8  1  0.250000  0.558432  0.441568  1
  K  K9  1  0.750000  0.941568  0.058432  1
  K  K10  1  0.750000  0.441568  0.558432  1
  K  K11  1  0.250000  0.058432  0.941568  1
  B  B12  1  0.082886  0.667114  0.167114  1
  B  B13  1  0.417114  0.832886  0.332886  1
  B  B14  1  0.917114  0.332886  0.832886  1
  B  B15  1  0.582886  0.167114  0.667114  1
  S  S16  1  0.305691  0.463738  0.221898  1
  S  S17  1  0.491326  0.036262  0.278102  1
  S  S18  1  0.194309  0.778102  0.536262  1
  S  S19  1  0.008674  0.721898  0.963738  1
  S  S20  1  0.694309  0.536262  0.778102  1
  S  S21  1  0.508674  0.963738  0.721898  1
  S  S22  1  0.805691  0.221898  0.463738  1
  S  S23  1  0.991326  0.278102  0.036262  1
  S  S24  1  0.250000  0.814606  0.185394  1
  S  S25  1  0.750000  0.685394  0.314606  1
  S  S26  1  0.750000  0.185394  0.814606  1
  S  S27  1  0.250000  0.314606  0.685394  1
  O  O28  1  0.128129  0.719449  0.049162  1
  O  O29  1  0.396740  0.780551  0.450838  1
  O  O30  1  0.371871  0.950838  0.280551  1
  O  O31  1  0.103260  0.549162  0.219449  1
  O  O32  1  0.871871  0.280551  0.950838  1
  O  O33  1  0.603260  0.219449  0.549162  1
  O  O34  1  0.628129  0.049162  0.719449  1
  O  O35  1  0.896740  0.450838  0.780551  1
  O  O36  1  0.244580  0.373781  0.217593  1
  O  O37  1  0.335953  0.126219  0.282407  1
  O  O38  1  0.255420  0.782407  0.626219  1
  O  O39  1  0.164047  0.717593  0.873781  1
  O  O40  1  0.755420  0.626219  0.782407  1
  O  O41  1  0.664047  0.873781  0.717593  1
  O  O42  1  0.744580  0.217593  0.373781  1
  O  O43  1  0.835953  0.282407  0.126219  1
  O  O44  1  0.574645  0.157605  0.894036  1
  O  O45  1  0.126286  0.342395  0.605964  1
  O  O46  1  0.925355  0.105964  0.842395  1
  O  O47  1  0.373714  0.394036  0.657605  1
  O  O48  1  0.425355  0.842395  0.105964  1
  O  O49  1  0.873714  0.657605  0.394036  1
  O  O50  1  0.074645  0.894036  0.157605  1
  O  O51  1  0.626286  0.605964  0.342395  1
  O  O52  1  0.218640  0.699158  0.210678  1
  O  O53  1  0.628477  0.800842  0.289322  1
  O  O54  1  0.281360  0.789322  0.300842  1
  O  O55  1  0.871523  0.710678  0.199158  1
  O  O56  1  0.781360  0.300842  0.789322  1
  O  O57  1  0.371523  0.199158  0.710678  1
  O  O58  1  0.718640  0.210678  0.699158  1
  O  O59  1  0.128477  0.289322  0.800842  1
  O  O60  1  0.365104  0.433010  0.326625  1
  O  O61  1  0.624739  0.066990  0.173375  1
  O  O62  1  0.134896  0.673375  0.566990  1
  O  O63  1  0.875261  0.826625  0.933010  1
  O  O64  1  0.634896  0.566990  0.673375  1
  O  O65  1  0.375261  0.933010  0.826625  1
  O  O66  1  0.865104  0.326625  0.433010  1
  O  O67  1  0.124739  0.173375  0.066990  1
  O  O68  1  0.446848  0.518992  0.127572  1
  O  O69  1  0.593412  0.981008  0.372428  1
  O  O70  1  0.053152  0.872428  0.481008  1
  O  O71  1  0.906588  0.627572  0.018992  1
  O  O72  1  0.553152  0.481008  0.872428  1
  O  O73  1  0.406588  0.018992  0.627572  1
  O  O74  1  0.946848  0.127572  0.518992  1
  O  O75  1  0.093412  0.372428  0.981008  1
