# generated using pymatgen
data_Ba3P14
_symmetry_space_group_name_H-M   'P 1'
_cell_length_a   6.56854963
_cell_length_b   10.34788081
_cell_length_c   13.25005926
_cell_angle_alpha   90.00000000
_cell_angle_beta   90.00000000
_cell_angle_gamma   90.37313585
_symmetry_Int_Tables_number   1
_chemical_formula_structural   Ba3P14
_chemical_formula_sum   'Ba6 P28'
_cell_volume   900.59496387
_cell_formula_units_Z   2
loop_
 _symmetry_equiv_pos_site_id
 _symmetry_equiv_pos_as_xyz
  1  'x, y, z'
loop_
 _atom_site_type_symbol
 _atom_site_label
 _atom_site_symmetry_multiplicity
 _atom_site_fract_x
 _atom_site_fract_y
 _atom_site_fract_z
 _atom_site_occupancy
  P  P0  1  0.102301  0.151743  0.152639  1
  P  P1  1  0.397699  0.348257  0.652639  1
  P  P2  1  0.897699  0.848257  0.847361  1
  P  P3  1  0.602301  0.651743  0.347361  1
  P  P4  1  0.589290  0.313015  0.512778  1
  P  P5  1  0.910710  0.186985  0.012778  1
  P  P6  1  0.333205  0.946163  0.317835  1
  P  P7  1  0.166795  0.553837  0.817835  1
  P  P8  1  0.666795  0.053837  0.682165  1
  P  P9  1  0.833205  0.446163  0.182165  1
  P  P10  1  0.561272  0.856849  0.412025  1
  P  P11  1  0.938728  0.643151  0.912025  1
  P  P12  1  0.438728  0.143151  0.587975  1
  P  P13  1  0.061272  0.356849  0.087975  1
  P  P14  1  0.148299  0.773002  0.285457  1
  P  P15  1  0.351701  0.726998  0.785457  1
  P  P16  1  0.851701  0.226998  0.714543  1
  P  P17  1  0.648299  0.273002  0.214543  1
  P  P18  1  0.097519  0.686187  0.436136  1
  P  P19  1  0.402481  0.813813  0.936136  1
  P  P20  1  0.902481  0.313813  0.563864  1
  P  P21  1  0.597519  0.186187  0.063864  1
  P  P22  1  0.384539  0.644267  0.224343  1
  P  P23  1  0.115461  0.855733  0.724343  1
  P  P24  1  0.615461  0.355733  0.775657  1
  P  P25  1  0.884539  0.144267  0.275657  1
  P  P26  1  0.089290  0.813015  0.987222  1
  P  P27  1  0.410710  0.686985  0.487222  1
  Ba  Ba28  1  0.204793  0.387576  0.347243  1
  Ba  Ba29  1  0.295207  0.112424  0.847243  1
  Ba  Ba30  1  0.795207  0.612424  0.652757  1
  Ba  Ba31  1  0.704793  0.887576  0.152757  1
  Ba  Ba32  1  0.000000  0.000000  0.500000  1
  Ba  Ba33  1  0.500000  0.500000  0.000000  1
