# generated using pymatgen
data_Te2Mo2SeS
_symmetry_space_group_name_H-M   'P 1'
_cell_length_a   3.39887841
_cell_length_b   3.39885710
_cell_length_c   38.69344397
_cell_angle_alpha   89.99997105
_cell_angle_beta   89.99999872
_cell_angle_gamma   120.00011660
_symmetry_Int_Tables_number   1
_chemical_formula_structural   Te2Mo2SeS
_chemical_formula_sum   'Te4 Mo4 Se2 S2'
_cell_volume   387.11147252
_cell_formula_units_Z   2
loop_
 _symmetry_equiv_pos_site_id
 _symmetry_equiv_pos_as_xyz
  1  'x, y, z'
loop_
 _atom_site_type_symbol
 _atom_site_label
 _atom_site_symmetry_multiplicity
 _atom_site_fract_x
 _atom_site_fract_y
 _atom_site_fract_z
 _atom_site_occupancy
  Te  Te0  1  0.333355  0.666711  0.705938  1
  Te  Te1  1  0.666652  0.333304  0.421230  1
  Te  Te2  1  0.666654  0.333307  0.517958  1
  Te  Te3  1  0.333353  0.666706  0.609225  1
  Mo  Mo4  1  0.333308  0.666616  0.093929  1
  Mo  Mo5  1  0.333311  0.666622  0.469596  1
  Mo  Mo6  1  0.666694  0.333389  0.281822  1
  Mo  Mo7  1  0.666694  0.333389  0.657614  1
  Se  Se8  1  0.666625  0.333249  0.051349  1
  Se  Se9  1  0.666639  0.333277  0.136493  1
  S  S10  1  0.333358  0.666716  0.320678  1
  S  S11  1  0.333357  0.666714  0.242915  1
