# generated using pymatgen
data_MoW2(SeS2)2
_symmetry_space_group_name_H-M   'P 1'
_cell_length_a   3.23125497
_cell_length_b   3.23126063
_cell_length_c   29.67800055
_cell_angle_alpha   90.00000000
_cell_angle_beta   90.00000000
_cell_angle_gamma   119.99994194
_symmetry_Int_Tables_number   1
_chemical_formula_structural   MoW2(SeS2)2
_chemical_formula_sum   'Mo1 W2 Se2 S4'
_cell_volume   268.35441334
_cell_formula_units_Z   1
loop_
 _symmetry_equiv_pos_site_id
 _symmetry_equiv_pos_as_xyz
  1  'x, y, z'
loop_
 _atom_site_type_symbol
 _atom_site_label
 _atom_site_symmetry_multiplicity
 _atom_site_fract_x
 _atom_site_fract_y
 _atom_site_fract_z
 _atom_site_occupancy
  Mo  Mo0  1  0.666686  0.333372  0.346982  1
  W  W1  1  0.333305  0.666611  0.115621  1
  W  W2  1  0.333305  0.666611  0.578344  1
  Se  Se3  1  0.333365  0.666731  0.404464  1
  Se  Se4  1  0.333365  0.666731  0.289501  1
  S  S5  1  0.666643  0.333285  0.063143  1
  S  S6  1  0.666644  0.333287  0.525856  1
  S  S7  1  0.666644  0.333287  0.168109  1
  S  S8  1  0.666643  0.333285  0.630821  1
