# generated using pymatgen
data_K2FeNi(CN)6
_symmetry_space_group_name_H-M   'P 1'
_cell_length_a   7.21303114
_cell_length_b   7.21303114
_cell_length_c   7.21303113
_cell_angle_alpha   59.99999998
_cell_angle_beta   59.99999998
_cell_angle_gamma   60.00000001
_symmetry_Int_Tables_number   1
_chemical_formula_structural   K2FeNi(CN)6
_chemical_formula_sum   'K2 Fe1 Ni1 C6 N6'
_cell_volume   265.36181090
_cell_formula_units_Z   1
loop_
 _symmetry_equiv_pos_site_id
 _symmetry_equiv_pos_as_xyz
  1  'x, y, z'
loop_
 _atom_site_type_symbol
 _atom_site_label
 _atom_site_symmetry_multiplicity
 _atom_site_fract_x
 _atom_site_fract_y
 _atom_site_fract_z
 _atom_site_occupancy
  C  C0  1  0.184063  0.815937  0.184063  1
  C  C1  1  0.815937  0.184063  0.815937  1
  C  C2  1  0.184063  0.815937  0.815937  1
  C  C3  1  0.815937  0.815937  0.184063  1
  C  C4  1  0.815937  0.184063  0.184063  1
  C  C5  1  0.184063  0.184063  0.815937  1
  N  N6  1  0.700320  0.700320  0.299680  1
  N  N7  1  0.299680  0.700320  0.700320  1
  N  N8  1  0.700320  0.299680  0.700320  1
  N  N9  1  0.299680  0.700320  0.299680  1
  N  N10  1  0.700320  0.299680  0.299680  1
  N  N11  1  0.299680  0.299680  0.700320  1
  K  K12  1  0.250000  0.250000  0.250000  1
  K  K13  1  0.750000  0.750000  0.750000  1
  Fe  Fe14  1  0.000000  0.000000  0.000000  1
  Ni  Ni15  1  0.500000  0.500000  0.500000  1
