# generated using pymatgen
data_CsTmCdTe3
_symmetry_space_group_name_H-M   'P 1'
_cell_length_a   4.51552724
_cell_length_b   8.97592044
_cell_length_c   11.81866523
_cell_angle_alpha   90.00000000
_cell_angle_beta   90.00000000
_cell_angle_gamma   104.56840028
_symmetry_Int_Tables_number   1
_chemical_formula_structural   CsTmCdTe3
_chemical_formula_sum   'Cs2 Tm2 Cd2 Te6'
_cell_volume   463.62096739
_cell_formula_units_Z   2
loop_
 _symmetry_equiv_pos_site_id
 _symmetry_equiv_pos_as_xyz
  1  'x, y, z'
loop_
 _atom_site_type_symbol
 _atom_site_label
 _atom_site_symmetry_multiplicity
 _atom_site_fract_x
 _atom_site_fract_y
 _atom_site_fract_z
 _atom_site_occupancy
  Cd  Cd0  1  0.462051  0.924102  0.750000  1
  Cd  Cd1  1  0.537949  0.075898  0.250000  1
  Te  Te2  1  0.381144  0.762288  0.956095  1
  Te  Te3  1  0.618856  0.237712  0.043905  1
  Te  Te4  1  0.935415  0.870829  0.250000  1
  Te  Te5  1  0.064585  0.129171  0.750000  1
  Te  Te6  1  0.381144  0.762288  0.543905  1
  Te  Te7  1  0.618856  0.237712  0.456095  1
  Cs  Cs8  1  0.248743  0.497487  0.250000  1
  Cs  Cs9  1  0.751257  0.502513  0.750000  1
  Tm  Tm10  1  0.000000  0.000000  0.500000  1
  Tm  Tm11  1  0.000000  0.000000  0.000000  1
