# generated using pymatgen
data_Al17(SiPd2)4
_symmetry_space_group_name_H-M   'P 1'
_cell_length_a   10.64904236
_cell_length_b   10.64904235
_cell_length_c   10.64904236
_cell_angle_alpha   105.02825196
_cell_angle_beta   105.02825200
_cell_angle_gamma   118.77749239
_symmetry_Int_Tables_number   1
_chemical_formula_structural   Al17(SiPd2)4
_chemical_formula_sum   'Al34 Si8 Pd16'
_cell_volume   910.97001473
_cell_formula_units_Z   2
loop_
 _symmetry_equiv_pos_site_id
 _symmetry_equiv_pos_as_xyz
  1  'x, y, z'
loop_
 _atom_site_type_symbol
 _atom_site_label
 _atom_site_symmetry_multiplicity
 _atom_site_fract_x
 _atom_site_fract_y
 _atom_site_fract_z
 _atom_site_occupancy
  Al  Al0  1  0.125000  0.375000  0.750000  1
  Al  Al1  1  0.875000  0.625000  0.250000  1
  Al  Al2  1  0.660105  0.075856  0.087974  1
  Al  Al3  1  0.575856  0.987882  0.415751  1
  Al  Al4  1  0.072131  0.160105  0.084249  1
  Al  Al5  1  0.487882  0.572131  0.412026  1
  Al  Al6  1  0.339895  0.924144  0.912026  1
  Al  Al7  1  0.424144  0.012118  0.584249  1
  Al  Al8  1  0.927869  0.839895  0.915751  1
  Al  Al9  1  0.512118  0.427869  0.587974  1
  Al  Al10  1  0.942370  0.181191  0.318717  1
  Al  Al11  1  0.681191  0.862474  0.238821  1
  Al  Al12  1  0.123653  0.442370  0.261179  1
  Al  Al13  1  0.362474  0.623653  0.181283  1
  Al  Al14  1  0.057630  0.818809  0.681283  1
  Al  Al15  1  0.318809  0.137526  0.761179  1
  Al  Al16  1  0.876347  0.557630  0.738821  1
  Al  Al17  1  0.637526  0.376347  0.818717  1
  Al  Al18  1  0.155053  0.176137  0.541613  1
  Al  Al19  1  0.676137  0.634523  0.021084  1
  Al  Al20  1  0.113439  0.655053  0.478916  1
  Al  Al21  1  0.134523  0.613439  0.958387  1
  Al  Al22  1  0.844947  0.823863  0.458387  1
  Al  Al23  1  0.323863  0.365477  0.978916  1
  Al  Al24  1  0.886561  0.344947  0.521084  1
  Al  Al25  1  0.865477  0.386561  0.041613  1
  Al  Al26  1  0.276479  0.502792  0.581934  1
  Al  Al27  1  0.002792  0.920858  0.226313  1
  Al  Al28  1  0.194545  0.776479  0.273687  1
  Al  Al29  1  0.420858  0.694545  0.918066  1
  Al  Al30  1  0.723521  0.497208  0.418066  1
  Al  Al31  1  0.997208  0.079142  0.773687  1
  Al  Al32  1  0.805455  0.223521  0.726313  1
  Al  Al33  1  0.579142  0.305455  0.081934  1
  Si  Si34  1  0.568032  0.185526  0.283838  1
  Si  Si35  1  0.685526  0.901688  0.617494  1
  Si  Si36  1  0.784194  0.068032  0.882506  1
  Si  Si37  1  0.401688  0.284194  0.216162  1
  Si  Si38  1  0.431968  0.814474  0.716162  1
  Si  Si39  1  0.314474  0.098312  0.382506  1
  Si  Si40  1  0.215806  0.931968  0.117494  1
  Si  Si41  1  0.598312  0.715806  0.783838  1
  Pd  Pd42  1  0.207308  0.070377  0.944101  1
  Pd  Pd43  1  0.570377  0.126277  0.863069  1
  Pd  Pd44  1  0.763207  0.707308  0.636931  1
  Pd  Pd45  1  0.626277  0.263207  0.555899  1
  Pd  Pd46  1  0.792692  0.929623  0.055899  1
  Pd  Pd47  1  0.429623  0.873723  0.136931  1
  Pd  Pd48  1  0.236793  0.292692  0.363069  1
  Pd  Pd49  1  0.373723  0.736793  0.444101  1
  Pd  Pd50  1  0.409770  0.431600  0.786547  1
  Pd  Pd51  1  0.931600  0.645052  0.021830  1
  Pd  Pd52  1  0.123223  0.909770  0.478170  1
  Pd  Pd53  1  0.145052  0.623223  0.713453  1
  Pd  Pd54  1  0.590230  0.568400  0.213453  1
  Pd  Pd55  1  0.068400  0.354948  0.978170  1
  Pd  Pd56  1  0.876777  0.090230  0.521830  1
  Pd  Pd57  1  0.854948  0.376777  0.286547  1
