# generated using pymatgen
data_KMn4(PO4)3
_symmetry_space_group_name_H-M   'P 1'
_cell_length_a   6.51203250
_cell_length_b   10.05300131
_cell_length_c   16.83897103
_cell_angle_alpha   90.00000000
_cell_angle_beta   90.00000000
_cell_angle_gamma   90.00000000
_symmetry_Int_Tables_number   1
_chemical_formula_structural   KMn4(PO4)3
_chemical_formula_sum   'K4 Mn16 P12 O48'
_cell_volume   1102.37117390
_cell_formula_units_Z   4
loop_
 _symmetry_equiv_pos_site_id
 _symmetry_equiv_pos_as_xyz
  1  'x, y, z'
loop_
 _atom_site_type_symbol
 _atom_site_label
 _atom_site_symmetry_multiplicity
 _atom_site_fract_x
 _atom_site_fract_y
 _atom_site_fract_z
 _atom_site_occupancy
  O  O0  1  0.500001  0.869214  0.477851  1
  O  O1  1  0.500001  0.130786  0.522148  1
  O  O2  1  0.000000  0.369214  0.022148  1
  O  O3  1  0.000000  0.630786  0.977852  1
  O  O4  1  0.803248  0.592412  0.674623  1
  O  O5  1  0.803248  0.407588  0.325377  1
  O  O6  1  0.696751  0.092412  0.825377  1
  O  O7  1  0.696751  0.907588  0.174623  1
  O  O8  1  0.196751  0.407588  0.325377  1
  O  O9  1  0.196751  0.592412  0.674623  1
  O  O10  1  0.303249  0.907588  0.174623  1
  O  O11  1  0.303249  0.092412  0.825377  1
  O  O12  1  0.309030  0.328174  0.585967  1
  O  O13  1  0.309030  0.671825  0.414032  1
  O  O14  1  0.190970  0.828174  0.914033  1
  O  O15  1  0.190970  0.171826  0.085967  1
  O  O16  1  0.690970  0.671825  0.414032  1
  O  O17  1  0.690970  0.328174  0.585967  1
  O  O18  1  0.809030  0.171826  0.085967  1
  O  O19  1  0.193450  0.915620  0.623400  1
  O  O20  1  0.500001  0.349745  0.454127  1
  O  O21  1  0.500001  0.650255  0.545873  1
  O  O22  1  0.000000  0.849745  0.045873  1
  O  O23  1  0.000000  0.150256  0.954127  1
  O  O24  1  0.000000  0.113455  0.246525  1
  O  O25  1  0.000000  0.886544  0.753474  1
  O  O26  1  0.500001  0.613455  0.253474  1
  O  O27  1  0.500001  0.386545  0.746525  1
  O  O28  1  0.500001  0.895161  0.301814  1
  O  O29  1  0.500001  0.104839  0.698185  1
  O  O30  1  0.000000  0.395161  0.198186  1
  O  O31  1  0.000000  0.604839  0.801814  1
  O  O32  1  0.500001  0.612299  0.815141  1
  O  O33  1  0.500001  0.387701  0.184859  1
  O  O34  1  0.000000  0.112299  0.684859  1
  O  O35  1  0.000000  0.887701  0.315141  1
  O  O36  1  0.500001  0.886684  0.775012  1
  O  O37  1  0.500001  0.113315  0.224988  1
  O  O38  1  0.000000  0.386685  0.724988  1
  O  O39  1  0.000000  0.613316  0.275013  1
  O  O40  1  0.693450  0.415620  0.876600  1
  O  O41  1  0.693450  0.584379  0.123400  1
  O  O42  1  0.806550  0.915620  0.623400  1
  O  O43  1  0.806550  0.084380  0.376599  1
  O  O44  1  0.306549  0.584379  0.123400  1
  O  O45  1  0.306549  0.415620  0.876600  1
  O  O46  1  0.193450  0.084380  0.376599  1
  O  O47  1  0.809030  0.828174  0.914033  1
  P  P48  1  0.500001  0.716188  0.464256  1
  P  P49  1  0.500001  0.283812  0.535744  1
  P  P50  1  0.000000  0.216188  0.035744  1
  P  P51  1  0.000000  0.783812  0.964256  1
  P  P52  1  0.000000  0.458685  0.284841  1
  P  P53  1  0.000000  0.541316  0.715159  1
  P  P54  1  0.500001  0.958685  0.215159  1
  P  P55  1  0.500001  0.458240  0.831721  1
  P  P56  1  0.000000  0.041760  0.331721  1
  P  P57  1  0.000000  0.958241  0.668279  1
  P  P58  1  0.500001  0.541760  0.168280  1
  P  P59  1  0.500001  0.041315  0.784841  1
  K  K60  1  0.500001  0.787805  0.034623  1
  K  K61  1  0.000000  0.712196  0.534623  1
  K  K62  1  0.000000  0.287805  0.465377  1
  K  K63  1  0.500001  0.212196  0.965377  1
  Mn  Mn64  1  0.251869  0.249239  0.203429  1
  Mn  Mn65  1  0.751868  0.250761  0.703429  1
  Mn  Mn66  1  0.748131  0.249239  0.203429  1
  Mn  Mn67  1  0.748131  0.750761  0.796571  1
  Mn  Mn68  1  0.500001  0.481301  0.361492  1
  Mn  Mn69  1  0.500001  0.518698  0.638508  1
  Mn  Mn70  1  0.000000  0.981301  0.138508  1
  Mn  Mn71  1  0.000000  0.018698  0.861492  1
  Mn  Mn72  1  0.500001  0.041459  0.403724  1
  Mn  Mn73  1  0.500001  0.958541  0.596276  1
  Mn  Mn74  1  0.000000  0.541459  0.096276  1
  Mn  Mn75  1  0.000000  0.458541  0.903724  1
  Mn  Mn76  1  0.251869  0.750761  0.796571  1
  Mn  Mn77  1  0.248132  0.749240  0.296571  1
  Mn  Mn78  1  0.248132  0.250761  0.703429  1
  Mn  Mn79  1  0.751868  0.749240  0.296571  1
