# generated using pymatgen
data_Te2Mo3WS6
_symmetry_space_group_name_H-M   'P 1'
_cell_length_a   3.27605416
_cell_length_b   3.27641023
_cell_length_c   38.06898736
_cell_angle_alpha   90.00062559
_cell_angle_beta   90.00000000
_cell_angle_gamma   119.99640509
_symmetry_Int_Tables_number   1
_chemical_formula_structural   Te2Mo3WS6
_chemical_formula_sum   'Te2 Mo3 W1 S6'
_cell_volume   353.88897523
_cell_formula_units_Z   1
loop_
 _symmetry_equiv_pos_site_id
 _symmetry_equiv_pos_as_xyz
  1  'x, y, z'
loop_
 _atom_site_type_symbol
 _atom_site_label
 _atom_site_symmetry_multiplicity
 _atom_site_fract_x
 _atom_site_fract_y
 _atom_site_fract_z
 _atom_site_occupancy
  Te  Te0  1  0.666668  0.333335  0.418869  1
  Te  Te1  1  0.666686  0.333370  0.520600  1
  Mo  Mo2  1  0.333305  0.666610  0.093843  1
  Mo  Mo3  1  0.666745  0.333490  0.281369  1
  Mo  Mo4  1  0.666591  0.333183  0.657999  1
  W  W5  1  0.333375  0.666749  0.469736  1
  S  S6  1  0.333324  0.666649  0.321723  1
  S  S7  1  0.333378  0.666756  0.698416  1
  S  S8  1  0.666606  0.333211  0.053398  1
  S  S9  1  0.666619  0.333236  0.134254  1
  S  S10  1  0.333324  0.666648  0.240983  1
  S  S11  1  0.333381  0.666762  0.617557  1
