# generated using pymatgen
data_Ho(SiPt)2
_symmetry_space_group_name_H-M   'P 1'
_cell_length_a   4.19270431
_cell_length_b   4.19270431
_cell_length_c   9.86578341
_cell_angle_alpha   90.00000000
_cell_angle_beta   90.00000000
_cell_angle_gamma   90.00000000
_symmetry_Int_Tables_number   1
_chemical_formula_structural   Ho(SiPt)2
_chemical_formula_sum   'Ho2 Si4 Pt4'
_cell_volume   173.42833182
_cell_formula_units_Z   2
loop_
 _symmetry_equiv_pos_site_id
 _symmetry_equiv_pos_as_xyz
  1  'x, y, z'
loop_
 _atom_site_type_symbol
 _atom_site_label
 _atom_site_symmetry_multiplicity
 _atom_site_fract_x
 _atom_site_fract_y
 _atom_site_fract_z
 _atom_site_occupancy
  Si  Si0  1  0.750000  0.750000  0.134448  1
  Si  Si1  1  0.250000  0.750000  0.500000  1
  Si  Si2  1  0.250000  0.250000  0.865552  1
  Si  Si3  1  0.750000  0.250000  0.500000  1
  Ho  Ho4  1  0.750000  0.750000  0.746615  1
  Ho  Ho5  1  0.250000  0.250000  0.253385  1
  Pt  Pt6  1  0.250000  0.250000  0.624199  1
  Pt  Pt7  1  0.750000  0.250000  0.000000  1
  Pt  Pt8  1  0.250000  0.750000  0.000000  1
  Pt  Pt9  1  0.750000  0.750000  0.375801  1
