# generated using pymatgen
data_Ho2Si2O7
_symmetry_space_group_name_H-M   'P 1'
_cell_length_a   6.63129368
_cell_length_b   6.67207805
_cell_length_c   12.11740996
_cell_angle_alpha   94.03907135
_cell_angle_beta   88.57023227
_cell_angle_gamma   88.00601042
_symmetry_Int_Tables_number   1
_chemical_formula_structural   Ho2Si2O7
_chemical_formula_sum   'Ho8 Si8 O28'
_cell_volume   534.27146638
_cell_formula_units_Z   4
loop_
 _symmetry_equiv_pos_site_id
 _symmetry_equiv_pos_as_xyz
  1  'x, y, z'
loop_
 _atom_site_type_symbol
 _atom_site_label
 _atom_site_symmetry_multiplicity
 _atom_site_fract_x
 _atom_site_fract_y
 _atom_site_fract_z
 _atom_site_occupancy
  Ho  Ho0  1  0.672443  0.827739  0.109587  1
  Ho  Ho1  1  0.116766  0.913231  0.644617  1
  Ho  Ho2  1  0.054020  0.672103  0.885748  1
  Ho  Ho3  1  0.945980  0.327896  0.114252  1
  Ho  Ho4  1  0.327557  0.172261  0.890413  1
  Ho  Ho5  1  0.634346  0.224286  0.632195  1
  Ho  Ho6  1  0.365654  0.775714  0.367805  1
  Ho  Ho7  1  0.883234  0.086769  0.355383  1
  Si  Si8  1  0.147129  0.376413  0.621215  1
  Si  Si9  1  0.378714  0.271014  0.405267  1
  Si  Si10  1  0.852871  0.623587  0.378785  1
  Si  Si11  1  0.155445  0.851132  0.115708  1
  Si  Si12  1  0.621286  0.728986  0.594733  1
  Si  Si13  1  0.485292  0.334142  0.174138  1
  Si  Si14  1  0.844555  0.148868  0.884292  1
  Si  Si15  1  0.514708  0.665858  0.825862  1
  O  O16  1  0.288196  0.424890  0.510196  1
  O  O17  1  0.652342  0.209666  0.812180  1
  O  O18  1  0.291526  0.218852  0.687927  1
  O  O19  1  0.296335  0.294259  0.093877  1
  O  O20  1  0.617153  0.136977  0.210387  1
  O  O21  1  0.589975  0.172468  0.446848  1
  O  O22  1  0.078444  0.586941  0.689379  1
  O  O23  1  0.643139  0.490096  0.125197  1
  O  O24  1  0.772743  0.908316  0.622125  1
  O  O25  1  0.764523  0.086228  0.004546  1
  O  O26  1  0.356861  0.509904  0.874803  1
  O  O27  1  0.999278  0.666888  0.081810  1
  O  O28  1  0.347658  0.790334  0.187820  1
  O  O29  1  0.410025  0.827532  0.553152  1
  O  O30  1  0.235477  0.913772  0.995454  1
  O  O31  1  0.398863  0.429932  0.305116  1
  O  O32  1  0.703665  0.705741  0.906123  1
  O  O33  1  1.000748  0.984934  0.815959  1
  O  O34  1  0.382847  0.863023  0.789613  1
  O  O35  1  -0.000748  0.015066  0.184040  1
  O  O36  1  0.963992  0.231016  0.580128  1
  O  O37  1  0.711804  0.575110  0.489804  1
  O  O38  1  0.036008  0.768984  0.419872  1
  O  O39  1  0.601137  0.570068  0.694884  1
  O  O40  1  0.000722  0.333112  0.918190  1
  O  O41  1  0.921556  0.413059  0.310621  1
  O  O42  1  0.227257  0.091684  0.377875  1
  O  O43  1  0.708474  0.781148  0.312073  1
