# generated using pymatgen
data_KVTeO5
_symmetry_space_group_name_H-M   'P 1'
_cell_length_a   6.51981783
_cell_length_b   7.05368395
_cell_length_c   11.87283554
_cell_angle_alpha   90.00000000
_cell_angle_beta   90.00000000
_cell_angle_gamma   106.56427470
_symmetry_Int_Tables_number   1
_chemical_formula_structural   KVTeO5
_chemical_formula_sum   'K4 V4 Te4 O20'
_cell_volume   523.35727281
_cell_formula_units_Z   4
loop_
 _symmetry_equiv_pos_site_id
 _symmetry_equiv_pos_as_xyz
  1  'x, y, z'
loop_
 _atom_site_type_symbol
 _atom_site_label
 _atom_site_symmetry_multiplicity
 _atom_site_fract_x
 _atom_site_fract_y
 _atom_site_fract_z
 _atom_site_occupancy
  O  O0  1  0.114346  0.011768  0.910205  1
  O  O1  1  0.885653  0.488232  0.410205  1
  O  O2  1  0.885654  0.988232  0.089795  1
  O  O3  1  0.114347  0.511768  0.589795  1
  O  O4  1  0.534540  0.217936  0.983379  1
  O  O5  1  0.465459  0.282063  0.483379  1
  O  O6  1  0.465460  0.782063  0.016620  1
  O  O7  1  0.534541  0.717937  0.516621  1
  O  O8  1  0.827237  0.329318  0.797811  1
  O  O9  1  0.172764  0.170681  0.297811  1
  O  O10  1  0.172763  0.670682  0.202189  1
  O  O11  1  0.827236  0.829319  0.702189  1
  O  O12  1  0.807913  0.137540  0.550177  1
  O  O13  1  0.192088  0.362460  0.050177  1
  O  O14  1  0.192087  0.862460  0.449823  1
  O  O15  1  0.807912  0.637540  0.949823  1
  O  O16  1  0.464826  0.452192  0.796671  1
  O  O17  1  0.535174  0.547808  0.203329  1
  O  O18  1  0.535175  0.047809  0.296671  1
  O  O19  1  0.464825  0.952191  0.703329  1
  K  K20  1  0.176767  0.164230  0.688511  1
  K  K21  1  0.823234  0.335770  0.188511  1
  K  K22  1  0.823233  0.835770  0.311488  1
  K  K23  1  0.176766  0.664230  0.811489  1
  V  V24  1  0.652442  0.405250  0.877871  1
  V  V25  1  0.347556  0.094748  0.377872  1
  V  V26  1  0.652444  0.905252  0.622129  1
  V  V27  1  0.347558  0.594750  0.122128  1
  Te  Te28  1  0.236220  0.100617  0.054045  1
  Te  Te29  1  0.763780  0.399382  0.554046  1
  Te  Te30  1  0.763780  0.899383  0.945954  1
  Te  Te31  1  0.236220  0.600618  0.445954  1
