# generated using pymatgen
data_Te2MoWSeS
_symmetry_space_group_name_H-M   'P 1'
_cell_length_a   3.39465530
_cell_length_b   3.39479096
_cell_length_c   38.72364913
_cell_angle_alpha   89.99819517
_cell_angle_beta   90.00000000
_cell_angle_gamma   119.99867812
_symmetry_Int_Tables_number   1
_chemical_formula_structural   Te2MoWSeS
_chemical_formula_sum   'Te4 Mo2 W2 Se2 S2'
_cell_volume   386.47500458
_cell_formula_units_Z   2
loop_
 _symmetry_equiv_pos_site_id
 _symmetry_equiv_pos_as_xyz
  1  'x, y, z'
loop_
 _atom_site_type_symbol
 _atom_site_label
 _atom_site_symmetry_multiplicity
 _atom_site_fract_x
 _atom_site_fract_y
 _atom_site_fract_z
 _atom_site_occupancy
  Te  Te0  1  0.333358  0.666718  0.330183  1
  Te  Te1  1  0.333374  0.666749  0.706193  1
  Te  Te2  1  0.333353  0.666706  0.233441  1
  Te  Te3  1  0.333357  0.666714  0.608871  1
  Mo  Mo4  1  0.333309  0.666619  0.093904  1
  Mo  Mo5  1  0.666689  0.333378  0.281805  1
  W  W6  1  0.333319  0.666637  0.469654  1
  W  W7  1  0.666686  0.333373  0.657534  1
  Se  Se8  1  0.666629  0.333257  0.051304  1
  Se  Se9  1  0.666647  0.333293  0.136524  1
  S  S10  1  0.666641  0.333281  0.430771  1
  S  S11  1  0.666638  0.333275  0.508565  1
