# generated using pymatgen
data_TbAgGe
_symmetry_space_group_name_H-M   'P 1'
_cell_length_a   7.38217298
_cell_length_b   7.38217298
_cell_length_c   4.14472071
_cell_angle_alpha   90.00000000
_cell_angle_beta   90.00000000
_cell_angle_gamma   119.99999998
_symmetry_Int_Tables_number   1
_chemical_formula_structural   TbAgGe
_chemical_formula_sum   'Tb3 Ag3 Ge3'
_cell_volume   195.61147955
_cell_formula_units_Z   3
loop_
 _symmetry_equiv_pos_site_id
 _symmetry_equiv_pos_as_xyz
  1  'x, y, z'
loop_
 _atom_site_type_symbol
 _atom_site_label
 _atom_site_symmetry_multiplicity
 _atom_site_fract_x
 _atom_site_fract_y
 _atom_site_fract_z
 _atom_site_occupancy
  Ge  Ge0  1  0.732533  0.732533  0.500000  1
  Ge  Ge1  1  0.267467  0.000000  0.500000  1
  Ge  Ge2  1  0.000000  0.267467  0.500000  1
  Ag  Ag3  1  0.666667  0.333333  0.500000  1
  Ag  Ag4  1  0.000000  0.000000  0.000000  1
  Ag  Ag5  1  0.333333  0.666667  0.500000  1
  Tb  Tb6  1  0.000000  0.603755  0.000000  1
  Tb  Tb7  1  0.396245  0.396245  0.000000  1
  Tb  Tb8  1  0.603755  0.000000  0.000000  1
