# generated using pymatgen
data_Dy3Si3O10F
_symmetry_space_group_name_H-M   'P 1'
_cell_length_a   7.39099242
_cell_length_b   10.47525045
_cell_length_c   11.26885577
_cell_angle_alpha   90.00000000
_cell_angle_beta   90.00000000
_cell_angle_gamma   97.25394284
_symmetry_Int_Tables_number   1
_chemical_formula_structural   Dy3Si3O10F
_chemical_formula_sum   'Dy12 Si12 O40 F4'
_cell_volume   865.47998409
_cell_formula_units_Z   4
loop_
 _symmetry_equiv_pos_site_id
 _symmetry_equiv_pos_as_xyz
  1  'x, y, z'
loop_
 _atom_site_type_symbol
 _atom_site_label
 _atom_site_symmetry_multiplicity
 _atom_site_fract_x
 _atom_site_fract_y
 _atom_site_fract_z
 _atom_site_occupancy
  O  O0  1  0.472665  0.130445  0.910836  1
  O  O1  1  0.027335  0.369555  0.410836  1
  O  O2  1  0.527335  0.869555  0.089164  1
  O  O3  1  0.972665  0.630445  0.589164  1
  O  O4  1  0.034066  0.138265  0.522508  1
  O  O5  1  0.465934  0.361735  0.022508  1
  O  O6  1  0.965934  0.861735  0.477492  1
  O  O7  1  0.534066  0.638265  0.977492  1
  O  O8  1  0.313053  0.808093  0.895833  1
  O  O9  1  0.186947  0.691907  0.395833  1
  O  O10  1  0.686947  0.191907  0.104167  1
  O  O11  1  0.813053  0.308093  0.604167  1
  O  O12  1  0.178777  0.377652  0.609118  1
  O  O13  1  0.321223  0.122348  0.109118  1
  O  O14  1  0.821223  0.622348  0.390882  1
  O  O15  1  0.678777  0.877652  0.890882  1
  O  O16  1  0.290038  0.802626  0.643392  1
  O  O17  1  0.482270  0.379320  0.726162  1
  O  O18  1  0.517730  0.620680  0.273838  1
  O  O19  1  0.982270  0.879320  0.773838  1
  O  O20  1  0.230607  0.517526  0.819046  1
  O  O21  1  0.269393  0.982474  0.319046  1
  O  O22  1  0.769393  0.482474  0.180954  1
  O  O23  1  0.730607  0.017526  0.680954  1
  O  O24  1  0.154314  0.269104  0.822479  1
  O  O25  1  0.345686  0.230896  0.322479  1
  O  O26  1  0.845686  0.730896  0.177521  1
  O  O27  1  0.654314  0.769104  0.677521  1
  O  O28  1  0.987717  0.636854  0.975583  1
  O  O29  1  0.512283  0.863146  0.475583  1
  O  O30  1  0.012283  0.363146  0.024417  1
  O  O31  1  0.487717  0.136854  0.524417  1
  O  O32  1  0.959599  0.108356  0.950441  1
  O  O33  1  0.540401  0.391644  0.450441  1
  O  O34  1  0.040401  0.891644  0.049559  1
  O  O35  1  0.459599  0.608356  0.549559  1
  O  O36  1  0.790038  0.302626  0.856608  1
  O  O37  1  0.709962  0.197374  0.356608  1
  O  O38  1  0.209962  0.697374  0.143392  1
  O  O39  1  0.017730  0.120680  0.226162  1
  F  F40  1  0.695961  0.940668  0.285172  1
  F  F41  1  0.804039  0.559332  0.785172  1
  F  F42  1  0.195961  0.440668  0.214828  1
  F  F43  1  0.304039  0.059332  0.714828  1
  Si  Si44  1  0.005453  0.291325  0.537558  1
  Si  Si45  1  0.234106  0.110575  0.244868  1
  Si  Si46  1  0.734106  0.610575  0.255132  1
  Si  Si47  1  0.765894  0.889425  0.755132  1
  Si  Si48  1  0.474971  0.759499  0.585958  1
  Si  Si49  1  0.025029  0.740501  0.085958  1
  Si  Si50  1  0.525029  0.240501  0.414042  1
  Si  Si51  1  0.974971  0.259499  0.914042  1
  Si  Si52  1  0.505453  0.791325  0.962442  1
  Si  Si53  1  0.994547  0.708675  0.462442  1
  Si  Si54  1  0.265894  0.389425  0.744868  1
  Si  Si55  1  0.494547  0.208675  0.037558  1
  Dy  Dy56  1  0.237812  0.981487  0.530862  1
  Dy  Dy57  1  0.262188  0.518513  0.030862  1
  Dy  Dy58  1  0.762188  0.018513  0.469138  1
  Dy  Dy59  1  0.737812  0.481487  0.969138  1
  Dy  Dy60  1  0.093629  0.688917  0.770244  1
  Dy  Dy61  1  0.406371  0.811083  0.270244  1
  Dy  Dy62  1  0.906371  0.311083  0.229756  1
  Dy  Dy63  1  0.593629  0.188917  0.729756  1
  Dy  Dy64  1  0.198105  0.003406  0.901784  1
  Dy  Dy65  1  0.301895  0.496594  0.401784  1
  Dy  Dy66  1  0.801895  0.996594  0.098216  1
  Dy  Dy67  1  0.698105  0.503406  0.598216  1
