# generated using pymatgen
data_DyTe3
_symmetry_space_group_name_H-M   'P 1'
_cell_length_a   4.00718755
_cell_length_b   4.61491009
_cell_length_c   14.35327415
_cell_angle_alpha   90.00000000
_cell_angle_beta   98.02420361
_cell_angle_gamma   90.00000000
_symmetry_Int_Tables_number   1
_chemical_formula_structural   DyTe3
_chemical_formula_sum   'Dy2 Te6'
_cell_volume   262.83357728
_cell_formula_units_Z   2
loop_
 _symmetry_equiv_pos_site_id
 _symmetry_equiv_pos_as_xyz
  1  'x, y, z'
loop_
 _atom_site_type_symbol
 _atom_site_label
 _atom_site_symmetry_multiplicity
 _atom_site_fract_x
 _atom_site_fract_y
 _atom_site_fract_z
 _atom_site_occupancy
  Dy  Dy0  1  0.948962  0.250000  0.897923  1
  Dy  Dy1  1  0.051038  0.750000  0.102077  1
  Te  Te2  1  0.836572  0.250000  0.673143  1
  Te  Te3  1  0.163428  0.750000  0.326857  1
  Te  Te4  1  0.686199  0.250000  0.372397  1
  Te  Te5  1  0.313801  0.750000  0.627603  1
  Te  Te6  1  0.551951  0.250000  0.103903  1
  Te  Te7  1  0.448049  0.750000  0.896097  1
