# generated using pymatgen
data_Te2MoWS2
_symmetry_space_group_name_H-M   'P 1'
_cell_length_a   3.36114409
_cell_length_b   3.36120967
_cell_length_c   38.30634561
_cell_angle_alpha   89.99985163
_cell_angle_beta   90.00000000
_cell_angle_gamma   119.99935454
_symmetry_Int_Tables_number   1
_chemical_formula_structural   Te2MoWS2
_chemical_formula_sum   'Te4 Mo2 W2 S4'
_cell_volume   374.78906693
_cell_formula_units_Z   2
loop_
 _symmetry_equiv_pos_site_id
 _symmetry_equiv_pos_as_xyz
  1  'x, y, z'
loop_
 _atom_site_type_symbol
 _atom_site_label
 _atom_site_symmetry_multiplicity
 _atom_site_fract_x
 _atom_site_fract_y
 _atom_site_fract_z
 _atom_site_occupancy
  Te  Te0  1  0.333355  0.666711  0.331393  1
  Te  Te1  1  0.333353  0.666708  0.706804  1
  Te  Te2  1  0.333358  0.666716  0.232145  1
  Te  Te3  1  0.333357  0.666716  0.608271  1
  Mo  Mo4  1  0.333312  0.666624  0.093919  1
  Mo  Mo5  1  0.666686  0.333373  0.657562  1
  W  W6  1  0.333308  0.666617  0.469682  1
  W  W7  1  0.666687  0.333373  0.281799  1
  S  S8  1  0.666647  0.333292  0.054410  1
  S  S9  1  0.666644  0.333287  0.430041  1
  S  S10  1  0.666649  0.333296  0.133437  1
  S  S11  1  0.666644  0.333288  0.509285  1
