# generated using pymatgen
data_Fe3S4
_symmetry_space_group_name_H-M   'P 1'
_cell_length_a   12.98273509
_cell_length_b   12.98273509
_cell_length_c   12.98273510
_cell_angle_alpha   13.52677747
_cell_angle_beta   13.52677748
_cell_angle_gamma   13.52677747
_symmetry_Int_Tables_number   1
_chemical_formula_structural   Fe3S4
_chemical_formula_sum   'Fe3 S4'
_cell_volume   104.16006703
_cell_formula_units_Z   1
loop_
 _symmetry_equiv_pos_site_id
 _symmetry_equiv_pos_as_xyz
  1  'x, y, z'
loop_
 _atom_site_type_symbol
 _atom_site_label
 _atom_site_symmetry_multiplicity
 _atom_site_fract_x
 _atom_site_fract_y
 _atom_site_fract_z
 _atom_site_occupancy
  S  S0  1  0.247451  0.247451  0.247451  1
  S  S1  1  0.166865  0.166865  0.166865  1
  S  S2  1  0.085508  0.085508  0.085508  1
  S  S3  1  0.005026  0.005026  0.005026  1
  Fe  Fe4  1  0.881566  0.881566  0.881566  1
  Fe  Fe5  1  0.704122  0.704122  0.704122  1
  Fe  Fe6  1  0.459462  0.459462  0.459462  1
