# generated using pymatgen
data_CaMgV2O7
_symmetry_space_group_name_H-M   'P 1'
_cell_length_a   6.84190192
_cell_length_b   11.43823407
_cell_length_c   14.68509611
_cell_angle_alpha   90.00000000
_cell_angle_beta   90.00000000
_cell_angle_gamma   99.42379837
_symmetry_Int_Tables_number   1
_chemical_formula_structural   CaMgV2O7
_chemical_formula_sum   'Ca8 Mg8 V16 O56'
_cell_volume   1133.73504699
_cell_formula_units_Z   8
loop_
 _symmetry_equiv_pos_site_id
 _symmetry_equiv_pos_as_xyz
  1  'x, y, z'
loop_
 _atom_site_type_symbol
 _atom_site_label
 _atom_site_symmetry_multiplicity
 _atom_site_fract_x
 _atom_site_fract_y
 _atom_site_fract_z
 _atom_site_occupancy
  O  O0  1  0.759540  0.961517  0.981651  1
  O  O1  1  0.240460  0.538483  0.481651  1
  O  O2  1  0.240460  0.038483  0.018349  1
  O  O3  1  0.759540  0.461517  0.518349  1
  O  O4  1  0.989798  0.871612  0.855650  1
  O  O5  1  0.010202  0.628388  0.355650  1
  O  O6  1  0.010202  0.128388  0.144350  1
  O  O7  1  0.989798  0.371612  0.644350  1
  O  O8  1  0.994502  0.117384  0.859475  1
  O  O9  1  0.005498  0.382616  0.359475  1
  O  O10  1  0.005498  0.882616  0.140525  1
  O  O11  1  0.994502  0.617384  0.640525  1
  O  O12  1  0.678091  0.955707  0.286823  1
  O  O13  1  0.321909  0.544293  0.786823  1
  O  O14  1  0.321909  0.044293  0.713177  1
  O  O15  1  0.678091  0.455707  0.213177  1
  O  O16  1  0.958580  0.135037  0.366196  1
  O  O17  1  0.041420  0.364963  0.866196  1
  O  O18  1  0.041420  0.864963  0.633804  1
  O  O19  1  0.958580  0.635037  0.133804  1
  O  O20  1  0.049711  0.895934  0.340085  1
  O  O21  1  0.387288  0.821716  0.443480  1
  O  O22  1  0.950289  0.604066  0.840085  1
  O  O23  1  0.049711  0.395934  0.159915  1
  O  O24  1  0.719837  0.708502  0.479662  1
  O  O25  1  0.280163  0.791498  0.979662  1
  O  O26  1  0.280163  0.291498  0.520338  1
  O  O27  1  0.719837  0.208502  0.020338  1
  O  O28  1  0.762892  0.944757  0.472333  1
  O  O29  1  0.237108  0.555243  0.972333  1
  O  O30  1  0.237108  0.055243  0.527667  1
  O  O31  1  0.762892  0.444757  0.027667  1
  O  O32  1  0.429280  0.205089  0.893654  1
  O  O33  1  0.570720  0.294911  0.393654  1
  O  O34  1  0.570720  0.794911  0.106346  1
  O  O35  1  0.429280  0.705089  0.606346  1
  O  O36  1  0.692662  0.224471  0.749240  1
  O  O37  1  0.307338  0.275529  0.249240  1
  O  O38  1  0.307338  0.775529  0.250760  1
  O  O39  1  0.692662  0.724471  0.750760  1
  O  O40  1  0.637457  0.464681  0.703869  1
  O  O41  1  0.362543  0.035319  0.203869  1
  O  O42  1  0.362543  0.535319  0.296131  1
  O  O43  1  0.637457  0.964681  0.796131  1
  O  O44  1  0.304924  0.294476  0.728862  1
  O  O45  1  0.695076  0.205524  0.228862  1
  O  O46  1  0.695076  0.705524  0.271138  1
  O  O47  1  0.304924  0.794476  0.771138  1
  O  O48  1  0.597826  0.408715  0.877465  1
  O  O49  1  0.402174  0.091285  0.377465  1
  O  O50  1  0.402174  0.591285  0.122535  1
  O  O51  1  0.597826  0.908715  0.622535  1
  O  O52  1  0.387288  0.321716  0.056520  1
  O  O53  1  0.612712  0.178284  0.556520  1
  O  O54  1  0.612712  0.678284  0.943480  1
  O  O55  1  0.950289  0.104066  0.659915  1
  Mg  Mg56  1  0.002990  0.747160  0.745930  1
  Mg  Mg57  1  0.997010  0.752840  0.245930  1
  Mg  Mg58  1  0.997010  0.252840  0.254070  1
  Mg  Mg59  1  0.002990  0.247160  0.754070  1
  Mg  Mg60  1  0.637449  0.573892  0.825876  1
  Mg  Mg61  1  0.362551  0.926108  0.325876  1
  Mg  Mg62  1  0.362551  0.426108  0.174124  1
  Mg  Mg63  1  0.637449  0.073892  0.674124  1
  Ca  Ca64  1  0.325975  0.971019  0.870625  1
  Ca  Ca65  1  0.674025  0.528981  0.370625  1
  Ca  Ca66  1  0.674025  0.028981  0.129375  1
  Ca  Ca67  1  0.325975  0.471019  0.629375  1
  Ca  Ca68  1  0.077686  0.228112  0.992113  1
  Ca  Ca69  1  0.922314  0.271888  0.492113  1
  Ca  Ca70  1  0.922314  0.771888  0.007887  1
  Ca  Ca71  1  0.077686  0.728112  0.507887  1
  V  V72  1  0.509094  0.293181  0.795076  1
  V  V73  1  0.490906  0.206819  0.295076  1
  V  V74  1  0.490906  0.706819  0.204924  1
  V  V75  1  0.509094  0.793181  0.704924  1
  V  V76  1  0.584106  0.312721  0.986415  1
  V  V77  1  0.415894  0.187279  0.486415  1
  V  V78  1  0.415894  0.687279  0.013585  1
  V  V79  1  0.584106  0.812721  0.513585  1
  V  V80  1  0.868140  0.484089  0.135581  1
  V  V81  1  0.131860  0.015911  0.635581  1
  V  V82  1  0.131860  0.515911  0.864419  1
  V  V83  1  0.868140  0.984089  0.364419  1
  V  V84  1  0.840680  0.481185  0.628508  1
  V  V85  1  0.159320  0.018815  0.128508  1
  V  V86  1  0.159320  0.518815  0.371492  1
  V  V87  1  0.840680  0.981185  0.871492  1
