# generated using pymatgen
data_MoW(SeS)2
_symmetry_space_group_name_H-M   'P 1'
_cell_length_a   3.25399094
_cell_length_b   3.25396379
_cell_length_c   36.88029070
_cell_angle_alpha   90.00013395
_cell_angle_beta   90.00000000
_cell_angle_gamma   120.00027599
_symmetry_Int_Tables_number   1
_chemical_formula_structural   MoW(SeS)2
_chemical_formula_sum   'Mo2 W2 Se4 S4'
_cell_volume   338.18381188
_cell_formula_units_Z   2
loop_
 _symmetry_equiv_pos_site_id
 _symmetry_equiv_pos_as_xyz
  1  'x, y, z'
loop_
 _atom_site_type_symbol
 _atom_site_label
 _atom_site_symmetry_multiplicity
 _atom_site_fract_x
 _atom_site_fract_y
 _atom_site_fract_z
 _atom_site_occupancy
  Mo  Mo0  1  0.333311  0.666623  0.469674  1
  Mo  Mo1  1  0.666688  0.333376  0.281813  1
  W  W2  1  0.333312  0.666624  0.093914  1
  W  W3  1  0.666692  0.333383  0.657546  1
  Se  Se4  1  0.333352  0.666704  0.327790  1
  Se  Se5  1  0.333357  0.666715  0.703910  1
  Se  Se6  1  0.333352  0.666705  0.235779  1
  Se  Se7  1  0.333353  0.666707  0.611185  1
  S  S8  1  0.666642  0.333283  0.051906  1
  S  S9  1  0.666647  0.333294  0.427776  1
  S  S10  1  0.666647  0.333294  0.135918  1
  S  S11  1  0.666647  0.333293  0.511537  1
