# generated using pymatgen
data_SrCuP2O7
_symmetry_space_group_name_H-M   'P 1'
_cell_length_a   5.50011125
_cell_length_b   8.20893955
_cell_length_c   12.59811751
_cell_angle_alpha   90.00000000
_cell_angle_beta   90.97411744
_cell_angle_gamma   90.00000000
_symmetry_Int_Tables_number   1
_chemical_formula_structural   SrCuP2O7
_chemical_formula_sum   'Sr4 Cu4 P8 O28'
_cell_volume   568.72381755
_cell_formula_units_Z   4
loop_
 _symmetry_equiv_pos_site_id
 _symmetry_equiv_pos_as_xyz
  1  'x, y, z'
loop_
 _atom_site_type_symbol
 _atom_site_label
 _atom_site_symmetry_multiplicity
 _atom_site_fract_x
 _atom_site_fract_y
 _atom_site_fract_z
 _atom_site_occupancy
  O  O0  1  0.829719  0.139745  0.348748  1
  O  O1  1  0.670281  0.639745  0.151252  1
  O  O2  1  0.170281  0.860255  0.651252  1
  O  O3  1  0.329719  0.360255  0.848748  1
  O  O4  1  0.480972  0.941698  0.302352  1
  O  O5  1  0.019028  0.441698  0.197648  1
  O  O6  1  0.519028  0.058302  0.697648  1
  O  O7  1  0.980972  0.558302  0.802352  1
  O  O8  1  0.927426  0.875740  0.265310  1
  O  O9  1  0.572574  0.375740  0.234690  1
  O  O10  1  0.072574  0.124260  0.734690  1
  O  O11  1  0.427426  0.624260  0.765310  1
  O  O12  1  0.772559  0.883417  0.455205  1
  O  O13  1  0.727441  0.383417  0.044795  1
  O  O14  1  0.227441  0.116583  0.544795  1
  O  O15  1  0.272559  0.616583  0.955205  1
  O  O16  1  0.175667  0.906230  0.902645  1
  O  O17  1  0.324333  0.406230  0.597355  1
  O  O18  1  0.824333  0.093770  0.097355  1
  O  O19  1  0.675667  0.593770  0.402645  1
  O  O20  1  0.595943  0.835985  0.976584  1
  O  O21  1  0.904057  0.335985  0.523416  1
  O  O22  1  0.404057  0.164015  0.023416  1
  O  O23  1  0.095943  0.664015  0.476584  1
  O  O24  1  0.220950  0.822580  0.098952  1
  O  O25  1  0.279050  0.322580  0.401048  1
  O  O26  1  0.779050  0.177420  0.901048  1
  O  O27  1  0.720950  0.677420  0.598952  1
  P  P28  1  0.743899  0.963011  0.338602  1
  P  P29  1  0.756101  0.463011  0.161398  1
  P  P30  1  0.256101  0.036989  0.661398  1
  P  P31  1  0.243899  0.536989  0.838602  1
  P  P32  1  0.818629  0.693757  0.487817  1
  P  P33  1  0.681371  0.193757  0.012183  1
  P  P34  1  0.181371  0.306243  0.512183  1
  P  P35  1  0.318629  0.806243  0.987817  1
  Cu  Cu36  1  0.786893  0.854420  0.112683  1
  Cu  Cu37  1  0.713107  0.354420  0.387317  1
  Cu  Cu38  1  0.213107  0.145580  0.887317  1
  Cu  Cu39  1  0.286893  0.645580  0.612683  1
  Sr  Sr40  1  0.289103  0.656312  0.281327  1
  Sr  Sr41  1  0.210897  0.156312  0.218673  1
  Sr  Sr42  1  0.710897  0.343688  0.718673  1
  Sr  Sr43  1  0.789103  0.843688  0.781327  1
