# generated using pymatgen
data_Tl2WO4
_symmetry_space_group_name_H-M   'P 1'
_cell_length_a   6.43705726
_cell_length_b   6.43705726
_cell_length_c   8.42438165
_cell_angle_alpha   90.00000000
_cell_angle_beta   90.00000000
_cell_angle_gamma   120.00000001
_symmetry_Int_Tables_number   1
_chemical_formula_structural   Tl2WO4
_chemical_formula_sum   'Tl4 W2 O8'
_cell_volume   302.30366309
_cell_formula_units_Z   2
loop_
 _symmetry_equiv_pos_site_id
 _symmetry_equiv_pos_as_xyz
  1  'x, y, z'
loop_
 _atom_site_type_symbol
 _atom_site_label
 _atom_site_symmetry_multiplicity
 _atom_site_fract_x
 _atom_site_fract_y
 _atom_site_fract_z
 _atom_site_occupancy
  O  O0  1  0.819996  0.180003  0.761142  1
  O  O1  1  0.819997  0.639993  0.761142  1
  O  O2  1  0.360007  0.180003  0.761142  1
  O  O3  1  0.639993  0.819996  0.238858  1
  O  O4  1  0.180003  0.360006  0.238858  1
  O  O5  1  0.180003  0.819996  0.238858  1
  O  O6  1  0.666667  0.333333  0.470813  1
  O  O7  1  0.333333  0.666666  0.529187  1
  W  W8  1  0.333333  0.666666  0.312976  1
  W  W9  1  0.666667  0.333333  0.687024  1
  Tl  Tl10  1  0.666667  0.333333  0.183013  1
  Tl  Tl11  1  0.333333  0.666666  0.816987  1
  Tl  Tl12  1  0.000000  0.000000  0.500001  1
  Tl  Tl13  1  0.000000  0.000000  0.000000  1
