# generated using pymatgen
data_InSb
_symmetry_space_group_name_H-M   'P 1'
_cell_length_a   4.68180164
_cell_length_b   4.67959489
_cell_length_c   7.71322191
_cell_angle_alpha   90.00000000
_cell_angle_beta   90.00000000
_cell_angle_gamma   120.01560059
_symmetry_Int_Tables_number   1
_chemical_formula_structural   InSb
_chemical_formula_sum   'In2 Sb2'
_cell_volume   146.32530298
_cell_formula_units_Z   2
loop_
 _symmetry_equiv_pos_site_id
 _symmetry_equiv_pos_as_xyz
  1  'x, y, z'
loop_
 _atom_site_type_symbol
 _atom_site_label
 _atom_site_symmetry_multiplicity
 _atom_site_fract_x
 _atom_site_fract_y
 _atom_site_fract_z
 _atom_site_occupancy
  In  In0  1  0.666765  0.333531  0.487906  1
  In  In1  1  0.333235  0.666469  0.987906  1
  Sb  Sb2  1  0.666704  0.333408  0.862094  1
  Sb  Sb3  1  0.333296  0.666592  0.362094  1
