# generated using pymatgen
data_Na2MgPO4F
_symmetry_space_group_name_H-M   'P 1'
_cell_length_a   5.27898000
_cell_length_b   11.80273397
_cell_length_c   13.87578387
_cell_angle_alpha   90.00000000
_cell_angle_beta   90.00000000
_cell_angle_gamma   90.00000000
_symmetry_Int_Tables_number   1
_chemical_formula_structural   Na2MgPO4F
_chemical_formula_sum   'Na16 Mg8 P8 O32 F8'
_cell_volume   864.55009256
_cell_formula_units_Z   8
loop_
 _symmetry_equiv_pos_site_id
 _symmetry_equiv_pos_as_xyz
  1  'x, y, z'
loop_
 _atom_site_type_symbol
 _atom_site_label
 _atom_site_symmetry_multiplicity
 _atom_site_fract_x
 _atom_site_fract_y
 _atom_site_fract_z
 _atom_site_occupancy
  O  O0  1  0.234288  0.541418  0.108643  1
  O  O1  1  0.210866  0.368787  0.217420  1
  O  O2  1  0.789134  0.131213  0.217420  1
  O  O3  1  0.289134  0.868787  0.282580  1
  O  O4  1  0.289134  0.368787  0.717420  1
  O  O5  1  0.789134  0.631213  0.782580  1
  O  O6  1  0.210866  0.868787  0.782580  1
  O  O7  1  0.710866  0.131213  0.717420  1
  O  O8  1  0.083186  0.607198  0.398544  1
  O  O9  1  0.583186  0.392802  0.101456  1
  O  O10  1  0.416814  0.107198  0.101456  1
  O  O11  1  0.916814  0.892802  0.398544  1
  O  O12  1  0.916814  0.392802  0.601456  1
  O  O13  1  0.416814  0.607198  0.898544  1
  O  O14  1  0.583186  0.892802  0.898544  1
  O  O15  1  0.083186  0.107198  0.601456  1
  O  O16  1  0.734288  0.458582  0.391357  1
  O  O17  1  0.710866  0.631213  0.282580  1
  O  O18  1  0.765712  0.958582  0.108643  1
  O  O19  1  0.645767  0.152465  0.536587  1
  O  O20  1  0.265712  0.541418  0.608643  1
  O  O21  1  0.765712  0.458582  0.891357  1
  O  O22  1  0.234288  0.041418  0.891357  1
  O  O23  1  0.734288  0.958582  0.608643  1
  O  O24  1  0.645767  0.652465  0.463413  1
  O  O25  1  0.145767  0.347535  0.036587  1
  O  O26  1  0.854233  0.152465  0.036587  1
  O  O27  1  0.354233  0.847535  0.463413  1
  O  O28  1  0.354233  0.347535  0.536587  1
  O  O29  1  0.854233  0.652465  0.963413  1
  O  O30  1  0.145767  0.847535  0.963413  1
  O  O31  1  0.265712  0.041418  0.391357  1
  F  F32  1  0.500000  0.750000  0.622776  1
  F  F33  1  0.000000  0.250000  0.877224  1
  F  F34  1  0.500000  0.250000  0.377224  1
  F  F35  1  0.000000  0.750000  0.122776  1
  F  F36  1  0.000000  0.750000  0.588127  1
  F  F37  1  0.500000  0.250000  0.911873  1
  F  F38  1  0.000000  0.250000  0.411873  1
  F  F39  1  0.500000  0.750000  0.088127  1
  Na  Na40  1  0.760069  0.328837  0.253369  1
  Na  Na41  1  0.260069  0.171163  0.753369  1
  Na  Na42  1  0.739931  0.328837  0.753369  1
  Na  Na43  1  0.239931  0.671163  0.746631  1
  Na  Na44  1  0.239931  0.171163  0.253369  1
  Na  Na45  1  0.739931  0.828837  0.246631  1
  Na  Na46  1  0.260069  0.671163  0.246631  1
  Na  Na47  1  0.760069  0.828837  0.746631  1
  Na  Na48  1  0.743584  0.080821  0.376785  1
  Na  Na49  1  0.243584  0.919179  0.123215  1
  Na  Na50  1  0.756416  0.580821  0.123215  1
  Na  Na51  1  0.743584  0.580821  0.623215  1
  Na  Na52  1  0.256416  0.919179  0.623215  1
  Na  Na53  1  0.756416  0.080821  0.876785  1
  Na  Na54  1  0.243584  0.419179  0.876785  1
  Na  Na55  1  0.256416  0.419179  0.376785  1
  Mg  Mg56  1  0.721382  0.324002  0.487177  1
  Mg  Mg57  1  0.221382  0.675998  0.012823  1
  Mg  Mg58  1  0.778618  0.824002  0.012823  1
  Mg  Mg59  1  0.278618  0.175998  0.487177  1
  Mg  Mg60  1  0.278618  0.675998  0.512823  1
  Mg  Mg61  1  0.778618  0.324002  0.987177  1
  Mg  Mg62  1  0.221382  0.175998  0.987177  1
  Mg  Mg63  1  0.721382  0.824002  0.512823  1
  P  P64  1  0.791903  0.087503  0.617527  1
  P  P65  1  0.291903  0.912497  0.882473  1
  P  P66  1  0.708097  0.587503  0.882473  1
  P  P67  1  0.208097  0.412497  0.617527  1
  P  P68  1  0.208097  0.912497  0.382473  1
  P  P69  1  0.708097  0.087503  0.117527  1
  P  P70  1  0.291903  0.412497  0.117527  1
  P  P71  1  0.791903  0.587503  0.382473  1
