# generated using pymatgen
data_TeW2SeS2
_symmetry_space_group_name_H-M   'P 1'
_cell_length_a   3.30678326
_cell_length_b   3.30678247
_cell_length_c   37.72478021
_cell_angle_alpha   89.99976165
_cell_angle_beta   90.00000000
_cell_angle_gamma   120.00000795
_symmetry_Int_Tables_number   1
_chemical_formula_structural   TeW2SeS2
_chemical_formula_sum   'Te2 W4 Se2 S4'
_cell_volume   357.24706667
_cell_formula_units_Z   2
loop_
 _symmetry_equiv_pos_site_id
 _symmetry_equiv_pos_as_xyz
  1  'x, y, z'
loop_
 _atom_site_type_symbol
 _atom_site_label
 _atom_site_symmetry_multiplicity
 _atom_site_fract_x
 _atom_site_fract_y
 _atom_site_fract_z
 _atom_site_occupancy
  Te  Te0  1  0.666649  0.333297  0.418738  1
  Te  Te1  1  0.666646  0.333291  0.520647  1
  W  W2  1  0.333311  0.666622  0.093935  1
  W  W3  1  0.333311  0.666622  0.469672  1
  W  W4  1  0.666691  0.333381  0.281752  1
  W  W5  1  0.666689  0.333379  0.657551  1
  Se  Se6  1  0.333349  0.666699  0.326472  1
  Se  Se7  1  0.333350  0.666702  0.237032  1
  S  S8  1  0.333353  0.666708  0.698229  1
  S  S9  1  0.666648  0.333294  0.053244  1
  S  S10  1  0.666647  0.333293  0.134609  1
  S  S11  1  0.333356  0.666712  0.616867  1
