# generated using pymatgen
data_K3Nd(PO4)2
_symmetry_space_group_name_H-M   'P 1'
_cell_length_a   5.74439768
_cell_length_b   7.57874510
_cell_length_c   9.64281173
_cell_angle_alpha   91.01833657
_cell_angle_beta   90.00000000
_cell_angle_gamma   90.00000000
_symmetry_Int_Tables_number   1
_chemical_formula_structural   K3Nd(PO4)2
_chemical_formula_sum   'K6 Nd2 P4 O16'
_cell_volume   419.73664559
_cell_formula_units_Z   2
loop_
 _symmetry_equiv_pos_site_id
 _symmetry_equiv_pos_as_xyz
  1  'x, y, z'
loop_
 _atom_site_type_symbol
 _atom_site_label
 _atom_site_symmetry_multiplicity
 _atom_site_fract_x
 _atom_site_fract_y
 _atom_site_fract_z
 _atom_site_occupancy
  O  O0  1  0.971546  0.754027  0.155756  1
  O  O1  1  0.471546  0.245973  0.844244  1
  O  O2  1  0.028454  0.245973  0.844244  1
  O  O3  1  0.528454  0.754027  0.155756  1
  O  O4  1  0.971364  0.154667  0.340242  1
  O  O5  1  0.471364  0.845333  0.659758  1
  O  O6  1  0.028636  0.845333  0.659758  1
  O  O7  1  0.528636  0.154667  0.340242  1
  O  O8  1  0.750000  0.009941  0.048388  1
  O  O9  1  0.250000  0.990059  0.951612  1
  O  O10  1  0.750000  0.716477  0.926246  1
  O  O11  1  0.250000  0.283523  0.073754  1
  O  O12  1  0.250000  0.821871  0.431461  1
  O  O13  1  0.750000  0.178129  0.568539  1
  O  O14  1  0.250000  0.564676  0.600529  1
  O  O15  1  0.750000  0.435324  0.399471  1
  P  P16  1  0.750000  0.233318  0.413281  1
  P  P17  1  0.250000  0.766682  0.586719  1
  P  P18  1  0.750000  0.807737  0.073085  1
  P  P19  1  0.250000  0.192263  0.926915  1
  K  K20  1  0.750000  0.358669  0.091336  1
  K  K21  1  0.250000  0.494974  0.309498  1
  K  K22  1  0.750000  0.796388  0.416477  1
  K  K23  1  0.250000  0.641331  0.908664  1
  K  K24  1  0.250000  0.203612  0.583523  1
  K  K25  1  0.750000  0.505026  0.690502  1
  Nd  Nd26  1  0.750000  0.004963  0.790484  1
  Nd  Nd27  1  0.250000  0.995037  0.209516  1
