# generated using pymatgen
data_Li4MoO5
_symmetry_space_group_name_H-M   'P 1'
_cell_length_a   5.13393929
_cell_length_b   5.18411556
_cell_length_c   7.81112993
_cell_angle_alpha   108.42020774
_cell_angle_beta   101.78360431
_cell_angle_gamma   101.45744616
_symmetry_Int_Tables_number   1
_chemical_formula_structural   Li4MoO5
_chemical_formula_sum   'Li8 Mo2 O10'
_cell_volume   185.17117552
_cell_formula_units_Z   2
loop_
 _symmetry_equiv_pos_site_id
 _symmetry_equiv_pos_as_xyz
  1  'x, y, z'
loop_
 _atom_site_type_symbol
 _atom_site_label
 _atom_site_symmetry_multiplicity
 _atom_site_fract_x
 _atom_site_fract_y
 _atom_site_fract_z
 _atom_site_occupancy
  Li  Li0  1  0.419861  0.809573  0.296314  1
  Li  Li1  1  0.580140  0.190428  0.703686  1
  Li  Li2  1  0.999999  0.000000  0.500000  1
  Li  Li3  1  0.500000  0.999999  1.000000  1
  Li  Li4  1  0.219263  0.398376  0.901180  1
  Li  Li5  1  0.780737  0.601623  0.098820  1
  Li  Li6  1  0.308996  0.611324  0.609963  1
  Li  Li7  1  0.691005  0.388677  0.390037  1
  O  O8  1  0.575542  0.606142  0.845033  1
  O  O9  1  0.424458  0.393857  0.154967  1
  O  O10  1  0.669598  0.810784  0.573915  1
  O  O11  1  0.950905  0.428881  0.664223  1
  O  O12  1  0.132234  0.824779  0.042494  1
  O  O13  1  0.867767  0.175222  0.957506  1
  O  O14  1  0.224614  0.986908  0.751431  1
  O  O15  1  0.775387  0.013091  0.248569  1
  O  O16  1  0.330403  0.189217  0.426085  1
  O  O17  1  0.049096  0.571118  0.335777  1
  Mo  Mo18  1  0.895212  0.775683  0.783203  1
  Mo  Mo19  1  0.104787  0.224316  0.216797  1
