# generated using pymatgen
data_RbTiP2O7
_symmetry_space_group_name_H-M   'P 1'
_cell_length_a   7.67057217
_cell_length_b   8.36003382
_cell_length_c   10.43268045
_cell_angle_alpha   90.00000000
_cell_angle_beta   90.00000000
_cell_angle_gamma   105.80891748
_symmetry_Int_Tables_number   1
_chemical_formula_structural   RbTiP2O7
_chemical_formula_sum   'Rb4 Ti4 P8 O28'
_cell_volume   643.70375321
_cell_formula_units_Z   4
loop_
 _symmetry_equiv_pos_site_id
 _symmetry_equiv_pos_as_xyz
  1  'x, y, z'
loop_
 _atom_site_type_symbol
 _atom_site_label
 _atom_site_symmetry_multiplicity
 _atom_site_fract_x
 _atom_site_fract_y
 _atom_site_fract_z
 _atom_site_occupancy
  O  O0  1  0.845885  0.985152  0.589313  1
  O  O1  1  0.154115  0.514848  0.089313  1
  O  O2  1  0.154115  0.014848  0.410687  1
  O  O3  1  0.845885  0.485152  0.910687  1
  O  O4  1  0.002433  0.270969  0.499446  1
  O  O5  1  0.997567  0.229031  0.999446  1
  O  O6  1  0.997567  0.729031  0.500554  1
  O  O7  1  0.002433  0.770969  0.000554  1
  O  O8  1  0.916246  0.239111  0.733618  1
  O  O9  1  0.083754  0.260889  0.233618  1
  O  O10  1  0.083754  0.760889  0.266382  1
  O  O11  1  0.916246  0.739111  0.766382  1
  O  O12  1  0.671986  0.197611  0.559065  1
  O  O13  1  0.328014  0.302389  0.059065  1
  O  O14  1  0.328014  0.802389  0.440935  1
  O  O15  1  0.671986  0.697611  0.940935  1
  O  O16  1  0.554669  0.766810  0.723313  1
  O  O17  1  0.445331  0.733190  0.223312  1
  O  O18  1  0.445331  0.233190  0.276687  1
  O  O19  1  0.554669  0.266810  0.776687  1
  O  O20  1  0.675891  0.993291  0.892318  1
  O  O21  1  0.324109  0.506709  0.392318  1
  O  O22  1  0.324109  0.006709  0.107682  1
  O  O23  1  0.675891  0.493291  0.607682  1
  O  O24  1  0.375439  0.771476  0.924283  1
  O  O25  1  0.624561  0.728524  0.424283  1
  O  O26  1  0.624561  0.228524  0.075717  1
  O  O27  1  0.375439  0.271476  0.575717  1
  P  P28  1  0.868338  0.171653  0.597472  1
  P  P29  1  0.131662  0.328347  0.097472  1
  P  P30  1  0.131662  0.828347  0.402528  1
  P  P31  1  0.868338  0.671653  0.902528  1
  P  P32  1  0.564381  0.313781  0.634368  1
  P  P33  1  0.435619  0.186219  0.134368  1
  P  P34  1  0.435619  0.686219  0.365632  1
  P  P35  1  0.564381  0.813781  0.865632  1
  Ti  Ti36  1  0.762301  0.241215  0.898355  1
  Ti  Ti37  1  0.237699  0.258785  0.398355  1
  Ti  Ti38  1  0.237699  0.758785  0.101645  1
  Ti  Ti39  1  0.762301  0.741215  0.601645  1
  Rb  Rb40  1  0.810702  0.944580  0.182824  1
  Rb  Rb41  1  0.189298  0.555420  0.682824  1
  Rb  Rb42  1  0.189298  0.055420  0.817176  1
  Rb  Rb43  1  0.810702  0.444580  0.317176  1
