# generated using pymatgen
data_Ni5Ge3
_symmetry_space_group_name_H-M   'P 1'
_cell_length_a   6.36209522
_cell_length_b   6.38391509
_cell_length_c   6.38391509
_cell_angle_alpha   63.72406722
_cell_angle_beta   64.08935580
_cell_angle_gamma   64.08935585
_symmetry_Int_Tables_number   1
_chemical_formula_structural   Ni5Ge3
_chemical_formula_sum   'Ni10 Ge6'
_cell_volume   199.36090563
_cell_formula_units_Z   2
loop_
 _symmetry_equiv_pos_site_id
 _symmetry_equiv_pos_as_xyz
  1  'x, y, z'
loop_
 _atom_site_type_symbol
 _atom_site_label
 _atom_site_symmetry_multiplicity
 _atom_site_fract_x
 _atom_site_fract_y
 _atom_site_fract_z
 _atom_site_occupancy
  Ni  Ni0  1  0.604883  0.245318  0.900159  1
  Ni  Ni1  1  0.395117  0.099841  0.754682  1
  Ni  Ni2  1  0.896714  0.590085  0.262595  1
  Ni  Ni3  1  0.103286  0.737405  0.409915  1
  Ni  Ni4  1  0.248410  0.917472  0.584115  1
  Ni  Ni5  1  0.751590  0.415885  0.082528  1
  Ni  Ni6  1  0.166040  0.178967  0.170024  1
  Ni  Ni7  1  0.833960  0.829976  0.821033  1
  Ni  Ni8  1  0.337501  0.655964  0.995518  1
  Ni  Ni9  1  0.662499  0.004482  0.344036  1
  Ge  Ge10  1  0.000000  0.020782  0.979218  1
  Ge  Ge11  1  0.500000  0.812353  0.187647  1
  Ge  Ge12  1  0.296684  0.333859  0.368787  1
  Ge  Ge13  1  0.703316  0.631213  0.666141  1
  Ge  Ge14  1  0.201919  0.502509  0.798111  1
  Ge  Ge15  1  0.798081  0.201889  0.497491  1
