# generated using pymatgen
data_La3SiAgS7
_symmetry_space_group_name_H-M   'P 1'
_cell_length_a   10.49348324
_cell_length_b   10.49348324
_cell_length_c   5.83684715
_cell_angle_alpha   90.00000000
_cell_angle_beta   90.00000000
_cell_angle_gamma   120.00000004
_symmetry_Int_Tables_number   1
_chemical_formula_structural   La3SiAgS7
_chemical_formula_sum   'La6 Si2 Ag2 S14'
_cell_volume   556.60653172
_cell_formula_units_Z   2
loop_
 _symmetry_equiv_pos_site_id
 _symmetry_equiv_pos_as_xyz
  1  'x, y, z'
loop_
 _atom_site_type_symbol
 _atom_site_label
 _atom_site_symmetry_multiplicity
 _atom_site_fract_x
 _atom_site_fract_y
 _atom_site_fract_z
 _atom_site_occupancy
  Si  Si0  1  0.666667  0.333333  0.205223  1
  Si  Si1  1  0.333333  0.666667  0.705223  1
  S  S2  1  0.666667  0.333333  0.842683  1
  S  S3  1  0.333333  0.666667  0.342683  1
  S  S4  1  0.474585  0.881414  0.847982  1
  S  S5  1  0.593171  0.474585  0.347982  1
  S  S6  1  0.881414  0.406829  0.347982  1
  S  S7  1  0.118586  0.593171  0.847982  1
  S  S8  1  0.265222  0.177292  0.103225  1
  S  S9  1  0.087930  0.265222  0.603225  1
  S  S10  1  0.177292  0.912070  0.603225  1
  S  S11  1  0.822708  0.087930  0.103225  1
  S  S12  1  0.912070  0.734778  0.103225  1
  S  S13  1  0.734778  0.822708  0.603225  1
  S  S14  1  0.525415  0.118586  0.347982  1
  S  S15  1  0.406829  0.525415  0.847982  1
  Ag  Ag16  1  0.000000  0.000000  0.571277  1
  Ag  Ag17  1  0.000000  0.000000  0.071277  1
  La  La18  1  0.878571  0.640712  0.616766  1
  La  La19  1  0.237859  0.878571  0.116766  1
  La  La20  1  0.640712  0.762141  0.116766  1
  La  La21  1  0.359288  0.237859  0.616766  1
  La  La22  1  0.762141  0.121429  0.616766  1
  La  La23  1  0.121429  0.359288  0.116766  1
