# generated using pymatgen
data_Te2Mo3WS6
_symmetry_space_group_name_H-M   'P 1'
_cell_length_a   3.27131593
_cell_length_b   3.27142913
_cell_length_c   37.16712711
_cell_angle_alpha   89.99979378
_cell_angle_beta   90.00000000
_cell_angle_gamma   119.99885544
_symmetry_Int_Tables_number   1
_chemical_formula_structural   Te2Mo3WS6
_chemical_formula_sum   'Te2 Mo3 W1 S6'
_cell_volume   344.47256478
_cell_formula_units_Z   1
loop_
 _symmetry_equiv_pos_site_id
 _symmetry_equiv_pos_as_xyz
  1  'x, y, z'
loop_
 _atom_site_type_symbol
 _atom_site_label
 _atom_site_symmetry_multiplicity
 _atom_site_fract_x
 _atom_site_fract_y
 _atom_site_fract_z
 _atom_site_occupancy
  Te  Te0  1  0.666649  0.333297  0.041951  1
  Te  Te1  1  0.666638  0.333275  0.145769  1
  Mo  Mo2  1  0.333314  0.666628  0.093838  1
  Mo  Mo3  1  0.333317  0.666634  0.469658  1
  Mo  Mo4  1  0.666703  0.333407  0.281849  1
  W  W5  1  0.666690  0.333380  0.657559  1
  S  S6  1  0.333350  0.666700  0.323211  1
  S  S7  1  0.333356  0.666712  0.699145  1
  S  S8  1  0.666637  0.333273  0.428291  1
  S  S9  1  0.666632  0.333264  0.511045  1
  S  S10  1  0.333359  0.666718  0.240475  1
  S  S11  1  0.333356  0.666712  0.615959  1
