# generated using pymatgen
data_HfB4Ir3
_symmetry_space_group_name_H-M   'P 1'
_cell_length_a   7.62369186
_cell_length_b   7.62369186
_cell_length_c   3.52259911
_cell_angle_alpha   90.00000000
_cell_angle_beta   90.00000000
_cell_angle_gamma   120.00000002
_symmetry_Int_Tables_number   1
_chemical_formula_structural   HfB4Ir3
_chemical_formula_sum   'Hf2 B8 Ir6'
_cell_volume   177.30644462
_cell_formula_units_Z   2
loop_
 _symmetry_equiv_pos_site_id
 _symmetry_equiv_pos_as_xyz
  1  'x, y, z'
loop_
 _atom_site_type_symbol
 _atom_site_label
 _atom_site_symmetry_multiplicity
 _atom_site_fract_x
 _atom_site_fract_y
 _atom_site_fract_z
 _atom_site_occupancy
  B  B0  1  0.000000  0.000000  0.500000  1
  B  B1  1  0.000000  0.000000  0.000000  1
  B  B2  1  0.602514  0.551695  0.750000  1
  B  B3  1  0.050819  0.602514  0.250000  1
  B  B4  1  0.397486  0.448305  0.250000  1
  B  B5  1  0.448305  0.050819  0.750000  1
  B  B6  1  0.949181  0.397486  0.750000  1
  B  B7  1  0.551695  0.949181  0.250000  1
  Hf  Hf8  1  0.333333  0.666667  0.750000  1
  Hf  Hf9  1  0.666667  0.333333  0.250000  1
  Ir  Ir10  1  0.667439  0.743138  0.250000  1
  Ir  Ir11  1  0.256862  0.924301  0.250000  1
  Ir  Ir12  1  0.924301  0.667439  0.750000  1
  Ir  Ir13  1  0.332561  0.256862  0.750000  1
  Ir  Ir14  1  0.743138  0.075699  0.750000  1
  Ir  Ir15  1  0.075699  0.332561  0.250000  1
