# generated using pymatgen
data_RbFe2Te3
_symmetry_space_group_name_H-M   'P 1'
_cell_length_a   5.61440864
_cell_length_b   8.43563858
_cell_length_c   8.43563859
_cell_angle_alpha   105.10062169
_cell_angle_beta   90.00000000
_cell_angle_gamma   90.00000000
_symmetry_Int_Tables_number   1
_chemical_formula_structural   RbFe2Te3
_chemical_formula_sum   'Rb2 Fe4 Te6'
_cell_volume   385.72576036
_cell_formula_units_Z   2
loop_
 _symmetry_equiv_pos_site_id
 _symmetry_equiv_pos_as_xyz
  1  'x, y, z'
loop_
 _atom_site_type_symbol
 _atom_site_label
 _atom_site_symmetry_multiplicity
 _atom_site_fract_x
 _atom_site_fract_y
 _atom_site_fract_z
 _atom_site_occupancy
  Fe  Fe0  1  0.500000  0.876080  0.876080  1
  Fe  Fe1  1  0.000000  0.123920  0.123920  1
  Fe  Fe2  1  0.000000  0.876080  0.876080  1
  Fe  Fe3  1  0.500000  0.123920  0.123920  1
  Rb  Rb4  1  0.250000  0.347804  0.652196  1
  Rb  Rb5  1  0.750000  0.652196  0.347804  1
  Te  Te6  1  0.750000  0.133728  0.866272  1
  Te  Te7  1  0.250000  0.866272  0.133728  1
  Te  Te8  1  0.750000  0.619431  0.863148  1
  Te  Te9  1  0.250000  0.380569  0.136852  1
  Te  Te10  1  0.250000  0.863148  0.619431  1
  Te  Te11  1  0.750000  0.136852  0.380569  1
