# generated using pymatgen
data_Y3Si3O10F
_symmetry_space_group_name_H-M   'P 1'
_cell_length_a   7.40423868
_cell_length_b   10.49961622
_cell_length_c   11.29627335
_cell_angle_alpha   90.00000000
_cell_angle_beta   90.00000000
_cell_angle_gamma   97.25172214
_symmetry_Int_Tables_number   1
_chemical_formula_structural   Y3Si3O10F
_chemical_formula_sum   'Y12 Si12 O40 F4'
_cell_volume   871.16657988
_cell_formula_units_Z   4
loop_
 _symmetry_equiv_pos_site_id
 _symmetry_equiv_pos_as_xyz
  1  'x, y, z'
loop_
 _atom_site_type_symbol
 _atom_site_label
 _atom_site_symmetry_multiplicity
 _atom_site_fract_x
 _atom_site_fract_y
 _atom_site_fract_z
 _atom_site_occupancy
  O  O0  1  0.472269  0.130370  0.911264  1
  O  O1  1  0.027731  0.369630  0.411264  1
  O  O2  1  0.527731  0.869630  0.088736  1
  O  O3  1  0.972269  0.630370  0.588736  1
  O  O4  1  0.033508  0.138618  0.522429  1
  O  O5  1  0.466492  0.361382  0.022429  1
  O  O6  1  0.966492  0.861382  0.477571  1
  O  O7  1  0.533508  0.638618  0.977571  1
  O  O8  1  0.313385  0.808064  0.895942  1
  O  O9  1  0.186615  0.691936  0.395942  1
  O  O10  1  0.686615  0.191936  0.104058  1
  O  O11  1  0.813385  0.308064  0.604058  1
  O  O12  1  0.178216  0.377157  0.609556  1
  O  O13  1  0.321784  0.122843  0.109556  1
  O  O14  1  0.821784  0.622843  0.390444  1
  O  O15  1  0.678216  0.877157  0.890444  1
  O  O16  1  0.290496  0.802587  0.642998  1
  O  O17  1  0.481264  0.378754  0.726461  1
  O  O18  1  0.518736  0.621246  0.273539  1
  O  O19  1  0.981264  0.878754  0.773539  1
  O  O20  1  0.230388  0.517305  0.818515  1
  O  O21  1  0.269612  0.982695  0.318515  1
  O  O22  1  0.769612  0.482695  0.181485  1
  O  O23  1  0.730388  0.017305  0.681485  1
  O  O24  1  0.153906  0.269437  0.822657  1
  O  O25  1  0.346094  0.230563  0.322657  1
  O  O26  1  0.846094  0.730563  0.177343  1
  O  O27  1  0.653906  0.769437  0.677343  1
  O  O28  1  0.987317  0.637119  0.975511  1
  O  O29  1  0.512683  0.862881  0.475511  1
  O  O30  1  0.012683  0.362881  0.024489  1
  O  O31  1  0.487317  0.137119  0.524489  1
  O  O32  1  0.960103  0.108769  0.950512  1
  O  O33  1  0.539897  0.391231  0.450512  1
  O  O34  1  0.039897  0.891231  0.049488  1
  O  O35  1  0.460103  0.608769  0.549488  1
  O  O36  1  0.790496  0.302587  0.857002  1
  O  O37  1  0.709504  0.197413  0.357002  1
  O  O38  1  0.209504  0.697413  0.142998  1
  O  O39  1  0.018736  0.121246  0.226461  1
  F  F40  1  0.696262  0.940691  0.285008  1
  F  F41  1  0.803738  0.559309  0.785008  1
  F  F42  1  0.196262  0.440691  0.214992  1
  F  F43  1  0.303738  0.059309  0.714992  1
  Si  Si44  1  0.005521  0.291427  0.537653  1
  Si  Si45  1  0.234718  0.110892  0.244900  1
  Si  Si46  1  0.734718  0.610892  0.255100  1
  Si  Si47  1  0.765282  0.889108  0.755100  1
  Si  Si48  1  0.475248  0.759637  0.585776  1
  Si  Si49  1  0.024752  0.740363  0.085776  1
  Si  Si50  1  0.524752  0.240363  0.414224  1
  Si  Si51  1  0.975248  0.259637  0.914224  1
  Si  Si52  1  0.505521  0.791427  0.962347  1
  Si  Si53  1  0.994479  0.708573  0.462347  1
  Si  Si54  1  0.265282  0.389108  0.744900  1
  Si  Si55  1  0.494479  0.208573  0.037653  1
  Y  Y56  1  0.237596  0.981688  0.530749  1
  Y  Y57  1  0.262404  0.518312  0.030749  1
  Y  Y58  1  0.762404  0.018312  0.469251  1
  Y  Y59  1  0.737596  0.481688  0.969251  1
  Y  Y60  1  0.093998  0.688925  0.770019  1
  Y  Y61  1  0.406002  0.811075  0.270019  1
  Y  Y62  1  0.906002  0.311075  0.229981  1
  Y  Y63  1  0.593998  0.188925  0.729981  1
  Y  Y64  1  0.197936  0.003019  0.901777  1
  Y  Y65  1  0.302064  0.496981  0.401777  1
  Y  Y66  1  0.802064  0.996981  0.098223  1
  Y  Y67  1  0.697936  0.503019  0.598223  1
