# generated using pymatgen
data_Cd4SF6
_symmetry_space_group_name_H-M   'P 1'
_cell_length_a   3.90330004
_cell_length_b   3.90330004
_cell_length_c   12.81208515
_cell_angle_alpha   81.23809104
_cell_angle_beta   81.23809104
_cell_angle_gamma   59.99999939
_symmetry_Int_Tables_number   1
_chemical_formula_structural   Cd4SF6
_chemical_formula_sum   'Cd4 S1 F6'
_cell_volume   166.41402658
_cell_formula_units_Z   1
loop_
 _symmetry_equiv_pos_site_id
 _symmetry_equiv_pos_as_xyz
  1  'x, y, z'
loop_
 _atom_site_type_symbol
 _atom_site_label
 _atom_site_symmetry_multiplicity
 _atom_site_fract_x
 _atom_site_fract_y
 _atom_site_fract_z
 _atom_site_occupancy
  Cd  Cd0  1  0.208260  0.208270  0.375210  1
  Cd  Cd1  1  0.791740  0.791730  0.624790  1
  Cd  Cd2  1  0.625980  0.625970  0.122070  1
  Cd  Cd3  1  0.374020  0.374030  0.877930  1
  S  S4  1  0.000000  0.000000  0.000000  1
  F  F5  1  0.145730  0.145740  0.562800  1
  F  F6  1  0.854270  0.854260  0.437200  1
  F  F7  1  0.437010  0.437000  0.688980  1
  F  F8  1  0.562990  0.563000  0.311020  1
  F  F9  1  0.729640  0.729640  0.811080  1
  F  F10  1  0.270360  0.270360  0.188920  1
