# generated using pymatgen
data_TbB4
_symmetry_space_group_name_H-M   'P 1'
_cell_length_a   4.20170622
_cell_length_b   8.52122696
_cell_length_c   8.52122696
_cell_angle_alpha   90.00000000
_cell_angle_beta   90.00000000
_cell_angle_gamma   90.00000000
_symmetry_Int_Tables_number   1
_chemical_formula_structural   TbB4
_chemical_formula_sum   'Tb4 B16'
_cell_volume   305.09138826
_cell_formula_units_Z   4
loop_
 _symmetry_equiv_pos_site_id
 _symmetry_equiv_pos_as_xyz
  1  'x, y, z'
loop_
 _atom_site_type_symbol
 _atom_site_label
 _atom_site_symmetry_multiplicity
 _atom_site_fract_x
 _atom_site_fract_y
 _atom_site_fract_z
 _atom_site_occupancy
  B  B0  1  0.000000  0.444142  0.372036  1
  B  B1  1  0.000000  0.555858  0.627964  1
  B  B2  1  0.000000  0.372036  0.555858  1
  B  B3  1  0.000000  0.627964  0.444142  1
  B  B4  1  0.307554  0.000000  0.000000  1
  B  B5  1  0.692446  0.500000  0.500000  1
  B  B6  1  0.692446  0.000000  0.000000  1
  B  B7  1  0.307554  0.500000  0.500000  1
  B  B8  1  0.500000  0.064332  0.564332  1
  B  B9  1  0.500000  0.435668  0.064332  1
  B  B10  1  0.500000  0.564332  0.935668  1
  B  B11  1  0.500000  0.935668  0.435668  1
  B  B12  1  0.000000  0.127964  0.055858  1
  B  B13  1  0.000000  0.944142  0.127964  1
  B  B14  1  0.000000  0.055858  0.872036  1
  B  B15  1  0.000000  0.872036  0.944142  1
  Tb  Tb16  1  0.000000  0.639017  0.139017  1
  Tb  Tb17  1  0.000000  0.860983  0.639017  1
  Tb  Tb18  1  0.000000  0.139017  0.360983  1
  Tb  Tb19  1  0.000000  0.360983  0.860983  1
