# generated using pymatgen
data_Te2Mo(WSe2)2
_symmetry_space_group_name_H-M   'P 1'
_cell_length_a   3.39693775
_cell_length_b   3.39689027
_cell_length_c   31.44202354
_cell_angle_alpha   89.99961974
_cell_angle_beta   90.00000000
_cell_angle_gamma   120.00046246
_symmetry_Int_Tables_number   1
_chemical_formula_structural   Te2Mo(WSe2)2
_chemical_formula_sum   'Te2 Mo1 W2 Se4'
_cell_volume   314.20146304
_cell_formula_units_Z   1
loop_
 _symmetry_equiv_pos_site_id
 _symmetry_equiv_pos_as_xyz
  1  'x, y, z'
loop_
 _atom_site_type_symbol
 _atom_site_label
 _atom_site_symmetry_multiplicity
 _atom_site_fract_x
 _atom_site_fract_y
 _atom_site_fract_z
 _atom_site_occupancy
  Te  Te0  1  0.666647  0.333294  0.056076  1
  Te  Te1  1  0.666649  0.333296  0.175233  1
  Mo  Mo2  1  0.333311  0.666621  0.115644  1
  W  W3  1  0.333313  0.666626  0.578310  1
  W  W4  1  0.666688  0.333376  0.347000  1
  Se  Se5  1  0.333354  0.666709  0.399699  1
  Se  Se6  1  0.666641  0.333282  0.525576  1
  Se  Se7  1  0.666645  0.333288  0.631043  1
  Se  Se8  1  0.333354  0.666709  0.294260  1
