# generated using pymatgen
data_Ge
_symmetry_space_group_name_H-M   'P 1'
_cell_length_a   5.75235122
_cell_length_b   5.75235122
_cell_length_c   5.77147909
_cell_angle_alpha   90.00000000
_cell_angle_beta   90.00000000
_cell_angle_gamma   125.57515287
_symmetry_Int_Tables_number   1
_chemical_formula_structural   Ge
_chemical_formula_sum   Ge8
_cell_volume   155.33061400
_cell_formula_units_Z   8
loop_
 _symmetry_equiv_pos_site_id
 _symmetry_equiv_pos_as_xyz
  1  'x, y, z'
loop_
 _atom_site_type_symbol
 _atom_site_label
 _atom_site_symmetry_multiplicity
 _atom_site_fract_x
 _atom_site_fract_y
 _atom_site_fract_z
 _atom_site_occupancy
  Ge  Ge0  1  0.218133  0.781867  0.000000  1
  Ge  Ge1  1  0.281867  0.718133  0.500000  1
  Ge  Ge2  1  0.781867  0.218133  0.000000  1
  Ge  Ge3  1  0.718133  0.281867  0.500000  1
  Ge  Ge4  1  0.000676  0.000676  0.273510  1
  Ge  Ge5  1  0.499324  0.499324  0.773510  1
  Ge  Ge6  1  0.500676  0.500676  0.226490  1
  Ge  Ge7  1  0.999324  0.999324  0.726490  1
