# generated using pymatgen
data_P3Pd
_symmetry_space_group_name_H-M   'P 1'
_cell_length_a   7.12090505
_cell_length_b   7.12090505
_cell_length_c   7.12090505
_cell_angle_alpha   109.47122063
_cell_angle_beta   109.47122063
_cell_angle_gamma   109.47122063
_symmetry_Int_Tables_number   1
_chemical_formula_structural   P3Pd
_chemical_formula_sum   'P12 Pd4'
_cell_volume   277.96089082
_cell_formula_units_Z   4
loop_
 _symmetry_equiv_pos_site_id
 _symmetry_equiv_pos_as_xyz
  1  'x, y, z'
loop_
 _atom_site_type_symbol
 _atom_site_label
 _atom_site_symmetry_multiplicity
 _atom_site_fract_x
 _atom_site_fract_y
 _atom_site_fract_z
 _atom_site_occupancy
  P  P0  1  0.865105  0.635675  0.500780  1
  P  P1  1  0.134895  0.364325  0.499220  1
  P  P2  1  0.134895  0.635675  0.770570  1
  P  P3  1  0.865105  0.364325  0.229430  1
  P  P4  1  0.635675  0.500780  0.865105  1
  P  P5  1  0.364325  0.499220  0.134895  1
  P  P6  1  0.635675  0.770570  0.134895  1
  P  P7  1  0.364325  0.229430  0.865105  1
  P  P8  1  0.500780  0.865105  0.635675  1
  P  P9  1  0.499220  0.134895  0.364325  1
  P  P10  1  0.770570  0.134895  0.635675  1
  P  P11  1  0.229430  0.865105  0.364325  1
  Pd  Pd12  1  0.500000  0.500000  0.500000  1
  Pd  Pd13  1  0.500000  0.000000  0.000000  1
  Pd  Pd14  1  0.000000  0.500000  0.000000  1
  Pd  Pd15  1  0.000000  0.000000  0.500000  1
