# generated using pymatgen
data_Te2MoW3(Se2S)2
_symmetry_space_group_name_H-M   'P 1'
_cell_length_a   3.33933052
_cell_length_b   3.33930926
_cell_length_c   38.74864754
_cell_angle_alpha   90.00047232
_cell_angle_beta   90.00000000
_cell_angle_gamma   120.00020652
_symmetry_Int_Tables_number   1
_chemical_formula_structural   Te2MoW3(Se2S)2
_chemical_formula_sum   'Te2 Mo1 W3 Se4 S2'
_cell_volume   374.19874415
_cell_formula_units_Z   1
loop_
 _symmetry_equiv_pos_site_id
 _symmetry_equiv_pos_as_xyz
  1  'x, y, z'
loop_
 _atom_site_type_symbol
 _atom_site_label
 _atom_site_symmetry_multiplicity
 _atom_site_fract_x
 _atom_site_fract_y
 _atom_site_fract_z
 _atom_site_occupancy
  Te  Te0  1  0.333361  0.666723  0.330813  1
  Te  Te1  1  0.333357  0.666715  0.232839  1
  Mo  Mo2  1  0.666686  0.333372  0.281791  1
  W  W3  1  0.333313  0.666627  0.093915  1
  W  W4  1  0.333314  0.666627  0.469661  1
  W  W5  1  0.666686  0.333372  0.657538  1
  Se  Se6  1  0.333361  0.666722  0.700829  1
  Se  Se7  1  0.666635  0.333268  0.050620  1
  Se  Se8  1  0.666648  0.333295  0.137203  1
  Se  Se9  1  0.333352  0.666705  0.614205  1
  S  S10  1  0.666642  0.333283  0.430349  1
  S  S11  1  0.666646  0.333291  0.508985  1
