# generated using pymatgen
data_Ba3Al2(SiO4)3
_symmetry_space_group_name_H-M   'P 1'
_cell_length_a   10.97450350
_cell_length_b   10.97450350
_cell_length_c   10.97450350
_cell_angle_alpha   109.47122061
_cell_angle_beta   109.47122061
_cell_angle_gamma   109.47122063
_symmetry_Int_Tables_number   1
_chemical_formula_structural   Ba3Al2(SiO4)3
_chemical_formula_sum   'Ba12 Al8 Si12 O48'
_cell_volume   1017.49610089
_cell_formula_units_Z   4
loop_
 _symmetry_equiv_pos_site_id
 _symmetry_equiv_pos_as_xyz
  1  'x, y, z'
loop_
 _atom_site_type_symbol
 _atom_site_label
 _atom_site_symmetry_multiplicity
 _atom_site_fract_x
 _atom_site_fract_y
 _atom_site_fract_z
 _atom_site_occupancy
  O  O0  1  0.684470  0.695386  0.081932  1
  O  O1  1  0.695386  0.113455  0.010916  1
  O  O2  1  0.602539  0.684470  0.489084  1
  O  O3  1  0.489084  0.602539  0.684470  1
  O  O4  1  0.081932  0.897461  0.386545  1
  O  O5  1  0.386545  0.081932  0.897461  1
  O  O6  1  0.113455  0.010916  0.695386  1
  O  O7  1  0.602539  0.418068  0.113455  1
  O  O8  1  0.489084  0.386545  0.804614  1
  O  O9  1  0.897461  0.010916  0.815530  1
  O  O10  1  0.418068  0.113455  0.602539  1
  O  O11  1  0.804614  0.489084  0.386545  1
  O  O12  1  0.010916  0.815530  0.897461  1
  O  O13  1  0.081932  0.684470  0.695386  1
  O  O14  1  0.695386  0.081932  0.684470  1
  O  O15  1  0.113455  0.602539  0.418068  1
  O  O16  1  0.804614  0.815530  0.418068  1
  O  O17  1  0.386545  0.804614  0.489084  1
  O  O18  1  0.418068  0.804614  0.815530  1
  O  O19  1  0.815530  0.897461  0.010916  1
  O  O20  1  0.815530  0.418068  0.804614  1
  O  O21  1  0.897461  0.386545  0.081932  1
  O  O22  1  0.010916  0.695386  0.113455  1
  O  O23  1  0.684470  0.489084  0.602539  1
  O  O24  1  0.315530  0.304614  0.918068  1
  O  O25  1  0.304614  0.886545  0.989084  1
  O  O26  1  0.397461  0.315530  0.510916  1
  O  O27  1  0.510916  0.397461  0.315530  1
  O  O28  1  0.918068  0.102539  0.613455  1
  O  O29  1  0.613455  0.918068  0.102539  1
  O  O30  1  0.886545  0.989084  0.304614  1
  O  O31  1  0.397461  0.581932  0.886545  1
  O  O32  1  0.510916  0.613455  0.195386  1
  O  O33  1  0.102539  0.989084  0.184470  1
  O  O34  1  0.581932  0.886545  0.397461  1
  O  O35  1  0.195386  0.510916  0.613455  1
  O  O36  1  0.989084  0.184470  0.102539  1
  O  O37  1  0.918068  0.315530  0.304614  1
  O  O38  1  0.304614  0.918068  0.315530  1
  O  O39  1  0.886545  0.397461  0.581932  1
  O  O40  1  0.195386  0.184470  0.581932  1
  O  O41  1  0.613455  0.195386  0.510916  1
  O  O42  1  0.581932  0.195386  0.184470  1
  O  O43  1  0.184470  0.102539  0.989084  1
  O  O44  1  0.184470  0.581932  0.195386  1
  O  O45  1  0.102539  0.613455  0.918068  1
  O  O46  1  0.989084  0.304614  0.886545  1
  O  O47  1  0.315530  0.510916  0.397461  1
  Al  Al48  1  0.000000  0.500000  0.500000  1
  Al  Al49  1  0.500000  0.000000  0.500000  1
  Al  Al50  1  0.500000  0.500000  0.500000  1
  Al  Al51  1  0.500000  0.000000  0.000000  1
  Al  Al52  1  0.000000  0.000000  0.500000  1
  Al  Al53  1  0.000000  0.500000  0.000000  1
  Al  Al54  1  0.000000  0.000000  0.000000  1
  Al  Al55  1  0.500000  0.500000  0.000000  1
  Si  Si56  1  0.125000  0.875000  0.250000  1
  Si  Si57  1  0.375000  0.625000  0.750000  1
  Si  Si58  1  0.625000  0.750000  0.375000  1
  Si  Si59  1  0.250000  0.625000  0.375000  1
  Si  Si60  1  0.750000  0.375000  0.625000  1
  Si  Si61  1  0.875000  0.125000  0.750000  1
  Si  Si62  1  0.125000  0.750000  0.875000  1
  Si  Si63  1  0.625000  0.375000  0.250000  1
  Si  Si64  1  0.375000  0.250000  0.625000  1
  Si  Si65  1  0.750000  0.875000  0.125000  1
  Si  Si66  1  0.875000  0.250000  0.125000  1
  Si  Si67  1  0.250000  0.125000  0.875000  1
  Ba  Ba68  1  0.250000  0.875000  0.625000  1
  Ba  Ba69  1  0.875000  0.625000  0.250000  1
  Ba  Ba70  1  0.625000  0.875000  0.750000  1
  Ba  Ba71  1  0.875000  0.750000  0.625000  1
  Ba  Ba72  1  0.625000  0.250000  0.875000  1
  Ba  Ba73  1  0.750000  0.625000  0.875000  1
  Ba  Ba74  1  0.750000  0.125000  0.375000  1
  Ba  Ba75  1  0.125000  0.375000  0.750000  1
  Ba  Ba76  1  0.375000  0.125000  0.250000  1
  Ba  Ba77  1  0.125000  0.250000  0.375000  1
  Ba  Ba78  1  0.375000  0.750000  0.125000  1
  Ba  Ba79  1  0.250000  0.375000  0.125000  1
