# generated using pymatgen
data_Si(NiO2)2
_symmetry_space_group_name_H-M   'P 1'
_cell_length_a   4.77056155
_cell_length_b   5.97334279
_cell_length_c   10.24564982
_cell_angle_alpha   90.00000000
_cell_angle_beta   90.00000000
_cell_angle_gamma   90.00000000
_symmetry_Int_Tables_number   1
_chemical_formula_structural   Si(NiO2)2
_chemical_formula_sum   'Si4 Ni8 O16'
_cell_volume   291.96208065
_cell_formula_units_Z   4
loop_
 _symmetry_equiv_pos_site_id
 _symmetry_equiv_pos_as_xyz
  1  'x, y, z'
loop_
 _atom_site_type_symbol
 _atom_site_label
 _atom_site_symmetry_multiplicity
 _atom_site_fract_x
 _atom_site_fract_y
 _atom_site_fract_z
 _atom_site_occupancy
  O  O0  1  0.225480  0.469990  0.662808  1
  O  O1  1  0.725480  0.530010  0.837192  1
  O  O2  1  0.774520  0.969990  0.337192  1
  O  O3  1  0.274520  0.030010  0.162808  1
  O  O4  1  0.774520  0.530010  0.337192  1
  O  O5  1  0.274520  0.469990  0.162808  1
  O  O6  1  0.225480  0.030010  0.662808  1
  O  O7  1  0.725480  0.969990  0.837192  1
  O  O8  1  0.717829  0.750000  0.055071  1
  O  O9  1  0.217829  0.250000  0.444929  1
  O  O10  1  0.282171  0.250000  0.944929  1
  O  O11  1  0.782171  0.750000  0.555071  1
  O  O12  1  0.230983  0.750000  0.906443  1
  O  O13  1  0.730983  0.250000  0.593557  1
  O  O14  1  0.769017  0.250000  0.093557  1
  O  O15  1  0.269017  0.750000  0.406443  1
  Si  Si16  1  0.926674  0.750000  0.406162  1
  Si  Si17  1  0.426674  0.250000  0.093838  1
  Si  Si18  1  0.073326  0.250000  0.593838  1
  Si  Si19  1  0.573326  0.750000  0.906162  1
  Ni  Ni20  1  0.493204  0.750000  0.226556  1
  Ni  Ni21  1  0.993204  0.250000  0.273444  1
  Ni  Ni22  1  0.506796  0.250000  0.773444  1
  Ni  Ni23  1  0.006796  0.750000  0.726556  1
  Ni  Ni24  1  0.500000  0.500000  0.500000  1
  Ni  Ni25  1  0.000000  0.500000  0.000000  1
  Ni  Ni26  1  0.500000  0.000000  0.500000  1
  Ni  Ni27  1  0.000000  0.000000  0.000000  1
