# generated using pymatgen
data_Te4MoW3Se4
_symmetry_space_group_name_H-M   'P 1'
_cell_length_a   3.43783878
_cell_length_b   3.43779792
_cell_length_c   39.16381758
_cell_angle_alpha   90.00014189
_cell_angle_beta   90.00000000
_cell_angle_gamma   120.00039314
_symmetry_Int_Tables_number   1
_chemical_formula_structural   Te4MoW3Se4
_chemical_formula_sum   'Te4 Mo1 W3 Se4'
_cell_volume   400.84805565
_cell_formula_units_Z   1
loop_
 _symmetry_equiv_pos_site_id
 _symmetry_equiv_pos_as_xyz
  1  'x, y, z'
loop_
 _atom_site_type_symbol
 _atom_site_label
 _atom_site_symmetry_multiplicity
 _atom_site_fract_x
 _atom_site_fract_y
 _atom_site_fract_z
 _atom_site_occupancy
  Te  Te0  1  0.333352  0.666704  0.705245  1
  Te  Te1  1  0.666646  0.333291  0.046586  1
  Te  Te2  1  0.666641  0.333281  0.141258  1
  Te  Te3  1  0.333356  0.666713  0.609816  1
  Mo  Mo4  1  0.333309  0.666618  0.093924  1
  W  W5  1  0.333312  0.666625  0.469647  1
  W  W6  1  0.666687  0.333373  0.281815  1
  W  W7  1  0.666690  0.333381  0.657532  1
  Se  Se8  1  0.333362  0.666724  0.323761  1
  Se  Se9  1  0.666647  0.333293  0.427703  1
  Se  Se10  1  0.666647  0.333294  0.511616  1
  Se  Se11  1  0.333351  0.666702  0.239844  1
