# generated using pymatgen
data_CsYbSe2
_symmetry_space_group_name_H-M   'P 1'
_cell_length_a   4.41606802
_cell_length_b   4.41606802
_cell_length_c   16.39975944
_cell_angle_alpha   90.00000000
_cell_angle_beta   90.00000000
_cell_angle_gamma   120.00000000
_symmetry_Int_Tables_number   1
_chemical_formula_structural   CsYbSe2
_chemical_formula_sum   'Cs2 Yb2 Se4'
_cell_volume   276.97439194
_cell_formula_units_Z   2
loop_
 _symmetry_equiv_pos_site_id
 _symmetry_equiv_pos_as_xyz
  1  'x, y, z'
loop_
 _atom_site_type_symbol
 _atom_site_label
 _atom_site_symmetry_multiplicity
 _atom_site_fract_x
 _atom_site_fract_y
 _atom_site_fract_z
 _atom_site_occupancy
  Se  Se0  1  0.333333  0.666667  0.908683  1
  Se  Se1  1  0.666667  0.333333  0.408683  1
  Se  Se2  1  0.333333  0.666667  0.591317  1
  Se  Se3  1  0.666667  0.333333  0.091317  1
  Cs  Cs4  1  0.666667  0.333333  0.750000  1
  Cs  Cs5  1  0.333333  0.666667  0.250000  1
  Yb  Yb6  1  0.000000  0.000000  0.000000  1
  Yb  Yb7  1  0.000000  0.000000  0.500000  1
