# generated using pymatgen
data_Pr2CrS4
_symmetry_space_group_name_H-M   'P 1'
_cell_length_a   4.05981901
_cell_length_b   7.18201092
_cell_length_c   7.16323058
_cell_angle_alpha   119.26041771
_cell_angle_beta   106.46198122
_cell_angle_gamma   90.00000000
_symmetry_Int_Tables_number   1
_chemical_formula_structural   Pr2CrS4
_chemical_formula_sum   'Pr2 Cr1 S4'
_cell_volume   172.33299007
_cell_formula_units_Z   1
loop_
 _symmetry_equiv_pos_site_id
 _symmetry_equiv_pos_as_xyz
  1  'x, y, z'
loop_
 _atom_site_type_symbol
 _atom_site_label
 _atom_site_symmetry_multiplicity
 _atom_site_fract_x
 _atom_site_fract_y
 _atom_site_fract_z
 _atom_site_occupancy
  Pr  Pr0  1  0.288518  0.292226  0.577036  1
  Pr  Pr1  1  0.711482  0.707774  0.422964  1
  Cr  Cr2  1  -0.000000  0.000000  0.000000  1
  S  S3  1  0.108611  0.393259  0.217221  1
  S  S4  1  0.891389  0.606741  0.782779  1
  S  S5  1  0.368444  -0.007064  0.736888  1
  S  S6  1  0.631556  1.007064  0.263112  1
