# generated using pymatgen
data_KGaF4
_symmetry_space_group_name_H-M   'P 1'
_cell_length_a   7.62322282
_cell_length_b   7.80638716
_cell_length_c   12.40155988
_cell_angle_alpha   90.00000000
_cell_angle_beta   90.00000000
_cell_angle_gamma   90.00000000
_symmetry_Int_Tables_number   1
_chemical_formula_structural   KGaF4
_chemical_formula_sum   'K8 Ga8 F32'
_cell_volume   738.01470457
_cell_formula_units_Z   8
loop_
 _symmetry_equiv_pos_site_id
 _symmetry_equiv_pos_as_xyz
  1  'x, y, z'
loop_
 _atom_site_type_symbol
 _atom_site_label
 _atom_site_symmetry_multiplicity
 _atom_site_fract_x
 _atom_site_fract_y
 _atom_site_fract_z
 _atom_site_occupancy
  F  F0  1  0.546402  0.615540  0.104724  1
  F  F1  1  0.046402  0.384460  0.895276  1
  F  F2  1  0.453598  0.115540  0.395276  1
  F  F3  1  0.953598  0.884460  0.604724  1
  F  F4  1  0.453598  0.384460  0.895276  1
  F  F5  1  0.953598  0.615540  0.104724  1
  F  F6  1  0.546402  0.884460  0.604724  1
  F  F7  1  0.046402  0.115540  0.395276  1
  F  F8  1  0.455739  0.634062  0.398580  1
  F  F9  1  0.955739  0.365938  0.601420  1
  F  F10  1  0.544261  0.134062  0.101420  1
  F  F11  1  0.044261  0.865938  0.898580  1
  F  F12  1  0.544261  0.365938  0.601420  1
  F  F13  1  0.044261  0.634062  0.398580  1
  F  F14  1  0.455739  0.865938  0.898580  1
  F  F15  1  0.955739  0.134062  0.101420  1
  F  F16  1  0.039758  0.124988  0.754216  1
  F  F17  1  0.539758  0.875012  0.245784  1
  F  F18  1  0.960242  0.624988  0.745784  1
  F  F19  1  0.460242  0.375012  0.254216  1
  F  F20  1  0.960242  0.875012  0.245784  1
  F  F21  1  0.460242  0.124988  0.754216  1
  F  F22  1  0.039758  0.375012  0.254216  1
  F  F23  1  0.539758  0.624988  0.745784  1
  F  F24  1  0.750000  0.160457  0.283002  1
  F  F25  1  0.250000  0.839543  0.716997  1
  F  F26  1  0.250000  0.660457  0.216998  1
  F  F27  1  0.750000  0.339543  0.783003  1
  F  F28  1  0.250000  0.089380  0.212540  1
  F  F29  1  0.750000  0.910620  0.787460  1
  F  F30  1  0.750000  0.589380  0.287460  1
  F  F31  1  0.250000  0.410620  0.712540  1
  K  K32  1  0.250000  0.374403  0.472558  1
  K  K33  1  0.750000  0.625597  0.527442  1
  K  K34  1  0.750000  0.874403  0.027442  1
  K  K35  1  0.250000  0.125597  0.972558  1
  K  K36  1  0.750000  0.375327  0.015364  1
  K  K37  1  0.250000  0.624673  0.984636  1
  K  K38  1  0.250000  0.875327  0.484636  1
  K  K39  1  0.750000  0.124673  0.515364  1
  Ga  Ga40  1  0.500701  0.624989  0.251564  1
  Ga  Ga41  1  0.000701  0.375011  0.748436  1
  Ga  Ga42  1  0.499299  0.124989  0.248436  1
  Ga  Ga43  1  0.999299  0.875011  0.751564  1
  Ga  Ga44  1  0.499299  0.375011  0.748436  1
  Ga  Ga45  1  0.999299  0.624989  0.251564  1
  Ga  Ga46  1  0.500701  0.875011  0.751564  1
  Ga  Ga47  1  0.000701  0.124989  0.248436  1
