# generated using pymatgen
data_Ca(Al5Cr)2
_symmetry_space_group_name_H-M   'P 1'
_cell_length_a   5.15916053
_cell_length_b   12.87810577
_cell_length_c   12.87810577
_cell_angle_alpha   90.00000000
_cell_angle_beta   90.00000000
_cell_angle_gamma   90.00000000
_symmetry_Int_Tables_number   1
_chemical_formula_structural   Ca(Al5Cr)2
_chemical_formula_sum   'Ca4 Al40 Cr8'
_cell_volume   855.62411602
_cell_formula_units_Z   4
loop_
 _symmetry_equiv_pos_site_id
 _symmetry_equiv_pos_as_xyz
  1  'x, y, z'
loop_
 _atom_site_type_symbol
 _atom_site_label
 _atom_site_symmetry_multiplicity
 _atom_site_fract_x
 _atom_site_fract_y
 _atom_site_fract_z
 _atom_site_occupancy
  Al  Al0  1  0.000000  0.924196  0.424196  1
  Al  Al1  1  0.000000  0.075804  0.924196  1
  Al  Al2  1  0.000000  0.424196  0.575804  1
  Al  Al3  1  0.000000  0.575804  0.075804  1
  Al  Al4  1  0.000000  0.075804  0.575804  1
  Al  Al5  1  0.000000  0.924196  0.075804  1
  Al  Al6  1  0.000000  0.575804  0.424196  1
  Al  Al7  1  0.000000  0.424196  0.924196  1
  Al  Al8  1  0.500000  0.363566  0.863566  1
  Al  Al9  1  0.500000  0.636434  0.363566  1
  Al  Al10  1  0.500000  0.863566  0.136434  1
  Al  Al11  1  0.500000  0.136434  0.636434  1
  Al  Al12  1  0.500000  0.636434  0.136434  1
  Al  Al13  1  0.500000  0.363566  0.636434  1
  Al  Al14  1  0.500000  0.136434  0.863566  1
  Al  Al15  1  0.500000  0.863566  0.363566  1
  Al  Al16  1  0.748875  0.250000  0.488897  1
  Al  Al17  1  0.748875  0.011103  0.250000  1
  Al  Al18  1  0.748875  0.488897  0.250000  1
  Al  Al19  1  0.748875  0.250000  0.011103  1
  Al  Al20  1  0.251125  0.750000  0.511103  1
  Al  Al21  1  0.251125  0.750000  0.988897  1
  Al  Al22  1  0.251125  0.988897  0.750000  1
  Al  Al23  1  0.251125  0.511103  0.750000  1
  Al  Al24  1  0.036855  0.359207  0.359207  1
  Al  Al25  1  0.036855  0.140793  0.359207  1
  Al  Al26  1  0.036855  0.359207  0.140793  1
  Al  Al27  1  0.036855  0.140793  0.140793  1
  Al  Al28  1  0.963145  0.859207  0.640793  1
  Al  Al29  1  0.963145  0.640793  0.859207  1
  Al  Al30  1  0.963145  0.859207  0.859207  1
  Al  Al31  1  0.963145  0.640793  0.640793  1
  Al  Al32  1  0.481427  0.424637  0.424637  1
  Al  Al33  1  0.481427  0.075363  0.424637  1
  Al  Al34  1  0.481427  0.424637  0.075363  1
  Al  Al35  1  0.481427  0.075363  0.075363  1
  Al  Al36  1  0.518573  0.924637  0.575363  1
  Al  Al37  1  0.518573  0.575363  0.924637  1
  Al  Al38  1  0.518573  0.924637  0.924637  1
  Al  Al39  1  0.518573  0.575363  0.575363  1
  Ca  Ca40  1  0.000000  0.250000  0.750000  1
  Ca  Ca41  1  0.000000  0.750000  0.250000  1
  Ca  Ca42  1  0.518846  0.250000  0.250000  1
  Ca  Ca43  1  0.481154  0.750000  0.750000  1
  Cr  Cr44  1  0.253808  0.250000  0.990406  1
  Cr  Cr45  1  0.253808  0.509594  0.250000  1
  Cr  Cr46  1  0.253808  0.990406  0.250000  1
  Cr  Cr47  1  0.253808  0.250000  0.509594  1
  Cr  Cr48  1  0.746192  0.750000  0.009594  1
  Cr  Cr49  1  0.746192  0.750000  0.490406  1
  Cr  Cr50  1  0.746192  0.490406  0.750000  1
  Cr  Cr51  1  0.746192  0.009594  0.750000  1
