# generated using pymatgen
data_Mg(PO3)2
_symmetry_space_group_name_H-M   'P 1'
_cell_length_a   7.29015567
_cell_length_b   7.29015567
_cell_length_c   9.84498364
_cell_angle_alpha   98.82366260
_cell_angle_beta   109.54854100
_cell_angle_gamma   109.93670330
_symmetry_Int_Tables_number   1
_chemical_formula_structural   Mg(PO3)2
_chemical_formula_sum   'Mg4 P8 O24'
_cell_volume   441.88157950
_cell_formula_units_Z   4
loop_
 _symmetry_equiv_pos_site_id
 _symmetry_equiv_pos_as_xyz
  1  'x, y, z'
loop_
 _atom_site_type_symbol
 _atom_site_label
 _atom_site_symmetry_multiplicity
 _atom_site_fract_x
 _atom_site_fract_y
 _atom_site_fract_z
 _atom_site_occupancy
  O  O0  1  0.745993  0.092937  0.597354  1
  O  O1  1  0.995583  0.148638  0.902646  1
  O  O2  1  0.254007  0.907063  0.402646  1
  O  O3  1  0.004417  0.851362  0.097354  1
  O  O4  1  0.608109  0.289325  0.419270  1
  O  O5  1  0.370055  0.188838  0.080729  1
  O  O6  1  0.391891  0.710675  0.580730  1
  O  O7  1  0.629945  0.811162  0.919270  1
  O  O8  1  0.932520  0.214728  0.436908  1
  O  O9  1  0.277819  0.495611  0.063092  1
  O  O10  1  0.067480  0.785272  0.563092  1
  O  O11  1  0.722181  0.504389  0.936908  1
  O  O12  1  0.469845  0.350452  0.656337  1
  O  O13  1  0.194115  0.813508  0.843663  1
  O  O14  1  0.530155  0.649548  0.343663  1
  O  O15  1  0.805885  0.186492  0.156337  1
  O  O16  1  0.548494  0.126042  0.827686  1
  O  O17  1  0.798356  0.720808  0.672314  1
  O  O18  1  0.451506  0.873958  0.172314  1
  O  O19  1  0.201644  0.279192  0.327686  1
  O  O20  1  0.316672  0.312311  0.847193  1
  O  O21  1  0.965118  0.469480  0.652807  1
  O  O22  1  0.683328  0.687689  0.152807  1
  O  O23  1  0.034882  0.530520  0.347193  1
  Mg  Mg24  1  0.700051  0.950051  0.750000  1
  Mg  Mg25  1  0.299949  0.049949  0.250000  1
  Mg  Mg26  1  0.500000  0.500000  0.500000  1
  Mg  Mg27  1  0.500000  0.000000  0.000000  1
  P  P28  1  0.792644  0.255096  0.524310  1
  P  P29  1  0.230786  0.268334  0.975690  1
  P  P30  1  0.207356  0.744904  0.475690  1
  P  P31  1  0.769214  0.731666  0.024310  1
  P  P32  1  0.512730  0.314652  0.805588  1
  P  P33  1  0.009064  0.707142  0.694412  1
  P  P34  1  0.487270  0.685348  0.194412  1
  P  P35  1  0.990936  0.292858  0.305588  1
