# generated using pymatgen
data_K2SrCu(NO2)6
_symmetry_space_group_name_H-M   'P 1'
_cell_length_a   7.47921592
_cell_length_b   7.47921527
_cell_length_c   7.63690874
_cell_angle_alpha   119.25288669
_cell_angle_beta   119.25288400
_cell_angle_gamma   90.11822432
_symmetry_Int_Tables_number   1
_chemical_formula_structural   K2SrCu(NO2)6
_chemical_formula_sum   'K2 Sr1 Cu1 N6 O12'
_cell_volume   308.47841929
_cell_formula_units_Z   1
loop_
 _symmetry_equiv_pos_site_id
 _symmetry_equiv_pos_as_xyz
  1  'x, y, z'
loop_
 _atom_site_type_symbol
 _atom_site_label
 _atom_site_symmetry_multiplicity
 _atom_site_fract_x
 _atom_site_fract_y
 _atom_site_fract_z
 _atom_site_occupancy
  K  K0  1  0.250000  0.750000  0.500000  1
  K  K1  1  0.750000  0.250000  0.500000  1
  Sr  Sr2  1  0.500000  0.500000  -0.000000  1
  Cu  Cu3  1  0.000000  0.000000  -0.000000  1
  N  N4  1  0.802201  0.802201  0.000000  1
  N  N5  1  0.788275  0.788275  0.576550  1
  N  N6  1  0.197790  0.802210  1.000000  1
  N  N7  1  0.802210  0.197790  0.000000  1
  N  N8  1  0.211725  0.211725  0.423450  1
  N  N9  1  0.197799  0.197799  1.000000  1
  O  O10  1  0.357460  0.357460  0.195951  1
  O  O11  1  0.161509  0.161509  0.804049  1
  O  O12  1  0.157106  0.638572  0.000000  1
  O  O13  1  0.642540  0.642540  0.804049  1
  O  O14  1  0.625718  0.829110  0.454828  1
  O  O15  1  0.374282  0.170890  0.545172  1
  O  O16  1  0.638572  0.157106  1.000000  1
  O  O17  1  0.838491  0.838491  0.195951  1
  O  O18  1  0.829110  0.625718  0.454828  1
  O  O19  1  0.361428  0.842894  0.000000  1
  O  O20  1  0.170890  0.374282  0.545172  1
  O  O21  1  0.842894  0.361428  1.000000  1
