# generated using pymatgen
data_Ba2V(SiO4)2
_symmetry_space_group_name_H-M   'P 1'
_cell_length_a   5.33279263
_cell_length_b   8.60498376
_cell_length_c   8.60498376
_cell_angle_alpha   90.00000000
_cell_angle_beta   90.00000000
_cell_angle_gamma   90.00000000
_symmetry_Int_Tables_number   1
_chemical_formula_structural   Ba2V(SiO4)2
_chemical_formula_sum   'Ba4 V2 Si4 O16'
_cell_volume   394.87060594
_cell_formula_units_Z   2
loop_
 _symmetry_equiv_pos_site_id
 _symmetry_equiv_pos_as_xyz
  1  'x, y, z'
loop_
 _atom_site_type_symbol
 _atom_site_label
 _atom_site_symmetry_multiplicity
 _atom_site_fract_x
 _atom_site_fract_y
 _atom_site_fract_z
 _atom_site_occupancy
  O  O0  1  0.225592  0.500000  0.500000  1
  O  O1  1  0.225592  0.000000  0.000000  1
  O  O2  1  0.652851  0.077399  0.793574  1
  O  O3  1  0.652851  0.922601  0.206426  1
  O  O4  1  0.652851  0.793574  0.922601  1
  O  O5  1  0.652851  0.206426  0.077399  1
  O  O6  1  0.652851  0.706426  0.422601  1
  O  O7  1  0.652851  0.577399  0.706426  1
  O  O8  1  0.652851  0.422601  0.293574  1
  O  O9  1  0.652851  0.293574  0.577399  1
  O  O10  1  0.631208  0.000000  0.500000  1
  O  O11  1  0.631208  0.500000  0.000000  1
  O  O12  1  0.217706  0.129185  0.629185  1
  O  O13  1  0.217706  0.370815  0.129185  1
  O  O14  1  0.217706  0.629185  0.870815  1
  O  O15  1  0.217706  0.870815  0.370815  1
  Si  Si16  1  0.519561  0.870527  0.370527  1
  Si  Si17  1  0.519561  0.629473  0.870527  1
  Si  Si18  1  0.519561  0.370527  0.129473  1
  Si  Si19  1  0.519561  0.129473  0.629473  1
  V  V20  1  0.538654  0.500000  0.500000  1
  V  V21  1  0.538654  0.000000  0.000000  1
  Ba  Ba22  1  0.995654  0.671665  0.171665  1
  Ba  Ba23  1  0.995654  0.828335  0.671665  1
  Ba  Ba24  1  0.995654  0.171665  0.328335  1
  Ba  Ba25  1  0.995654  0.328335  0.828335  1
