# generated using pymatgen
data_Li2MgSiO4
_symmetry_space_group_name_H-M   'P 1'
_cell_length_a   5.07057237
_cell_length_b   6.35910216
_cell_length_c   10.80212758
_cell_angle_alpha   90.00000000
_cell_angle_beta   90.00000000
_cell_angle_gamma   90.44725979
_symmetry_Int_Tables_number   1
_chemical_formula_structural   Li2MgSiO4
_chemical_formula_sum   'Li8 Mg4 Si4 O16'
_cell_volume   348.29629751
_cell_formula_units_Z   4
loop_
 _symmetry_equiv_pos_site_id
 _symmetry_equiv_pos_as_xyz
  1  'x, y, z'
loop_
 _atom_site_type_symbol
 _atom_site_label
 _atom_site_symmetry_multiplicity
 _atom_site_fract_x
 _atom_site_fract_y
 _atom_site_fract_z
 _atom_site_occupancy
  Li  Li0  1  0.306765  0.995749  0.162078  1
  Li  Li1  1  0.193235  0.504251  0.662078  1
  Li  Li2  1  0.693235  0.004251  0.837922  1
  Li  Li3  1  0.806765  0.495749  0.337922  1
  Li  Li4  1  0.704059  0.236945  0.073946  1
  Li  Li5  1  0.795941  0.263055  0.573946  1
  Li  Li6  1  0.295941  0.763055  0.926054  1
  Li  Li7  1  0.204059  0.736945  0.426054  1
  O  O8  1  0.294178  0.040864  0.838614  1
  O  O9  1  0.705822  0.959136  0.161386  1
  O  O10  1  0.794178  0.540864  0.661386  1
  O  O11  1  0.637352  0.244746  0.408939  1
  O  O12  1  0.205822  0.459136  0.338614  1
  O  O13  1  0.701081  0.533605  0.159394  1
  O  O14  1  0.798919  0.966395  0.659394  1
  O  O15  1  0.298919  0.466395  0.840606  1
  O  O16  1  0.206057  0.251360  0.556856  1
  O  O17  1  0.862648  0.255254  0.908939  1
  O  O18  1  0.362648  0.755254  0.591061  1
  O  O19  1  0.137352  0.744746  0.091061  1
  O  O20  1  0.706057  0.751360  0.943144  1
  O  O21  1  0.293943  0.248640  0.056856  1
  O  O22  1  0.793943  0.748640  0.443144  1
  O  O23  1  0.201081  0.033605  0.340606  1
  Mg  Mg24  1  0.307928  0.498455  0.164474  1
  Mg  Mg25  1  0.692072  0.501545  0.835526  1
  Mg  Mg26  1  0.807928  0.998455  0.335526  1
  Mg  Mg27  1  0.192072  0.001545  0.664474  1
  Si  Si28  1  0.188849  0.252244  0.912570  1
  Si  Si29  1  0.688849  0.752244  0.587430  1
  Si  Si30  1  0.811151  0.747756  0.087430  1
  Si  Si31  1  0.311151  0.247756  0.412570  1
