# generated using pymatgen
data_Nd4Si2Se3O7
_symmetry_space_group_name_H-M   'P 1'
_cell_length_a   11.27998017
_cell_length_b   11.27998017
_cell_length_c   11.27998018
_cell_angle_alpha   99.72825182
_cell_angle_beta   114.55158271
_cell_angle_gamma   114.55158269
_symmetry_Int_Tables_number   1
_chemical_formula_structural   Nd4Si2Se3O7
_chemical_formula_sum   'Nd16 Si8 Se12 O28'
_cell_volume   1081.48953837
_cell_formula_units_Z   4
loop_
 _symmetry_equiv_pos_site_id
 _symmetry_equiv_pos_as_xyz
  1  'x, y, z'
loop_
 _atom_site_type_symbol
 _atom_site_label
 _atom_site_symmetry_multiplicity
 _atom_site_fract_x
 _atom_site_fract_y
 _atom_site_fract_z
 _atom_site_occupancy
  O  O0  1  0.250000  0.390282  0.140282  1
  O  O1  1  0.750000  0.140282  0.390282  1
  O  O2  1  0.750000  0.609718  0.859718  1
  O  O3  1  0.250000  0.859718  0.609718  1
  O  O4  1  0.023771  0.830567  0.354338  1
  O  O5  1  0.476229  0.830567  0.806796  1
  O  O6  1  0.476229  0.645662  0.169433  1
  O  O7  1  0.976229  0.806796  0.830567  1
  O  O8  1  0.523771  0.354338  0.830567  1
  O  O9  1  0.523771  0.169433  0.193204  1
  O  O10  1  0.976229  0.169433  0.645662  1
  O  O11  1  0.023771  0.193204  0.169433  1
  O  O12  1  0.772127  0.922667  0.431723  1
  O  O13  1  0.727873  0.159596  0.150540  1
  O  O14  1  0.727873  0.568277  0.077333  1
  O  O15  1  0.990944  0.150540  0.922667  1
  O  O16  1  0.227873  0.150540  0.159596  1
  O  O17  1  0.772127  0.849460  0.840404  1
  O  O18  1  0.490944  0.922667  0.150540  1
  O  O19  1  0.490944  0.568277  0.840404  1
  O  O20  1  0.009056  0.849460  0.077333  1
  O  O21  1  0.272127  0.431723  0.922667  1
  O  O22  1  0.272127  0.840404  0.849460  1
  O  O23  1  0.227873  0.077333  0.568277  1
  O  O24  1  0.509056  0.431723  0.159596  1
  O  O25  1  0.509056  0.077333  0.849460  1
  O  O26  1  0.990944  0.840404  0.568277  1
  O  O27  1  0.009056  0.159596  0.431723  1
  Si  Si28  1  0.373957  0.906407  0.780364  1
  Si  Si29  1  0.126043  0.906407  0.532449  1
  Si  Si30  1  0.126043  0.219636  0.093593  1
  Si  Si31  1  0.626043  0.532449  0.906407  1
  Si  Si32  1  0.873957  0.780364  0.906407  1
  Si  Si33  1  0.873957  0.093593  0.467551  1
  Si  Si34  1  0.626043  0.093593  0.219636  1
  Si  Si35  1  0.373957  0.467551  0.093593  1
  Se  Se36  1  0.250000  0.125000  0.875000  1
  Se  Se37  1  0.750000  0.875000  0.125000  1
  Se  Se38  1  0.750000  0.375000  0.625000  1
  Se  Se39  1  0.250000  0.625000  0.375000  1
  Se  Se40  1  0.854009  0.500000  0.354009  1
  Se  Se41  1  0.854009  0.354009  0.000000  1
  Se  Se42  1  0.645991  0.645991  0.500000  1
  Se  Se43  1  0.645991  0.000000  0.645991  1
  Se  Se44  1  0.145991  0.500000  0.645991  1
  Se  Se45  1  0.145991  0.645991  0.000000  1
  Se  Se46  1  0.354009  0.354009  0.500000  1
  Se  Se47  1  0.354009  0.000000  0.354009  1
  Nd  Nd48  1  0.250000  0.952517  0.047483  1
  Nd  Nd49  1  0.250000  0.297483  0.702517  1
  Nd  Nd50  1  0.094967  0.047483  0.297483  1
  Nd  Nd51  1  0.405033  0.702517  0.952517  1
  Nd  Nd52  1  0.905033  0.952517  0.702517  1
  Nd  Nd53  1  0.750000  0.702517  0.297483  1
  Nd  Nd54  1  0.750000  0.047483  0.952517  1
  Nd  Nd55  1  0.594967  0.297483  0.047483  1
  Nd  Nd56  1  0.010463  0.666240  0.176703  1
  Nd  Nd57  1  0.489537  0.666240  0.655777  1
  Nd  Nd58  1  0.489537  0.823297  0.333760  1
  Nd  Nd59  1  0.989537  0.655777  0.666240  1
  Nd  Nd60  1  0.510463  0.176703  0.666240  1
  Nd  Nd61  1  0.510463  0.333760  0.344223  1
  Nd  Nd62  1  0.989537  0.333760  0.823297  1
  Nd  Nd63  1  0.010463  0.344223  0.333760  1
