# generated using pymatgen
data_Lu(CrSi)2
_symmetry_space_group_name_H-M   'P 1'
_cell_length_a   3.80949989
_cell_length_b   3.80949989
_cell_length_c   5.94951787
_cell_angle_alpha   108.67211634
_cell_angle_beta   108.67211640
_cell_angle_gamma   90.00000009
_symmetry_Int_Tables_number   1
_chemical_formula_structural   Lu(CrSi)2
_chemical_formula_sum   'Lu1 Cr2 Si2'
_cell_volume   76.98440313
_cell_formula_units_Z   1
loop_
 _symmetry_equiv_pos_site_id
 _symmetry_equiv_pos_as_xyz
  1  'x, y, z'
loop_
 _atom_site_type_symbol
 _atom_site_label
 _atom_site_symmetry_multiplicity
 _atom_site_fract_x
 _atom_site_fract_y
 _atom_site_fract_z
 _atom_site_occupancy
  Si  Si0  1  0.613472  0.613472  0.226944  1
  Si  Si1  1  0.386528  0.386528  0.773056  1
  Cr  Cr2  1  0.250000  0.750000  0.500000  1
  Cr  Cr3  1  0.750000  0.250000  0.500000  1
  Lu  Lu4  1  0.000000  0.000000  0.000000  1
