# generated using pymatgen
data_TeMoWSeS2
_symmetry_space_group_name_H-M   'P 1'
_cell_length_a   3.30428229
_cell_length_b   3.30429246
_cell_length_c   37.59602686
_cell_angle_alpha   89.99919615
_cell_angle_beta   89.99996851
_cell_angle_gamma   119.99983474
_symmetry_Int_Tables_number   1
_chemical_formula_structural   TeMoWSeS2
_chemical_formula_sum   'Te2 Mo2 W2 Se2 S4'
_cell_volume   355.49126004
_cell_formula_units_Z   2
loop_
 _symmetry_equiv_pos_site_id
 _symmetry_equiv_pos_as_xyz
  1  'x, y, z'
loop_
 _atom_site_type_symbol
 _atom_site_label
 _atom_site_symmetry_multiplicity
 _atom_site_fract_x
 _atom_site_fract_y
 _atom_site_fract_z
 _atom_site_occupancy
  Te  Te0  1  0.666643  0.333285  0.043094  1
  Te  Te1  1  0.666640  0.333279  0.144721  1
  Mo  Mo2  1  0.333306  0.666612  0.093890  1
  Mo  Mo3  1  0.333307  0.666614  0.469632  1
  W  W4  1  0.666693  0.333387  0.281793  1
  W  W5  1  0.666692  0.333385  0.657555  1
  Se  Se6  1  0.666651  0.333302  0.425017  1
  Se  Se7  1  0.666641  0.333282  0.514324  1
  S  S8  1  0.333354  0.666709  0.322603  1
  S  S9  1  0.333353  0.666707  0.698340  1
  S  S10  1  0.333360  0.666719  0.241023  1
  S  S11  1  0.333359  0.666718  0.616755  1
