# generated using pymatgen
data_MoWSe3S
_symmetry_space_group_name_H-M   'P 1'
_cell_length_a   3.29145988
_cell_length_b   3.29145400
_cell_length_c   37.40797168
_cell_angle_alpha   90.00014272
_cell_angle_beta   90.00000000
_cell_angle_gamma   120.00005911
_symmetry_Int_Tables_number   1
_chemical_formula_structural   MoWSe3S
_chemical_formula_sum   'Mo2 W2 Se6 S2'
_cell_volume   350.97072209
_cell_formula_units_Z   2
loop_
 _symmetry_equiv_pos_site_id
 _symmetry_equiv_pos_as_xyz
  1  'x, y, z'
loop_
 _atom_site_type_symbol
 _atom_site_label
 _atom_site_symmetry_multiplicity
 _atom_site_fract_x
 _atom_site_fract_y
 _atom_site_fract_z
 _atom_site_occupancy
  Mo  Mo0  1  0.333314  0.666628  0.093920  1
  Mo  Mo1  1  0.666685  0.333369  0.281798  1
  W  W2  1  0.333314  0.666627  0.469651  1
  W  W3  1  0.666688  0.333376  0.657552  1
  Se  Se4  1  0.333360  0.666722  0.326853  1
  Se  Se5  1  0.333353  0.666706  0.702902  1
  Se  Se6  1  0.666650  0.333299  0.424322  1
  Se  Se7  1  0.666645  0.333288  0.514968  1
  Se  Se8  1  0.333353  0.666707  0.236704  1
  Se  Se9  1  0.333357  0.666716  0.612228  1
  S  S10  1  0.666646  0.333291  0.052929  1
  S  S11  1  0.666636  0.333271  0.134921  1
