# generated using pymatgen
data_Zn2Mo3O8
_symmetry_space_group_name_H-M   'P 1'
_cell_length_a   5.87598452
_cell_length_b   5.87598452
_cell_length_c   10.07519127
_cell_angle_alpha   90.00000000
_cell_angle_beta   90.00000000
_cell_angle_gamma   119.99999998
_symmetry_Int_Tables_number   1
_chemical_formula_structural   Zn2Mo3O8
_chemical_formula_sum   'Zn4 Mo6 O16'
_cell_volume   301.26259843
_cell_formula_units_Z   2
loop_
 _symmetry_equiv_pos_site_id
 _symmetry_equiv_pos_as_xyz
  1  'x, y, z'
loop_
 _atom_site_type_symbol
 _atom_site_label
 _atom_site_symmetry_multiplicity
 _atom_site_fract_x
 _atom_site_fract_y
 _atom_site_fract_z
 _atom_site_occupancy
  O  O0  1  0.000000  0.000000  0.432426  1
  O  O1  1  0.000000  0.000000  0.932426  1
  O  O2  1  0.666667  0.333333  0.680677  1
  O  O3  1  0.333333  0.666667  0.180677  1
  O  O4  1  0.512041  0.024081  0.459997  1
  O  O5  1  0.487959  0.512041  0.959997  1
  O  O6  1  0.024081  0.512041  0.959997  1
  O  O7  1  0.975919  0.487959  0.459997  1
  O  O8  1  0.512041  0.487959  0.459997  1
  O  O9  1  0.487959  0.975919  0.959997  1
  O  O10  1  0.832891  0.167109  0.191317  1
  O  O11  1  0.665782  0.832891  0.691317  1
  O  O12  1  0.167109  0.334218  0.691317  1
  O  O13  1  0.832891  0.665782  0.191317  1
  O  O14  1  0.334218  0.167109  0.191317  1
  O  O15  1  0.167109  0.832891  0.691317  1
  Zn  Zn16  1  0.333333  0.666667  0.808158  1
  Zn  Zn17  1  0.666667  0.333333  0.308158  1
  Zn  Zn18  1  0.666667  0.333333  0.877432  1
  Zn  Zn19  1  0.333333  0.666667  0.377432  1
  Mo  Mo20  1  0.291705  0.145853  0.574947  1
  Mo  Mo21  1  0.145853  0.291705  0.074947  1
  Mo  Mo22  1  0.145853  0.854147  0.074947  1
  Mo  Mo23  1  0.854147  0.145853  0.574947  1
  Mo  Mo24  1  0.854147  0.708295  0.574947  1
  Mo  Mo25  1  0.708295  0.854147  0.074947  1
