# generated using pymatgen
data_Zn2SiO4
_symmetry_space_group_name_H-M   'P 1'
_cell_length_a   4.99737327
_cell_length_b   5.10975266
_cell_length_c   10.43236070
_cell_angle_alpha   90.00000000
_cell_angle_beta   90.00000000
_cell_angle_gamma   90.00000000
_symmetry_Int_Tables_number   1
_chemical_formula_structural   Zn2SiO4
_chemical_formula_sum   'Zn8 Si4 O16'
_cell_volume   266.39389166
_cell_formula_units_Z   4
loop_
 _symmetry_equiv_pos_site_id
 _symmetry_equiv_pos_as_xyz
  1  'x, y, z'
loop_
 _atom_site_type_symbol
 _atom_site_label
 _atom_site_symmetry_multiplicity
 _atom_site_fract_x
 _atom_site_fract_y
 _atom_site_fract_z
 _atom_site_occupancy
  Zn  Zn0  1  0.496349  0.055474  0.163360  1
  Zn  Zn1  1  0.996349  0.444526  0.836640  1
  Zn  Zn2  1  0.503651  0.555474  0.336640  1
  Zn  Zn3  1  0.003651  0.944526  0.663360  1
  Zn  Zn4  1  0.503651  0.944526  0.836640  1
  Zn  Zn5  1  0.003651  0.555474  0.163360  1
  Zn  Zn6  1  0.496349  0.444526  0.663360  1
  Zn  Zn7  1  0.996349  0.055474  0.336640  1
  Si  Si8  1  0.500000  0.000000  0.500000  1
  Si  Si9  1  0.000000  0.500000  0.500000  1
  Si  Si10  1  0.500000  0.500000  0.000000  1
  Si  Si11  1  0.000000  0.000000  0.000000  1
  O  O12  1  0.701202  0.287599  0.450961  1
  O  O13  1  0.201202  0.212401  0.549039  1
  O  O14  1  0.298798  0.787599  0.049039  1
  O  O15  1  0.798798  0.712401  0.950961  1
  O  O16  1  0.298798  0.712401  0.549039  1
  O  O17  1  0.798798  0.787599  0.450961  1
  O  O18  1  0.701202  0.212401  0.950961  1
  O  O19  1  0.201202  0.287599  0.049039  1
  O  O20  1  0.385379  0.955356  0.341605  1
  O  O21  1  0.885378  0.544644  0.658395  1
  O  O22  1  0.614622  0.455356  0.158395  1
  O  O23  1  0.114622  0.044644  0.841605  1
  O  O24  1  0.614622  0.044644  0.658395  1
  O  O25  1  0.114622  0.455356  0.341605  1
  O  O26  1  0.385379  0.544644  0.841605  1
  O  O27  1  0.885378  0.955356  0.158395  1
