# generated using pymatgen
data_ZnS
_symmetry_space_group_name_H-M   'P 1'
_cell_length_a   31.54953963
_cell_length_b   31.54953963
_cell_length_c   31.54953963
_cell_angle_alpha   7.01324089
_cell_angle_beta   7.01324090
_cell_angle_gamma   7.01324089
_symmetry_Int_Tables_number   1
_chemical_formula_structural   ZnS
_chemical_formula_sum   'Zn10 S10'
_cell_volume   405.95117293
_cell_formula_units_Z   10
loop_
 _symmetry_equiv_pos_site_id
 _symmetry_equiv_pos_as_xyz
  1  'x, y, z'
loop_
 _atom_site_type_symbol
 _atom_site_label
 _atom_site_symmetry_multiplicity
 _atom_site_fract_x
 _atom_site_fract_y
 _atom_site_fract_z
 _atom_site_occupancy
  S  S0  1  0.658110  0.658110  0.658110  1
  S  S1  1  0.958056  0.958056  0.958056  1
  S  S2  1  0.258102  0.258102  0.258102  1
  S  S3  1  0.891387  0.891387  0.891387  1
  S  S4  1  0.524768  0.524768  0.524768  1
  S  S5  1  0.824723  0.824723  0.824723  1
  S  S6  1  0.124771  0.124771  0.124771  1
  S  S7  1  0.758051  0.758051  0.758051  1
  S  S8  1  0.391409  0.391409  0.391409  1
  S  S9  1  0.024757  0.024757  0.024757  1
  Zn  Zn10  1  0.633087  0.633087  0.633087  1
  Zn  Zn11  1  0.933085  0.933085  0.933085  1
  Zn  Zn12  1  0.233084  0.233084  0.233084  1
  Zn  Zn13  1  0.866415  0.866415  0.866415  1
  Zn  Zn14  1  0.499753  0.499753  0.499753  1
  Zn  Zn15  1  0.799753  0.799753  0.799753  1
  Zn  Zn16  1  0.099759  0.099759  0.099759  1
  Zn  Zn17  1  0.733067  0.733067  0.733067  1
  Zn  Zn18  1  0.366420  0.366420  0.366420  1
  Zn  Zn19  1  0.999775  0.999775  0.999775  1
