# generated using pymatgen
data_In3Rh
_symmetry_space_group_name_H-M   'P 1'
_cell_length_a   7.11215826
_cell_length_b   7.11215826
_cell_length_c   7.26452234
_cell_angle_alpha   90.00000000
_cell_angle_beta   90.00000000
_cell_angle_gamma   90.00000000
_symmetry_Int_Tables_number   1
_chemical_formula_structural   In3Rh
_chemical_formula_sum   'In12 Rh4'
_cell_volume   367.45984513
_cell_formula_units_Z   4
loop_
 _symmetry_equiv_pos_site_id
 _symmetry_equiv_pos_as_xyz
  1  'x, y, z'
loop_
 _atom_site_type_symbol
 _atom_site_label
 _atom_site_symmetry_multiplicity
 _atom_site_fract_x
 _atom_site_fract_y
 _atom_site_fract_z
 _atom_site_occupancy
  Rh  Rh0  1  0.344980  0.344980  0.000000  1
  Rh  Rh1  1  0.155020  0.844980  0.500000  1
  Rh  Rh2  1  0.844980  0.155020  0.500000  1
  Rh  Rh3  1  0.655020  0.655020  0.000000  1
  In  In4  1  0.000000  0.500000  0.000000  1
  In  In5  1  0.000000  0.500000  0.500000  1
  In  In6  1  0.500000  0.000000  0.500000  1
  In  In7  1  0.500000  0.000000  0.000000  1
  In  In8  1  0.151778  0.151778  0.256499  1
  In  In9  1  0.348222  0.651778  0.756499  1
  In  In10  1  0.651778  0.348222  0.756499  1
  In  In11  1  0.651778  0.348222  0.243501  1
  In  In12  1  0.348222  0.651778  0.243501  1
  In  In13  1  0.848222  0.848222  0.256499  1
  In  In14  1  0.151778  0.151778  0.743501  1
  In  In15  1  0.848222  0.848222  0.743501  1
