# generated using pymatgen
data_MoW(SeS)2
_symmetry_space_group_name_H-M   'P 1'
_cell_length_a   3.25791890
_cell_length_b   3.25800234
_cell_length_c   36.70940562
_cell_angle_alpha   89.99691965
_cell_angle_beta   89.99999256
_cell_angle_gamma   119.99913750
_symmetry_Int_Tables_number   1
_chemical_formula_structural   MoW(SeS)2
_chemical_formula_sum   'Mo2 W2 Se4 S4'
_cell_volume   337.44532781
_cell_formula_units_Z   2
loop_
 _symmetry_equiv_pos_site_id
 _symmetry_equiv_pos_as_xyz
  1  'x, y, z'
loop_
 _atom_site_type_symbol
 _atom_site_label
 _atom_site_symmetry_multiplicity
 _atom_site_fract_x
 _atom_site_fract_y
 _atom_site_fract_z
 _atom_site_occupancy
  Mo  Mo0  1  0.333668  0.667335  0.093887  1
  Mo  Mo1  1  0.333184  0.666368  0.469676  1
  W  W2  1  0.666588  0.333177  0.281780  1
  W  W3  1  0.666597  0.333195  0.657570  1
  Se  Se4  1  0.333223  0.666446  0.328265  1
  Se  Se5  1  0.333257  0.666515  0.704047  1
  Se  Se6  1  0.333261  0.666523  0.235303  1
  Se  Se7  1  0.333247  0.666494  0.611067  1
  S  S8  1  0.666960  0.333919  0.051876  1
  S  S9  1  0.666527  0.333053  0.427655  1
  S  S10  1  0.666955  0.333909  0.135937  1
  S  S11  1  0.666534  0.333067  0.511684  1
