# generated using pymatgen
data_EuClO2
_symmetry_space_group_name_H-M   'P 1'
_cell_length_a   3.77257427
_cell_length_b   6.38965210
_cell_length_c   6.49841549
_cell_angle_alpha   115.83963948
_cell_angle_beta   90.00000000
_cell_angle_gamma   90.00000000
_symmetry_Int_Tables_number   1
_chemical_formula_structural   EuClO2
_chemical_formula_sum   'Eu2 Cl2 O4'
_cell_volume   140.98516408
_cell_formula_units_Z   2
loop_
 _symmetry_equiv_pos_site_id
 _symmetry_equiv_pos_as_xyz
  1  'x, y, z'
loop_
 _atom_site_type_symbol
 _atom_site_label
 _atom_site_symmetry_multiplicity
 _atom_site_fract_x
 _atom_site_fract_y
 _atom_site_fract_z
 _atom_site_occupancy
  Eu  Eu0  1  0.750000  0.189454  0.379082  1
  Eu  Eu1  1  0.250000  0.810546  0.620918  1
  Cl  Cl2  1  0.750000  0.744070  0.947398  1
  Cl  Cl3  1  0.250000  0.255930  0.052602  1
  O  O4  1  0.750000  0.594321  0.434875  1
  O  O5  1  0.250000  0.405679  0.565125  1
  O  O6  1  0.750000  0.047716  0.656360  1
  O  O7  1  0.250000  0.952284  0.343640  1
