# generated using pymatgen
data_Ba3GeO
_symmetry_space_group_name_H-M   'P 1'
_cell_length_a   7.61088517
_cell_length_b   7.76563171
_cell_length_c   10.89107652
_cell_angle_alpha   90.00000000
_cell_angle_beta   90.00000000
_cell_angle_gamma   90.00000000
_symmetry_Int_Tables_number   1
_chemical_formula_structural   Ba3GeO
_chemical_formula_sum   'Ba12 Ge4 O4'
_cell_volume   643.69890287
_cell_formula_units_Z   4
loop_
 _symmetry_equiv_pos_site_id
 _symmetry_equiv_pos_as_xyz
  1  'x, y, z'
loop_
 _atom_site_type_symbol
 _atom_site_label
 _atom_site_symmetry_multiplicity
 _atom_site_fract_x
 _atom_site_fract_y
 _atom_site_fract_z
 _atom_site_occupancy
  O  O0  1  0.000000  0.000000  0.500000  1
  O  O1  1  0.500000  0.500000  0.500000  1
  O  O2  1  0.500000  0.500000  0.000000  1
  O  O3  1  0.000000  0.000000  0.000000  1
  Ge  Ge4  1  0.986799  0.539781  0.750000  1
  Ge  Ge5  1  0.486799  0.960219  0.250000  1
  Ge  Ge6  1  0.513201  0.039781  0.750000  1
  Ge  Ge7  1  0.013201  0.460219  0.250000  1
  Ba  Ba8  1  0.578667  0.519589  0.250000  1
  Ba  Ba9  1  0.078667  0.980411  0.750000  1
  Ba  Ba10  1  0.921333  0.019589  0.250000  1
  Ba  Ba11  1  0.421333  0.480411  0.750000  1
  Ba  Ba12  1  0.290032  0.210523  0.458901  1
  Ba  Ba13  1  0.790032  0.289477  0.541099  1
  Ba  Ba14  1  0.209968  0.710523  0.041099  1
  Ba  Ba15  1  0.709968  0.789477  0.958901  1
  Ba  Ba16  1  0.709968  0.789477  0.541099  1
  Ba  Ba17  1  0.209968  0.710523  0.458901  1
  Ba  Ba18  1  0.790032  0.289477  0.958901  1
  Ba  Ba19  1  0.290032  0.210523  0.041099  1
