# generated using pymatgen
data_Te2MoWSeS
_symmetry_space_group_name_H-M   'P 1'
_cell_length_a   3.40166362
_cell_length_b   3.40162665
_cell_length_c   39.82375891
_cell_angle_alpha   89.99998947
_cell_angle_beta   90.00000000
_cell_angle_gamma   120.00035953
_symmetry_Int_Tables_number   1
_chemical_formula_structural   Te2MoWSeS
_chemical_formula_sum   'Te4 Mo2 W2 Se2 S2'
_cell_volume   399.07021869
_cell_formula_units_Z   2
loop_
 _symmetry_equiv_pos_site_id
 _symmetry_equiv_pos_as_xyz
  1  'x, y, z'
loop_
 _atom_site_type_symbol
 _atom_site_label
 _atom_site_symmetry_multiplicity
 _atom_site_fract_x
 _atom_site_fract_y
 _atom_site_fract_z
 _atom_site_occupancy
  Te  Te0  1  0.333346  0.666692  0.705922  1
  Te  Te1  1  0.666685  0.333370  0.421467  1
  Te  Te2  1  0.666684  0.333367  0.515947  1
  Te  Te3  1  0.333345  0.666692  0.611439  1
  Mo  Mo4  1  0.333303  0.666606  0.094043  1
  Mo  Mo5  1  0.666673  0.333345  0.281457  1
  W  W6  1  0.333350  0.666701  0.468687  1
  W  W7  1  0.666683  0.333365  0.658702  1
  Se  Se8  1  0.333332  0.666664  0.322829  1
  Se  Se9  1  0.333340  0.666681  0.240148  1
  S  S10  1  0.666636  0.333270  0.056320  1
  S  S11  1  0.666624  0.333248  0.131787  1
