# generated using pymatgen
data_Ce(MnAl2)4
_symmetry_space_group_name_H-M   'P 1'
_cell_length_a   5.16728685
_cell_length_b   6.76768985
_cell_length_c   6.76768985
_cell_angle_alpha   81.61975999
_cell_angle_beta   67.55716324
_cell_angle_gamma   67.55716324
_symmetry_Int_Tables_number   1
_chemical_formula_structural   Ce(MnAl2)4
_chemical_formula_sum   'Ce1 Mn4 Al8'
_cell_volume   202.17739692
_cell_formula_units_Z   1
loop_
 _symmetry_equiv_pos_site_id
 _symmetry_equiv_pos_as_xyz
  1  'x, y, z'
loop_
 _atom_site_type_symbol
 _atom_site_label
 _atom_site_symmetry_multiplicity
 _atom_site_fract_x
 _atom_site_fract_y
 _atom_site_fract_z
 _atom_site_occupancy
  Al  Al0  1  0.340197  0.659803  0.659803  1
  Al  Al1  1  0.000000  0.340197  0.659803  1
  Al  Al2  1  0.000000  0.659803  0.340197  1
  Al  Al3  1  0.659803  0.340197  0.340197  1
  Al  Al4  1  0.274294  0.225706  0.225706  1
  Al  Al5  1  0.500000  0.774294  0.225706  1
  Al  Al6  1  0.500000  0.225706  0.774294  1
  Al  Al7  1  0.725706  0.774294  0.774294  1
  Mn  Mn8  1  0.000000  0.000000  0.500000  1
  Mn  Mn9  1  0.500000  0.000000  0.500000  1
  Mn  Mn10  1  0.000000  0.500000  0.000000  1
  Mn  Mn11  1  0.500000  0.500000  0.000000  1
  Ce  Ce12  1  0.000000  0.000000  0.000000  1
