# generated using pymatgen
data_Nb2O5
_symmetry_space_group_name_H-M   'P 1'
_cell_length_a   4.04263214
_cell_length_b   4.04263262
_cell_length_c   5.88126079
_cell_angle_alpha   68.90540342
_cell_angle_beta   68.90541134
_cell_angle_gamma   80.85698673
_symmetry_Int_Tables_number   1
_chemical_formula_structural   Nb2O5
_chemical_formula_sum   'Nb2 O5'
_cell_volume   83.61868476
_cell_formula_units_Z   1
loop_
 _symmetry_equiv_pos_site_id
 _symmetry_equiv_pos_as_xyz
  1  'x, y, z'
loop_
 _atom_site_type_symbol
 _atom_site_label
 _atom_site_symmetry_multiplicity
 _atom_site_fract_x
 _atom_site_fract_y
 _atom_site_fract_z
 _atom_site_occupancy
  O  O0  1  0.280290  0.719710  0.500001  1
  O  O1  1  0.636938  0.213555  0.352252  1
  O  O2  1  0.240424  0.112490  0.038557  1
  O  O3  1  0.786444  0.363062  0.647750  1
  O  O4  1  0.887510  0.759575  0.961445  1
  Nb  Nb5  1  0.849246  0.768853  0.294010  1
  Nb  Nb6  1  0.231146  0.150754  0.705991  1
