# generated using pymatgen
data_Ca3Al2O6
_symmetry_space_group_name_H-M   'P 1'
_cell_length_a   15.40889798
_cell_length_b   15.40889798
_cell_length_c   15.40889798
_cell_angle_alpha   90.00000000
_cell_angle_beta   90.00000000
_cell_angle_gamma   90.00000000
_symmetry_Int_Tables_number   1
_chemical_formula_structural   Ca3Al2O6
_chemical_formula_sum   'Ca72 Al48 O144'
_cell_volume   3658.59839336
_cell_formula_units_Z   24
loop_
 _symmetry_equiv_pos_site_id
 _symmetry_equiv_pos_as_xyz
  1  'x, y, z'
loop_
 _atom_site_type_symbol
 _atom_site_label
 _atom_site_symmetry_multiplicity
 _atom_site_fract_x
 _atom_site_fract_y
 _atom_site_fract_z
 _atom_site_occupancy
  O  O0  1  0.284498  0.123071  0.011290  1
  O  O1  1  0.011290  0.284498  0.123071  1
  O  O2  1  0.123071  0.011290  0.284498  1
  O  O3  1  0.376929  0.988710  0.784498  1
  O  O4  1  0.511290  0.215502  0.876929  1
  O  O5  1  0.876929  0.511290  0.215502  1
  O  O6  1  0.488710  0.715502  0.623071  1
  O  O7  1  0.988710  0.784498  0.376929  1
  O  O8  1  0.623071  0.488710  0.715502  1
  O  O9  1  0.784498  0.376929  0.988710  1
  O  O10  1  0.715502  0.623071  0.488710  1
  O  O11  1  0.215502  0.876929  0.511290  1
  O  O12  1  0.715502  0.876929  0.988710  1
  O  O13  1  0.988710  0.715502  0.876929  1
  O  O14  1  0.876929  0.988710  0.715502  1
  O  O15  1  0.623071  0.011290  0.215502  1
  O  O16  1  0.488710  0.784498  0.123071  1
  O  O17  1  0.123071  0.488710  0.784498  1
  O  O18  1  0.511290  0.284498  0.376929  1
  O  O19  1  0.011290  0.215502  0.623071  1
  O  O20  1  0.376929  0.511290  0.284498  1
  O  O21  1  0.215502  0.623071  0.011290  1
  O  O22  1  0.284498  0.376929  0.511290  1
  O  O23  1  0.784498  0.123071  0.488710  1
  O  O24  1  0.482564  0.131042  0.260575  1
  O  O25  1  0.260575  0.482564  0.131042  1
  O  O26  1  0.131042  0.260575  0.482564  1
  O  O27  1  0.368958  0.739425  0.982564  1
  O  O28  1  0.760575  0.017436  0.868958  1
  O  O29  1  0.868958  0.760575  0.017436  1
  O  O30  1  0.239425  0.517436  0.631042  1
  O  O31  1  0.739425  0.982564  0.368958  1
  O  O32  1  0.631042  0.239425  0.517436  1
  O  O33  1  0.982564  0.368958  0.739425  1
  O  O34  1  0.517436  0.631042  0.239425  1
  O  O35  1  0.017436  0.868958  0.760575  1
  O  O36  1  0.517436  0.868958  0.739425  1
  O  O37  1  0.739425  0.517436  0.868958  1
  O  O38  1  0.868958  0.739425  0.517436  1
  O  O39  1  0.631042  0.260575  0.017436  1
  O  O40  1  0.239425  0.982564  0.131042  1
  O  O41  1  0.131042  0.239425  0.982564  1
  O  O42  1  0.760575  0.482564  0.368958  1
  O  O43  1  0.260575  0.017436  0.631042  1
  O  O44  1  0.368958  0.760575  0.482564  1
  O  O45  1  0.017436  0.631042  0.260575  1
  O  O46  1  0.482564  0.368958  0.760575  1
  O  O47  1  0.982564  0.131042  0.239425  1
  O  O48  1  0.263605  0.283134  0.104310  1
  O  O49  1  0.104310  0.263605  0.283134  1
  O  O50  1  0.283134  0.104310  0.263605  1
  O  O51  1  0.216866  0.895690  0.763605  1
  O  O52  1  0.604310  0.236395  0.716866  1
  O  O53  1  0.716866  0.604310  0.236395  1
  O  O54  1  0.395690  0.736395  0.783134  1
  O  O55  1  0.895690  0.763605  0.216866  1
  O  O56  1  0.783134  0.395690  0.736395  1
  O  O57  1  0.763605  0.216866  0.895690  1
  O  O58  1  0.736395  0.783134  0.395690  1
  O  O59  1  0.236395  0.716866  0.604310  1
  O  O60  1  0.736395  0.716866  0.895690  1
  O  O61  1  0.895690  0.736395  0.716866  1
  O  O62  1  0.716866  0.895690  0.736395  1
  O  O63  1  0.783134  0.104310  0.236395  1
  O  O64  1  0.395690  0.763605  0.283134  1
  O  O65  1  0.283134  0.395690  0.763605  1
  O  O66  1  0.604310  0.263605  0.216866  1
  O  O67  1  0.104310  0.236395  0.783134  1
  O  O68  1  0.216866  0.604310  0.263605  1
  O  O69  1  0.236395  0.783134  0.104310  1
  O  O70  1  0.263605  0.216866  0.604310  1
  O  O71  1  0.763605  0.283134  0.395690  1
  O  O72  1  0.236370  0.403879  0.290390  1
  O  O73  1  0.290390  0.236370  0.403879  1
  O  O74  1  0.403879  0.290390  0.236370  1
  O  O75  1  0.096121  0.709610  0.736370  1
  O  O76  1  0.790390  0.263630  0.596121  1
  O  O77  1  0.596121  0.790390  0.263630  1
  O  O78  1  0.209610  0.763630  0.903879  1
  O  O79  1  0.709610  0.736370  0.096121  1
  O  O80  1  0.903879  0.209610  0.763630  1
  O  O81  1  0.736370  0.096121  0.709610  1
  O  O82  1  0.763630  0.903879  0.209610  1
  O  O83  1  0.263630  0.596121  0.790390  1
  O  O84  1  0.763630  0.596121  0.709610  1
  O  O85  1  0.709610  0.763630  0.596121  1
  O  O86  1  0.596121  0.709610  0.763630  1
  O  O87  1  0.903879  0.290390  0.263630  1
  O  O88  1  0.209610  0.736370  0.403879  1
  O  O89  1  0.403879  0.209610  0.736370  1
  O  O90  1  0.790390  0.236370  0.096121  1
  O  O91  1  0.290390  0.263630  0.903879  1
  O  O92  1  0.096121  0.790390  0.236370  1
  O  O93  1  0.263630  0.903879  0.290390  1
  O  O94  1  0.236370  0.096121  0.790390  1
  O  O95  1  0.736370  0.403879  0.209610  1
  O  O96  1  0.347471  0.956326  0.988327  1
  O  O97  1  0.988327  0.347471  0.956326  1
  O  O98  1  0.956326  0.988327  0.347471  1
  O  O99  1  0.543674  0.011673  0.847471  1
  O  O100  1  0.488327  0.152529  0.043674  1
  O  O101  1  0.043674  0.488327  0.152529  1
  O  O102  1  0.511673  0.652529  0.456326  1
  O  O103  1  0.011673  0.847471  0.543674  1
  O  O104  1  0.456326  0.511673  0.652529  1
  O  O105  1  0.847471  0.543674  0.011673  1
  O  O106  1  0.652529  0.456326  0.511673  1
  O  O107  1  0.152529  0.043674  0.488327  1
  O  O108  1  0.652529  0.043674  0.011673  1
  O  O109  1  0.011673  0.652529  0.043674  1
  O  O110  1  0.043674  0.011673  0.652529  1
  O  O111  1  0.456326  0.988327  0.152529  1
  O  O112  1  0.511673  0.847471  0.956326  1
  O  O113  1  0.956326  0.511673  0.847471  1
  O  O114  1  0.488327  0.347471  0.543674  1
  O  O115  1  0.988327  0.152529  0.456326  1
  O  O116  1  0.543674  0.488327  0.347471  1
  O  O117  1  0.152529  0.456326  0.988327  1
  O  O118  1  0.347471  0.543674  0.488327  1
  O  O119  1  0.847471  0.956326  0.511673  1
  O  O120  1  0.151298  0.994545  0.970223  1
  O  O121  1  0.970223  0.151298  0.994545  1
  O  O122  1  0.994545  0.970223  0.151298  1
  O  O123  1  0.505455  0.029777  0.651298  1
  O  O124  1  0.470223  0.348702  0.005455  1
  O  O125  1  0.005455  0.470223  0.348702  1
  O  O126  1  0.529777  0.848702  0.494545  1
  O  O127  1  0.029777  0.651298  0.505455  1
  O  O128  1  0.494545  0.529777  0.848702  1
  O  O129  1  0.651298  0.505455  0.029777  1
  O  O130  1  0.848702  0.494545  0.529777  1
  O  O131  1  0.348702  0.005455  0.470223  1
  O  O132  1  0.848702  0.005455  0.029777  1
  O  O133  1  0.029777  0.848702  0.005455  1
  O  O134  1  0.005455  0.029777  0.848702  1
  O  O135  1  0.494545  0.970223  0.348702  1
  O  O136  1  0.529777  0.651298  0.994545  1
  O  O137  1  0.994545  0.529777  0.651298  1
  O  O138  1  0.470223  0.151298  0.505455  1
  O  O139  1  0.970223  0.348702  0.494545  1
  O  O140  1  0.505455  0.470223  0.151298  1
  O  O141  1  0.348702  0.494545  0.970223  1
  O  O142  1  0.151298  0.505455  0.470223  1
  O  O143  1  0.651298  0.994545  0.529777  1
  Al  Al144  1  0.251879  0.013208  0.019864  1
  Al  Al145  1  0.019864  0.251879  0.013208  1
  Al  Al146  1  0.013208  0.019864  0.251879  1
  Al  Al147  1  0.486792  0.980136  0.751879  1
  Al  Al148  1  0.519864  0.248121  0.986792  1
  Al  Al149  1  0.986792  0.519864  0.248121  1
  Al  Al150  1  0.480136  0.748121  0.513208  1
  Al  Al151  1  0.980136  0.751879  0.486792  1
  Al  Al152  1  0.513208  0.480136  0.748121  1
  Al  Al153  1  0.751879  0.486792  0.980136  1
  Al  Al154  1  0.748121  0.513208  0.480136  1
  Al  Al155  1  0.248121  0.986792  0.519864  1
  Al  Al156  1  0.748121  0.986792  0.980136  1
  Al  Al157  1  0.980136  0.748121  0.986792  1
  Al  Al158  1  0.986792  0.980136  0.748121  1
  Al  Al159  1  0.513208  0.019864  0.248121  1
  Al  Al160  1  0.480136  0.751879  0.013208  1
  Al  Al161  1  0.013208  0.480136  0.751879  1
  Al  Al162  1  0.519864  0.251879  0.486792  1
  Al  Al163  1  0.019864  0.248121  0.513208  1
  Al  Al164  1  0.486792  0.519864  0.251879  1
  Al  Al165  1  0.248121  0.513208  0.019864  1
  Al  Al166  1  0.251879  0.486792  0.519864  1
  Al  Al167  1  0.751879  0.013208  0.480136  1
  Al  Al168  1  0.244232  0.231123  0.004606  1
  Al  Al169  1  0.004606  0.244232  0.231123  1
  Al  Al170  1  0.231123  0.004606  0.244232  1
  Al  Al171  1  0.268877  0.995394  0.744232  1
  Al  Al172  1  0.504606  0.255768  0.768877  1
  Al  Al173  1  0.768877  0.504606  0.255768  1
  Al  Al174  1  0.495394  0.755768  0.731123  1
  Al  Al175  1  0.995394  0.744232  0.268877  1
  Al  Al176  1  0.731123  0.495394  0.755768  1
  Al  Al177  1  0.744232  0.268877  0.995394  1
  Al  Al178  1  0.755768  0.731123  0.495394  1
  Al  Al179  1  0.255768  0.768877  0.504606  1
  Al  Al180  1  0.755768  0.768877  0.995394  1
  Al  Al181  1  0.995394  0.755768  0.768877  1
  Al  Al182  1  0.768877  0.995394  0.755768  1
  Al  Al183  1  0.731123  0.004606  0.255768  1
  Al  Al184  1  0.495394  0.744232  0.231123  1
  Al  Al185  1  0.231123  0.495394  0.744232  1
  Al  Al186  1  0.504606  0.244232  0.268877  1
  Al  Al187  1  0.004606  0.255768  0.731123  1
  Al  Al188  1  0.268877  0.504606  0.244232  1
  Al  Al189  1  0.255768  0.731123  0.004606  1
  Al  Al190  1  0.244232  0.268877  0.504606  1
  Al  Al191  1  0.744232  0.231123  0.495394  1
  Ca  Ca192  1  0.000000  0.000000  0.000000  1
  Ca  Ca193  1  0.500000  0.000000  0.500000  1
  Ca  Ca194  1  0.500000  0.500000  0.000000  1
  Ca  Ca195  1  0.000000  0.500000  0.500000  1
  Ca  Ca196  1  0.500000  0.000000  0.000000  1
  Ca  Ca197  1  0.000000  0.500000  0.000000  1
  Ca  Ca198  1  0.000000  0.000000  0.500000  1
  Ca  Ca199  1  0.500000  0.500000  0.500000  1
  Ca  Ca200  1  0.253144  0.253144  0.253144  1
  Ca  Ca201  1  0.246856  0.746856  0.753144  1
  Ca  Ca202  1  0.753144  0.246856  0.746856  1
  Ca  Ca203  1  0.746856  0.753144  0.246856  1
  Ca  Ca204  1  0.746856  0.746856  0.746856  1
  Ca  Ca205  1  0.753144  0.253144  0.246856  1
  Ca  Ca206  1  0.246856  0.753144  0.253144  1
  Ca  Ca207  1  0.253144  0.246856  0.753144  1
  Ca  Ca208  1  0.370473  0.370473  0.370473  1
  Ca  Ca209  1  0.129527  0.629527  0.870473  1
  Ca  Ca210  1  0.870473  0.129527  0.629527  1
  Ca  Ca211  1  0.629527  0.870473  0.129527  1
  Ca  Ca212  1  0.629527  0.629527  0.629527  1
  Ca  Ca213  1  0.870473  0.370473  0.129527  1
  Ca  Ca214  1  0.129527  0.870473  0.370473  1
  Ca  Ca215  1  0.370473  0.129527  0.870473  1
  Ca  Ca216  1  0.140709  0.379927  0.124999  1
  Ca  Ca217  1  0.124999  0.140709  0.379927  1
  Ca  Ca218  1  0.379927  0.124999  0.140709  1
  Ca  Ca219  1  0.120073  0.875001  0.640709  1
  Ca  Ca220  1  0.624999  0.359291  0.620073  1
  Ca  Ca221  1  0.620073  0.624999  0.359291  1
  Ca  Ca222  1  0.375001  0.859291  0.879927  1
  Ca  Ca223  1  0.875001  0.640709  0.120073  1
  Ca  Ca224  1  0.879927  0.375001  0.859291  1
  Ca  Ca225  1  0.640709  0.120073  0.875001  1
  Ca  Ca226  1  0.859291  0.879927  0.375001  1
  Ca  Ca227  1  0.359291  0.620073  0.624999  1
  Ca  Ca228  1  0.859291  0.620073  0.875001  1
  Ca  Ca229  1  0.875001  0.859291  0.620073  1
  Ca  Ca230  1  0.620073  0.875001  0.859291  1
  Ca  Ca231  1  0.879927  0.124999  0.359291  1
  Ca  Ca232  1  0.375001  0.640709  0.379927  1
  Ca  Ca233  1  0.379927  0.375001  0.640709  1
  Ca  Ca234  1  0.624999  0.140709  0.120073  1
  Ca  Ca235  1  0.124999  0.359291  0.879927  1
  Ca  Ca236  1  0.120073  0.624999  0.140709  1
  Ca  Ca237  1  0.359291  0.879927  0.124999  1
  Ca  Ca238  1  0.140709  0.120073  0.624999  1
  Ca  Ca239  1  0.640709  0.379927  0.375001  1
  Ca  Ca240  1  0.380400  0.378713  0.120589  1
  Ca  Ca241  1  0.120589  0.380400  0.378713  1
  Ca  Ca242  1  0.378713  0.120589  0.380400  1
  Ca  Ca243  1  0.121287  0.879411  0.880400  1
  Ca  Ca244  1  0.620589  0.119600  0.621287  1
  Ca  Ca245  1  0.621287  0.620589  0.119600  1
  Ca  Ca246  1  0.379411  0.619600  0.878713  1
  Ca  Ca247  1  0.879411  0.880400  0.121287  1
  Ca  Ca248  1  0.878713  0.379411  0.619600  1
  Ca  Ca249  1  0.880400  0.121287  0.879411  1
  Ca  Ca250  1  0.619600  0.878713  0.379411  1
  Ca  Ca251  1  0.119600  0.621287  0.620589  1
  Ca  Ca252  1  0.619600  0.621287  0.879411  1
  Ca  Ca253  1  0.879411  0.619600  0.621287  1
  Ca  Ca254  1  0.621287  0.879411  0.619600  1
  Ca  Ca255  1  0.878713  0.120589  0.119600  1
  Ca  Ca256  1  0.379411  0.880400  0.378713  1
  Ca  Ca257  1  0.378713  0.379411  0.880400  1
  Ca  Ca258  1  0.620589  0.380400  0.121287  1
  Ca  Ca259  1  0.120589  0.119600  0.878713  1
  Ca  Ca260  1  0.121287  0.620589  0.380400  1
  Ca  Ca261  1  0.119600  0.878713  0.120589  1
  Ca  Ca262  1  0.380400  0.121287  0.620589  1
  Ca  Ca263  1  0.880400  0.378713  0.379411  1
