# generated using pymatgen
data_Hg2Te2O7
_symmetry_space_group_name_H-M   'P 1'
_cell_length_a   7.54932106
_cell_length_b   7.65116336
_cell_length_c   13.20695440
_cell_angle_alpha   77.05819302
_cell_angle_beta   73.39281428
_cell_angle_gamma   60.43934605
_symmetry_Int_Tables_number   1
_chemical_formula_structural   Hg2Te2O7
_chemical_formula_sum   'Hg8 Te8 O28'
_cell_volume   632.71516881
_cell_formula_units_Z   4
loop_
 _symmetry_equiv_pos_site_id
 _symmetry_equiv_pos_as_xyz
  1  'x, y, z'
loop_
 _atom_site_type_symbol
 _atom_site_label
 _atom_site_symmetry_multiplicity
 _atom_site_fract_x
 _atom_site_fract_y
 _atom_site_fract_z
 _atom_site_occupancy
  O  O0  1  0.287033  0.969280  0.954639  1
  O  O1  1  0.210952  0.530720  0.545361  1
  O  O2  1  0.712967  0.030720  0.045361  1
  O  O3  1  0.789048  0.469280  0.454639  1
  O  O4  1  0.377946  0.961713  0.699484  1
  O  O5  1  0.039143  0.538287  0.800516  1
  O  O6  1  0.622054  0.038287  0.300516  1
  O  O7  1  0.960857  0.461713  0.199484  1
  O  O8  1  0.422536  0.690718  0.601435  1
  O  O9  1  0.714689  0.809282  0.898565  1
  O  O10  1  0.577464  0.309282  0.398565  1
  O  O11  1  0.285311  0.190718  0.101435  1
  O  O12  1  0.127814  0.709433  0.994543  1
  O  O13  1  0.831789  0.790567  0.505457  1
  O  O14  1  0.872186  0.290567  0.005457  1
  O  O15  1  0.168211  0.209433  0.494543  1
  O  O16  1  0.110908  0.540312  0.346334  1
  O  O17  1  0.997554  0.959688  0.153666  1
  O  O18  1  0.889092  0.459688  0.653666  1
  O  O19  1  0.002446  0.040312  0.846334  1
  O  O20  1  0.388786  0.448039  0.170954  1
  O  O21  1  0.007779  0.051961  0.329046  1
  O  O22  1  0.611214  0.551961  0.829046  1
  O  O23  1  0.992221  0.948039  0.670954  1
  O  O24  1  0.544207  0.769302  0.105941  1
  O  O25  1  0.419450  0.730698  0.394059  1
  O  O26  1  0.455793  0.230698  0.894059  1
  O  O27  1  0.580550  0.269302  0.605941  1
  Te  Te28  1  0.000000  0.000000  0.000000  1
  Te  Te29  1  0.000000  0.500000  0.500000  1
  Te  Te30  1  0.500000  0.500000  0.500000  1
  Te  Te31  1  0.500000  0.000000  0.000000  1
  Te  Te32  1  0.221825  0.806206  0.742928  1
  Te  Te33  1  0.770958  0.693794  0.757072  1
  Te  Te34  1  0.778175  0.193794  0.257072  1
  Te  Te35  1  0.229042  0.306206  0.242928  1
  Hg  Hg36  1  0.000000  0.000000  0.500000  1
  Hg  Hg37  1  0.500000  0.500000  0.000000  1
  Hg  Hg38  1  0.000000  0.500000  0.000000  1
  Hg  Hg39  1  0.500000  0.000000  0.500000  1
  Hg  Hg40  1  0.234114  0.250000  0.750000  1
  Hg  Hg41  1  0.765886  0.750000  0.250000  1
  Hg  Hg42  1  0.709513  0.250000  0.750000  1
  Hg  Hg43  1  0.290487  0.750000  0.250000  1
