# generated using pymatgen
data_GdSnF7
_symmetry_space_group_name_H-M   'P 1'
_cell_length_a   5.72789679
_cell_length_b   9.11161669
_cell_length_c   11.37882985
_cell_angle_alpha   107.51179823
_cell_angle_beta   90.00000000
_cell_angle_gamma   90.00000000
_symmetry_Int_Tables_number   1
_chemical_formula_structural   GdSnF7
_chemical_formula_sum   'Gd4 Sn4 F28'
_cell_volume   566.34298233
_cell_formula_units_Z   4
loop_
 _symmetry_equiv_pos_site_id
 _symmetry_equiv_pos_as_xyz
  1  'x, y, z'
loop_
 _atom_site_type_symbol
 _atom_site_label
 _atom_site_symmetry_multiplicity
 _atom_site_fract_x
 _atom_site_fract_y
 _atom_site_fract_z
 _atom_site_occupancy
  F  F0  1  0.047451  0.827346  0.545326  1
  F  F1  1  0.547451  0.672654  0.954674  1
  F  F2  1  0.952549  0.172654  0.454674  1
  F  F3  1  0.452549  0.327346  0.045326  1
  F  F4  1  0.952294  0.372315  0.080268  1
  F  F5  1  0.452294  0.127685  0.419732  1
  F  F6  1  0.047706  0.627685  0.919732  1
  F  F7  1  0.547706  0.872315  0.580268  1
  F  F8  1  0.270278  0.621635  0.140682  1
  F  F9  1  0.770278  0.878365  0.359318  1
  F  F10  1  0.729722  0.378365  0.859318  1
  F  F11  1  0.229722  0.121635  0.640682  1
  F  F12  1  0.259245  0.920327  0.946641  1
  F  F13  1  0.759245  0.579673  0.553359  1
  F  F14  1  0.740755  0.079673  0.053359  1
  F  F15  1  0.240755  0.420327  0.446641  1
  F  F16  1  0.956623  0.583909  0.328596  1
  F  F17  1  0.456623  0.916091  0.171404  1
  F  F18  1  0.043377  0.416091  0.671404  1
  F  F19  1  0.543377  0.083909  0.828596  1
  F  F20  1  0.980282  0.872461  0.142318  1
  F  F21  1  0.480282  0.627539  0.357682  1
  F  F22  1  0.019718  0.127539  0.857682  1
  F  F23  1  0.519718  0.372461  0.642318  1
  F  F24  1  0.920386  0.795778  0.766338  1
  F  F25  1  0.420386  0.704222  0.733662  1
  F  F26  1  0.079614  0.204222  0.233662  1
  F  F27  1  0.579614  0.295778  0.266338  1
  Sn  Sn28  1  0.756432  0.729742  0.456743  1
  Sn  Sn29  1  0.256432  0.770258  0.043257  1
  Sn  Sn30  1  0.243568  0.270258  0.543257  1
  Sn  Sn31  1  0.743568  0.229742  0.956743  1
  Gd  Gd32  1  0.242061  0.921619  0.734606  1
  Gd  Gd33  1  0.742061  0.578381  0.765394  1
  Gd  Gd34  1  0.757939  0.078381  0.265394  1
  Gd  Gd35  1  0.257939  0.421619  0.234606  1
