# generated using pymatgen
data_NbCl2O
_symmetry_space_group_name_H-M   'P 1'
_cell_length_a   3.96527476
_cell_length_b   7.32490356
_cell_length_c   6.76833105
_cell_angle_alpha   103.74573920
_cell_angle_beta   90.00000000
_cell_angle_gamma   105.70418621
_symmetry_Int_Tables_number   1
_chemical_formula_structural   NbCl2O
_chemical_formula_sum   'Nb2 Cl4 O2'
_cell_volume   183.39418524
_cell_formula_units_Z   2
loop_
 _symmetry_equiv_pos_site_id
 _symmetry_equiv_pos_as_xyz
  1  'x, y, z'
loop_
 _atom_site_type_symbol
 _atom_site_label
 _atom_site_symmetry_multiplicity
 _atom_site_fract_x
 _atom_site_fract_y
 _atom_site_fract_z
 _atom_site_occupancy
  Nb  Nb0  1  0.957120  0.999822  0.719883  1
  Nb  Nb1  1  0.957298  0.000178  0.280117  1
  Cl  Cl2  1  0.885725  0.753113  0.936980  1
  Cl  Cl3  1  0.132612  0.246887  0.063020  1
  Cl  Cl4  1  0.857316  0.713655  0.426183  1
  Cl  Cl5  1  0.143662  0.286345  0.573817  1
  O  O6  1  0.496802  0.999335  0.727173  1
  O  O7  1  0.497466  0.000665  0.272827  1
