# generated using pymatgen
data_ZrGe
_symmetry_space_group_name_H-M   'P 1'
_cell_length_a   3.93453797
_cell_length_b   7.12069502
_cell_length_c   5.43746704
_cell_angle_alpha   90.00000000
_cell_angle_beta   90.00000000
_cell_angle_gamma   90.00000000
_symmetry_Int_Tables_number   1
_chemical_formula_structural   ZrGe
_chemical_formula_sum   'Zr4 Ge4'
_cell_volume   152.33958337
_cell_formula_units_Z   4
loop_
 _symmetry_equiv_pos_site_id
 _symmetry_equiv_pos_as_xyz
  1  'x, y, z'
loop_
 _atom_site_type_symbol
 _atom_site_label
 _atom_site_symmetry_multiplicity
 _atom_site_fract_x
 _atom_site_fract_y
 _atom_site_fract_z
 _atom_site_occupancy
  Zr  Zr0  1  0.750000  0.823793  0.369286  1
  Zr  Zr1  1  0.250000  0.176207  0.630714  1
  Zr  Zr2  1  0.250000  0.676207  0.869286  1
  Zr  Zr3  1  0.750000  0.323793  0.130714  1
  Ge  Ge4  1  0.750000  0.951308  0.847559  1
  Ge  Ge5  1  0.250000  0.048692  0.152441  1
  Ge  Ge6  1  0.250000  0.548692  0.347559  1
  Ge  Ge7  1  0.750000  0.451308  0.652441  1
