# generated using pymatgen
data_Ho3Si3O10F
_symmetry_space_group_name_H-M   'P 1'
_cell_length_a   7.36589079
_cell_length_b   10.43785358
_cell_length_c   11.22648102
_cell_angle_alpha   90.00000000
_cell_angle_beta   90.00000000
_cell_angle_gamma   97.29717659
_symmetry_Int_Tables_number   1
_chemical_formula_structural   Ho3Si3O10F
_chemical_formula_sum   'Ho12 Si12 O40 F4'
_cell_volume   856.14696238
_cell_formula_units_Z   4
loop_
 _symmetry_equiv_pos_site_id
 _symmetry_equiv_pos_as_xyz
  1  'x, y, z'
loop_
 _atom_site_type_symbol
 _atom_site_label
 _atom_site_symmetry_multiplicity
 _atom_site_fract_x
 _atom_site_fract_y
 _atom_site_fract_z
 _atom_site_occupancy
  O  O0  1  0.472189  0.130018  0.909374  1
  O  O1  1  0.027811  0.369982  0.409374  1
  O  O2  1  0.527811  0.869982  0.090626  1
  O  O3  1  0.972189  0.630018  0.590626  1
  O  O4  1  0.033992  0.137901  0.521768  1
  O  O5  1  0.466008  0.362099  0.021768  1
  O  O6  1  0.966008  0.862099  0.478232  1
  O  O7  1  0.533992  0.637901  0.978232  1
  O  O8  1  0.312676  0.808632  0.896083  1
  O  O9  1  0.187324  0.691368  0.396083  1
  O  O10  1  0.687324  0.191368  0.103917  1
  O  O11  1  0.812676  0.308632  0.603917  1
  O  O12  1  0.179377  0.378520  0.607880  1
  O  O13  1  0.320623  0.121480  0.107880  1
  O  O14  1  0.820623  0.621480  0.392120  1
  O  O15  1  0.679377  0.878520  0.892120  1
  O  O16  1  0.288324  0.802655  0.643228  1
  O  O17  1  0.483027  0.379348  0.725594  1
  O  O18  1  0.516973  0.620652  0.274406  1
  O  O19  1  0.983027  0.879348  0.774406  1
  O  O20  1  0.231043  0.518553  0.818975  1
  O  O21  1  0.268957  0.981447  0.318975  1
  O  O22  1  0.768957  0.481447  0.181025  1
  O  O23  1  0.731043  0.018553  0.681025  1
  O  O24  1  0.153623  0.269316  0.821610  1
  O  O25  1  0.346377  0.230684  0.321610  1
  O  O26  1  0.846377  0.730684  0.178390  1
  O  O27  1  0.653623  0.769316  0.678390  1
  O  O28  1  0.987613  0.636506  0.975490  1
  O  O29  1  0.512387  0.863494  0.475490  1
  O  O30  1  0.012387  0.363494  0.024510  1
  O  O31  1  0.487613  0.136506  0.524510  1
  O  O32  1  0.959512  0.107782  0.950251  1
  O  O33  1  0.540488  0.392218  0.450251  1
  O  O34  1  0.040488  0.892218  0.049749  1
  O  O35  1  0.459512  0.607782  0.549749  1
  O  O36  1  0.788324  0.302655  0.856772  1
  O  O37  1  0.711676  0.197345  0.356772  1
  O  O38  1  0.211676  0.697345  0.143228  1
  O  O39  1  0.016973  0.120651  0.225594  1
  F  F40  1  0.697101  0.940634  0.285635  1
  F  F41  1  0.802899  0.559366  0.785635  1
  F  F42  1  0.197101  0.440634  0.214365  1
  F  F43  1  0.302899  0.059366  0.714365  1
  Si  Si44  1  0.005250  0.291565  0.536568  1
  Si  Si45  1  0.233860  0.109882  0.244243  1
  Si  Si46  1  0.733860  0.609882  0.255757  1
  Si  Si47  1  0.766140  0.890118  0.755757  1
  Si  Si48  1  0.474257  0.759408  0.586181  1
  Si  Si49  1  0.025743  0.740592  0.086181  1
  Si  Si50  1  0.525743  0.240592  0.413819  1
  Si  Si51  1  0.974257  0.259408  0.913819  1
  Si  Si52  1  0.505250  0.791565  0.963432  1
  Si  Si53  1  0.994750  0.708435  0.463432  1
  Si  Si54  1  0.266140  0.390118  0.744243  1
  Si  Si55  1  0.494750  0.208435  0.036568  1
  Ho  Ho56  1  0.237636  0.981726  0.530768  1
  Ho  Ho57  1  0.262364  0.518274  0.030768  1
  Ho  Ho58  1  0.762364  0.018274  0.469232  1
  Ho  Ho59  1  0.737636  0.481726  0.969232  1
  Ho  Ho60  1  0.093100  0.689127  0.770839  1
  Ho  Ho61  1  0.406900  0.810873  0.270839  1
  Ho  Ho62  1  0.906900  0.310873  0.229161  1
  Ho  Ho63  1  0.593100  0.189127  0.729161  1
  Ho  Ho64  1  0.197591  0.003185  0.901529  1
  Ho  Ho65  1  0.302409  0.496815  0.401529  1
  Ho  Ho66  1  0.802409  0.996815  0.098471  1
  Ho  Ho67  1  0.697591  0.503185  0.598471  1
