# generated using pymatgen
data_Mo3W(SeS3)2
_symmetry_space_group_name_H-M   'P 1'
_cell_length_a   3.22237076
_cell_length_b   3.22217808
_cell_length_c   36.30303567
_cell_angle_alpha   90.00105847
_cell_angle_beta   90.00000000
_cell_angle_gamma   120.00197811
_symmetry_Int_Tables_number   1
_chemical_formula_structural   Mo3W(SeS3)2
_chemical_formula_sum   'Mo3 W1 Se2 S6'
_cell_volume   326.42992415
_cell_formula_units_Z   1
loop_
 _symmetry_equiv_pos_site_id
 _symmetry_equiv_pos_as_xyz
  1  'x, y, z'
loop_
 _atom_site_type_symbol
 _atom_site_label
 _atom_site_symmetry_multiplicity
 _atom_site_fract_x
 _atom_site_fract_y
 _atom_site_fract_z
 _atom_site_occupancy
  Mo  Mo0  1  0.333317  0.666635  0.093932  1
  Mo  Mo1  1  0.666691  0.333381  0.281804  1
  Mo  Mo2  1  0.666690  0.333380  0.657543  1
  W  W3  1  0.333288  0.666576  0.469656  1
  Se  Se4  1  0.666647  0.333292  0.422288  1
  Se  Se5  1  0.666658  0.333315  0.517033  1
  S  S6  1  0.333349  0.666699  0.324604  1
  S  S7  1  0.333350  0.666702  0.700376  1
  S  S8  1  0.666658  0.333316  0.051082  1
  S  S9  1  0.666665  0.333330  0.136756  1
  S  S10  1  0.333345  0.666691  0.238965  1
  S  S11  1  0.333342  0.666685  0.614708  1
