# generated using pymatgen
data_Zr3Al2
_symmetry_space_group_name_H-M   'P 1'
_cell_length_a   6.97248871
_cell_length_b   7.68481198
_cell_length_c   7.68481198
_cell_angle_alpha   90.00000000
_cell_angle_beta   90.00000000
_cell_angle_gamma   90.00000000
_symmetry_Int_Tables_number   1
_chemical_formula_structural   Zr3Al2
_chemical_formula_sum   'Zr12 Al8'
_cell_volume   411.76963021
_cell_formula_units_Z   4
loop_
 _symmetry_equiv_pos_site_id
 _symmetry_equiv_pos_as_xyz
  1  'x, y, z'
loop_
 _atom_site_type_symbol
 _atom_site_label
 _atom_site_symmetry_multiplicity
 _atom_site_fract_x
 _atom_site_fract_y
 _atom_site_fract_z
 _atom_site_occupancy
  Al  Al0  1  0.216156  0.121003  0.121003  1
  Al  Al1  1  0.716156  0.378997  0.621003  1
  Al  Al2  1  0.716156  0.621003  0.378997  1
  Al  Al3  1  0.216156  0.878997  0.878997  1
  Al  Al4  1  0.283844  0.621003  0.378997  1
  Al  Al5  1  0.283844  0.378997  0.621003  1
  Al  Al6  1  0.783844  0.121003  0.121003  1
  Al  Al7  1  0.783844  0.878997  0.878997  1
  Zr  Zr8  1  0.250000  0.000000  0.500000  1
  Zr  Zr9  1  0.750000  0.000000  0.500000  1
  Zr  Zr10  1  0.250000  0.500000  0.000000  1
  Zr  Zr11  1  0.750000  0.500000  0.000000  1
  Zr  Zr12  1  0.000000  0.341159  0.341159  1
  Zr  Zr13  1  0.500000  0.158841  0.841159  1
  Zr  Zr14  1  0.500000  0.841159  0.158841  1
  Zr  Zr15  1  0.000000  0.658841  0.658841  1
  Zr  Zr16  1  0.000000  0.197038  0.802962  1
  Zr  Zr17  1  0.500000  0.697038  0.697038  1
  Zr  Zr18  1  0.500000  0.302962  0.302962  1
  Zr  Zr19  1  0.000000  0.802962  0.197038  1
