# generated using pymatgen
data_KNa2Li3Fe2(Si2O5)6
_symmetry_space_group_name_H-M   'P 1'
_cell_length_a   10.19171078
_cell_length_b   10.19171079
_cell_length_c   14.29588260
_cell_angle_alpha   90.00000000
_cell_angle_beta   90.00000000
_cell_angle_gamma   119.99999998
_symmetry_Int_Tables_number   1
_chemical_formula_structural   KNa2Li3Fe2(Si2O5)6
_chemical_formula_sum   'K2 Na4 Li6 Fe4 Si24 O60'
_cell_volume   1285.98465552
_cell_formula_units_Z   2
loop_
 _symmetry_equiv_pos_site_id
 _symmetry_equiv_pos_as_xyz
  1  'x, y, z'
loop_
 _atom_site_type_symbol
 _atom_site_label
 _atom_site_symmetry_multiplicity
 _atom_site_fract_x
 _atom_site_fract_y
 _atom_site_fract_z
 _atom_site_occupancy
  Li  Li0  1  0.500000  0.000000  0.250000  1
  Li  Li1  1  1.000000  0.500000  0.750000  1
  Li  Li2  1  0.500000  0.500000  0.750000  1
  Li  Li3  1  0.500000  0.000000  0.750000  1
  Li  Li4  1  1.000000  0.500000  0.250000  1
  Li  Li5  1  0.500000  0.500000  0.250000  1
  O  O6  1  0.139562  0.739577  0.500000  1
  O  O7  1  0.494108  0.658451  0.829755  1
  O  O8  1  0.164343  0.505892  0.829755  1
  O  O9  1  0.835657  0.494108  0.829755  1
  O  O10  1  0.341549  0.505892  0.670245  1
  O  O11  1  0.658451  0.494108  0.670245  1
  O  O12  1  0.658451  0.164343  0.829755  1
  O  O13  1  0.835657  0.341550  0.670245  1
  O  O14  1  0.164343  0.658451  0.670245  1
  O  O15  1  0.494108  0.835657  0.670245  1
  O  O16  1  0.505892  0.341550  0.829755  1
  O  O17  1  0.341549  0.835657  0.829755  1
  O  O18  1  0.658451  0.494108  0.329755  1
  O  O19  1  0.505892  0.164343  0.329755  1
  O  O20  1  0.835657  0.341550  0.329755  1
  O  O21  1  0.164343  0.658451  0.329755  1
  O  O22  1  0.341549  0.835657  0.170245  1
  O  O23  1  0.341549  0.505892  0.329755  1
  O  O24  1  0.494108  0.835657  0.329755  1
  O  O25  1  0.505892  0.341550  0.170245  1
  O  O26  1  0.835657  0.494108  0.170245  1
  O  O27  1  0.164343  0.505892  0.170245  1
  O  O28  1  0.494108  0.658451  0.170245  1
  O  O29  1  0.658451  0.164343  0.170245  1
  O  O30  1  0.275492  0.054064  0.864785  1
  O  O31  1  0.724508  0.778572  0.635216  1
  O  O32  1  0.221428  0.945936  0.635216  1
  O  O33  1  0.778572  0.054064  0.635216  1
  O  O34  1  0.945936  0.221429  0.864785  1
  O  O35  1  0.945937  0.724508  0.635216  1
  O  O36  1  0.275492  0.221429  0.635216  1
  O  O37  1  0.724508  0.945936  0.864785  1
  O  O38  1  0.221428  0.275492  0.864785  1
  O  O39  1  0.778572  0.724508  0.864785  1
  O  O40  1  0.739576  0.139561  0.000000  1
  O  O41  1  0.600015  0.739577  0.000000  1
  O  O42  1  0.139561  0.399985  0.000000  1
  O  O43  1  0.860439  0.600016  0.000000  1
  O  O44  1  0.399985  0.260424  0.000000  1
  O  O45  1  0.600015  0.860438  0.500000  1
  O  O46  1  0.260424  0.399985  0.500000  1
  O  O47  1  0.260424  0.860438  0.000000  1
  O  O48  1  0.505892  0.164343  0.670245  1
  O  O49  1  0.860440  0.260424  0.500000  1
  O  O50  1  0.399985  0.139561  0.500000  1
  O  O51  1  0.739577  0.600016  0.500000  1
  O  O52  1  0.945936  0.221429  0.135215  1
  O  O53  1  0.724508  0.945936  0.135215  1
  O  O54  1  0.221428  0.275492  0.135215  1
  O  O55  1  0.778572  0.724508  0.135215  1
  O  O56  1  0.275492  0.054064  0.135215  1
  O  O57  1  0.724508  0.778572  0.364784  1
  O  O58  1  0.054064  0.275492  0.364784  1
  O  O59  1  0.054064  0.778572  0.135215  1
  O  O60  1  0.221428  0.945936  0.364784  1
  O  O61  1  0.778572  0.054064  0.364784  1
  O  O62  1  0.275492  0.221429  0.364784  1
  O  O63  1  0.945937  0.724508  0.364784  1
  O  O64  1  0.054064  0.778572  0.864785  1
  O  O65  1  0.054064  0.275492  0.635216  1
  Na  Na66  1  0.666666  0.333333  0.500000  1
  Na  Na67  1  0.666666  0.333333  0.000000  1
  Na  Na68  1  0.333333  0.666667  0.000000  1
  Na  Na69  1  0.333333  0.666667  0.500000  1
  Si  Si70  1  0.355195  0.119576  0.387908  1
  Si  Si71  1  0.764381  0.644805  0.612091  1
  Si  Si72  1  0.355195  0.119576  0.612091  1
  Si  Si73  1  0.644805  0.764381  0.887908  1
  Si  Si74  1  0.119576  0.355195  0.887908  1
  Si  Si75  1  0.880424  0.644805  0.887908  1
  Si  Si76  1  0.355195  0.235619  0.887908  1
  Si  Si77  1  0.235619  0.880425  0.887908  1
  Si  Si78  1  0.764381  0.644805  0.387908  1
  Si  Si79  1  0.764381  0.119576  0.887908  1
  Si  Si80  1  0.880424  0.235619  0.387908  1
  Si  Si81  1  0.119576  0.764381  0.387908  1
  Si  Si82  1  0.235619  0.880425  0.112092  1
  Si  Si83  1  0.880424  0.235619  0.612091  1
  Si  Si84  1  0.644806  0.880425  0.387908  1
  Si  Si85  1  0.355195  0.235619  0.112092  1
  Si  Si86  1  0.880424  0.644805  0.112092  1
  Si  Si87  1  0.119576  0.355195  0.112092  1
  Si  Si88  1  0.644805  0.764381  0.112092  1
  Si  Si89  1  0.764381  0.119576  0.112092  1
  Si  Si90  1  0.119576  0.764381  0.612091  1
  Si  Si91  1  0.644806  0.880425  0.612091  1
  Si  Si92  1  0.235619  0.355195  0.612091  1
  Si  Si93  1  0.235619  0.355195  0.387908  1
  K  K94  1  0.000000  0.000000  0.250000  1
  K  K95  1  0.000000  0.000000  0.750000  1
  Fe  Fe96  1  0.333333  0.666667  0.750000  1
  Fe  Fe97  1  0.666666  0.333333  0.750000  1
  Fe  Fe98  1  0.666666  0.333333  0.250000  1
  Fe  Fe99  1  0.333333  0.666667  0.250000  1
