# generated using pymatgen
data_NaAlGeO4
_symmetry_space_group_name_H-M   'P 1'
_cell_length_a   8.38498612
_cell_length_b   8.90829079
_cell_length_c   15.63316856
_cell_angle_alpha   90.10501319
_cell_angle_beta   90.00000000
_cell_angle_gamma   90.00000000
_symmetry_Int_Tables_number   1
_chemical_formula_structural   NaAlGeO4
_chemical_formula_sum   'Na12 Al12 Ge12 O48'
_cell_volume   1167.73154929
_cell_formula_units_Z   12
loop_
 _symmetry_equiv_pos_site_id
 _symmetry_equiv_pos_as_xyz
  1  'x, y, z'
loop_
 _atom_site_type_symbol
 _atom_site_label
 _atom_site_symmetry_multiplicity
 _atom_site_fract_x
 _atom_site_fract_y
 _atom_site_fract_z
 _atom_site_occupancy
  O  O0  1  0.028247  0.486271  0.894314  1
  O  O1  1  0.528247  0.013729  0.605686  1
  O  O2  1  0.971753  0.513729  0.105686  1
  O  O3  1  0.471753  0.986271  0.394314  1
  O  O4  1  0.022607  0.667773  0.550498  1
  O  O5  1  0.522607  0.832227  0.949502  1
  O  O6  1  0.977393  0.332227  0.449502  1
  O  O7  1  0.477393  0.167773  0.050498  1
  O  O8  1  0.022505  0.071879  0.809641  1
  O  O9  1  0.522505  0.428121  0.690359  1
  O  O10  1  0.977495  0.928121  0.190359  1
  O  O11  1  0.477495  0.571879  0.309641  1
  O  O12  1  0.351098  0.447993  0.848775  1
  O  O13  1  0.851098  0.052007  0.651225  1
  O  O14  1  0.648902  0.552007  0.151225  1
  O  O15  1  0.148902  0.947993  0.348775  1
  O  O16  1  0.348508  0.754714  0.550872  1
  O  O17  1  0.848508  0.745286  0.949128  1
  O  O18  1  0.651492  0.245286  0.449128  1
  O  O19  1  0.151492  0.254714  0.050872  1
  O  O20  1  0.227693  0.749367  0.872375  1
  O  O21  1  0.346830  0.058235  0.854265  1
  O  O22  1  0.653170  0.941765  0.145735  1
  O  O23  1  0.153170  0.558235  0.354265  1
  O  O24  1  0.232221  0.062508  0.520537  1
  O  O25  1  0.732221  0.437492  0.979463  1
  O  O26  1  0.767779  0.937492  0.479463  1
  O  O27  1  0.267779  0.562508  0.020537  1
  O  O28  1  0.267176  0.443998  0.520587  1
  O  O29  1  0.767176  0.056002  0.979413  1
  O  O30  1  0.732824  0.556002  0.479413  1
  O  O31  1  0.232824  0.943998  0.020587  1
  O  O32  1  0.242176  0.249103  0.708060  1
  O  O33  1  0.742176  0.250897  0.791940  1
  O  O34  1  0.757824  0.750897  0.291940  1
  O  O35  1  0.257824  0.749103  0.208060  1
  O  O36  1  0.262271  0.431544  0.192534  1
  O  O37  1  0.762271  0.068456  0.307466  1
  O  O38  1  0.737729  0.568456  0.807466  1
  O  O39  1  0.237729  0.931544  0.692534  1
  O  O40  1  0.277031  0.072309  0.189732  1
  O  O41  1  0.777031  0.427691  0.310268  1
  O  O42  1  0.722969  0.927691  0.810268  1
  O  O43  1  0.222969  0.572309  0.689732  1
  O  O44  1  0.272307  0.249367  0.372375  1
  O  O45  1  0.772307  0.250633  0.127625  1
  O  O46  1  0.727693  0.750633  0.627625  1
  O  O47  1  0.846830  0.441765  0.645735  1
  Na  Na48  1  0.476304  0.278641  0.565428  1
  Na  Na49  1  0.976304  0.221359  0.934572  1
  Na  Na50  1  0.523696  0.721359  0.434572  1
  Na  Na51  1  0.023696  0.778641  0.065428  1
  Na  Na52  1  0.031073  0.230376  0.589697  1
  Na  Na53  1  0.531073  0.269624  0.910303  1
  Na  Na54  1  0.968927  0.769624  0.410303  1
  Na  Na55  1  0.468927  0.730376  0.089697  1
  Na  Na56  1  0.052013  0.756137  0.753273  1
  Na  Na57  1  0.552013  0.743863  0.746727  1
  Na  Na58  1  0.947987  0.243863  0.246727  1
  Na  Na59  1  0.447987  0.256137  0.253273  1
  Al  Al60  1  0.333929  0.939723  0.591965  1
  Al  Al61  1  0.833929  0.560277  0.908035  1
  Al  Al62  1  0.666071  0.060277  0.408035  1
  Al  Al63  1  0.166071  0.439723  0.091965  1
  Al  Al64  1  0.330626  0.899667  0.922515  1
  Al  Al65  1  0.830626  0.600333  0.577485  1
  Al  Al66  1  0.669374  0.100333  0.077485  1
  Al  Al67  1  0.169374  0.399667  0.422515  1
  Al  Al68  1  0.329909  0.422340  0.736943  1
  Al  Al69  1  0.829909  0.077660  0.763057  1
  Al  Al70  1  0.670091  0.577660  0.263057  1
  Al  Al71  1  0.170091  0.922340  0.236943  1
  Ge  Ge72  1  0.216434  0.608519  0.578478  1
  Ge  Ge73  1  0.716434  0.891481  0.921522  1
  Ge  Ge74  1  0.783566  0.391481  0.421522  1
  Ge  Ge75  1  0.283566  0.108519  0.078478  1
  Ge  Ge76  1  0.221273  0.561620  0.909961  1
  Ge  Ge77  1  0.721273  0.938380  0.590039  1
  Ge  Ge78  1  0.778727  0.438380  0.090039  1
  Ge  Ge79  1  0.278727  0.061620  0.409961  1
  Ge  Ge80  1  0.217100  0.081610  0.766292  1
  Ge  Ge81  1  0.717100  0.418390  0.733708  1
  Ge  Ge82  1  0.782900  0.918390  0.233708  1
  Ge  Ge83  1  0.282900  0.581610  0.266292  1
