# generated using pymatgen
data_Te2Mo(WS2)3
_symmetry_space_group_name_H-M   'P 1'
_cell_length_a   3.27137767
_cell_length_b   3.27139302
_cell_length_c   37.17318115
_cell_angle_alpha   89.99933677
_cell_angle_beta   90.00000000
_cell_angle_gamma   119.99984488
_symmetry_Int_Tables_number   1
_chemical_formula_structural   Te2Mo(WS2)3
_chemical_formula_sum   'Te2 Mo1 W3 S6'
_cell_volume   344.52793911
_cell_formula_units_Z   1
loop_
 _symmetry_equiv_pos_site_id
 _symmetry_equiv_pos_as_xyz
  1  'x, y, z'
loop_
 _atom_site_type_symbol
 _atom_site_label
 _atom_site_symmetry_multiplicity
 _atom_site_fract_x
 _atom_site_fract_y
 _atom_site_fract_z
 _atom_site_occupancy
  Te  Te0  1  0.666627  0.333253  0.042012  1
  Te  Te1  1  0.666644  0.333288  0.145698  1
  Mo  Mo2  1  0.333307  0.666614  0.093845  1
  W  W3  1  0.333311  0.666623  0.469652  1
  W  W4  1  0.666692  0.333384  0.281848  1
  W  W5  1  0.666695  0.333391  0.657566  1
  S  S6  1  0.333357  0.666716  0.323381  1
  S  S7  1  0.333356  0.666712  0.699097  1
  S  S8  1  0.666649  0.333297  0.428113  1
  S  S9  1  0.666648  0.333295  0.511219  1
  S  S10  1  0.333356  0.666712  0.240320  1
  S  S11  1  0.333357  0.666715  0.615996  1
