# generated using pymatgen
data_KYb(WO4)2
_symmetry_space_group_name_H-M   'P 1'
_cell_length_a   7.80094132
_cell_length_b   7.80094132
_cell_length_c   7.48753955
_cell_angle_alpha   61.85835930
_cell_angle_beta   61.85835928
_cell_angle_gamma   88.08917096
_symmetry_Int_Tables_number   1
_chemical_formula_structural   KYb(WO4)2
_chemical_formula_sum   'K2 Yb2 W4 O16'
_cell_volume   343.65049234
_cell_formula_units_Z   2
loop_
 _symmetry_equiv_pos_site_id
 _symmetry_equiv_pos_as_xyz
  1  'x, y, z'
loop_
 _atom_site_type_symbol
 _atom_site_label
 _atom_site_symmetry_multiplicity
 _atom_site_fract_x
 _atom_site_fract_y
 _atom_site_fract_z
 _atom_site_occupancy
  O  O0  1  0.243563  0.125949  0.562911  1
  O  O1  1  0.874052  0.756436  0.937089  1
  O  O2  1  0.756436  0.874052  0.437090  1
  O  O3  1  0.125950  0.243564  0.062910  1
  O  O4  1  0.163409  0.447833  0.624727  1
  O  O5  1  0.552168  0.836591  0.875272  1
  O  O6  1  0.836592  0.552168  0.375272  1
  O  O7  1  0.447832  0.163409  0.124727  1
  O  O8  1  0.243915  0.457486  0.202114  1
  O  O9  1  0.542514  0.756085  0.297885  1
  O  O10  1  0.756085  0.542514  0.797886  1
  O  O11  1  0.457485  0.243915  0.702114  1
  O  O12  1  0.119832  0.900133  0.038951  1
  O  O13  1  0.880169  0.099866  0.961048  1
  O  O14  1  0.099867  0.880168  0.461049  1
  O  O15  1  0.900133  0.119832  0.538951  1
  K  K16  1  0.286373  0.713627  0.750000  1
  K  K17  1  0.713627  0.286373  0.250000  1
  Yb  Yb18  1  0.274853  0.725147  0.250000  1
  Yb  Yb19  1  0.725148  0.274854  0.749999  1
  W  W20  1  0.802017  0.808605  0.701486  1
  W  W21  1  0.197983  0.191396  0.298514  1
  W  W22  1  0.191395  0.197983  0.798515  1
  W  W23  1  0.808604  0.802016  0.201486  1
