# generated using pymatgen
data_K3GeS3
_symmetry_space_group_name_H-M   'P 1'
_cell_length_a   7.67407464
_cell_length_b   7.67407464
_cell_length_c   8.32491666
_cell_angle_alpha   104.90648167
_cell_angle_beta   104.90648169
_cell_angle_gamma   110.06221601
_symmetry_Int_Tables_number   1
_chemical_formula_structural   K3GeS3
_chemical_formula_sum   'K6 Ge2 S6'
_cell_volume   411.52463928
_cell_formula_units_Z   2
loop_
 _symmetry_equiv_pos_site_id
 _symmetry_equiv_pos_as_xyz
  1  'x, y, z'
loop_
 _atom_site_type_symbol
 _atom_site_label
 _atom_site_symmetry_multiplicity
 _atom_site_fract_x
 _atom_site_fract_y
 _atom_site_fract_z
 _atom_site_occupancy
  S  S0  1  0.242769  0.950425  0.299773  1
  S  S1  1  0.049575  0.757231  0.700227  1
  S  S2  1  0.631564  0.631564  0.857083  1
  S  S3  1  0.368436  0.368436  0.142917  1
  S  S4  1  0.757231  0.049575  0.700227  1
  S  S5  1  0.950425  0.242769  0.299773  1
  K  K6  1  0.216133  0.216133  0.685585  1
  K  K7  1  0.783867  0.783867  0.314415  1
  K  K8  1  0.000000  0.500000  0.000000  1
  K  K9  1  0.500000  0.000000  0.000000  1
  K  K10  1  0.331859  0.668141  0.500000  1
  K  K11  1  0.668141  0.331859  0.500000  1
  Ge  Ge12  1  0.881614  0.881614  0.843596  1
  Ge  Ge13  1  0.118386  0.118386  0.156404  1
