# generated using pymatgen
data_Na5Ti2Si2PO13
_symmetry_space_group_name_H-M   'P 1'
_cell_length_a   5.46177875
_cell_length_b   7.16027890
_cell_length_c   14.70233296
_cell_angle_alpha   100.01275065
_cell_angle_beta   96.55930173
_cell_angle_gamma   90.56628391
_symmetry_Int_Tables_number   1
_chemical_formula_structural   Na5Ti2Si2PO13
_chemical_formula_sum   'Na10 Ti4 Si4 P2 O26'
_cell_volume   562.25291439
_cell_formula_units_Z   2
loop_
 _symmetry_equiv_pos_site_id
 _symmetry_equiv_pos_as_xyz
  1  'x, y, z'
loop_
 _atom_site_type_symbol
 _atom_site_label
 _atom_site_symmetry_multiplicity
 _atom_site_fract_x
 _atom_site_fract_y
 _atom_site_fract_z
 _atom_site_occupancy
  O  O0  1  0.669835  0.769660  0.473991  1
  O  O1  1  0.330165  0.230340  0.526009  1
  O  O2  1  0.748311  0.598562  0.611938  1
  O  O3  1  0.251689  0.401438  0.388062  1
  O  O4  1  0.100936  0.774429  0.560317  1
  O  O5  1  0.899064  0.225571  0.439683  1
  O  O6  1  0.917747  0.577641  0.932965  1
  O  O7  1  0.082253  0.422359  0.067035  1
  O  O8  1  0.765680  0.965051  0.636216  1
  O  O9  1  0.234320  0.034949  0.363784  1
  O  O10  1  0.861674  0.173427  0.908225  1
  O  O11  1  0.138326  0.826573  0.091775  1
  O  O12  1  0.586692  0.269097  0.750796  1
  O  O13  1  0.413308  0.730903  0.249204  1
  O  O14  1  0.097598  0.240969  0.757640  1
  O  O15  1  0.902402  0.759031  0.242360  1
  O  O16  1  0.413004  0.393708  0.917551  1
  O  O17  1  0.586996  0.606292  0.082449  1
  O  O18  1  0.555173  0.901549  0.791389  1
  O  O19  1  0.444827  0.098451  0.208611  1
  O  O20  1  0.678653  0.429991  0.230335  1
  O  O21  1  0.321347  0.570009  0.769665  1
  O  O22  1  0.641412  0.199950  0.063815  1
  O  O23  1  0.358588  0.800050  0.936185  1
  O  O24  1  0.939602  0.124175  0.207807  1
  O  O25  1  0.060398  0.875825  0.792193  1
  Na  Na26  1  0.755594  0.256266  0.580996  1
  Na  Na27  1  0.244406  0.743734  0.419004  1
  Na  Na28  1  0.326017  0.539656  0.604515  1
  Na  Na29  1  0.673983  0.460344  0.395485  1
  Na  Na30  1  0.321250  0.032675  0.637568  1
  Na  Na31  1  0.678750  0.967325  0.362432  1
  Na  Na32  1  0.754065  0.877346  0.001102  1
  Na  Na33  1  0.173222  0.420949  0.231604  1
  Na  Na34  1  0.826778  0.579051  0.768396  1
  Na  Na35  1  0.245935  0.122654  0.998898  1
  Si  Si36  1  0.353151  0.358185  0.803106  1
  Si  Si37  1  0.327556  0.794896  0.824476  1
  Si  Si38  1  0.646849  0.641815  0.196894  1
  Si  Si39  1  0.672444  0.205104  0.175524  1
  P  P40  1  0.178061  0.226963  0.429937  1
  P  P41  1  0.821939  0.773037  0.570063  1
  Ti  Ti42  1  0.778630  0.382226  0.989532  1
  Ti  Ti43  1  0.221370  0.617774  0.010468  1
  Ti  Ti44  1  0.828762  0.069512  0.779092  1
  Ti  Ti45  1  0.171238  0.930488  0.220908  1
