# generated using pymatgen
data_SrCr(Si2O5)2
_symmetry_space_group_name_H-M   'P 1'
_cell_length_a   7.55845885
_cell_length_b   7.55845885
_cell_length_c   15.85503444
_cell_angle_alpha   90.00000000
_cell_angle_beta   90.00000000
_cell_angle_gamma   90.00000000
_symmetry_Int_Tables_number   1
_chemical_formula_structural   SrCr(Si2O5)2
_chemical_formula_sum   'Sr4 Cr4 Si16 O40'
_cell_volume   905.80287703
_cell_formula_units_Z   4
loop_
 _symmetry_equiv_pos_site_id
 _symmetry_equiv_pos_as_xyz
  1  'x, y, z'
loop_
 _atom_site_type_symbol
 _atom_site_label
 _atom_site_symmetry_multiplicity
 _atom_site_fract_x
 _atom_site_fract_y
 _atom_site_fract_z
 _atom_site_occupancy
  O  O0  1  0.007687  0.368122  0.586615  1
  O  O1  1  0.492313  0.131878  0.586615  1
  O  O2  1  0.868122  0.507687  0.913385  1
  O  O3  1  0.368122  0.492313  0.586615  1
  O  O4  1  0.131878  0.007687  0.586615  1
  O  O5  1  0.992313  0.868122  0.913385  1
  O  O6  1  0.507687  0.631878  0.913385  1
  O  O7  1  0.631878  0.992313  0.913385  1
  O  O8  1  0.992313  0.631878  0.413385  1
  O  O9  1  0.507687  0.868122  0.413385  1
  O  O10  1  0.131878  0.492313  0.086615  1
  O  O11  1  0.631878  0.507687  0.413385  1
  O  O12  1  0.868122  0.992313  0.413385  1
  O  O13  1  0.007687  0.131878  0.086615  1
  O  O14  1  0.492313  0.368122  0.086615  1
  O  O15  1  0.002750  0.289651  0.367571  1
  O  O16  1  0.368122  0.007687  0.086615  1
  O  O17  1  0.502750  0.789651  0.632429  1
  O  O18  1  0.210349  0.497250  0.867571  1
  O  O19  1  0.710349  0.502750  0.632429  1
  O  O20  1  0.789651  0.997250  0.632429  1
  O  O21  1  0.002750  0.210349  0.867571  1
  O  O22  1  0.497250  0.289651  0.867571  1
  O  O23  1  0.289651  0.002750  0.867571  1
  O  O24  1  0.462725  0.962725  0.250000  1
  O  O25  1  0.537275  0.462725  0.250000  1
  O  O26  1  0.962725  0.037275  0.250000  1
  O  O27  1  0.037275  0.537275  0.250000  1
  O  O28  1  0.537275  0.037275  0.750000  1
  O  O29  1  0.462725  0.537275  0.750000  1
  O  O30  1  0.037275  0.962725  0.750000  1
  O  O31  1  0.962725  0.462725  0.750000  1
  O  O32  1  0.710349  0.997250  0.132429  1
  O  O33  1  0.502750  0.710349  0.132429  1
  O  O34  1  0.997250  0.789651  0.132429  1
  O  O35  1  0.210349  0.002750  0.367571  1
  O  O36  1  0.289651  0.497250  0.367571  1
  O  O37  1  0.789651  0.502750  0.132429  1
  O  O38  1  0.497250  0.210349  0.367571  1
  O  O39  1  0.997250  0.710349  0.632429  1
  Si  Si40  1  0.925314  0.508598  0.651423  1
  Si  Si41  1  0.574686  0.991402  0.651423  1
  Si  Si42  1  0.008598  0.425314  0.848577  1
  Si  Si43  1  0.508598  0.574686  0.651423  1
  Si  Si44  1  0.991402  0.925314  0.651423  1
  Si  Si45  1  0.074686  0.008598  0.848577  1
  Si  Si46  1  0.425314  0.491402  0.848577  1
  Si  Si47  1  0.491402  0.074686  0.848577  1
  Si  Si48  1  0.074686  0.491402  0.348577  1
  Si  Si49  1  0.425314  0.008598  0.348577  1
  Si  Si50  1  0.991402  0.574686  0.151423  1
  Si  Si51  1  0.491402  0.425314  0.348577  1
  Si  Si52  1  0.008598  0.074686  0.348577  1
  Si  Si53  1  0.925314  0.991402  0.151423  1
  Si  Si54  1  0.574686  0.508598  0.151423  1
  Si  Si55  1  0.508598  0.925314  0.151423  1
  Cr  Cr56  1  0.250000  0.250000  0.587384  1
  Cr  Cr57  1  0.750000  0.750000  0.912616  1
  Cr  Cr58  1  0.750000  0.750000  0.412616  1
  Cr  Cr59  1  0.250000  0.250000  0.087384  1
  Sr  Sr60  1  0.250000  0.750000  0.500000  1
  Sr  Sr61  1  0.750000  0.250000  0.500000  1
  Sr  Sr62  1  0.750000  0.250000  0.000000  1
  Sr  Sr63  1  0.250000  0.750000  0.000000  1
