# generated using pymatgen
data_CsTiP2O7
_symmetry_space_group_name_H-M   'P 1'
_cell_length_a   7.87491962
_cell_length_b   8.44939552
_cell_length_c   10.40297446
_cell_angle_alpha   90.00000000
_cell_angle_beta   90.00000000
_cell_angle_gamma   104.98185279
_symmetry_Int_Tables_number   1
_chemical_formula_structural   CsTiP2O7
_chemical_formula_sum   'Cs4 Ti4 P8 O28'
_cell_volume   668.66703635
_cell_formula_units_Z   4
loop_
 _symmetry_equiv_pos_site_id
 _symmetry_equiv_pos_as_xyz
  1  'x, y, z'
loop_
 _atom_site_type_symbol
 _atom_site_label
 _atom_site_symmetry_multiplicity
 _atom_site_fract_x
 _atom_site_fract_y
 _atom_site_fract_z
 _atom_site_occupancy
  O  O0  1  0.392835  0.272988  0.567944  1
  O  O1  1  0.607165  0.227012  0.067944  1
  O  O2  1  0.607165  0.727012  0.432056  1
  O  O3  1  0.392835  0.772988  0.932056  1
  O  O4  1  0.565705  0.270697  0.770719  1
  O  O5  1  0.434295  0.229303  0.270719  1
  O  O6  1  0.434295  0.729303  0.229281  1
  O  O7  1  0.565705  0.770697  0.729281  1
  O  O8  1  0.677286  0.496952  0.604345  1
  O  O9  1  0.322714  0.003048  0.104345  1
  O  O10  1  0.322714  0.503048  0.395655  1
  O  O11  1  0.677286  0.996952  0.895655  1
  O  O12  1  0.686078  0.207656  0.552172  1
  O  O13  1  0.313922  0.292344  0.052172  1
  O  O14  1  0.313922  0.792344  0.447828  1
  O  O15  1  0.686078  0.707656  0.947828  1
  O  O16  1  0.989618  0.736963  0.496030  1
  O  O17  1  0.010382  0.763037  0.996030  1
  O  O18  1  0.010382  0.263037  0.503970  1
  O  O19  1  0.989618  0.236963  0.003970  1
  O  O20  1  0.909156  0.731128  0.764955  1
  O  O21  1  0.090844  0.768872  0.264955  1
  O  O22  1  0.090844  0.268873  0.235045  1
  O  O23  1  0.909156  0.231128  0.735045  1
  O  O24  1  0.839003  0.983836  0.586366  1
  O  O25  1  0.160997  0.516164  0.086366  1
  O  O26  1  0.160997  0.016164  0.413634  1
  O  O27  1  0.839003  0.483836  0.913634  1
  P  P28  1  0.575190  0.318334  0.628216  1
  P  P29  1  0.424810  0.181666  0.128216  1
  P  P30  1  0.424810  0.681666  0.371784  1
  P  P31  1  0.575190  0.818334  0.871784  1
  P  P32  1  0.870000  0.169348  0.596590  1
  P  P33  1  0.130000  0.330652  0.096590  1
  P  P34  1  0.130000  0.830652  0.403410  1
  P  P35  1  0.870000  0.669348  0.903410  1
  Ti  Ti36  1  0.759591  0.242206  0.897683  1
  Ti  Ti37  1  0.240409  0.257794  0.397683  1
  Ti  Ti38  1  0.240409  0.757794  0.102317  1
  Ti  Ti39  1  0.759591  0.742206  0.602317  1
  Cs  Cs40  1  0.800726  0.453629  0.302119  1
  Cs  Cs41  1  0.199274  0.046371  0.802119  1
  Cs  Cs42  1  0.199274  0.546371  0.697881  1
  Cs  Cs43  1  0.800726  0.953629  0.197881  1
