# generated using pymatgen
data_Sm2Co12P7
_symmetry_space_group_name_H-M   'P 1'
_cell_length_a   9.07571462
_cell_length_b   9.07308952
_cell_length_c   3.62334107
_cell_angle_alpha   90.00000000
_cell_angle_beta   90.00000000
_cell_angle_gamma   119.97334692
_symmetry_Int_Tables_number   1
_chemical_formula_structural   Sm2Co12P7
_chemical_formula_sum   'Sm2 Co12 P7'
_cell_volume   258.45947232
_cell_formula_units_Z   1
loop_
 _symmetry_equiv_pos_site_id
 _symmetry_equiv_pos_as_xyz
  1  'x, y, z'
loop_
 _atom_site_type_symbol
 _atom_site_label
 _atom_site_symmetry_multiplicity
 _atom_site_fract_x
 _atom_site_fract_y
 _atom_site_fract_z
 _atom_site_occupancy
  Sm  Sm0  1  0.666730  0.333505  0.500001  1
  Sm  Sm1  1  0.333304  0.666551  0.000000  1
  Co  Co2  1  0.432842  0.058747  0.000000  1
  Co  Co3  1  0.941192  0.374156  0.000000  1
  Co  Co4  1  0.625749  0.567012  0.000000  1
  Co  Co5  1  0.381879  0.433268  0.500001  1
  Co  Co6  1  0.566623  0.948534  0.500001  1
  Co  Co7  1  0.051381  0.618110  0.500001  1
  Co  Co8  1  0.151647  0.271098  0.000000  1
  Co  Co9  1  0.728908  0.880398  0.000000  1
  Co  Co10  1  0.119557  0.848500  0.000000  1
  Co  Co11  1  0.232287  0.102971  0.500001  1
  Co  Co12  1  0.896992  0.129211  0.500001  1
  Co  Co13  1  0.870868  0.767865  0.500001  1
  P  P14  1  0.107731  0.399294  0.500001  1
  P  P15  1  0.600742  0.708419  0.500001  1
  P  P16  1  0.291485  0.892282  0.500001  1
  P  P17  1  0.000028  0.999917  0.000000  1
  P  P18  1  0.403398  0.294012  0.000000  1
  P  P19  1  0.706066  0.109555  0.000000  1
  P  P20  1  0.890589  0.596593  0.000000  1
