# generated using pymatgen
data_Ba5Yb8Zn4O21
_symmetry_space_group_name_H-M   'P 1'
_cell_length_a   5.67604367
_cell_length_b   10.19307691
_cell_length_c   10.19307691
_cell_angle_alpha   85.55389777
_cell_angle_beta   73.83368950
_cell_angle_gamma   73.83368950
_symmetry_Int_Tables_number   1
_chemical_formula_structural   Ba5Yb8Zn4O21
_chemical_formula_sum   'Ba5 Yb8 Zn4 O21'
_cell_volume   544.01727729
_cell_formula_units_Z   1
loop_
 _symmetry_equiv_pos_site_id
 _symmetry_equiv_pos_as_xyz
  1  'x, y, z'
loop_
 _atom_site_type_symbol
 _atom_site_label
 _atom_site_symmetry_multiplicity
 _atom_site_fract_x
 _atom_site_fract_y
 _atom_site_fract_z
 _atom_site_occupancy
  O  O0  1  0.094665  0.882544  0.407200  1
  O  O1  1  0.501865  0.592800  0.882544  1
  O  O2  1  0.977209  0.407200  0.117456  1
  O  O3  1  0.384409  0.117456  0.592800  1
  O  O4  1  0.905335  0.117456  0.592800  1
  O  O5  1  0.498135  0.407200  0.117456  1
  O  O6  1  0.022791  0.592800  0.882544  1
  O  O7  1  0.615591  0.882544  0.407200  1
  O  O8  1  0.937318  0.862021  0.778513  1
  O  O9  1  0.715831  0.221487  0.862021  1
  O  O10  1  0.799340  0.778513  0.137979  1
  O  O11  1  0.577853  0.137979  0.221487  1
  O  O12  1  0.062682  0.137979  0.221487  1
  O  O13  1  0.284169  0.778513  0.137979  1
  O  O14  1  0.200660  0.221487  0.862021  1
  O  O15  1  0.422147  0.862021  0.778513  1
  O  O16  1  0.372605  0.658533  0.596257  1
  O  O17  1  0.500000  0.000000  0.000000  1
  O  O18  1  0.627395  0.341467  0.403743  1
  O  O19  1  0.031138  0.596257  0.341467  1
  O  O20  1  0.968862  0.403743  0.658533  1
  Zn  Zn21  1  0.957770  0.796526  0.287934  1
  Zn  Zn22  1  0.245704  0.712066  0.796526  1
  Zn  Zn23  1  0.754296  0.287934  0.203474  1
  Zn  Zn24  1  0.042230  0.203474  0.712066  1
  Ba  Ba25  1  0.466918  0.388977  0.677187  1
  Ba  Ba26  1  0.144105  0.322813  0.388977  1
  Ba  Ba27  1  0.855895  0.677187  0.611023  1
  Ba  Ba28  1  0.533082  0.611023  0.322813  1
  Ba  Ba29  1  0.000000  0.000000  0.000000  1
  Yb  Yb30  1  0.591500  0.048422  0.768578  1
  Yb  Yb31  1  0.360078  0.231422  0.048422  1
  Yb  Yb32  1  0.639922  0.768578  0.951578  1
  Yb  Yb33  1  0.408500  0.951578  0.231422  1
  Yb  Yb34  1  0.750216  0.082852  0.416716  1
  Yb  Yb35  1  0.166932  0.583284  0.082852  1
  Yb  Yb36  1  0.833068  0.416716  0.917148  1
  Yb  Yb37  1  0.249784  0.917148  0.583284  1
