# generated using pymatgen
data_Sr4Mn3O10
_symmetry_space_group_name_H-M   'P 1'
_cell_length_a   5.54946508
_cell_length_b   12.55516099
_cell_length_c   12.89237353
_cell_angle_alpha   90.00000000
_cell_angle_beta   90.00000000
_cell_angle_gamma   90.00000000
_symmetry_Int_Tables_number   1
_chemical_formula_structural   Sr4Mn3O10
_chemical_formula_sum   'Sr16 Mn12 O40'
_cell_volume   898.26874466
_cell_formula_units_Z   4
loop_
 _symmetry_equiv_pos_site_id
 _symmetry_equiv_pos_as_xyz
  1  'x, y, z'
loop_
 _atom_site_type_symbol
 _atom_site_label
 _atom_site_symmetry_multiplicity
 _atom_site_fract_x
 _atom_site_fract_y
 _atom_site_fract_z
 _atom_site_occupancy
  Sr  Sr0  1  0.250437  0.237150  0.887936  1
  Sr  Sr1  1  0.250021  0.737202  0.611024  1
  Sr  Sr2  1  0.250021  0.262798  0.388975  1
  Sr  Sr3  1  0.749979  0.737202  0.888976  1
  Sr  Sr4  1  0.249754  0.970888  0.355712  1
  Sr  Sr5  1  0.250437  0.762850  0.112064  1
  Sr  Sr6  1  0.750246  0.029112  0.855712  1
  Sr  Sr7  1  0.749563  0.237150  0.612064  1
  Sr  Sr8  1  0.249754  0.029112  0.644288  1
  Sr  Sr9  1  0.750246  0.970888  0.144288  1
  Sr  Sr10  1  0.250272  0.529356  0.855887  1
  Sr  Sr11  1  0.749563  0.762850  0.387936  1
  Sr  Sr12  1  0.749728  0.529356  0.644113  1
  Sr  Sr13  1  0.250272  0.470644  0.144113  1
  Sr  Sr14  1  0.749728  0.470644  0.355887  1
  Sr  Sr15  1  0.749979  0.262798  0.111024  1
  Mn  Mn16  1  0.750619  0.500000  0.000000  1
  Mn  Mn17  1  0.749997  0.367645  0.847535  1
  Mn  Mn18  1  0.249828  0.000000  0.000000  1
  Mn  Mn19  1  0.250355  0.867284  0.847750  1
  Mn  Mn20  1  0.749997  0.632355  0.152465  1
  Mn  Mn21  1  0.250355  0.132716  0.152250  1
  Mn  Mn22  1  0.250003  0.632355  0.347535  1
  Mn  Mn23  1  0.749645  0.132716  0.347750  1
  Mn  Mn24  1  0.249381  0.500000  0.500000  1
  Mn  Mn25  1  0.750172  0.000000  0.500000  1
  Mn  Mn26  1  0.749645  0.867284  0.652250  1
  Mn  Mn27  1  0.250003  0.367645  0.652465  1
  O  O28  1  0.747965  0.722577  0.652357  1
  O  O29  1  0.251036  0.777259  0.346248  1
  O  O30  1  0.520817  0.890703  0.537563  1
  O  O31  1  0.479183  0.890703  0.962437  1
  O  O32  1  0.748964  0.222741  0.846248  1
  O  O33  1  0.020755  0.390367  0.537763  1
  O  O34  1  0.520817  0.109297  0.462437  1
  O  O35  1  0.521429  0.609392  0.037746  1
  O  O36  1  0.747965  0.277423  0.347643  1
  O  O37  1  0.251036  0.222741  0.653752  1
  O  O38  1  0.978848  0.890366  0.537499  1
  O  O39  1  0.000000  0.117138  0.250000  1
  O  O40  1  0.249283  0.963237  0.145089  1
  O  O41  1  0.021152  0.890366  0.962501  1
  O  O42  1  0.479183  0.109297  0.037563  1
  O  O43  1  0.979245  0.609633  0.037763  1
  O  O44  1  0.252035  0.722577  0.847643  1
  O  O45  1  0.748964  0.777259  0.153752  1
  O  O46  1  0.000000  0.384026  0.750000  1
  O  O47  1  0.249131  0.537053  0.644932  1
  O  O48  1  0.750869  0.537053  0.855068  1
  O  O49  1  0.020755  0.609633  0.462237  1
  O  O50  1  0.500000  0.615266  0.250000  1
  O  O51  1  0.979245  0.390367  0.962237  1
  O  O52  1  0.478571  0.390608  0.537745  1
  O  O53  1  0.000000  0.615974  0.250000  1
  O  O54  1  0.249131  0.462947  0.355068  1
  O  O55  1  0.478571  0.609392  0.462255  1
  O  O56  1  0.252035  0.277423  0.152357  1
  O  O57  1  0.249283  0.036763  0.854911  1
  O  O58  1  0.521429  0.390608  0.962255  1
  O  O59  1  0.500000  0.884136  0.750000  1
  O  O60  1  0.978848  0.109634  0.462501  1
  O  O61  1  0.750869  0.462947  0.144932  1
  O  O62  1  0.750717  0.036763  0.645089  1
  O  O63  1  0.750717  0.963237  0.354911  1
  O  O64  1  0.021152  0.109634  0.037499  1
  O  O65  1  0.000000  0.882862  0.750000  1
  O  O66  1  0.500000  0.384734  0.750000  1
  O  O67  1  0.500000  0.115864  0.250000  1
