# generated using pymatgen
data_Zr2Co4P3
_symmetry_space_group_name_H-M   'P 1'
_cell_length_a   12.11968760
_cell_length_b   12.11968759
_cell_length_c   3.66965531
_cell_angle_alpha   90.00000000
_cell_angle_beta   90.00000000
_cell_angle_gamma   120.00000002
_symmetry_Int_Tables_number   1
_chemical_formula_structural   Zr2Co4P3
_chemical_formula_sum   'Zr8 Co16 P12'
_cell_volume   466.80849994
_cell_formula_units_Z   4
loop_
 _symmetry_equiv_pos_site_id
 _symmetry_equiv_pos_as_xyz
  1  'x, y, z'
loop_
 _atom_site_type_symbol
 _atom_site_label
 _atom_site_symmetry_multiplicity
 _atom_site_fract_x
 _atom_site_fract_y
 _atom_site_fract_z
 _atom_site_occupancy
  P  P0  1  0.654220  0.654220  0.000000  1
  P  P1  1  0.345780  0.000000  0.000000  1
  P  P2  1  0.000000  0.345780  0.000000  1
  P  P3  1  0.481334  0.307592  0.500000  1
  P  P4  1  0.692408  0.173742  0.500000  1
  P  P5  1  0.826258  0.518666  0.500000  1
  P  P6  1  0.518666  0.826258  0.500000  1
  P  P7  1  0.173742  0.692408  0.500000  1
  P  P8  1  0.824354  0.000000  0.000000  1
  P  P9  1  0.000000  0.824354  0.000000  1
  P  P10  1  0.307592  0.481334  0.500000  1
  P  P11  1  0.175646  0.175646  0.000000  1
  Co  Co12  1  0.192914  0.372134  0.000000  1
  Co  Co13  1  0.179220  0.807086  0.000000  1
  Co  Co14  1  0.820780  0.627866  0.000000  1
  Co  Co15  1  0.807086  0.179220  0.000000  1
  Co  Co16  1  0.372134  0.192914  0.000000  1
  Co  Co17  1  0.125827  0.480619  0.500000  1
  Co  Co18  1  0.354792  0.874173  0.500000  1
  Co  Co19  1  0.519381  0.645208  0.500000  1
  Co  Co20  1  0.645208  0.519381  0.500000  1
  Co  Co21  1  0.874173  0.354792  0.500000  1
  Co  Co22  1  0.480619  0.125827  0.500000  1
  Co  Co23  1  0.000000  0.000000  0.000000  1
  Co  Co24  1  0.722859  0.000000  0.500000  1
  Co  Co25  1  0.000000  0.722859  0.500000  1
  Co  Co26  1  0.627866  0.820780  0.000000  1
  Co  Co27  1  0.277141  0.277141  0.500000  1
  Zr  Zr28  1  0.443542  0.443542  0.000000  1
  Zr  Zr29  1  0.556458  0.000000  0.000000  1
  Zr  Zr30  1  0.000000  0.556458  0.000000  1
  Zr  Zr31  1  0.666667  0.333333  0.000000  1
  Zr  Zr32  1  0.333333  0.666667  0.000000  1
  Zr  Zr33  1  0.823155  0.823155  0.500000  1
  Zr  Zr34  1  0.176845  0.000000  0.500000  1
  Zr  Zr35  1  0.000000  0.176845  0.500000  1
