# generated using pymatgen
data_Mo3W(SeS3)2
_symmetry_space_group_name_H-M   'P 1'
_cell_length_a   3.22118539
_cell_length_b   3.22119801
_cell_length_c   36.35981078
_cell_angle_alpha   89.99981988
_cell_angle_beta   90.00000000
_cell_angle_gamma   119.99987048
_symmetry_Int_Tables_number   1
_chemical_formula_structural   Mo3W(SeS3)2
_chemical_formula_sum   'Mo3 W1 Se2 S6'
_cell_volume   326.72770034
_cell_formula_units_Z   1
loop_
 _symmetry_equiv_pos_site_id
 _symmetry_equiv_pos_as_xyz
  1  'x, y, z'
loop_
 _atom_site_type_symbol
 _atom_site_label
 _atom_site_symmetry_multiplicity
 _atom_site_fract_x
 _atom_site_fract_y
 _atom_site_fract_z
 _atom_site_occupancy
  Mo  Mo0  1  0.333310  0.666619  0.093922  1
  Mo  Mo1  1  0.333309  0.666618  0.469641  1
  Mo  Mo2  1  0.666689  0.333377  0.281771  1
  W  W3  1  0.666693  0.333387  0.657563  1
  Se  Se4  1  0.666648  0.333294  0.422641  1
  Se  Se5  1  0.666646  0.333291  0.516677  1
  S  S6  1  0.333356  0.666713  0.324506  1
  S  S7  1  0.333350  0.666702  0.700477  1
  S  S8  1  0.666646  0.333291  0.051166  1
  S  S9  1  0.666645  0.333290  0.136668  1
  S  S10  1  0.333352  0.666704  0.239065  1
  S  S11  1  0.333357  0.666714  0.614649  1
