# generated using pymatgen
data_K2Ti(Si2O5)3
_symmetry_space_group_name_H-M   'P 1'
_cell_length_a   7.38923162
_cell_length_b   7.37116527
_cell_length_c   15.34480734
_cell_angle_alpha   76.33425607
_cell_angle_beta   76.06783010
_cell_angle_gamma   59.91889005
_symmetry_Int_Tables_number   1
_chemical_formula_structural   K2Ti(Si2O5)3
_chemical_formula_sum   'K4 Ti2 Si12 O30'
_cell_volume   695.26813570
_cell_formula_units_Z   2
loop_
 _symmetry_equiv_pos_site_id
 _symmetry_equiv_pos_as_xyz
  1  'x, y, z'
loop_
 _atom_site_type_symbol
 _atom_site_label
 _atom_site_symmetry_multiplicity
 _atom_site_fract_x
 _atom_site_fract_y
 _atom_site_fract_z
 _atom_site_occupancy
  O  O0  1  0.617150  0.457701  0.936976  1
  O  O1  1  0.988173  0.957701  0.436976  1
  O  O2  1  0.435810  0.412476  0.814522  1
  O  O3  1  0.337193  0.912476  0.314522  1
  O  O4  1  0.846692  0.358996  0.770498  1
  O  O5  1  0.023814  0.858996  0.270498  1
  O  O6  1  0.540296  0.119464  0.965020  1
  O  O7  1  0.375221  0.619464  0.465020  1
  O  O8  1  0.772169  0.436427  0.495765  1
  O  O9  1  0.295639  0.936427  0.995765  1
  O  O10  1  0.778221  0.009132  0.791872  1
  O  O11  1  0.420775  0.509132  0.291872  1
  O  O12  1  0.139588  0.010738  0.695232  1
  O  O13  1  0.154442  0.510738  0.195232  1
  O  O14  1  0.589497  0.197796  0.511960  1
  O  O15  1  0.700748  0.697796  0.011960  1
  O  O16  1  0.886702  0.967019  0.616111  1
  O  O17  1  0.530168  0.467019  0.116111  1
  O  O18  1  0.959374  0.041107  0.923514  1
  O  O19  1  0.076005  0.541107  0.423514  1
  O  O20  1  0.748724  0.750536  0.232571  1
  O  O21  1  0.268170  0.250536  0.732571  1
  O  O22  1  0.431113  0.964322  0.133625  1
  O  O23  1  0.470940  0.464322  0.633625  1
  O  O24  1  0.970752  0.890688  0.098071  1
  O  O25  1  0.040489  0.390688  0.598071  1
  O  O26  1  0.745004  0.782891  0.538468  1
  O  O27  1  0.933636  0.282891  0.038468  1
  O  O28  1  0.507826  0.157533  0.236877  1
  O  O29  1  0.097764  0.657533  0.736877  1
  Si  Si30  1  0.543090  0.434200  0.526525  1
  Si  Si31  1  0.496185  0.934200  0.026525  1
  Si  Si32  1  0.972250  0.913502  0.712063  1
  Si  Si33  1  0.402185  0.413502  0.212063  1
  Si  Si34  1  0.811223  0.973950  0.523826  1
  Si  Si35  1  0.691001  0.473950  0.023826  1
  Si  Si36  1  0.326163  0.441446  0.730304  1
  Si  Si37  1  0.502088  0.941446  0.230304  1
  Si  Si38  1  0.037389  0.039447  0.013030  1
  Si  Si39  1  0.910134  0.539447  0.513030  1
  Si  Si40  1  0.062563  0.262613  0.701725  1
  Si  Si41  1  0.973100  0.762613  0.201725  1
  K  K42  1  0.319548  0.034406  0.475398  1
  K  K43  1  0.170648  0.534406  0.975398  1
  K  K44  1  0.881287  0.286582  0.293556  1
  K  K45  1  0.538575  0.786582  0.793556  1
  Ti  Ti46  1  0.208371  0.723927  0.366994  1
  Ti  Ti47  1  0.700708  0.223927  0.866994  1
