# generated using pymatgen
data_Te2MoWSeS
_symmetry_space_group_name_H-M   'P 1'
_cell_length_a   3.39817298
_cell_length_b   3.39826300
_cell_length_c   38.71046090
_cell_angle_alpha   90.00031211
_cell_angle_beta   90.00000000
_cell_angle_gamma   119.99912375
_symmetry_Int_Tables_number   1
_chemical_formula_structural   Te2MoWSeS
_chemical_formula_sum   'Te4 Mo2 W2 Se2 S2'
_cell_volume   387.13753237
_cell_formula_units_Z   2
loop_
 _symmetry_equiv_pos_site_id
 _symmetry_equiv_pos_as_xyz
  1  'x, y, z'
loop_
 _atom_site_type_symbol
 _atom_site_label
 _atom_site_symmetry_multiplicity
 _atom_site_fract_x
 _atom_site_fract_y
 _atom_site_fract_z
 _atom_site_occupancy
  Te  Te0  1  0.333353  0.666707  0.706202  1
  Te  Te1  1  0.666649  0.333297  0.045535  1
  Te  Te2  1  0.666647  0.333294  0.142283  1
  Te  Te3  1  0.333352  0.666705  0.608842  1
  Mo  Mo4  1  0.333312  0.666625  0.093896  1
  Mo  Mo5  1  0.333309  0.666618  0.469660  1
  W  W6  1  0.666687  0.333375  0.281824  1
  W  W7  1  0.666689  0.333379  0.657546  1
  Se  Se8  1  0.333352  0.666705  0.324600  1
  Se  Se9  1  0.333349  0.666700  0.239038  1
  S  S10  1  0.666649  0.333297  0.430824  1
  S  S11  1  0.666650  0.333300  0.508498  1
