# generated using pymatgen
data_BaLa2ZnS5
_symmetry_space_group_name_H-M   'P 1'
_cell_length_a   8.01760104
_cell_length_b   8.01760104
_cell_length_c   8.91471446
_cell_angle_alpha   116.72338319
_cell_angle_beta   116.72338320
_cell_angle_gamma   89.99999999
_symmetry_Int_Tables_number   1
_chemical_formula_structural   BaLa2ZnS5
_chemical_formula_sum   'Ba2 La4 Zn2 S10'
_cell_volume   442.24456766
_cell_formula_units_Z   2
loop_
 _symmetry_equiv_pos_site_id
 _symmetry_equiv_pos_as_xyz
  1  'x, y, z'
loop_
 _atom_site_type_symbol
 _atom_site_label
 _atom_site_symmetry_multiplicity
 _atom_site_fract_x
 _atom_site_fract_y
 _atom_site_fract_z
 _atom_site_occupancy
  S  S0  1  0.485957  0.985957  0.270873  1
  S  S1  1  0.215085  0.715085  0.729127  1
  S  S2  1  0.514043  0.014043  0.729127  1
  S  S3  1  0.715085  0.514043  0.729127  1
  S  S4  1  0.014043  0.215085  0.729127  1
  S  S5  1  0.284915  0.485957  0.270873  1
  S  S6  1  0.985957  0.784915  0.270873  1
  S  S7  1  0.784915  0.284915  0.270873  1
  S  S8  1  0.000000  0.000000  0.000000  1
  S  S9  1  0.500000  0.500000  0.000000  1
  Zn  Zn10  1  0.750000  0.250000  0.500000  1
  Zn  Zn11  1  0.250000  0.750000  0.500000  1
  Ba  Ba12  1  0.750000  0.750000  0.500000  1
  Ba  Ba13  1  0.250000  0.250000  0.500000  1
  La  La14  1  0.663482  0.836518  0.000000  1
  La  La15  1  0.163482  0.663482  0.000000  1
  La  La16  1  0.836518  0.336518  0.000000  1
  La  La17  1  0.336518  0.163482  0.000000  1
