# generated using pymatgen
data_Pr2B5
_symmetry_space_group_name_H-M   'P 1'
_cell_length_a   7.33669957
_cell_length_b   7.36122215
_cell_length_c   8.48855357
_cell_angle_alpha   107.50094869
_cell_angle_beta   115.60424193
_cell_angle_gamma   90.00000003
_symmetry_Int_Tables_number   1
_chemical_formula_structural   Pr2B5
_chemical_formula_sum   'Pr8 B20'
_cell_volume   389.75944567
_cell_formula_units_Z   4
loop_
 _symmetry_equiv_pos_site_id
 _symmetry_equiv_pos_as_xyz
  1  'x, y, z'
loop_
 _atom_site_type_symbol
 _atom_site_label
 _atom_site_symmetry_multiplicity
 _atom_site_fract_x
 _atom_site_fract_y
 _atom_site_fract_z
 _atom_site_occupancy
  B  B0  1  0.289444  0.849998  0.086463  1
  B  B1  1  0.202980  0.650002  0.913537  1
  B  B2  1  0.710556  0.150002  0.913537  1
  B  B3  1  0.797020  0.349998  0.086463  1
  B  B4  1  0.093147  0.092780  0.501415  1
  B  B5  1  0.591732  0.407220  0.498585  1
  B  B6  1  0.906853  0.907220  0.498585  1
  B  B7  1  0.408268  0.592780  0.501415  1
  B  B8  1  0.538661  0.170234  0.497755  1
  B  B9  1  0.040907  0.329766  0.502245  1
  B  B10  1  0.461339  0.829766  0.502245  1
  B  B11  1  0.959093  0.670234  0.497755  1
  B  B12  1  0.671040  0.959894  0.499770  1
  B  B13  1  0.171270  0.540106  0.500230  1
  B  B14  1  0.328960  0.040106  0.500230  1
  B  B15  1  0.828730  0.459894  0.499770  1
  B  B16  1  0.590138  0.061572  0.679472  1
  B  B17  1  0.910666  0.438428  0.320528  1
  B  B18  1  0.409862  0.938428  0.320528  1
  B  B19  1  0.089334  0.561572  0.679472  1
  Pr  Pr20  1  0.819063  0.777704  0.762780  1
  Pr  Pr21  1  0.056283  0.722296  0.237220  1
  Pr  Pr22  1  0.180937  0.222296  0.237220  1
  Pr  Pr23  1  0.943717  0.277704  0.762780  1
  Pr  Pr24  1  0.310328  0.904040  0.762126  1
  Pr  Pr25  1  0.548202  0.595960  0.237874  1
  Pr  Pr26  1  0.689672  0.095960  0.237874  1
  Pr  Pr27  1  0.451798  0.404040  0.762126  1
