# generated using pymatgen
data_Cd4SiSe6
_symmetry_space_group_name_H-M   'P 1'
_cell_length_a   7.54078492
_cell_length_b   7.57601101
_cell_length_c   13.04774637
_cell_angle_alpha   73.84580196
_cell_angle_beta   73.20376641
_cell_angle_gamma   60.15369162
_symmetry_Int_Tables_number   1
_chemical_formula_structural   Cd4SiSe6
_chemical_formula_sum   'Cd8 Si2 Se12'
_cell_volume   610.79258850
_cell_formula_units_Z   2
loop_
 _symmetry_equiv_pos_site_id
 _symmetry_equiv_pos_as_xyz
  1  'x, y, z'
loop_
 _atom_site_type_symbol
 _atom_site_label
 _atom_site_symmetry_multiplicity
 _atom_site_fract_x
 _atom_site_fract_y
 _atom_site_fract_z
 _atom_site_occupancy
  Si  Si0  1  0.681893  0.782018  0.395765  1
  Si  Si1  1  0.140325  0.282018  0.895765  1
  Se  Se2  1  0.557549  0.652269  0.766171  1
  Se  Se3  1  0.024010  0.152269  0.266171  1
  Se  Se4  1  0.998518  0.587836  0.446727  1
  Se  Se5  1  0.966920  0.087836  0.946727  1
  Se  Se6  1  0.969886  0.600098  0.946990  1
  Se  Se7  1  0.483026  0.100098  0.446990  1
  Se  Se8  1  0.713338  0.820811  0.211778  1
  Se  Se9  1  0.254072  0.320811  0.711778  1
  Se  Se10  1  0.415673  0.524022  0.144869  1
  Se  Se11  1  0.915435  0.024022  0.644869  1
  Se  Se12  1  0.480861  0.612566  0.475716  1
  Se  Se13  1  0.430858  0.112566  0.975716  1
  Cd  Cd14  1  0.273826  0.740072  0.309167  1
  Cd  Cd15  1  0.676936  0.240072  0.809167  1
  Cd  Cd16  1  0.772345  0.163029  0.152779  1
  Cd  Cd17  1  0.911846  0.663029  0.652779  1
  Cd  Cd18  1  0.555257  0.718409  0.958162  1
  Cd  Cd19  1  0.768171  0.218409  0.458162  1
  Cd  Cd20  1  0.079674  0.485070  0.146076  1
  Cd  Cd21  1  0.289179  0.985070  0.646076  1
