# generated using pymatgen
data_TbCuSe2
_symmetry_space_group_name_H-M   'P 1'
_cell_length_a   6.61893744
_cell_length_b   7.10123301
_cell_length_c   7.34168945
_cell_angle_alpha   90.00000000
_cell_angle_beta   90.00000000
_cell_angle_gamma   96.07301528
_symmetry_Int_Tables_number   1
_chemical_formula_structural   TbCuSe2
_chemical_formula_sum   'Tb4 Cu4 Se8'
_cell_volume   343.14199545
_cell_formula_units_Z   4
loop_
 _symmetry_equiv_pos_site_id
 _symmetry_equiv_pos_as_xyz
  1  'x, y, z'
loop_
 _atom_site_type_symbol
 _atom_site_label
 _atom_site_symmetry_multiplicity
 _atom_site_fract_x
 _atom_site_fract_y
 _atom_site_fract_z
 _atom_site_occupancy
  Cu  Cu0  1  0.425743  0.955030  0.341153  1
  Cu  Cu1  1  0.574257  0.044970  0.658847  1
  Cu  Cu2  1  0.425743  0.455030  0.158847  1
  Cu  Cu3  1  0.574257  0.544970  0.841153  1
  Se  Se4  1  0.928641  0.502729  0.775673  1
  Se  Se5  1  0.928641  0.002729  0.724327  1
  Se  Se6  1  0.071359  0.997271  0.275673  1
  Se  Se7  1  0.071359  0.497271  0.224327  1
  Se  Se8  1  0.599886  0.282255  0.387983  1
  Se  Se9  1  0.400114  0.217745  0.887984  1
  Se  Se10  1  0.400114  0.717745  0.612016  1
  Se  Se11  1  0.599886  0.782255  0.112017  1
  Tb  Tb12  1  0.196006  0.298939  0.541911  1
  Tb  Tb13  1  0.803994  0.201061  0.041911  1
  Tb  Tb14  1  0.803994  0.701061  0.458089  1
  Tb  Tb15  1  0.196006  0.798939  0.958089  1
