# generated using pymatgen
data_Te6Mo3WS2
_symmetry_space_group_name_H-M   'P 1'
_cell_length_a   3.45556809
_cell_length_b   3.45565299
_cell_length_c   39.32124255
_cell_angle_alpha   90.00079348
_cell_angle_beta   90.00000000
_cell_angle_gamma   119.99918716
_symmetry_Int_Tables_number   1
_chemical_formula_structural   Te6Mo3WS2
_chemical_formula_sum   'Te6 Mo3 W1 S2'
_cell_volume   406.64084772
_cell_formula_units_Z   1
loop_
 _symmetry_equiv_pos_site_id
 _symmetry_equiv_pos_as_xyz
  1  'x, y, z'
loop_
 _atom_site_type_symbol
 _atom_site_label
 _atom_site_symmetry_multiplicity
 _atom_site_fract_x
 _atom_site_fract_y
 _atom_site_fract_z
 _atom_site_occupancy
  Te  Te0  1  0.333359  0.666720  0.328734  1
  Te  Te1  1  0.333363  0.666727  0.704640  1
  Te  Te2  1  0.666644  0.333286  0.422394  1
  Te  Te3  1  0.666647  0.333292  0.516903  1
  Te  Te4  1  0.333361  0.666723  0.234636  1
  Te  Te5  1  0.333370  0.666741  0.610573  1
  Mo  Mo6  1  0.333310  0.666620  0.093942  1
  Mo  Mo7  1  0.666677  0.333354  0.281697  1
  Mo  Mo8  1  0.666679  0.333357  0.657637  1
  W  W9  1  0.333310  0.666620  0.469671  1
  S  S10  1  0.666639  0.333278  0.056057  1
  S  S11  1  0.666642  0.333283  0.131864  1
