# generated using pymatgen
data_Sm2Cu(SeO3)4
_symmetry_space_group_name_H-M   'P 1'
_cell_length_a   7.03748901
_cell_length_b   8.25779467
_cell_length_c   10.81800965
_cell_angle_alpha   109.94605867
_cell_angle_beta   90.00000000
_cell_angle_gamma   90.00000000
_symmetry_Int_Tables_number   1
_chemical_formula_structural   Sm2Cu(SeO3)4
_chemical_formula_sum   'Sm4 Cu2 Se8 O24'
_cell_volume   590.96748716
_cell_formula_units_Z   2
loop_
 _symmetry_equiv_pos_site_id
 _symmetry_equiv_pos_as_xyz
  1  'x, y, z'
loop_
 _atom_site_type_symbol
 _atom_site_label
 _atom_site_symmetry_multiplicity
 _atom_site_fract_x
 _atom_site_fract_y
 _atom_site_fract_z
 _atom_site_occupancy
  O  O0  1  0.654215  0.089403  0.556451  1
  O  O1  1  0.154215  0.410597  0.443549  1
  O  O2  1  0.345785  0.910597  0.443549  1
  O  O3  1  0.845785  0.589403  0.556451  1
  O  O4  1  0.886857  0.925931  0.655607  1
  O  O5  1  0.386857  0.574069  0.344393  1
  O  O6  1  0.113143  0.074069  0.344393  1
  O  O7  1  0.613143  0.425931  0.655607  1
  O  O8  1  0.493073  0.279146  0.393259  1
  O  O9  1  0.993073  0.220854  0.606741  1
  O  O10  1  0.221829  0.531181  0.700044  1
  O  O11  1  0.721829  0.968819  0.299956  1
  O  O12  1  0.778171  0.468819  0.299956  1
  O  O13  1  0.278171  0.031181  0.700044  1
  O  O14  1  0.117875  0.823334  0.848308  1
  O  O15  1  0.617875  0.676666  0.151692  1
  O  O16  1  0.882125  0.176666  0.151692  1
  O  O17  1  0.382125  0.323334  0.848308  1
  O  O18  1  0.108528  0.177127  0.941776  1
  O  O19  1  0.608528  0.322873  0.058224  1
  O  O20  1  0.891472  0.822873  0.058224  1
  O  O21  1  0.391472  0.677127  0.941776  1
  O  O22  1  0.506927  0.720854  0.606741  1
  O  O23  1  0.006927  0.779146  0.393259  1
  Cu  Cu24  1  0.500000  0.500000  0.000000  1
  Cu  Cu25  1  0.000000  0.000000  0.000000  1
  Se  Se26  1  0.176788  0.865319  0.316586  1
  Se  Se27  1  0.676788  0.634681  0.683414  1
  Se  Se28  1  0.327841  0.123958  0.865135  1
  Se  Se29  1  0.827841  0.376042  0.134865  1
  Se  Se30  1  0.672159  0.876042  0.134865  1
  Se  Se31  1  0.172159  0.623958  0.865135  1
  Se  Se32  1  0.323212  0.365319  0.316586  1
  Se  Se33  1  0.823212  0.134681  0.683414  1
  Sm  Sm34  1  0.337436  0.239212  0.584330  1
  Sm  Sm35  1  0.837436  0.260788  0.415670  1
  Sm  Sm36  1  0.662564  0.760788  0.415670  1
  Sm  Sm37  1  0.162564  0.739212  0.584330  1
