# generated using pymatgen
data_Ba6Si25
_symmetry_space_group_name_H-M   'P 1'
_cell_length_a   14.16619115
_cell_length_b   14.16619115
_cell_length_c   14.16619115
_cell_angle_alpha   90.00000000
_cell_angle_beta   90.00000000
_cell_angle_gamma   90.00000000
_symmetry_Int_Tables_number   1
_chemical_formula_structural   Ba6Si25
_chemical_formula_sum   'Ba24 Si100'
_cell_volume   2842.88500525
_cell_formula_units_Z   4
loop_
 _symmetry_equiv_pos_site_id
 _symmetry_equiv_pos_as_xyz
  1  'x, y, z'
loop_
 _atom_site_type_symbol
 _atom_site_label
 _atom_site_symmetry_multiplicity
 _atom_site_fract_x
 _atom_site_fract_y
 _atom_site_fract_z
 _atom_site_occupancy
  Si  Si0  1  0.040044  0.040044  0.040044  1
  Si  Si1  1  0.290044  0.209956  0.790044  1
  Si  Si2  1  0.790044  0.290044  0.209956  1
  Si  Si3  1  0.209956  0.790044  0.290044  1
  Si  Si4  1  0.459956  0.959956  0.540044  1
  Si  Si5  1  0.540044  0.459956  0.959956  1
  Si  Si6  1  0.959956  0.540044  0.459956  1
  Si  Si7  1  0.709956  0.709956  0.709956  1
  Si  Si8  1  0.205532  0.042332  0.998996  1
  Si  Si9  1  0.455532  0.251004  0.792332  1
  Si  Si10  1  0.955532  0.248996  0.207668  1
  Si  Si11  1  0.748996  0.292332  0.044468  1
  Si  Si12  1  0.251004  0.792332  0.455532  1
  Si  Si13  1  0.207668  0.955532  0.248996  1
  Si  Si14  1  0.292332  0.044468  0.748996  1
  Si  Si15  1  0.998996  0.205532  0.042332  1
  Si  Si16  1  0.042332  0.998996  0.205532  1
  Si  Si17  1  0.457668  0.001004  0.705532  1
  Si  Si18  1  0.498996  0.294468  0.957668  1
  Si  Si19  1  0.957668  0.498996  0.294468  1
  Si  Si20  1  0.501004  0.794468  0.542332  1
  Si  Si21  1  0.001004  0.705532  0.457668  1
  Si  Si22  1  0.542332  0.501004  0.794468  1
  Si  Si23  1  0.705532  0.457668  0.001004  1
  Si  Si24  1  0.794468  0.542332  0.501004  1
  Si  Si25  1  0.294468  0.957668  0.498996  1
  Si  Si26  1  0.792332  0.455532  0.251004  1
  Si  Si27  1  0.707668  0.544468  0.751004  1
  Si  Si28  1  0.248996  0.207668  0.955532  1
  Si  Si29  1  0.751004  0.707668  0.544468  1
  Si  Si30  1  0.044468  0.748996  0.292332  1
  Si  Si31  1  0.544468  0.751004  0.707668  1
  Si  Si32  1  0.125000  0.166559  0.416559  1
  Si  Si33  1  0.375000  0.833441  0.916559  1
  Si  Si34  1  0.875000  0.666559  0.083441  1
  Si  Si35  1  0.166559  0.416559  0.125000  1
  Si  Si36  1  0.833441  0.916559  0.375000  1
  Si  Si37  1  0.083441  0.875000  0.666559  1
  Si  Si38  1  0.416559  0.125000  0.166559  1
  Si  Si39  1  0.333441  0.583441  0.625000  1
  Si  Si40  1  0.916559  0.375000  0.833441  1
  Si  Si41  1  0.583441  0.625000  0.333441  1
  Si  Si42  1  0.666559  0.083441  0.875000  1
  Si  Si43  1  0.625000  0.333441  0.583441  1
  Si  Si44  1  0.240338  0.936715  0.873330  1
  Si  Si45  1  0.490338  0.376670  0.686715  1
  Si  Si46  1  0.990338  0.123330  0.313285  1
  Si  Si47  1  0.623330  0.186715  0.009662  1
  Si  Si48  1  0.376670  0.686715  0.490338  1
  Si  Si49  1  0.313285  0.990338  0.123330  1
  Si  Si50  1  0.186715  0.009662  0.623330  1
  Si  Si51  1  0.873330  0.240338  0.936715  1
  Si  Si52  1  0.936715  0.873330  0.240338  1
  Si  Si53  1  0.563285  0.126670  0.740338  1
  Si  Si54  1  0.373330  0.259662  0.063285  1
  Si  Si55  1  0.063285  0.373330  0.259662  1
  Si  Si56  1  0.626670  0.759662  0.436715  1
  Si  Si57  1  0.126670  0.740338  0.563285  1
  Si  Si58  1  0.436715  0.626670  0.759662  1
  Si  Si59  1  0.740338  0.563285  0.126670  1
  Si  Si60  1  0.759662  0.436715  0.626670  1
  Si  Si61  1  0.259662  0.063285  0.373330  1
  Si  Si62  1  0.686715  0.490338  0.376670  1
  Si  Si63  1  0.813285  0.509662  0.876670  1
  Si  Si64  1  0.123330  0.313285  0.990338  1
  Si  Si65  1  0.876670  0.813285  0.509662  1
  Si  Si66  1  0.009662  0.623330  0.186715  1
  Si  Si67  1  0.509662  0.876670  0.813285  1
  Si  Si68  1  0.414364  0.860790  0.076849  1
  Si  Si69  1  0.664364  0.173151  0.610790  1
  Si  Si70  1  0.164364  0.326849  0.389210  1
  Si  Si71  1  0.826849  0.110790  0.835636  1
  Si  Si72  1  0.173151  0.610790  0.664364  1
  Si  Si73  1  0.389210  0.164364  0.326849  1
  Si  Si74  1  0.110790  0.835636  0.826849  1
  Si  Si75  1  0.076849  0.414364  0.860790  1
  Si  Si76  1  0.860790  0.076849  0.414364  1
  Si  Si77  1  0.639210  0.923151  0.914364  1
  Si  Si78  1  0.576849  0.085636  0.139210  1
  Si  Si79  1  0.139210  0.576849  0.085636  1
  Si  Si80  1  0.423151  0.585636  0.360790  1
  Si  Si81  1  0.923151  0.914364  0.639210  1
  Si  Si82  1  0.360790  0.423151  0.585636  1
  Si  Si83  1  0.914364  0.639210  0.923151  1
  Si  Si84  1  0.585636  0.360790  0.423151  1
  Si  Si85  1  0.085636  0.139210  0.576849  1
  Si  Si86  1  0.610790  0.664364  0.173151  1
  Si  Si87  1  0.889210  0.335636  0.673151  1
  Si  Si88  1  0.326849  0.389210  0.164364  1
  Si  Si89  1  0.673151  0.889210  0.335636  1
  Si  Si90  1  0.835636  0.826849  0.110790  1
  Si  Si91  1  0.335636  0.673151  0.889210  1
  Si  Si92  1  0.325398  0.325398  0.325398  1
  Si  Si93  1  0.575398  0.924602  0.075398  1
  Si  Si94  1  0.075398  0.575398  0.924602  1
  Si  Si95  1  0.924602  0.075398  0.575398  1
  Si  Si96  1  0.174602  0.674602  0.825398  1
  Si  Si97  1  0.825398  0.174602  0.674602  1
  Si  Si98  1  0.674602  0.825398  0.174602  1
  Si  Si99  1  0.424602  0.424602  0.424602  1
  Ba  Ba100  1  0.188737  0.188737  0.188737  1
  Ba  Ba101  1  0.438737  0.061263  0.938737  1
  Ba  Ba102  1  0.938737  0.438737  0.061263  1
  Ba  Ba103  1  0.061263  0.938737  0.438737  1
  Ba  Ba104  1  0.311263  0.811263  0.688737  1
  Ba  Ba105  1  0.688737  0.311263  0.811263  1
  Ba  Ba106  1  0.811263  0.688737  0.311263  1
  Ba  Ba107  1  0.561263  0.561263  0.561263  1
  Ba  Ba108  1  0.875000  0.875000  0.875000  1
  Ba  Ba109  1  0.125000  0.375000  0.625000  1
  Ba  Ba110  1  0.625000  0.125000  0.375000  1
  Ba  Ba111  1  0.375000  0.625000  0.125000  1
  Ba  Ba112  1  0.125000  0.807663  0.057663  1
  Ba  Ba113  1  0.375000  0.192337  0.557663  1
  Ba  Ba114  1  0.875000  0.307663  0.442337  1
  Ba  Ba115  1  0.807663  0.057663  0.125000  1
  Ba  Ba116  1  0.192337  0.557663  0.375000  1
  Ba  Ba117  1  0.442337  0.875000  0.307663  1
  Ba  Ba118  1  0.057663  0.125000  0.807663  1
  Ba  Ba119  1  0.692337  0.942337  0.625000  1
  Ba  Ba120  1  0.557663  0.375000  0.192337  1
  Ba  Ba121  1  0.942337  0.625000  0.692337  1
  Ba  Ba122  1  0.307663  0.442337  0.875000  1
  Ba  Ba123  1  0.625000  0.692337  0.942337  1
