# generated using pymatgen
data_La4Si2S3O7
_symmetry_space_group_name_H-M   'P 1'
_cell_length_a   11.26289337
_cell_length_b   11.26289336
_cell_length_c   11.26289336
_cell_angle_alpha   100.06196138
_cell_angle_beta   114.37100149
_cell_angle_gamma   114.37100144
_symmetry_Int_Tables_number   1
_chemical_formula_structural   La4Si2S3O7
_chemical_formula_sum   'La16 Si8 S12 O28'
_cell_volume   1078.12521632
_cell_formula_units_Z   4
loop_
 _symmetry_equiv_pos_site_id
 _symmetry_equiv_pos_as_xyz
  1  'x, y, z'
loop_
 _atom_site_type_symbol
 _atom_site_label
 _atom_site_symmetry_multiplicity
 _atom_site_fract_x
 _atom_site_fract_y
 _atom_site_fract_z
 _atom_site_occupancy
  O  O0  1  0.525580  0.174771  0.200351  1
  O  O1  1  0.974420  0.174771  0.649190  1
  O  O2  1  0.974420  0.799649  0.825229  1
  O  O3  1  0.474420  0.649190  0.174771  1
  O  O4  1  0.025580  0.200351  0.174771  1
  O  O5  1  0.025580  0.825229  0.350810  1
  O  O6  1  0.474420  0.825229  0.799649  1
  O  O7  1  0.525580  0.350810  0.825229  1
  O  O8  1  0.750000  0.144876  0.394876  1
  O  O9  1  0.250000  0.394876  0.144876  1
  O  O10  1  0.250000  0.855124  0.605124  1
  O  O11  1  0.750000  0.605124  0.855124  1
  O  O12  1  0.272679  0.838648  0.846013  1
  O  O13  1  0.227321  0.073334  0.565969  1
  O  O14  1  0.227321  0.153987  0.161352  1
  O  O15  1  0.492635  0.565969  0.838648  1
  O  O16  1  0.007365  0.846013  0.073334  1
  O  O17  1  0.007365  0.161352  0.434031  1
  O  O18  1  0.492635  0.926666  0.153987  1
  O  O19  1  0.272679  0.434031  0.926666  1
  O  O20  1  0.727321  0.161352  0.153987  1
  O  O21  1  0.772679  0.926666  0.434031  1
  O  O22  1  0.772679  0.846013  0.838648  1
  O  O23  1  0.507365  0.434031  0.161352  1
  O  O24  1  0.992635  0.153987  0.926666  1
  O  O25  1  0.992635  0.838648  0.565969  1
  O  O26  1  0.507365  0.073334  0.846013  1
  O  O27  1  0.727321  0.565969  0.073334  1
  Si  Si28  1  0.626544  0.097809  0.224353  1
  Si  Si29  1  0.873456  0.097809  0.471264  1
  Si  Si30  1  0.873456  0.775647  0.902191  1
  Si  Si31  1  0.373456  0.471264  0.097809  1
  Si  Si32  1  0.126544  0.224353  0.097809  1
  Si  Si33  1  0.126544  0.902191  0.528736  1
  Si  Si34  1  0.373456  0.902191  0.775647  1
  Si  Si35  1  0.626544  0.528736  0.902191  1
  S  S36  1  0.350916  0.000000  0.350916  1
  S  S37  1  0.350916  0.350916  0.500000  1
  S  S38  1  0.149084  0.649084  0.000000  1
  S  S39  1  0.149084  0.500000  0.649084  1
  S  S40  1  0.649084  0.000000  0.649084  1
  S  S41  1  0.649084  0.649084  0.500000  1
  S  S42  1  0.850916  0.350916  0.000000  1
  S  S43  1  0.850916  0.500000  0.350916  1
  S  S44  1  0.250000  0.625000  0.375000  1
  S  S45  1  0.750000  0.375000  0.625000  1
  S  S46  1  0.750000  0.875000  0.125000  1
  S  S47  1  0.250000  0.125000  0.875000  1
  La  La48  1  0.092021  0.046011  0.296011  1
  La  La49  1  0.250000  0.296011  0.703989  1
  La  La50  1  0.250000  0.953989  0.046011  1
  La  La51  1  0.407979  0.703989  0.953989  1
  La  La52  1  0.907979  0.953989  0.703989  1
  La  La53  1  0.750000  0.703989  0.296011  1
  La  La54  1  0.750000  0.046011  0.953989  1
  La  La55  1  0.592021  0.296011  0.046011  1
  La  La56  1  0.513043  0.343105  0.356148  1
  La  La57  1  0.986957  0.343105  0.830062  1
  La  La58  1  0.986957  0.643852  0.656895  1
  La  La59  1  0.486957  0.830062  0.343105  1
  La  La60  1  0.013043  0.356148  0.343105  1
  La  La61  1  0.013043  0.656895  0.169938  1
  La  La62  1  0.486957  0.656895  0.643852  1
  La  La63  1  0.513043  0.169938  0.656895  1
