# generated using pymatgen
data_NaV3P3O13
_symmetry_space_group_name_H-M   'P 1'
_cell_length_a   6.38730602
_cell_length_b   7.47245148
_cell_length_c   10.68255833
_cell_angle_alpha   99.30568739
_cell_angle_beta   90.00000000
_cell_angle_gamma   90.00000000
_symmetry_Int_Tables_number   1
_chemical_formula_structural   NaV3P3O13
_chemical_formula_sum   'Na2 V6 P6 O26'
_cell_volume   503.15605140
_cell_formula_units_Z   2
loop_
 _symmetry_equiv_pos_site_id
 _symmetry_equiv_pos_as_xyz
  1  'x, y, z'
loop_
 _atom_site_type_symbol
 _atom_site_label
 _atom_site_symmetry_multiplicity
 _atom_site_fract_x
 _atom_site_fract_y
 _atom_site_fract_z
 _atom_site_occupancy
  Na  Na0  1  0.750000  0.656989  0.184414  1
  Na  Na1  1  0.250000  0.343011  0.815586  1
  V  V2  1  0.250000  0.356413  0.198009  1
  V  V3  1  0.750000  0.643587  0.801991  1
  V  V4  1  0.250000  0.774550  0.446146  1
  V  V5  1  0.500000  0.000000  0.000000  1
  V  V6  1  0.750000  0.225450  0.553854  1
  V  V7  1  0.000000  0.000000  0.000000  1
  P  P8  1  0.250000  0.219858  0.476950  1
  P  P9  1  0.750000  0.780142  0.523050  1
  P  P10  1  0.250000  0.744266  0.769142  1
  P  P11  1  0.750000  0.255734  0.230858  1
  P  P12  1  0.750000  0.308412  0.878483  1
  P  P13  1  0.250000  0.691588  0.121517  1
  O  O14  1  0.750000  0.349695  0.739927  1
  O  O15  1  0.555483  0.732314  0.438523  1
  O  O16  1  0.250000  0.806175  0.640846  1
  O  O17  1  0.549719  0.204001  0.903219  1
  O  O18  1  0.750000  0.655545  0.626949  1
  O  O19  1  0.750000  0.862145  0.905088  1
  O  O20  1  0.250000  0.344455  0.373051  1
  O  O21  1  0.049719  0.795999  0.096781  1
  O  O22  1  0.250000  0.020158  0.410464  1
  O  O23  1  0.750000  0.979842  0.589536  1
  O  O24  1  0.058731  0.626803  0.793264  1
  O  O25  1  0.250000  0.137855  0.094912  1
  O  O26  1  0.558731  0.373197  0.206736  1
  O  O27  1  0.750000  0.506764  0.950924  1
  O  O28  1  0.750000  0.193825  0.359154  1
  O  O29  1  0.450281  0.795999  0.096781  1
  O  O30  1  0.944517  0.732314  0.438523  1
  O  O31  1  0.444517  0.267686  0.561477  1
  O  O32  1  0.441269  0.626803  0.793264  1
  O  O33  1  0.250000  0.650305  0.260073  1
  O  O34  1  0.750000  0.083909  0.121979  1
  O  O35  1  0.250000  0.916091  0.878021  1
  O  O36  1  0.941269  0.373197  0.206736  1
  O  O37  1  0.950281  0.204001  0.903219  1
  O  O38  1  0.055483  0.267686  0.561477  1
  O  O39  1  0.250000  0.493236  0.049076  1
