# generated using pymatgen
data_Te2MoWS2
_symmetry_space_group_name_H-M   'P 1'
_cell_length_a   3.35981814
_cell_length_b   3.35976768
_cell_length_c   40.13770096
_cell_angle_alpha   90.00179853
_cell_angle_beta   90.00000000
_cell_angle_gamma   120.00049678
_symmetry_Int_Tables_number   1
_chemical_formula_structural   Te2MoWS2
_chemical_formula_sum   'Te4 Mo2 W2 S4'
_cell_volume   392.37919287
_cell_formula_units_Z   2
loop_
 _symmetry_equiv_pos_site_id
 _symmetry_equiv_pos_as_xyz
  1  'x, y, z'
loop_
 _atom_site_type_symbol
 _atom_site_label
 _atom_site_symmetry_multiplicity
 _atom_site_fract_x
 _atom_site_fract_y
 _atom_site_fract_z
 _atom_site_occupancy
  Te  Te0  1  0.333388  0.666778  0.706679  1
  Te  Te1  1  0.666611  0.333220  0.421017  1
  Te  Te2  1  0.666665  0.333328  0.515164  1
  Te  Te3  1  0.333328  0.666657  0.611973  1
  Mo  Mo4  1  0.333355  0.666710  0.093907  1
  Mo  Mo5  1  0.333310  0.666619  0.468068  1
  W  W6  1  0.666665  0.333329  0.281568  1
  W  W7  1  0.666690  0.333379  0.659333  1
  S  S8  1  0.333340  0.666680  0.319442  1
  S  S9  1  0.666662  0.333324  0.056196  1
  S  S10  1  0.666671  0.333341  0.131631  1
  S  S11  1  0.333316  0.666634  0.243769  1
