# generated using pymatgen
data_Ca2SiO4
_symmetry_space_group_name_H-M   'P 1'
_cell_length_a   5.54201050
_cell_length_b   5.53581459
_cell_length_c   7.47889924
_cell_angle_alpha   90.00000000
_cell_angle_beta   90.00000000
_cell_angle_gamma   120.03703108
_symmetry_Int_Tables_number   1
_chemical_formula_structural   Ca2SiO4
_chemical_formula_sum   'Ca4 Si2 O8'
_cell_volume   198.63465326
_cell_formula_units_Z   2
loop_
 _symmetry_equiv_pos_site_id
 _symmetry_equiv_pos_as_xyz
  1  'x, y, z'
loop_
 _atom_site_type_symbol
 _atom_site_label
 _atom_site_symmetry_multiplicity
 _atom_site_fract_x
 _atom_site_fract_y
 _atom_site_fract_z
 _atom_site_occupancy
  Ca  Ca0  1  0.666543  0.333086  0.323851  1
  Ca  Ca1  1  0.333457  0.666914  0.823851  1
  Ca  Ca2  1  0.999609  0.999217  0.055529  1
  Ca  Ca3  1  0.000391  0.000783  0.555529  1
  Si  Si4  1  0.666657  0.333314  0.838537  1
  Si  Si5  1  0.333343  0.666686  0.338537  1
  O  O6  1  0.667846  0.335691  0.054609  1
  O  O7  1  0.332154  0.664309  0.554609  1
  O  O8  1  0.830033  0.660066  0.774783  1
  O  O9  1  0.339340  0.168787  0.776345  1
  O  O10  1  0.829447  0.168787  0.776345  1
  O  O11  1  0.169967  0.339934  0.274783  1
  O  O12  1  0.660660  0.831213  0.276345  1
  O  O13  1  0.170553  0.831213  0.276345  1
