# generated using pymatgen
data_Te4Mo3WSe4
_symmetry_space_group_name_H-M   'P 1'
_cell_length_a   3.44002353
_cell_length_b   3.43998678
_cell_length_c   39.10440764
_cell_angle_alpha   90.00029380
_cell_angle_beta   90.00000000
_cell_angle_gamma   120.00035348
_symmetry_Int_Tables_number   1
_chemical_formula_structural   Te4Mo3WSe4
_chemical_formula_sum   'Te4 Mo3 W1 Se4'
_cell_volume   400.74949449
_cell_formula_units_Z   1
loop_
 _symmetry_equiv_pos_site_id
 _symmetry_equiv_pos_as_xyz
  1  'x, y, z'
loop_
 _atom_site_type_symbol
 _atom_site_label
 _atom_site_symmetry_multiplicity
 _atom_site_fract_x
 _atom_site_fract_y
 _atom_site_fract_z
 _atom_site_occupancy
  Te  Te0  1  0.333355  0.666710  0.704975  1
  Te  Te1  1  0.666651  0.333300  0.421905  1
  Te  Te2  1  0.666647  0.333293  0.517323  1
  Te  Te3  1  0.333356  0.666712  0.610148  1
  Mo  Mo4  1  0.333311  0.666622  0.093928  1
  Mo  Mo5  1  0.666691  0.333383  0.281805  1
  Mo  Mo6  1  0.666692  0.333384  0.657593  1
  W  W7  1  0.333313  0.666627  0.469629  1
  Se  Se8  1  0.333357  0.666714  0.323622  1
  Se  Se9  1  0.666628  0.333254  0.052123  1
  Se  Se10  1  0.666649  0.333298  0.135735  1
  Se  Se11  1  0.333351  0.666704  0.239962  1
