# generated using pymatgen
data_AgSnF6
_symmetry_space_group_name_H-M   'P 1'
_cell_length_a   5.32967744
_cell_length_b   5.46726693
_cell_length_c   5.74705739
_cell_angle_alpha   64.09693930
_cell_angle_beta   89.46497571
_cell_angle_gamma   61.45953279
_symmetry_Int_Tables_number   1
_chemical_formula_structural   AgSnF6
_chemical_formula_sum   'Ag1 Sn1 F6'
_cell_volume   128.05107570
_cell_formula_units_Z   1
loop_
 _symmetry_equiv_pos_site_id
 _symmetry_equiv_pos_as_xyz
  1  'x, y, z'
loop_
 _atom_site_type_symbol
 _atom_site_label
 _atom_site_symmetry_multiplicity
 _atom_site_fract_x
 _atom_site_fract_y
 _atom_site_fract_z
 _atom_site_occupancy
  F  F0  1  0.577680  0.566461  0.719814  1
  F  F1  1  0.422320  0.433539  0.280186  1
  F  F2  1  0.745116  0.855969  0.260382  1
  F  F3  1  0.254884  0.144031  0.739618  1
  F  F4  1  0.129490  0.128387  0.261525  1
  F  F5  1  0.870510  0.871613  0.738475  1
  Ag  Ag6  1  0.000000  0.000000  0.000000  1
  Sn  Sn7  1  0.500000  0.000000  0.500000  1
