# generated using pymatgen
data_RbMo2(PO4)3
_symmetry_space_group_name_H-M   'P 1'
_cell_length_a   9.02129944
_cell_length_b   9.46107826
_cell_length_c   12.50370345
_cell_angle_alpha   90.00000000
_cell_angle_beta   90.00000000
_cell_angle_gamma   90.00000000
_symmetry_Int_Tables_number   1
_chemical_formula_structural   RbMo2(PO4)3
_chemical_formula_sum   'Rb4 Mo8 P12 O48'
_cell_volume   1067.20634408
_cell_formula_units_Z   4
loop_
 _symmetry_equiv_pos_site_id
 _symmetry_equiv_pos_as_xyz
  1  'x, y, z'
loop_
 _atom_site_type_symbol
 _atom_site_label
 _atom_site_symmetry_multiplicity
 _atom_site_fract_x
 _atom_site_fract_y
 _atom_site_fract_z
 _atom_site_occupancy
  O  O0  1  0.640100  0.590975  0.750000  1
  O  O1  1  0.640100  0.909025  0.250000  1
  O  O2  1  0.359900  0.090975  0.750000  1
  O  O3  1  0.359900  0.409025  0.250000  1
  O  O4  1  0.066607  0.163704  0.419617  1
  O  O5  1  0.066607  0.336296  0.580383  1
  O  O6  1  0.933393  0.663704  0.080383  1
  O  O7  1  0.933393  0.836296  0.919617  1
  O  O8  1  0.933393  0.836296  0.580383  1
  O  O9  1  0.933393  0.663704  0.419617  1
  O  O10  1  0.066607  0.336296  0.919617  1
  O  O11  1  0.066607  0.163704  0.080383  1
  O  O12  1  0.428042  0.893725  0.384239  1
  O  O13  1  0.428042  0.606275  0.615761  1
  O  O14  1  0.571958  0.393725  0.115761  1
  O  O15  1  0.571958  0.106275  0.884239  1
  O  O16  1  0.571958  0.106275  0.615761  1
  O  O17  1  0.611639  0.798860  0.622306  1
  O  O18  1  0.571958  0.393725  0.384239  1
  O  O19  1  0.428042  0.893725  0.115761  1
  O  O20  1  0.388361  0.201140  0.377694  1
  O  O21  1  0.388361  0.298860  0.622306  1
  O  O22  1  0.611639  0.701140  0.122306  1
  O  O23  1  0.611639  0.798860  0.877694  1
  O  O24  1  0.212398  0.018141  0.250000  1
  O  O25  1  0.212398  0.481859  0.750000  1
  O  O26  1  0.787602  0.518141  0.250000  1
  O  O27  1  0.787602  0.981859  0.750000  1
  O  O28  1  0.124638  0.848675  0.068406  1
  O  O29  1  0.124638  0.651325  0.931594  1
  O  O30  1  0.875362  0.348675  0.431594  1
  O  O31  1  0.875362  0.151325  0.568406  1
  O  O32  1  0.875362  0.151325  0.931594  1
  O  O33  1  0.875362  0.348675  0.068406  1
  O  O34  1  0.124638  0.651325  0.568406  1
  O  O35  1  0.124638  0.848675  0.431594  1
  O  O36  1  0.301397  0.050658  0.937256  1
  O  O37  1  0.301397  0.449342  0.062744  1
  O  O38  1  0.698603  0.550658  0.562744  1
  O  O39  1  0.698603  0.949342  0.437256  1
  O  O40  1  0.698603  0.949342  0.062744  1
  O  O41  1  0.698603  0.550658  0.937256  1
  O  O42  1  0.301397  0.449342  0.437256  1
  O  O43  1  0.301397  0.050658  0.562744  1
  O  O44  1  0.388361  0.201140  0.122306  1
  O  O45  1  0.388361  0.298860  0.877694  1
  O  O46  1  0.611639  0.701140  0.377694  1
  O  O47  1  0.428042  0.606275  0.884239  1
  P  P48  1  0.408891  0.360299  0.369798  1
  P  P49  1  0.408891  0.139701  0.630202  1
  P  P50  1  0.591109  0.860299  0.130202  1
  P  P51  1  0.591109  0.639701  0.869798  1
  P  P52  1  0.591109  0.639701  0.630202  1
  P  P53  1  0.591109  0.860299  0.369798  1
  P  P54  1  0.408891  0.139701  0.869798  1
  P  P55  1  0.408891  0.360299  0.130202  1
  P  P56  1  0.973388  0.250000  0.500000  1
  P  P57  1  0.026612  0.750000  0.000000  1
  P  P58  1  0.026612  0.750000  0.500000  1
  P  P59  1  0.973388  0.250000  0.000000  1
  Rb  Rb60  1  0.184102  0.837550  0.750000  1
  Rb  Rb61  1  0.184102  0.662450  0.250000  1
  Rb  Rb62  1  0.815898  0.337550  0.750000  1
  Rb  Rb63  1  0.815898  0.162450  0.250000  1
  Mo  Mo64  1  0.247126  0.030169  0.399860  1
  Mo  Mo65  1  0.247126  0.469831  0.600140  1
  Mo  Mo66  1  0.752874  0.530169  0.100140  1
  Mo  Mo67  1  0.752874  0.969831  0.899860  1
  Mo  Mo68  1  0.752874  0.969831  0.600140  1
  Mo  Mo69  1  0.752874  0.530169  0.399860  1
  Mo  Mo70  1  0.247126  0.469831  0.899860  1
  Mo  Mo71  1  0.247126  0.030169  0.100140  1
