# generated using pymatgen
data_Mo2WS6
_symmetry_space_group_name_H-M   'P 1'
_cell_length_a   3.18788010
_cell_length_b   3.18774271
_cell_length_c   29.10874473
_cell_angle_alpha   90.00000000
_cell_angle_beta   90.00000000
_cell_angle_gamma   120.00142569
_symmetry_Int_Tables_number   1
_chemical_formula_structural   Mo2WS6
_chemical_formula_sum   'Mo2 W1 S6'
_cell_volume   256.17285616
_cell_formula_units_Z   1
loop_
 _symmetry_equiv_pos_site_id
 _symmetry_equiv_pos_as_xyz
  1  'x, y, z'
loop_
 _atom_site_type_symbol
 _atom_site_label
 _atom_site_symmetry_multiplicity
 _atom_site_fract_x
 _atom_site_fract_y
 _atom_site_fract_z
 _atom_site_occupancy
  Mo  Mo0  1  0.333313  0.666627  0.115653  1
  Mo  Mo1  1  0.333313  0.666627  0.578312  1
  W  W2  1  0.666686  0.333373  0.346982  1
  S  S3  1  0.333355  0.666712  0.401041  1
  S  S4  1  0.666644  0.333287  0.061791  1
  S  S5  1  0.666644  0.333287  0.524470  1
  S  S6  1  0.666644  0.333287  0.169495  1
  S  S7  1  0.666644  0.333287  0.632173  1
  S  S8  1  0.333355  0.666712  0.292924  1
