# generated using pymatgen
data_RbNa3Li12(SiO4)4
_symmetry_space_group_name_H-M   'P 1'
_cell_length_a   6.37503089
_cell_length_b   8.42532355
_cell_length_c   8.42532355
_cell_angle_alpha   81.77097915
_cell_angle_beta   67.76999599
_cell_angle_gamma   67.76999607
_symmetry_Int_Tables_number   1
_chemical_formula_structural   RbNa3Li12(SiO4)4
_chemical_formula_sum   'Rb1 Na3 Li12 Si4 O16'
_cell_volume   387.76649515
_cell_formula_units_Z   1
loop_
 _symmetry_equiv_pos_site_id
 _symmetry_equiv_pos_as_xyz
  1  'x, y, z'
loop_
 _atom_site_type_symbol
 _atom_site_label
 _atom_site_symmetry_multiplicity
 _atom_site_fract_x
 _atom_site_fract_y
 _atom_site_fract_z
 _atom_site_occupancy
  Li  Li0  1  0.927571  0.358304  0.786555  1
  Li  Li1  1  0.285874  0.786555  0.641696  1
  Li  Li2  1  0.072429  0.641696  0.213445  1
  Li  Li3  1  0.714126  0.213445  0.358304  1
  Li  Li4  1  0.491042  0.658577  0.873543  1
  Li  Li5  1  0.364585  0.126457  0.658577  1
  Li  Li6  1  0.508958  0.341423  0.126457  1
  Li  Li7  1  0.023162  0.341423  0.126457  1
  Li  Li8  1  0.976838  0.658577  0.873543  1
  Li  Li9  1  0.850381  0.126457  0.658577  1
  Li  Li10  1  0.635415  0.873543  0.341423  1
  Li  Li11  1  0.149619  0.873543  0.341423  1
  O  O12  1  0.087497  0.113466  0.280009  1
  O  O13  1  0.200963  0.280009  0.886534  1
  O  O14  1  0.480972  0.886534  0.719991  1
  O  O15  1  0.367506  0.719991  0.113466  1
  O  O16  1  0.799037  0.719991  0.113466  1
  O  O17  1  0.912503  0.886534  0.719991  1
  O  O18  1  0.632494  0.280009  0.886534  1
  O  O19  1  0.519028  0.113466  0.280009  1
  O  O20  1  0.435856  0.724600  0.403687  1
  O  O21  1  0.839544  0.596313  0.724600  1
  O  O22  1  0.160456  0.403687  0.275400  1
  O  O23  1  0.564144  0.275400  0.596313  1
  O  O24  1  0.891503  0.782865  0.434129  1
  O  O25  1  0.325632  0.565871  0.782865  1
  O  O26  1  0.674368  0.434129  0.217135  1
  O  O27  1  0.108497  0.217135  0.565871  1
  Na  Na28  1  0.250000  0.500000  0.500000  1
  Na  Na29  1  0.750000  0.500000  0.500000  1
  Na  Na30  1  0.500000  0.000000  0.000000  1
  Si  Si31  1  0.780237  0.794480  0.645047  1
  Si  Si32  1  0.574716  0.645047  0.205520  1
  Si  Si33  1  0.425284  0.354953  0.794480  1
  Si  Si34  1  0.219763  0.205520  0.354953  1
  Rb  Rb35  1  0.000000  0.000000  0.000000  1
