# generated using pymatgen
data_Dy4(SiS4)3
_symmetry_space_group_name_H-M   'P 1'
_cell_length_a   9.93735254
_cell_length_b   11.10975080
_cell_length_c   16.56081484
_cell_angle_alpha   90.00000000
_cell_angle_beta   103.68364246
_cell_angle_gamma   90.00000000
_symmetry_Int_Tables_number   1
_chemical_formula_structural   Dy4(SiS4)3
_chemical_formula_sum   'Dy16 Si12 S48'
_cell_volume   1776.44467048
_cell_formula_units_Z   4
loop_
 _symmetry_equiv_pos_site_id
 _symmetry_equiv_pos_as_xyz
  1  'x, y, z'
loop_
 _atom_site_type_symbol
 _atom_site_label
 _atom_site_symmetry_multiplicity
 _atom_site_fract_x
 _atom_site_fract_y
 _atom_site_fract_z
 _atom_site_occupancy
  Si  Si0  1  0.207342  0.785911  0.733067  1
  Si  Si1  1  0.292658  0.285911  0.766933  1
  Si  Si2  1  0.792658  0.214089  0.266933  1
  Si  Si3  1  0.707342  0.714089  0.233067  1
  Si  Si4  1  0.196664  0.620305  0.440869  1
  Si  Si5  1  0.303336  0.120305  0.059131  1
  Si  Si6  1  0.803336  0.379695  0.559131  1
  Si  Si7  1  0.696664  0.879695  0.940869  1
  Si  Si8  1  0.718617  0.951337  0.619212  1
  Si  Si9  1  0.781383  0.451337  0.880788  1
  Si  Si10  1  0.281383  0.048663  0.380788  1
  Si  Si11  1  0.218617  0.548663  0.119212  1
  S  S12  1  0.250375  0.958321  0.686138  1
  S  S13  1  0.249625  0.458321  0.813862  1
  S  S14  1  0.749625  0.041679  0.313862  1
  S  S15  1  0.750375  0.541679  0.186138  1
  S  S16  1  0.156935  0.445249  0.474261  1
  S  S17  1  0.343065  0.945249  0.025739  1
  S  S18  1  0.843065  0.554751  0.525739  1
  S  S19  1  0.656935  0.054751  0.974261  1
  S  S20  1  0.649336  0.774481  0.629052  1
  S  S21  1  0.850664  0.274481  0.870948  1
  S  S22  1  0.350664  0.225519  0.370948  1
  S  S23  1  0.149336  0.725519  0.129052  1
  S  S24  1  0.167637  0.020765  0.473046  1
  S  S25  1  0.332363  0.520765  0.026954  1
  S  S26  1  0.832363  0.979235  0.526954  1
  S  S27  1  0.667637  0.479235  0.973046  1
  S  S28  1  0.847172  0.027785  0.730267  1
  S  S29  1  0.652828  0.527785  0.769733  1
  S  S30  1  0.152828  0.972215  0.269733  1
  S  S31  1  0.347172  0.472215  0.230267  1
  S  S32  1  0.537923  0.065030  0.592948  1
  S  S33  1  0.962077  0.565030  0.907052  1
  S  S34  1  0.462077  0.934970  0.407052  1
  S  S35  1  0.037923  0.434970  0.092948  1
  S  S36  1  0.405242  0.659711  0.448565  1
  S  S37  1  0.094758  0.159711  0.051435  1
  S  S38  1  0.594758  0.340289  0.551435  1
  S  S39  1  0.905242  0.840289  0.948565  1
  S  S40  1  0.108786  0.742064  0.513786  1
  S  S41  1  0.391214  0.242064  0.986214  1
  S  S42  1  0.891214  0.257936  0.486214  1
  S  S43  1  0.608786  0.757936  0.013786  1
  S  S44  1  0.342854  0.666227  0.686330  1
  S  S45  1  0.157146  0.166227  0.813670  1
  S  S46  1  0.657146  0.333773  0.313671  1
  S  S47  1  0.842854  0.833773  0.186330  1
  S  S48  1  0.238939  0.289732  0.635780  1
  S  S49  1  0.261061  0.789732  0.864220  1
  S  S50  1  0.761061  0.710268  0.364220  1
  S  S51  1  0.738939  0.210268  0.135780  1
  S  S52  1  0.918556  0.347800  0.684135  1
  S  S53  1  0.581444  0.847800  0.815865  1
  S  S54  1  0.081444  0.652200  0.315865  1
  S  S55  1  0.418556  0.152200  0.184135  1
  S  S56  1  0.002222  0.720643  0.692041  1
  S  S57  1  0.497778  0.220643  0.807959  1
  S  S58  1  0.997778  0.279357  0.307959  1
  S  S59  1  0.502222  0.779357  0.192041  1
  Dy  Dy60  1  0.820171  0.737059  0.790799  1
  Dy  Dy61  1  0.679829  0.237059  0.709201  1
  Dy  Dy62  1  0.179829  0.262941  0.209201  1
  Dy  Dy63  1  0.320171  0.762941  0.290799  1
  Dy  Dy64  1  0.026872  0.127782  0.635107  1
  Dy  Dy65  1  0.473128  0.627782  0.864893  1
  Dy  Dy66  1  0.973128  0.872218  0.364893  1
  Dy  Dy67  1  0.526872  0.372218  0.135107  1
  Dy  Dy68  1  0.373220  0.850516  0.559181  1
  Dy  Dy69  1  0.126780  0.350516  0.940819  1
  Dy  Dy70  1  0.626780  0.149484  0.440819  1
  Dy  Dy71  1  0.873220  0.649484  0.059181  1
  Dy  Dy72  1  0.108169  0.518580  0.625574  1
  Dy  Dy73  1  0.391831  0.018580  0.874426  1
  Dy  Dy74  1  0.891831  0.481420  0.374426  1
  Dy  Dy75  1  0.608169  0.981420  0.125574  1
