# generated using pymatgen
data_NaSm2IrO6
_symmetry_space_group_name_H-M   'P 1'
_cell_length_a   5.50502435
_cell_length_b   5.93747625
_cell_length_c   7.97931343
_cell_angle_alpha   90.00000000
_cell_angle_beta   91.25995829
_cell_angle_gamma   90.00000000
_symmetry_Int_Tables_number   1
_chemical_formula_structural   NaSm2IrO6
_chemical_formula_sum   'Na2 Sm4 Ir2 O12'
_cell_volume   260.74839160
_cell_formula_units_Z   2
loop_
 _symmetry_equiv_pos_site_id
 _symmetry_equiv_pos_as_xyz
  1  'x, y, z'
loop_
 _atom_site_type_symbol
 _atom_site_label
 _atom_site_symmetry_multiplicity
 _atom_site_fract_x
 _atom_site_fract_y
 _atom_site_fract_z
 _atom_site_occupancy
  O  O0  1  0.839685  0.717310  0.573825  1
  O  O1  1  0.660315  0.217310  0.926175  1
  O  O2  1  0.160315  0.282690  0.426175  1
  O  O3  1  0.339685  0.782690  0.073825  1
  O  O4  1  0.130271  0.056998  0.732050  1
  O  O5  1  0.369729  0.556998  0.767950  1
  O  O6  1  0.869729  0.943002  0.267950  1
  O  O7  1  0.630271  0.443002  0.232050  1
  O  O8  1  0.201368  0.326567  0.055106  1
  O  O9  1  0.298632  0.826567  0.444894  1
  O  O10  1  0.798632  0.673433  0.944894  1
  O  O11  1  0.701368  0.173433  0.555106  1
  Na  Na12  1  0.500000  0.500000  0.500000  1
  Na  Na13  1  0.000000  0.000000  0.000000  1
  Sm  Sm14  1  0.476762  0.074745  0.255108  1
  Sm  Sm15  1  0.023238  0.574745  0.244892  1
  Sm  Sm16  1  0.976762  0.425255  0.755108  1
  Sm  Sm17  1  0.523238  0.925255  0.744892  1
  Ir  Ir18  1  0.500000  0.500000  0.000000  1
  Ir  Ir19  1  0.000000  0.000000  0.500000  1
