# generated using pymatgen
data_Mn2Al4Si5O18
_symmetry_space_group_name_H-M   'P 1'
_cell_length_a   9.39212597
_cell_length_b   9.99619785
_cell_length_c   10.12353071
_cell_angle_alpha   119.58479101
_cell_angle_beta   90.00000000
_cell_angle_gamma   90.00000000
_symmetry_Int_Tables_number   1
_chemical_formula_structural   Mn2Al4Si5O18
_chemical_formula_sum   'Mn4 Al8 Si10 O36'
_cell_volume   826.53886566
_cell_formula_units_Z   2
loop_
 _symmetry_equiv_pos_site_id
 _symmetry_equiv_pos_as_xyz
  1  'x, y, z'
loop_
 _atom_site_type_symbol
 _atom_site_label
 _atom_site_symmetry_multiplicity
 _atom_site_fract_x
 _atom_site_fract_y
 _atom_site_fract_z
 _atom_site_occupancy
  O  O0  1  0.500000  0.087620  0.322960  1
  O  O1  1  0.500000  0.912380  0.677040  1
  O  O2  1  0.000000  0.764660  0.677040  1
  O  O3  1  0.000000  0.235341  0.322961  1
  O  O4  1  0.500000  0.304582  0.237196  1
  O  O5  1  0.500000  0.695418  0.762804  1
  O  O6  1  0.000000  0.067386  0.762804  1
  O  O7  1  0.000000  0.932614  0.237196  1
  O  O8  1  0.500000  0.798208  0.089928  1
  O  O9  1  0.500000  0.201792  0.910072  1
  O  O10  1  0.000000  0.708280  0.910072  1
  O  O11  1  0.000000  0.291720  0.089928  1
  O  O12  1  0.858209  0.475603  0.346982  1
  O  O13  1  0.858209  0.524398  0.653018  1
  O  O14  1  0.641790  0.128621  0.653018  1
  O  O15  1  0.641790  0.871380  0.346983  1
  O  O16  1  0.141790  0.524398  0.653018  1
  O  O17  1  0.141790  0.475603  0.346982  1
  O  O18  1  0.358209  0.871380  0.346983  1
  O  O19  1  0.358209  0.128621  0.653018  1
  O  O20  1  0.849250  0.354406  0.881206  1
  O  O21  1  0.849250  0.645595  0.118795  1
  O  O22  1  0.358503  0.348687  0.484804  1
  O  O23  1  0.358503  0.651313  0.515196  1
  O  O24  1  0.141497  0.863884  0.515197  1
  O  O25  1  0.141497  0.136116  0.484803  1
  O  O26  1  0.641497  0.651313  0.515196  1
  O  O27  1  0.641497  0.348687  0.484804  1
  O  O28  1  0.858503  0.136116  0.484803  1
  O  O29  1  0.650751  0.473199  0.118794  1
  O  O30  1  0.349250  0.473199  0.118794  1
  O  O31  1  0.349250  0.526800  0.881206  1
  O  O32  1  0.150750  0.354406  0.881206  1
  O  O33  1  0.150750  0.645595  0.118795  1
  O  O34  1  0.650751  0.526800  0.881206  1
  O  O35  1  0.858503  0.863884  0.515197  1
  Al  Al36  1  0.500000  0.352860  0.094624  1
  Al  Al37  1  0.500000  0.647139  0.905375  1
  Al  Al38  1  0.000000  0.258236  0.905375  1
  Al  Al39  1  0.000000  0.741764  0.094624  1
  Al  Al40  1  0.749918  1.000000  0.500000  1
  Al  Al41  1  0.750082  0.500000  0.500000  1
  Al  Al42  1  0.250082  1.000000  0.500000  1
  Al  Al43  1  0.249918  0.500000  0.500000  1
  Si  Si44  1  0.000000  0.365406  0.269855  1
  Si  Si45  1  0.500000  0.730129  0.624131  1
  Si  Si46  1  0.000000  0.894001  0.624130  1
  Si  Si47  1  0.000000  0.634594  0.730145  1
  Si  Si48  1  0.750000  0.500000  0.000000  1
  Si  Si49  1  0.250000  0.500000  0.000000  1
  Si  Si50  1  0.500000  0.095551  0.730145  1
  Si  Si51  1  0.500000  0.904449  0.269855  1
  Si  Si52  1  0.500000  0.269871  0.375869  1
  Si  Si53  1  0.000000  0.105999  0.375869  1
  Mn  Mn54  1  0.750000  0.337131  0.674262  1
  Mn  Mn55  1  0.750000  0.662868  0.325738  1
  Mn  Mn56  1  0.250000  0.662868  0.325738  1
  Mn  Mn57  1  0.250000  0.337131  0.674262  1
