# generated using pymatgen
data_Rb2NbCuSe4
_symmetry_space_group_name_H-M   'P 1'
_cell_length_a   5.80218441
_cell_length_b   7.70575895
_cell_length_c   12.91482524
_cell_angle_alpha   85.14867019
_cell_angle_beta   77.01871882
_cell_angle_gamma   67.88395924
_symmetry_Int_Tables_number   1
_chemical_formula_structural   Rb2NbCuSe4
_chemical_formula_sum   'Rb4 Nb2 Cu2 Se8'
_cell_volume   521.26864104
_cell_formula_units_Z   2
loop_
 _symmetry_equiv_pos_site_id
 _symmetry_equiv_pos_as_xyz
  1  'x, y, z'
loop_
 _atom_site_type_symbol
 _atom_site_label
 _atom_site_symmetry_multiplicity
 _atom_site_fract_x
 _atom_site_fract_y
 _atom_site_fract_z
 _atom_site_occupancy
  Cu  Cu0  1  0.875000  0.250000  0.250000  1
  Cu  Cu1  1  0.125000  0.750000  0.750000  1
  Se  Se2  1  0.913817  0.553300  0.860412  1
  Se  Se3  1  0.827528  0.946700  0.639588  1
  Se  Se4  1  0.532883  0.553300  0.639588  1
  Se  Se5  1  0.225772  0.946700  0.860412  1
  Se  Se6  1  0.467117  0.446700  0.360412  1
  Se  Se7  1  0.774228  0.053300  0.139588  1
  Se  Se8  1  0.172472  0.053300  0.360412  1
  Se  Se9  1  0.086183  0.446700  0.139588  1
  Rb  Rb10  1  0.803770  0.750000  0.392461  1
  Rb  Rb11  1  0.446230  0.750000  0.107539  1
  Rb  Rb12  1  0.553770  0.250000  0.892461  1
  Rb  Rb13  1  0.196231  0.250000  0.607539  1
  Nb  Nb14  1  0.375000  0.250000  0.250000  1
  Nb  Nb15  1  0.625000  0.750000  0.750000  1
