# generated using pymatgen
data_K2ZnP2O7
_symmetry_space_group_name_H-M   'P 1'
_cell_length_a   7.98389880
_cell_length_b   7.98389880
_cell_length_c   11.49374961
_cell_angle_alpha   90.00000000
_cell_angle_beta   90.00000000
_cell_angle_gamma   90.00000000
_symmetry_Int_Tables_number   1
_chemical_formula_structural   K2ZnP2O7
_chemical_formula_sum   'K8 Zn4 P8 O28'
_cell_volume   732.64194420
_cell_formula_units_Z   4
loop_
 _symmetry_equiv_pos_site_id
 _symmetry_equiv_pos_as_xyz
  1  'x, y, z'
loop_
 _atom_site_type_symbol
 _atom_site_label
 _atom_site_symmetry_multiplicity
 _atom_site_fract_x
 _atom_site_fract_y
 _atom_site_fract_z
 _atom_site_occupancy
  O  O0  1  0.078647  0.301615  0.339665  1
  O  O1  1  0.921353  0.698385  0.339665  1
  O  O2  1  0.301615  0.078647  0.660335  1
  O  O3  1  0.801615  0.421353  0.839665  1
  O  O4  1  0.198385  0.578647  0.839665  1
  O  O5  1  0.421353  0.801615  0.160335  1
  O  O6  1  0.578647  0.198385  0.160335  1
  O  O7  1  0.698385  0.921353  0.660335  1
  O  O8  1  0.921353  0.698385  0.660335  1
  O  O9  1  0.078647  0.301615  0.660335  1
  O  O10  1  0.698385  0.921353  0.339665  1
  O  O11  1  0.198385  0.578647  0.160335  1
  O  O12  1  0.801615  0.421353  0.160335  1
  O  O13  1  0.578647  0.198385  0.839665  1
  O  O14  1  0.421353  0.801615  0.839665  1
  O  O15  1  0.301615  0.078647  0.339665  1
  O  O16  1  0.864213  0.864213  0.850018  1
  O  O17  1  0.135787  0.135787  0.850018  1
  O  O18  1  0.864213  0.864213  0.149982  1
  O  O19  1  0.364213  0.635787  0.350018  1
  O  O20  1  0.000000  0.000000  0.331815  1
  O  O21  1  0.500000  0.500000  0.831815  1
  O  O22  1  0.500000  0.500000  0.168185  1
  O  O23  1  0.000000  0.000000  0.668185  1
  O  O24  1  0.135787  0.135787  0.149982  1
  O  O25  1  0.364213  0.635787  0.649982  1
  O  O26  1  0.635787  0.364213  0.649982  1
  O  O27  1  0.635787  0.364213  0.350018  1
  P  P28  1  0.863658  0.863658  0.718947  1
  P  P29  1  0.136342  0.136342  0.718947  1
  P  P30  1  0.863658  0.863658  0.281053  1
  P  P31  1  0.363658  0.636342  0.218947  1
  P  P32  1  0.636342  0.363658  0.218947  1
  P  P33  1  0.636342  0.363658  0.781053  1
  P  P34  1  0.363658  0.636342  0.781053  1
  P  P35  1  0.136342  0.136342  0.281053  1
  K  K36  1  0.315515  0.315515  0.000000  1
  K  K37  1  0.684485  0.684485  0.000000  1
  K  K38  1  0.815515  0.184485  0.500000  1
  K  K39  1  0.184485  0.815515  0.500000  1
  K  K40  1  0.151398  0.848602  0.000000  1
  K  K41  1  0.651398  0.651398  0.500000  1
  K  K42  1  0.348602  0.348602  0.500000  1
  K  K43  1  0.848602  0.151398  0.000000  1
  Zn  Zn44  1  0.500000  0.000000  0.250000  1
  Zn  Zn45  1  0.000000  0.500000  0.250000  1
  Zn  Zn46  1  0.000000  0.500000  0.750000  1
  Zn  Zn47  1  0.500000  0.000000  0.750000  1
