# generated using pymatgen
data_K4Nb8Si(P2O17)2
_symmetry_space_group_name_H-M   'P 1'
_cell_length_a   6.54190314
_cell_length_b   10.79916122
_cell_length_c   10.79916122
_cell_angle_alpha   90.00000000
_cell_angle_beta   90.00000000
_cell_angle_gamma   90.00000000
_symmetry_Int_Tables_number   1
_chemical_formula_structural   K4Nb8Si(P2O17)2
_chemical_formula_sum   'K4 Nb8 Si1 P4 O34'
_cell_volume   762.92906295
_cell_formula_units_Z   1
loop_
 _symmetry_equiv_pos_site_id
 _symmetry_equiv_pos_as_xyz
  1  'x, y, z'
loop_
 _atom_site_type_symbol
 _atom_site_label
 _atom_site_symmetry_multiplicity
 _atom_site_fract_x
 _atom_site_fract_y
 _atom_site_fract_z
 _atom_site_occupancy
  O  O0  1  0.314117  0.160864  0.803623  1
  O  O1  1  0.314117  0.839136  0.196377  1
  O  O2  1  0.685883  0.803623  0.839136  1
  O  O3  1  0.685883  0.196377  0.160864  1
  O  O4  1  0.314117  0.839136  0.803623  1
  O  O5  1  0.685883  0.803623  0.160864  1
  O  O6  1  0.685883  0.196377  0.839136  1
  O  O7  1  0.314117  0.160864  0.196377  1
  O  O8  1  0.029593  0.824405  0.000000  1
  O  O9  1  0.970407  0.000000  0.175595  1
  O  O10  1  0.970407  0.000000  0.824405  1
  O  O11  1  0.029593  0.175595  0.000000  1
  O  O12  1  0.149241  0.500000  0.624797  1
  O  O13  1  0.850759  0.624797  0.500000  1
  O  O14  1  0.850759  0.375203  0.500000  1
  O  O15  1  0.149241  0.500000  0.375203  1
  O  O16  1  0.458964  0.377731  0.785375  1
  O  O17  1  0.255839  0.500000  0.000000  1
  O  O18  1  0.744161  0.000000  0.500000  1
  O  O19  1  0.019851  0.363410  0.172434  1
  O  O20  1  0.980149  0.172434  0.636590  1
  O  O21  1  0.980149  0.827566  0.363410  1
  O  O22  1  0.019851  0.636590  0.827566  1
  O  O23  1  0.980149  0.172434  0.363410  1
  O  O24  1  0.980149  0.827566  0.636590  1
  O  O25  1  0.458964  0.622269  0.214625  1
  O  O26  1  0.019851  0.363410  0.827566  1
  O  O27  1  0.458964  0.377731  0.214625  1
  O  O28  1  0.541036  0.214625  0.622269  1
  O  O29  1  0.541036  0.785375  0.377731  1
  O  O30  1  0.458964  0.622269  0.785375  1
  O  O31  1  0.541036  0.214625  0.377731  1
  O  O32  1  0.541036  0.785375  0.622269  1
  O  O33  1  0.019851  0.636590  0.172434  1
  Si  Si34  1  0.000000  0.500000  0.500000  1
  P  P35  1  0.500000  0.239879  0.760121  1
  P  P36  1  0.500000  0.239879  0.239879  1
  P  P37  1  0.500000  0.760121  0.239879  1
  P  P38  1  0.500000  0.760121  0.760121  1
  K  K39  1  0.500000  0.500000  0.500000  1
  K  K40  1  0.298690  0.000000  0.500000  1
  K  K41  1  0.701310  0.500000  0.000000  1
  K  K42  1  0.500000  0.000000  0.000000  1
  Nb  Nb43  1  0.000000  0.178304  0.821696  1
  Nb  Nb44  1  0.000000  0.821696  0.178304  1
  Nb  Nb45  1  0.000000  0.821696  0.821696  1
  Nb  Nb46  1  0.000000  0.178304  0.178304  1
  Nb  Nb47  1  0.203409  0.500000  0.813076  1
  Nb  Nb48  1  0.796591  0.813076  0.500000  1
  Nb  Nb49  1  0.796591  0.186924  0.500000  1
  Nb  Nb50  1  0.203409  0.500000  0.186924  1
