# generated using pymatgen
data_MoWSe4
_symmetry_space_group_name_H-M   'P 1'
_cell_length_a   3.32329865
_cell_length_b   3.32322862
_cell_length_c   37.84522614
_cell_angle_alpha   90.00004867
_cell_angle_beta   90.00000000
_cell_angle_gamma   120.00069717
_symmetry_Int_Tables_number   1
_chemical_formula_structural   MoWSe4
_chemical_formula_sum   'Mo2 W2 Se8'
_cell_volume   361.96641465
_cell_formula_units_Z   2
loop_
 _symmetry_equiv_pos_site_id
 _symmetry_equiv_pos_as_xyz
  1  'x, y, z'
loop_
 _atom_site_type_symbol
 _atom_site_label
 _atom_site_symmetry_multiplicity
 _atom_site_fract_x
 _atom_site_fract_y
 _atom_site_fract_z
 _atom_site_occupancy
  Mo  Mo0  1  0.333311  0.666623  0.469658  1
  Mo  Mo1  1  0.666689  0.333377  0.281800  1
  W  W2  1  0.333309  0.666617  0.093921  1
  W  W3  1  0.666691  0.333383  0.657537  1
  Se  Se4  1  0.333353  0.666706  0.326089  1
  Se  Se5  1  0.333356  0.666713  0.702033  1
  Se  Se6  1  0.666644  0.333287  0.049425  1
  Se  Se7  1  0.666647  0.333294  0.425369  1
  Se  Se8  1  0.666639  0.333276  0.138432  1
  Se  Se9  1  0.666648  0.333295  0.513938  1
  Se  Se10  1  0.333352  0.666705  0.237520  1
  Se  Se11  1  0.333361  0.666724  0.613026  1
