# generated using pymatgen
data_ReN2
_symmetry_space_group_name_H-M   'P 1'
_cell_length_a   4.23709367
_cell_length_b   2.89292848
_cell_length_c   5.20426533
_cell_angle_alpha   90.00000000
_cell_angle_beta   64.56483546
_cell_angle_gamma   90.00000000
_symmetry_Int_Tables_number   1
_chemical_formula_structural   ReN2
_chemical_formula_sum   'Re2 N4'
_cell_volume   57.60862461
_cell_formula_units_Z   2
loop_
 _symmetry_equiv_pos_site_id
 _symmetry_equiv_pos_as_xyz
  1  'x, y, z'
loop_
 _atom_site_type_symbol
 _atom_site_label
 _atom_site_symmetry_multiplicity
 _atom_site_fract_x
 _atom_site_fract_y
 _atom_site_fract_z
 _atom_site_occupancy
  Re  Re0  1  0.010323  0.750000  0.283716  1
  Re  Re1  1  0.989677  0.250000  0.716284  1
  N  N2  1  0.359071  0.250000  0.295495  1
  N  N3  1  0.640929  0.750000  0.704505  1
  N  N4  1  0.718875  0.250000  0.170655  1
  N  N5  1  0.281125  0.750000  0.829345  1
