# generated using pymatgen
data_GdCuPb
_symmetry_space_group_name_H-M   'P 1'
_cell_length_a   4.65136113
_cell_length_b   4.65039646
_cell_length_c   7.49824469
_cell_angle_alpha   90.00000000
_cell_angle_beta   90.00000000
_cell_angle_gamma   120.00686234
_symmetry_Int_Tables_number   1
_chemical_formula_structural   GdCuPb
_chemical_formula_sum   'Gd2 Cu2 Pb2'
_cell_volume   140.45274881
_cell_formula_units_Z   2
loop_
 _symmetry_equiv_pos_site_id
 _symmetry_equiv_pos_as_xyz
  1  'x, y, z'
loop_
 _atom_site_type_symbol
 _atom_site_label
 _atom_site_symmetry_multiplicity
 _atom_site_fract_x
 _atom_site_fract_y
 _atom_site_fract_z
 _atom_site_occupancy
  Gd  Gd0  1  0.000000  0.000000  0.500000  1
  Gd  Gd1  1  -0.000000  0.000000  0.000000  1
  Cu  Cu2  1  0.333289  0.666578  0.250000  1
  Cu  Cu3  1  0.666711  0.333422  0.750000  1
  Pb  Pb4  1  0.333294  0.666587  0.750000  1
  Pb  Pb5  1  0.666706  0.333413  0.250000  1
