# generated using pymatgen
data_KY(PO3)4
_symmetry_space_group_name_H-M   'P 1'
_cell_length_a   7.34971384
_cell_length_b   7.96232587
_cell_length_c   8.44700767
_cell_angle_alpha   90.00000000
_cell_angle_beta   90.00000000
_cell_angle_gamma   91.49201137
_symmetry_Int_Tables_number   1
_chemical_formula_structural   KY(PO3)4
_chemical_formula_sum   'K2 Y2 P8 O24'
_cell_volume   494.15819297
_cell_formula_units_Z   2
loop_
 _symmetry_equiv_pos_site_id
 _symmetry_equiv_pos_as_xyz
  1  'x, y, z'
loop_
 _atom_site_type_symbol
 _atom_site_label
 _atom_site_symmetry_multiplicity
 _atom_site_fract_x
 _atom_site_fract_y
 _atom_site_fract_z
 _atom_site_occupancy
  O  O0  1  0.608290  0.575028  0.051781  1
  O  O1  1  0.391710  0.424972  0.551781  1
  O  O2  1  0.523586  0.353596  0.838368  1
  O  O3  1  0.476414  0.646404  0.338368  1
  O  O4  1  0.820724  0.339272  0.979548  1
  O  O5  1  0.179276  0.660728  0.479548  1
  O  O6  1  0.964877  0.537430  0.185313  1
  O  O7  1  0.035124  0.462570  0.685313  1
  O  O8  1  0.160419  0.383164  0.984718  1
  O  O9  1  0.839581  0.616836  0.484718  1
  O  O10  1  0.990160  0.220489  0.202729  1
  O  O11  1  0.009840  0.779511  0.702729  1
  O  O12  1  0.678567  0.928417  0.468574  1
  O  O13  1  0.321433  0.071583  0.968574  1
  O  O14  1  0.430757  0.042718  0.645117  1
  O  O15  1  0.569243  0.957282  0.145117  1
  O  O16  1  0.692152  0.893428  0.770178  1
  O  O17  1  0.307848  0.106572  0.270178  1
  O  O18  1  0.465073  0.725671  0.630775  1
  O  O19  1  0.534927  0.274329  0.130775  1
  O  O20  1  0.980846  0.074260  0.791330  1
  O  O21  1  0.019154  0.925740  0.291330  1
  O  O22  1  0.909533  0.828207  0.985246  1
  O  O23  1  0.090467  0.171793  0.485246  1
  P  P24  1  0.613170  0.397963  0.992556  1
  P  P25  1  0.386830  0.602037  0.492556  1
  P  P26  1  0.995105  0.381828  0.089185  1
  P  P27  1  0.004895  0.618172  0.589185  1
  P  P28  1  0.097508  0.098738  0.322378  1
  P  P29  1  0.902492  0.901262  0.822378  1
  P  P30  1  0.434353  0.092101  0.115371  1
  P  P31  1  0.565647  0.907899  0.615371  1
  K  K32  1  0.267145  0.717010  0.052451  1
  K  K33  1  0.732855  0.282990  0.552451  1
  Y  Y34  1  0.238219  0.242038  0.741213  1
  Y  Y35  1  0.761781  0.757962  0.241213  1
