# generated using pymatgen
data_Ba2Ni(PO4)2
_symmetry_space_group_name_H-M   'P 1'
_cell_length_a   5.39430348
_cell_length_b   8.93458216
_cell_length_c   16.24997495
_cell_angle_alpha   90.00000000
_cell_angle_beta   90.81522034
_cell_angle_gamma   90.00000000
_symmetry_Int_Tables_number   1
_chemical_formula_structural   Ba2Ni(PO4)2
_chemical_formula_sum   'Ba8 Ni4 P8 O32'
_cell_volume   783.10204314
_cell_formula_units_Z   4
loop_
 _symmetry_equiv_pos_site_id
 _symmetry_equiv_pos_as_xyz
  1  'x, y, z'
loop_
 _atom_site_type_symbol
 _atom_site_label
 _atom_site_symmetry_multiplicity
 _atom_site_fract_x
 _atom_site_fract_y
 _atom_site_fract_z
 _atom_site_occupancy
  O  O0  1  0.852470  0.970002  0.744561  1
  O  O1  1  0.647530  0.470002  0.755438  1
  O  O2  1  0.147529  0.029999  0.255439  1
  O  O3  1  0.352470  0.529998  0.244562  1
  O  O4  1  0.459786  0.887288  0.666006  1
  O  O5  1  0.040215  0.387289  0.833994  1
  O  O6  1  0.540216  0.112711  0.333994  1
  O  O7  1  0.959785  0.612710  0.166006  1
  O  O8  1  0.855554  0.724127  0.667783  1
  O  O9  1  0.644446  0.224127  0.832217  1
  O  O10  1  0.144446  0.275873  0.332217  1
  O  O11  1  0.355555  0.775873  0.167783  1
  O  O12  1  0.846957  0.969931  0.589044  1
  O  O13  1  0.653043  0.469932  0.910955  1
  O  O14  1  0.153042  0.030068  0.410956  1
  O  O15  1  0.346957  0.530069  0.089045  1
  O  O16  1  0.467753  0.865845  0.873163  1
  O  O17  1  0.032245  0.365846  0.626837  1
  O  O18  1  0.532246  0.134154  0.126837  1
  O  O19  1  0.967754  0.634155  0.373163  1
  O  O20  1  0.791049  0.588410  0.514333  1
  O  O21  1  0.708952  0.088410  0.985667  1
  O  O22  1  0.208953  0.411590  0.485667  1
  O  O23  1  0.291048  0.911589  0.014333  1
  O  O24  1  0.514616  0.694982  0.399985  1
  O  O25  1  0.985385  0.194983  0.100015  1
  O  O26  1  0.145591  0.069983  0.888867  1
  O  O27  1  0.014615  0.805018  0.899985  1
  O  O28  1  0.645591  0.430017  0.388867  1
  O  O29  1  0.854409  0.930017  0.111133  1
  O  O30  1  0.354410  0.569983  0.611133  1
  O  O31  1  0.485386  0.305018  0.600015  1
  P  P32  1  0.748295  0.887535  0.666637  1
  P  P33  1  0.751703  0.387535  0.833364  1
  P  P34  1  0.251704  0.112465  0.333363  1
  P  P35  1  0.248297  0.612465  0.166636  1
  P  P36  1  0.231993  0.913806  0.921791  1
  P  P37  1  0.731994  0.586194  0.421791  1
  P  P38  1  0.768006  0.086193  0.078209  1
  P  P39  1  0.268007  0.413807  0.578209  1
  Ni  Ni40  1  0.774543  0.011569  0.866674  1
  Ni  Ni41  1  0.725457  0.511569  0.633326  1
  Ni  Ni42  1  0.274543  0.488430  0.366674  1
  Ni  Ni43  1  0.225456  0.988431  0.133326  1
  Ba  Ba44  1  0.242527  0.653807  0.769671  1
  Ba  Ba45  1  0.257474  0.153806  0.730329  1
  Ba  Ba46  1  0.757473  0.346194  0.230329  1
  Ba  Ba47  1  0.742526  0.846193  0.269671  1
  Ba  Ba48  1  0.801883  0.203046  0.481326  1
  Ba  Ba49  1  0.698117  0.703045  0.018674  1
  Ba  Ba50  1  0.198117  0.796955  0.518674  1
  Ba  Ba51  1  0.301882  0.296955  0.981326  1
