# generated using pymatgen
data_Te2MoWSeS
_symmetry_space_group_name_H-M   'P 1'
_cell_length_a   3.39473085
_cell_length_b   3.39475553
_cell_length_c   38.83412197
_cell_angle_alpha   89.99968429
_cell_angle_beta   90.00000000
_cell_angle_gamma   119.99975938
_symmetry_Int_Tables_number   1
_chemical_formula_structural   Te2MoWSeS
_chemical_formula_sum   'Te4 Mo2 W2 Se2 S2'
_cell_volume   387.57791941
_cell_formula_units_Z   2
loop_
 _symmetry_equiv_pos_site_id
 _symmetry_equiv_pos_as_xyz
  1  'x, y, z'
loop_
 _atom_site_type_symbol
 _atom_site_label
 _atom_site_symmetry_multiplicity
 _atom_site_fract_x
 _atom_site_fract_y
 _atom_site_fract_z
 _atom_site_occupancy
  Te  Te0  1  0.333354  0.666710  0.706148  1
  Te  Te1  1  0.666646  0.333290  0.421317  1
  Te  Te2  1  0.666644  0.333287  0.517851  1
  Te  Te3  1  0.333353  0.666707  0.609076  1
  Mo  Mo4  1  0.333316  0.666632  0.469581  1
  Mo  Mo5  1  0.666689  0.333378  0.281785  1
  W  W6  1  0.333312  0.666624  0.093931  1
  W  W7  1  0.666691  0.333383  0.657647  1
  Se  Se8  1  0.333352  0.666705  0.324320  1
  Se  Se9  1  0.333351  0.666704  0.239229  1
  S  S10  1  0.666650  0.333298  0.055102  1
  S  S11  1  0.666642  0.333282  0.132761  1
