# generated using pymatgen
data_SmPtF7
_symmetry_space_group_name_H-M   'P 1'
_cell_length_a   5.63097437
_cell_length_b   9.07580027
_cell_length_c   11.28940352
_cell_angle_alpha   107.38957540
_cell_angle_beta   90.00000000
_cell_angle_gamma   90.00000000
_symmetry_Int_Tables_number   1
_chemical_formula_structural   SmPtF7
_chemical_formula_sum   'Sm4 Pt4 F28'
_cell_volume   550.58198668
_cell_formula_units_Z   4
loop_
 _symmetry_equiv_pos_site_id
 _symmetry_equiv_pos_as_xyz
  1  'x, y, z'
loop_
 _atom_site_type_symbol
 _atom_site_label
 _atom_site_symmetry_multiplicity
 _atom_site_fract_x
 _atom_site_fract_y
 _atom_site_fract_z
 _atom_site_occupancy
  F  F0  1  0.565627  0.378675  0.083995  1
  F  F1  1  0.065627  0.121325  0.416005  1
  F  F2  1  0.434373  0.621325  0.916005  1
  F  F3  1  0.934373  0.878675  0.583995  1
  F  F4  1  0.553638  0.178367  0.459018  1
  F  F5  1  0.053638  0.321634  0.040982  1
  F  F6  1  0.446362  0.821634  0.540982  1
  F  F7  1  0.946362  0.678366  0.959018  1
  F  F8  1  0.230638  0.622229  0.140018  1
  F  F9  1  0.730638  0.877771  0.359982  1
  F  F10  1  0.769362  0.377771  0.859982  1
  F  F11  1  0.269362  0.122229  0.640018  1
  F  F12  1  0.244022  0.922088  0.950264  1
  F  F13  1  0.744022  0.577912  0.549736  1
  F  F14  1  0.755978  0.077912  0.049736  1
  F  F15  1  0.255978  0.422088  0.450264  1
  F  F16  1  0.032680  0.640289  0.367393  1
  F  F17  1  0.532680  0.859711  0.132607  1
  F  F18  1  0.967320  0.359711  0.632607  1
  F  F19  1  0.467320  0.140289  0.867393  1
  F  F20  1  0.944503  0.083267  0.826963  1
  F  F21  1  0.444503  0.416733  0.673037  1
  F  F22  1  0.055497  0.916733  0.173037  1
  F  F23  1  0.555497  0.583267  0.326963  1
  F  F24  1  0.589705  0.800164  0.768280  1
  F  F25  1  0.089705  0.699836  0.731720  1
  F  F26  1  0.410295  0.199836  0.231720  1
  F  F27  1  0.910295  0.300164  0.268280  1
  Sm  Sm28  1  0.239457  0.423357  0.235682  1
  Sm  Sm29  1  0.739457  0.076643  0.264318  1
  Sm  Sm30  1  0.760543  0.576643  0.764318  1
  Sm  Sm31  1  0.260543  0.923357  0.735682  1
  Pt  Pt32  1  0.242585  0.769683  0.042695  1
  Pt  Pt33  1  0.742585  0.730317  0.457305  1
  Pt  Pt34  1  0.757415  0.230317  0.957305  1
  Pt  Pt35  1  0.257415  0.269683  0.542695  1
