# generated using pymatgen
data_CePbAu
_symmetry_space_group_name_H-M   'P 1'
_cell_length_a   4.94284132
_cell_length_b   4.94921286
_cell_length_c   7.47591349
_cell_angle_alpha   90.00000000
_cell_angle_beta   90.00000000
_cell_angle_gamma   119.95742281
_symmetry_Int_Tables_number   1
_chemical_formula_structural   CePbAu
_chemical_formula_sum   'Ce2 Pb2 Au2'
_cell_volume   158.45059269
_cell_formula_units_Z   2
loop_
 _symmetry_equiv_pos_site_id
 _symmetry_equiv_pos_as_xyz
  1  'x, y, z'
loop_
 _atom_site_type_symbol
 _atom_site_label
 _atom_site_symmetry_multiplicity
 _atom_site_fract_x
 _atom_site_fract_y
 _atom_site_fract_z
 _atom_site_occupancy
  Ce  Ce0  1  0.000000  0.000000  0.500000  1
  Ce  Ce1  1  0.000000  0.000000  0.000000  1
  Pb  Pb2  1  0.333082  0.666164  0.750000  1
  Pb  Pb3  1  0.666918  0.333836  0.250000  1
  Au  Au4  1  0.333012  0.666024  0.250000  1
  Au  Au5  1  0.666988  0.333976  0.750000  1
