# generated using pymatgen
data_Al2(MoO4)3
_symmetry_space_group_name_H-M   'P 1'
_cell_length_a   9.17901006
_cell_length_b   9.26421947
_cell_length_c   12.79893174
_cell_angle_alpha   90.00000000
_cell_angle_beta   90.00000000
_cell_angle_gamma   90.00000000
_symmetry_Int_Tables_number   1
_chemical_formula_structural   Al2(MoO4)3
_chemical_formula_sum   'Al8 Mo12 O48'
_cell_volume   1088.37461458
_cell_formula_units_Z   4
loop_
 _symmetry_equiv_pos_site_id
 _symmetry_equiv_pos_as_xyz
  1  'x, y, z'
loop_
 _atom_site_type_symbol
 _atom_site_label
 _atom_site_symmetry_multiplicity
 _atom_site_fract_x
 _atom_site_fract_y
 _atom_site_fract_z
 _atom_site_occupancy
  O  O0  1  0.859631  0.304416  0.167532  1
  O  O1  1  0.859631  0.195584  0.832468  1
  O  O2  1  0.640369  0.804416  0.332469  1
  O  O3  1  0.640369  0.695584  0.667532  1
  O  O4  1  0.140369  0.695584  0.832468  1
  O  O5  1  0.140369  0.804416  0.167532  1
  O  O6  1  0.359631  0.195584  0.667532  1
  O  O7  1  0.359631  0.304416  0.332469  1
  O  O8  1  0.816929  0.068640  0.021619  1
  O  O9  1  0.816929  0.431360  0.978381  1
  O  O10  1  0.683071  0.568639  0.478381  1
  O  O11  1  0.683071  0.931360  0.521619  1
  O  O12  1  0.183071  0.931360  0.978381  1
  O  O13  1  0.183071  0.568639  0.021619  1
  O  O14  1  0.316929  0.431360  0.521619  1
  O  O15  1  0.316929  0.068640  0.478381  1
  O  O16  1  0.412798  0.659743  0.906533  1
  O  O17  1  0.587202  0.159743  0.906533  1
  O  O18  1  0.912798  0.840257  0.406534  1
  O  O19  1  0.912798  0.659743  0.593467  1
  O  O20  1  0.087776  0.089626  0.140399  1
  O  O21  1  0.087776  0.410374  0.859601  1
  O  O22  1  0.412224  0.589626  0.359601  1
  O  O23  1  0.412224  0.910373  0.640399  1
  O  O24  1  0.912225  0.910373  0.859601  1
  O  O25  1  0.912225  0.589626  0.140399  1
  O  O26  1  0.587776  0.410374  0.640399  1
  O  O27  1  0.587776  0.089626  0.359601  1
  O  O28  1  0.361814  0.122927  0.067631  1
  O  O29  1  0.361814  0.377073  0.932370  1
  O  O30  1  0.138185  0.622927  0.432369  1
  O  O31  1  0.138185  0.877073  0.567630  1
  O  O32  1  0.638185  0.877073  0.932370  1
  O  O33  1  0.638185  0.622927  0.067631  1
  O  O34  1  0.861814  0.377073  0.567630  1
  O  O35  1  0.861814  0.122927  0.432369  1
  O  O36  1  0.315786  0.005798  0.255282  1
  O  O37  1  0.315786  0.494202  0.744718  1
  O  O38  1  0.184214  0.505798  0.244718  1
  O  O39  1  0.184214  0.994202  0.755282  1
  O  O40  1  0.684214  0.994202  0.744718  1
  O  O41  1  0.684214  0.505798  0.255282  1
  O  O42  1  0.815787  0.494202  0.755282  1
  O  O43  1  0.815787  0.005798  0.244718  1
  O  O44  1  0.087202  0.340257  0.406534  1
  O  O45  1  0.087202  0.159743  0.593467  1
  O  O46  1  0.412798  0.840257  0.093467  1
  O  O47  1  0.587202  0.340257  0.093467  1
  Al  Al48  1  0.249862  0.465940  0.381296  1
  Al  Al49  1  0.249862  0.034060  0.618705  1
  Al  Al50  1  0.250138  0.965940  0.118705  1
  Al  Al51  1  0.250138  0.534060  0.881295  1
  Al  Al52  1  0.750138  0.534060  0.618705  1
  Al  Al53  1  0.750138  0.965940  0.381296  1
  Al  Al54  1  0.749862  0.034060  0.881295  1
  Al  Al55  1  0.749862  0.465940  0.118705  1
  Mo  Mo56  1  0.026322  0.750000  0.500000  1
  Mo  Mo57  1  0.526321  0.750000  0.000000  1
  Mo  Mo58  1  0.973679  0.250000  0.500000  1
  Mo  Mo59  1  0.473678  0.250000  0.000000  1
  Mo  Mo60  1  0.394672  0.116459  0.355154  1
  Mo  Mo61  1  0.394672  0.383541  0.644845  1
  Mo  Mo62  1  0.105328  0.616459  0.144845  1
  Mo  Mo63  1  0.105328  0.883541  0.855155  1
  Mo  Mo64  1  0.605328  0.883541  0.644845  1
  Mo  Mo65  1  0.605328  0.616459  0.355154  1
  Mo  Mo66  1  0.894672  0.383541  0.855155  1
  Mo  Mo67  1  0.894672  0.116459  0.144845  1
