# generated using pymatgen
data_SrFe12O19
_symmetry_space_group_name_H-M   'P 1'
_cell_length_a   6.00511284
_cell_length_b   6.00511285
_cell_length_c   23.33389128
_cell_angle_alpha   90.00000000
_cell_angle_beta   90.00000000
_cell_angle_gamma   119.99999996
_symmetry_Int_Tables_number   1
_chemical_formula_structural   SrFe12O19
_chemical_formula_sum   'Sr2 Fe24 O38'
_cell_volume   728.71909106
_cell_formula_units_Z   2
loop_
 _symmetry_equiv_pos_site_id
 _symmetry_equiv_pos_as_xyz
  1  'x, y, z'
loop_
 _atom_site_type_symbol
 _atom_site_label
 _atom_site_symmetry_multiplicity
 _atom_site_fract_x
 _atom_site_fract_y
 _atom_site_fract_z
 _atom_site_occupancy
  O  O0  1  0.505896  0.494105  0.348738  1
  O  O1  1  0.505897  0.011792  0.348738  1
  O  O2  1  0.988208  0.494105  0.348738  1
  O  O3  1  0.011791  0.505897  0.848737  1
  O  O4  1  0.494105  0.988209  0.651263  1
  O  O5  1  0.494105  0.505897  0.848737  1
  O  O6  1  0.494105  0.988209  0.848737  1
  O  O7  1  0.505896  0.494105  0.151262  1
  O  O8  1  0.988208  0.494105  0.151262  1
  O  O9  1  0.011791  0.505897  0.651263  1
  O  O10  1  0.494105  0.505897  0.651263  1
  O  O11  1  0.505897  0.011792  0.151262  1
  O  O12  1  0.155337  0.844663  0.446988  1
  O  O13  1  0.155336  0.310673  0.446988  1
  O  O14  1  0.689326  0.844663  0.446988  1
  O  O15  1  0.634651  0.817325  0.250000  1
  O  O16  1  0.844664  0.689326  0.553012  1
  O  O17  1  0.844663  0.155336  0.946988  1
  O  O18  1  0.844664  0.689326  0.946988  1
  O  O19  1  0.155337  0.844663  0.053011  1
  O  O20  1  0.689326  0.844663  0.053011  1
  O  O21  1  0.310673  0.155336  0.553012  1
  O  O22  1  0.844663  0.155336  0.553012  1
  O  O23  1  0.155336  0.310673  0.053011  1
  O  O24  1  0.817326  0.634650  0.750000  1
  O  O25  1  0.182674  0.817325  0.250000  1
  O  O26  1  0.000000  0.000000  0.152141  1
  O  O27  1  0.000000  0.000000  0.652141  1
  O  O28  1  0.000000  0.000000  0.847859  1
  O  O29  1  0.000000  0.000000  0.347859  1
  O  O30  1  0.666668  0.333334  0.055229  1
  O  O31  1  0.333334  0.666667  0.555229  1
  O  O32  1  0.333334  0.666667  0.944771  1
  O  O33  1  0.666668  0.333334  0.444771  1
  O  O34  1  0.182674  0.365349  0.250000  1
  O  O35  1  0.817325  0.182674  0.750000  1
  O  O36  1  0.365349  0.182674  0.750000  1
  O  O37  1  0.310673  0.155336  0.946988  1
  Fe  Fe38  1  0.168276  0.831725  0.609366  1
  Fe  Fe39  1  0.168275  0.336551  0.609366  1
  Fe  Fe40  1  0.663448  0.831725  0.609366  1
  Fe  Fe41  1  0.336551  0.168276  0.109366  1
  Fe  Fe42  1  0.831725  0.663448  0.390634  1
  Fe  Fe43  1  0.831725  0.168276  0.109366  1
  Fe  Fe44  1  0.831725  0.663448  0.109366  1
  Fe  Fe45  1  0.168276  0.831725  0.890634  1
  Fe  Fe46  1  0.663448  0.831725  0.890634  1
  Fe  Fe47  1  0.336551  0.168276  0.390634  1
  Fe  Fe48  1  0.831725  0.168276  0.390634  1
  Fe  Fe49  1  0.168275  0.336551  0.890634  1
  Fe  Fe50  1  0.333334  0.666667  0.309075  1
  Fe  Fe51  1  0.000000  0.000000  0.000000  1
  Fe  Fe52  1  0.666668  0.333334  0.690925  1
  Fe  Fe53  1  0.333334  0.666667  0.190925  1
  Fe  Fe54  1  0.333334  0.666667  0.472066  1
  Fe  Fe55  1  0.666668  0.333334  0.972066  1
  Fe  Fe56  1  0.666668  0.333334  0.527934  1
  Fe  Fe57  1  0.333334  0.666667  0.027934  1
  Fe  Fe58  1  0.000000  0.000000  0.750000  1
  Fe  Fe59  1  0.000000  0.000000  0.250000  1
  Fe  Fe60  1  0.000000  0.000000  0.500000  1
  Fe  Fe61  1  0.666668  0.333334  0.809075  1
  Sr  Sr62  1  0.333334  0.666667  0.750000  1
  Sr  Sr63  1  0.666668  0.333334  0.250000  1
