# generated using pymatgen
data_K2Ca4Si8O21
_symmetry_space_group_name_H-M   'P 1'
_cell_length_a   6.88500389
_cell_length_b   7.19627856
_cell_length_c   11.33226238
_cell_angle_alpha   96.68814655
_cell_angle_beta   105.30633430
_cell_angle_gamma   109.11516557
_symmetry_Int_Tables_number   1
_chemical_formula_structural   K2Ca4Si8O21
_chemical_formula_sum   'K2 Ca4 Si8 O21'
_cell_volume   498.85201618
_cell_formula_units_Z   1
loop_
 _symmetry_equiv_pos_site_id
 _symmetry_equiv_pos_as_xyz
  1  'x, y, z'
loop_
 _atom_site_type_symbol
 _atom_site_label
 _atom_site_symmetry_multiplicity
 _atom_site_fract_x
 _atom_site_fract_y
 _atom_site_fract_z
 _atom_site_occupancy
  K  K0  1  0.739585  0.707845  0.430445  1
  K  K1  1  0.260415  0.292155  0.569555  1
  Ca  Ca2  1  0.662348  0.785245  0.816993  1
  Ca  Ca3  1  0.337652  0.214755  0.183007  1
  Ca  Ca4  1  0.371030  0.733005  0.042761  1
  Ca  Ca5  1  0.628970  0.266995  0.957239  1
  Si  Si6  1  0.097527  0.238927  0.886705  1
  Si  Si7  1  0.902473  0.761073  0.113295  1
  Si  Si8  1  0.175474  0.901416  0.745086  1
  Si  Si9  1  0.824526  0.098584  0.254914  1
  Si  Si10  1  0.663001  0.199679  0.470778  1
  Si  Si11  1  0.336999  0.800321  0.529222  1
  Si  Si12  1  0.871719  0.470459  0.742684  1
  Si  Si13  1  0.128281  0.529541  0.257316  1
  O  O14  1  0.500000  0.000000  0.500000  1
  O  O15  1  0.845717  0.343989  0.604912  1
  O  O16  1  0.154283  0.656011  0.395088  1
  O  O17  1  0.389254  0.911664  0.851131  1
  O  O18  1  0.610746  0.088336  0.148869  1
  O  O19  1  0.873842  0.123904  0.912178  1
  O  O20  1  0.126158  0.876096  0.087822  1
  O  O21  1  0.674484  0.693186  0.002555  1
  O  O22  1  0.325516  0.306814  -0.002555  1
  O  O23  1  0.116539  0.104869  0.762156  1
  O  O24  1  0.883461  0.895131  0.237844  1
  O  O25  1  0.086859  0.454781  0.844979  1
  O  O26  1  0.913141  0.545219  0.155021  1
  O  O27  1  0.951629  0.714993  0.739995  1
  O  O28  1  0.048371  0.285007  0.260005  1
  O  O29  1  0.467688  0.686594  0.608924  1
  O  O30  1  0.532312  0.313406  0.391076  1
  O  O31  1  0.342443  0.585162  0.217371  1
  O  O32  1  0.657557  0.414838  0.782629  1
  O  O33  1  0.187326  0.880607  0.600226  1
  O  O34  1  0.812674  0.119393  0.399774  1
