# generated using pymatgen
data_BaTi2(P2O7)2
_symmetry_space_group_name_H-M   'P 1'
_cell_length_a   7.61639953
_cell_length_b   7.61639953
_cell_length_c   10.02521700
_cell_angle_alpha   81.02926637
_cell_angle_beta   81.02926633
_cell_angle_gamma   90.08940539
_symmetry_Int_Tables_number   1
_chemical_formula_structural   BaTi2(P2O7)2
_chemical_formula_sum   'Ba2 Ti4 P8 O28'
_cell_volume   567.21859080
_cell_formula_units_Z   2
loop_
 _symmetry_equiv_pos_site_id
 _symmetry_equiv_pos_as_xyz
  1  'x, y, z'
loop_
 _atom_site_type_symbol
 _atom_site_label
 _atom_site_symmetry_multiplicity
 _atom_site_fract_x
 _atom_site_fract_y
 _atom_site_fract_z
 _atom_site_occupancy
  O  O0  1  0.938060  0.780558  0.156185  1
  O  O1  1  0.219442  0.061940  0.343815  1
  O  O2  1  0.061940  0.219442  0.843815  1
  O  O3  1  0.780558  0.938060  0.656185  1
  O  O4  1  0.621442  0.742224  0.297501  1
  O  O5  1  0.257776  0.378558  0.202499  1
  O  O6  1  0.378558  0.257776  0.702499  1
  O  O7  1  0.742224  0.621442  0.797501  1
  O  O8  1  0.872468  0.847995  0.400236  1
  O  O9  1  0.152005  0.127532  0.099764  1
  O  O10  1  0.127532  0.152005  0.599764  1
  O  O11  1  0.847995  0.872468  0.900236  1
  O  O12  1  0.870787  0.530862  0.344440  1
  O  O13  1  0.469138  0.129213  0.155560  1
  O  O14  1  0.414001  0.725918  0.090155  1
  O  O15  1  0.274082  0.585999  0.409845  1
  O  O16  1  0.585999  0.274082  0.909845  1
  O  O17  1  0.725918  0.414001  0.590155  1
  O  O18  1  0.365299  0.567964  0.891030  1
  O  O19  1  0.432036  0.634701  0.608970  1
  O  O20  1  0.634701  0.432036  0.108970  1
  O  O21  1  0.567964  0.365299  0.391030  1
  O  O22  1  0.204434  0.846155  0.926745  1
  O  O23  1  0.153845  0.795566  0.573255  1
  O  O24  1  0.795566  0.153845  0.073255  1
  O  O25  1  0.846155  0.204434  0.426745  1
  O  O26  1  0.530862  0.870787  0.844440  1
  O  O27  1  0.129213  0.469138  0.655560  1
  P  P28  1  0.822543  0.737060  0.296698  1
  P  P29  1  0.262940  0.177457  0.203302  1
  P  P30  1  0.177457  0.262940  0.703302  1
  P  P31  1  0.737060  0.822543  0.796698  1
  P  P32  1  0.746792  0.375010  0.443704  1
  P  P33  1  0.624990  0.253208  0.056296  1
  P  P34  1  0.253208  0.624990  0.556296  1
  P  P35  1  0.375010  0.746792  0.943704  1
  Ti  Ti36  1  0.000000  0.000000  0.500000  1
  Ti  Ti37  1  0.000000  0.000000  0.000000  1
  Ti  Ti38  1  0.451530  0.548470  0.250000  1
  Ti  Ti39  1  0.548470  0.451530  0.750000  1
  Ba  Ba40  1  0.000000  0.500000  0.000000  1
  Ba  Ba41  1  0.500000  0.000000  0.500000  1
