# generated using pymatgen
data_CaV3O7
_symmetry_space_group_name_H-M   'P 1'
_cell_length_a   5.37956098
_cell_length_b   10.44776358
_cell_length_c   10.90659460
_cell_angle_alpha   90.00000000
_cell_angle_beta   90.00000000
_cell_angle_gamma   90.00000000
_symmetry_Int_Tables_number   1
_chemical_formula_structural   CaV3O7
_chemical_formula_sum   'Ca4 V12 O28'
_cell_volume   612.99840140
_cell_formula_units_Z   4
loop_
 _symmetry_equiv_pos_site_id
 _symmetry_equiv_pos_as_xyz
  1  'x, y, z'
loop_
 _atom_site_type_symbol
 _atom_site_label
 _atom_site_symmetry_multiplicity
 _atom_site_fract_x
 _atom_site_fract_y
 _atom_site_fract_z
 _atom_site_occupancy
  Ca  Ca0  1  0.680675  0.750000  0.921111  1
  Ca  Ca1  1  0.180675  0.250000  0.578889  1
  Ca  Ca2  1  0.319325  0.250000  0.078889  1
  Ca  Ca3  1  0.819325  0.750000  0.421111  1
  V  V4  1  0.301608  0.024283  0.311775  1
  V  V5  1  0.801608  0.975717  0.188225  1
  V  V6  1  0.698392  0.524283  0.688225  1
  V  V7  1  0.198392  0.475717  0.811775  1
  V  V8  1  0.309690  0.750000  0.216203  1
  V  V9  1  0.809690  0.250000  0.283797  1
  V  V10  1  0.690310  0.250000  0.783797  1
  V  V11  1  0.190310  0.750000  0.716203  1
  V  V12  1  0.801608  0.524283  0.188225  1
  V  V13  1  0.301608  0.475717  0.311775  1
  V  V14  1  0.198392  0.024283  0.811775  1
  V  V15  1  0.698392  0.975717  0.688225  1
  O  O16  1  0.932653  0.119194  0.721672  1
  O  O17  1  0.432653  0.880806  0.778328  1
  O  O18  1  0.067347  0.619194  0.278328  1
  O  O19  1  0.567347  0.380806  0.221672  1
  O  O20  1  0.067347  0.880806  0.278328  1
  O  O21  1  0.567347  0.119194  0.221672  1
  O  O22  1  0.932653  0.380806  0.721672  1
  O  O23  1  0.432653  0.619194  0.778328  1
  O  O24  1  0.457373  0.118702  0.716959  1
  O  O25  1  0.957373  0.881298  0.783041  1
  O  O26  1  0.542627  0.618702  0.283041  1
  O  O27  1  0.042627  0.381298  0.216959  1
  O  O28  1  0.542627  0.881298  0.283041  1
  O  O29  1  0.042627  0.118702  0.216959  1
  O  O30  1  0.457373  0.381298  0.716959  1
  O  O31  1  0.957373  0.618702  0.783041  1
  O  O32  1  0.175802  0.750000  0.564032  1
  O  O33  1  0.675802  0.250000  0.935968  1
  O  O34  1  0.824198  0.250000  0.435968  1
  O  O35  1  0.324198  0.750000  0.064032  1
  O  O36  1  0.217007  0.422782  0.954909  1
  O  O37  1  0.717007  0.577218  0.545091  1
  O  O38  1  0.782993  0.922782  0.045091  1
  O  O39  1  0.282993  0.077218  0.454909  1
  O  O40  1  0.782993  0.577218  0.045091  1
  O  O41  1  0.282993  0.422782  0.454909  1
  O  O42  1  0.217007  0.077218  0.954909  1
  O  O43  1  0.717007  0.922782  0.545091  1
