# generated using pymatgen
data_LiAlSiO4
_symmetry_space_group_name_H-M   'P 1'
_cell_length_a   8.44449054
_cell_length_b   8.44449054
_cell_length_c   8.44449054
_cell_angle_alpha   107.84316149
_cell_angle_beta   107.84316149
_cell_angle_gamma   107.84316150
_symmetry_Int_Tables_number   1
_chemical_formula_structural   LiAlSiO4
_chemical_formula_sum   'Li6 Al6 Si6 O24'
_cell_volume   489.50188370
_cell_formula_units_Z   6
loop_
 _symmetry_equiv_pos_site_id
 _symmetry_equiv_pos_as_xyz
  1  'x, y, z'
loop_
 _atom_site_type_symbol
 _atom_site_label
 _atom_site_symmetry_multiplicity
 _atom_site_fract_x
 _atom_site_fract_y
 _atom_site_fract_z
 _atom_site_occupancy
  Li  Li0  1  0.233079  0.455277  0.059169  1
  Li  Li1  1  0.059169  0.233079  0.455277  1
  Li  Li2  1  0.455277  0.059169  0.233079  1
  Li  Li3  1  0.772353  0.542813  0.942211  1
  Li  Li4  1  0.942211  0.772353  0.542813  1
  Li  Li5  1  0.542813  0.942211  0.772353  1
  O  O6  1  0.065400  0.043363  0.731908  1
  O  O7  1  0.092289  0.753496  0.403375  1
  O  O8  1  0.753496  0.403375  0.092289  1
  O  O9  1  0.403375  0.092289  0.753496  1
  O  O10  1  0.905094  0.259349  0.588433  1
  O  O11  1  0.259349  0.588433  0.905094  1
  O  O12  1  0.588433  0.905094  0.259349  1
  O  O13  1  0.731908  0.065400  0.043363  1
  O  O14  1  0.662081  0.349777  0.683281  1
  O  O15  1  0.043363  0.731908  0.065400  1
  O  O16  1  0.279163  0.951455  0.958811  1
  O  O17  1  0.951455  0.958811  0.279163  1
  O  O18  1  0.357953  0.652784  0.319507  1
  O  O19  1  0.319507  0.357953  0.652784  1
  O  O20  1  0.652784  0.319507  0.357953  1
  O  O21  1  0.675511  0.939535  0.606610  1
  O  O22  1  0.683281  0.662081  0.349777  1
  O  O23  1  0.349777  0.683281  0.662081  1
  O  O24  1  0.044889  0.378253  0.309046  1
  O  O25  1  0.606610  0.675511  0.939535  1
  O  O26  1  0.939535  0.606610  0.675511  1
  O  O27  1  0.309046  0.044889  0.378253  1
  O  O28  1  0.378253  0.309046  0.044889  1
  O  O29  1  0.958811  0.279163  0.951455  1
  Al  Al30  1  0.615262  0.427430  0.210139  1
  Al  Al31  1  0.721123  0.899319  0.132107  1
  Al  Al32  1  0.427430  0.210139  0.615262  1
  Al  Al33  1  0.210139  0.615262  0.427430  1
  Al  Al34  1  0.132107  0.721123  0.899319  1
  Al  Al35  1  0.899319  0.132107  0.721123  1
  Si  Si36  1  0.790853  0.384984  0.573826  1
  Si  Si37  1  0.573826  0.790853  0.384984  1
  Si  Si38  1  0.384984  0.573826  0.790853  1
  Si  Si39  1  0.279911  0.100175  0.870748  1
  Si  Si40  1  0.100175  0.870748  0.279911  1
  Si  Si41  1  0.870748  0.279911  0.100175  1
