# generated using pymatgen
data_SrV2(AsO5)2
_symmetry_space_group_name_H-M   'P 1'
_cell_length_a   5.00086395
_cell_length_b   12.74113766
_cell_length_c   12.92892900
_cell_angle_alpha   90.00000000
_cell_angle_beta   90.00000000
_cell_angle_gamma   90.00000000
_symmetry_Int_Tables_number   1
_chemical_formula_structural   SrV2(AsO5)2
_chemical_formula_sum   'Sr4 V8 As8 O40'
_cell_volume   823.78863877
_cell_formula_units_Z   4
loop_
 _symmetry_equiv_pos_site_id
 _symmetry_equiv_pos_as_xyz
  1  'x, y, z'
loop_
 _atom_site_type_symbol
 _atom_site_label
 _atom_site_symmetry_multiplicity
 _atom_site_fract_x
 _atom_site_fract_y
 _atom_site_fract_z
 _atom_site_occupancy
  O  O0  1  0.758259  0.267216  0.966774  1
  O  O1  1  0.258259  0.232784  0.033227  1
  O  O2  1  0.241740  0.767216  0.533226  1
  O  O3  1  0.741740  0.732784  0.466773  1
  O  O4  1  0.016230  0.787510  0.010162  1
  O  O5  1  0.516230  0.712490  0.989837  1
  O  O6  1  0.983770  0.287510  0.489838  1
  O  O7  1  0.483770  0.212490  0.510162  1
  O  O8  1  0.091937  0.601702  0.894185  1
  O  O9  1  0.591937  0.898299  0.105816  1
  O  O10  1  0.908063  0.101701  0.605815  1
  O  O11  1  0.408063  0.398298  0.394184  1
  O  O12  1  0.904960  0.605243  0.110021  1
  O  O13  1  0.404960  0.894758  0.889979  1
  O  O14  1  0.677421  0.478393  0.946074  1
  O  O15  1  0.595040  0.394757  0.610021  1
  O  O16  1  0.187328  0.444289  0.045301  1
  O  O17  1  0.687328  0.055711  0.954700  1
  O  O18  1  0.812672  0.944289  0.454699  1
  O  O19  1  0.312672  0.555711  0.545301  1
  O  O20  1  0.519420  0.186844  0.722750  1
  O  O21  1  0.019418  0.313156  0.277249  1
  O  O22  1  0.480582  0.686844  0.777249  1
  O  O23  1  0.980582  0.813156  0.222751  1
  O  O24  1  0.019456  0.299222  0.697872  1
  O  O25  1  0.519456  0.200777  0.302128  1
  O  O26  1  0.980543  0.799222  0.802127  1
  O  O27  1  0.480544  0.700778  0.197872  1
  O  O28  1  0.104854  0.134192  0.849852  1
  O  O29  1  0.604854  0.365807  0.150148  1
  O  O30  1  0.895145  0.634193  0.650148  1
  O  O31  1  0.395145  0.865808  0.349852  1
  O  O32  1  0.329138  0.348046  0.853022  1
  O  O33  1  0.829140  0.151955  0.146977  1
  O  O34  1  0.670862  0.848045  0.646977  1
  O  O35  1  0.170862  0.651954  0.353022  1
  O  O36  1  0.822578  0.521608  0.446074  1
  O  O37  1  0.322579  0.978392  0.553926  1
  O  O38  1  0.177421  0.021607  0.053926  1
  O  O39  1  0.095040  0.105243  0.389980  1
  V  V40  1  0.494704  0.347667  0.993633  1
  V  V41  1  0.994704  0.152333  0.006367  1
  V  V42  1  0.505295  0.847667  0.506367  1
  V  V43  1  0.005295  0.652333  0.493633  1
  V  V44  1  0.771577  0.756119  0.097519  1
  V  V45  1  0.271577  0.743881  0.902481  1
  V  V46  1  0.228423  0.256119  0.402481  1
  V  V47  1  0.728423  0.243881  0.597518  1
  As  As48  1  0.958548  0.532976  0.997770  1
  As  As49  1  0.458549  0.967025  0.002230  1
  As  As50  1  0.237515  0.238544  0.781006  1
  As  As51  1  0.541451  0.467025  0.497770  1
  As  As52  1  0.262485  0.761455  0.281006  1
  As  As53  1  0.762485  0.738545  0.718993  1
  As  As54  1  0.737515  0.261456  0.218993  1
  As  As55  1  0.041451  0.032975  0.502230  1
  Sr  Sr56  1  0.742182  0.006649  0.767391  1
  Sr  Sr57  1  0.242182  0.493351  0.232609  1
  Sr  Sr58  1  0.257818  0.506649  0.732609  1
  Sr  Sr59  1  0.757818  0.993351  0.267391  1
