# generated using pymatgen
data_CeFeSi2
_symmetry_space_group_name_H-M   'P 1'
_cell_length_a   4.00215481
_cell_length_b   4.03054229
_cell_length_c   8.61625478
_cell_angle_alpha   103.52630582
_cell_angle_beta   90.00000000
_cell_angle_gamma   90.00000000
_symmetry_Int_Tables_number   1
_chemical_formula_structural   CeFeSi2
_chemical_formula_sum   'Ce2 Fe2 Si4'
_cell_volume   135.13240170
_cell_formula_units_Z   2
loop_
 _symmetry_equiv_pos_site_id
 _symmetry_equiv_pos_as_xyz
  1  'x, y, z'
loop_
 _atom_site_type_symbol
 _atom_site_label
 _atom_site_symmetry_multiplicity
 _atom_site_fract_x
 _atom_site_fract_y
 _atom_site_fract_z
 _atom_site_occupancy
  Ce  Ce0  1  0.250000  0.389419  0.778838  1
  Ce  Ce1  1  0.750000  0.610581  0.221162  1
  Fe  Fe2  1  0.250000  0.175270  0.350540  1
  Fe  Fe3  1  0.750000  0.824730  0.649460  1
  Si  Si4  1  0.250000  0.040081  0.080162  1
  Si  Si5  1  0.750000  0.959919  0.919838  1
  Si  Si6  1  0.250000  0.749780  0.499560  1
  Si  Si7  1  0.750000  0.250220  0.500440  1
