# generated using pymatgen
data_Na3Li2Al(SiO4)2
_symmetry_space_group_name_H-M   'P 1'
_cell_length_a   7.16039925
_cell_length_b   10.30774987
_cell_length_c   10.30774987
_cell_angle_alpha   92.45414432
_cell_angle_beta   90.00000000
_cell_angle_gamma   90.00000000
_symmetry_Int_Tables_number   1
_chemical_formula_structural   Na3Li2Al(SiO4)2
_chemical_formula_sum   'Na12 Li8 Al4 Si8 O32'
_cell_volume   760.09253762
_cell_formula_units_Z   4
loop_
 _symmetry_equiv_pos_site_id
 _symmetry_equiv_pos_as_xyz
  1  'x, y, z'
loop_
 _atom_site_type_symbol
 _atom_site_label
 _atom_site_symmetry_multiplicity
 _atom_site_fract_x
 _atom_site_fract_y
 _atom_site_fract_z
 _atom_site_occupancy
  Na  Na0  1  0.500000  0.622589  0.622589  1
  Na  Na1  1  -0.000000  0.122589  0.122589  1
  Na  Na2  1  0.500000  0.377411  0.377411  1
  Na  Na3  1  -0.000000  0.877411  0.877411  1
  Na  Na4  1  0.750000  0.097832  0.402168  1
  Na  Na5  1  0.250000  0.402168  0.097832  1
  Na  Na6  1  0.250000  0.902168  0.597832  1
  Na  Na7  1  0.750000  0.597832  0.902168  1
  Na  Na8  1  0.252041  0.365761  0.634239  1
  Na  Na9  1  0.747959  0.634239  0.365761  1
  Na  Na10  1  0.752041  0.134239  0.865761  1
  Na  Na11  1  0.247959  0.865761  0.134239  1
  Li  Li12  1  0.985468  0.852165  0.337182  1
  Li  Li13  1  0.014532  0.337182  0.852165  1
  Li  Li14  1  0.485468  0.837182  0.352165  1
  Li  Li15  1  0.514532  0.352165  0.837182  1
  Li  Li16  1  0.014532  0.147835  0.662818  1
  Li  Li17  1  0.985468  0.662818  0.147835  1
  Li  Li18  1  0.514532  0.162818  0.647835  1
  Li  Li19  1  0.485468  0.647835  0.162818  1
  Al  Al20  1  -0.000000  0.661888  0.661888  1
  Al  Al21  1  0.500000  0.161888  0.161888  1
  Al  Al22  1  -0.000000  0.338112  0.338112  1
  Al  Al23  1  0.500000  0.838112  0.838112  1
  Si  Si24  1  0.215575  0.597810  0.402190  1
  Si  Si25  1  0.784425  0.402190  0.597810  1
  Si  Si26  1  0.715575  0.902190  0.097810  1
  Si  Si27  1  0.284425  0.097810  0.902190  1
  Si  Si28  1  0.750000  0.904438  0.595562  1
  Si  Si29  1  0.250000  0.595562  0.904438  1
  Si  Si30  1  0.250000  0.095562  0.404438  1
  Si  Si31  1  0.750000  0.404438  0.095562  1
  O  O32  1  0.050105  0.670720  0.329280  1
  O  O33  1  0.949895  0.329280  0.670720  1
  O  O34  1  0.550105  0.829280  0.170720  1
  O  O35  1  0.449895  0.170720  0.829280  1
  O  O36  1  0.430661  0.633859  0.366141  1
  O  O37  1  0.569339  0.366141  0.633859  1
  O  O38  1  0.930661  0.866141  0.133859  1
  O  O39  1  0.069339  0.133859  0.866141  1
  O  O40  1  0.195335  0.622980  0.564270  1
  O  O41  1  0.804665  0.564270  0.622980  1
  O  O42  1  0.695335  0.064270  0.122980  1
  O  O43  1  0.304665  0.122980  0.064270  1
  O  O44  1  0.804665  0.377020  0.435730  1
  O  O45  1  0.195335  0.435730  0.377020  1
  O  O46  1  0.304665  0.935730  0.877020  1
  O  O47  1  0.695335  0.877020  0.935730  1
  O  O48  1  0.561198  0.847104  0.671274  1
  O  O49  1  0.438802  0.671274  0.847104  1
  O  O50  1  0.061198  0.171274  0.347104  1
  O  O51  1  0.938802  0.347104  0.171274  1
  O  O52  1  0.438802  0.152896  0.328726  1
  O  O53  1  0.561198  0.328726  0.152896  1
  O  O54  1  0.938802  0.828726  0.652896  1
  O  O55  1  0.061198  0.652896  0.828726  1
  O  O56  1  0.733143  0.871433  0.439632  1
  O  O57  1  0.266857  0.439632  0.871433  1
  O  O58  1  0.233143  0.939632  0.371433  1
  O  O59  1  0.766857  0.371433  0.939632  1
  O  O60  1  0.266857  0.128567  0.560368  1
  O  O61  1  0.733143  0.560368  0.128567  1
  O  O62  1  0.766857  0.060368  0.628567  1
  O  O63  1  0.233143  0.628567  0.060368  1
