# generated using pymatgen
data_Te2MoW3(SeS2)2
_symmetry_space_group_name_H-M   'P 1'
_cell_length_a   3.30419946
_cell_length_b   3.30420633
_cell_length_c   37.61464859
_cell_angle_alpha   89.99996018
_cell_angle_beta   90.00000000
_cell_angle_gamma   119.99993126
_symmetry_Int_Tables_number   1
_chemical_formula_structural   Te2MoW3(SeS2)2
_chemical_formula_sum   'Te2 Mo1 W3 Se2 S4'
_cell_volume   355.64880650
_cell_formula_units_Z   1
loop_
 _symmetry_equiv_pos_site_id
 _symmetry_equiv_pos_as_xyz
  1  'x, y, z'
loop_
 _atom_site_type_symbol
 _atom_site_label
 _atom_site_symmetry_multiplicity
 _atom_site_fract_x
 _atom_site_fract_y
 _atom_site_fract_z
 _atom_site_occupancy
  Te  Te0  1  0.666646  0.333290  0.043116  1
  Te  Te1  1  0.666646  0.333292  0.144697  1
  Mo  Mo2  1  0.333308  0.666617  0.093901  1
  W  W3  1  0.333310  0.666620  0.469648  1
  W  W4  1  0.666694  0.333387  0.281811  1
  W  W5  1  0.666693  0.333385  0.657551  1
  Se  Se6  1  0.333352  0.666705  0.702399  1
  Se  Se7  1  0.333351  0.666702  0.612673  1
  S  S8  1  0.333354  0.666708  0.322584  1
  S  S9  1  0.666646  0.333290  0.428885  1
  S  S10  1  0.666646  0.333291  0.510435  1
  S  S11  1  0.333356  0.666713  0.241048  1
