# generated using pymatgen
data_Te2MoWSeS
_symmetry_space_group_name_H-M   'P 1'
_cell_length_a   3.39939529
_cell_length_b   3.39940125
_cell_length_c   40.04376272
_cell_angle_alpha   89.99949007
_cell_angle_beta   90.00132808
_cell_angle_gamma   120.00223107
_symmetry_Int_Tables_number   1
_chemical_formula_structural   Te2MoWSeS
_chemical_formula_sum   'Te4 Mo2 W2 Se2 S2'
_cell_volume   400.73737138
_cell_formula_units_Z   2
loop_
 _symmetry_equiv_pos_site_id
 _symmetry_equiv_pos_as_xyz
  1  'x, y, z'
loop_
 _atom_site_type_symbol
 _atom_site_label
 _atom_site_symmetry_multiplicity
 _atom_site_fract_x
 _atom_site_fract_y
 _atom_site_fract_z
 _atom_site_occupancy
  Te  Te0  1  0.333358  0.666671  0.705678  1
  Te  Te1  1  0.666658  0.333315  0.422022  1
  Te  Te2  1  0.666676  0.333327  0.515682  1
  Te  Te3  1  0.333326  0.666649  0.611463  1
  Mo  Mo4  1  0.333315  0.666706  0.094003  1
  Mo  Mo5  1  0.333334  0.666646  0.468847  1
  W  W6  1  0.666644  0.333307  0.281474  1
  W  W7  1  0.666678  0.333341  0.658600  1
  Se  Se8  1  0.333329  0.666607  0.322824  1
  Se  Se9  1  0.333294  0.666645  0.240150  1
  S  S10  1  0.666680  0.333387  0.056492  1
  S  S11  1  0.666708  0.333400  0.131512  1
