# generated using pymatgen
data_LiTi3P3O13
_symmetry_space_group_name_H-M   'P 1'
_cell_length_a   6.38797886
_cell_length_b   7.65376095
_cell_length_c   10.51423691
_cell_angle_alpha   99.36819821
_cell_angle_beta   90.00000000
_cell_angle_gamma   90.00000000
_symmetry_Int_Tables_number   1
_chemical_formula_structural   LiTi3P3O13
_chemical_formula_sum   'Li2 Ti6 P6 O26'
_cell_volume   507.20650708
_cell_formula_units_Z   2
loop_
 _symmetry_equiv_pos_site_id
 _symmetry_equiv_pos_as_xyz
  1  'x, y, z'
loop_
 _atom_site_type_symbol
 _atom_site_label
 _atom_site_symmetry_multiplicity
 _atom_site_fract_x
 _atom_site_fract_y
 _atom_site_fract_z
 _atom_site_occupancy
  Li  Li0  1  0.750000  0.603480  0.137687  1
  Li  Li1  1  0.250000  0.396520  0.862313  1
  Ti  Ti2  1  0.250000  0.358476  0.195506  1
  Ti  Ti3  1  0.750000  0.641524  0.804494  1
  Ti  Ti4  1  0.250000  0.786176  0.443407  1
  Ti  Ti5  1  0.500000  0.000000  0.000000  1
  Ti  Ti6  1  0.750000  0.213824  0.556593  1
  Ti  Ti7  1  0.000000  0.000000  0.000000  1
  P  P8  1  0.250000  0.221107  0.483727  1
  P  P9  1  0.750000  0.778893  0.516273  1
  P  P10  1  0.250000  0.730350  0.766308  1
  P  P11  1  0.750000  0.269650  0.233692  1
  P  P12  1  0.750000  0.307024  0.878821  1
  P  P13  1  0.250000  0.692976  0.121179  1
  O  O14  1  0.750000  0.348182  0.737634  1
  O  O15  1  0.554101  0.740989  0.431871  1
  O  O16  1  0.250000  0.778134  0.629988  1
  O  O17  1  0.548056  0.207634  0.904214  1
  O  O18  1  0.750000  0.666297  0.623967  1
  O  O19  1  0.750000  0.863008  0.902547  1
  O  O20  1  0.250000  0.333703  0.376033  1
  O  O21  1  0.048056  0.792366  0.095786  1
  O  O22  1  0.250000  0.019523  0.419820  1
  O  O23  1  0.750000  0.980477  0.580180  1
  O  O24  1  0.060341  0.616653  0.792898  1
  O  O25  1  0.250000  0.136992  0.097453  1
  O  O26  1  0.560341  0.383347  0.207102  1
  O  O27  1  0.750000  0.499348  0.955224  1
  O  O28  1  0.750000  0.221866  0.370012  1
  O  O29  1  0.451944  0.792366  0.095786  1
  O  O30  1  0.945899  0.740989  0.431871  1
  O  O31  1  0.445899  0.259011  0.568129  1
  O  O32  1  0.439659  0.616653  0.792898  1
  O  O33  1  0.250000  0.651818  0.262366  1
  O  O34  1  0.750000  0.094210  0.131280  1
  O  O35  1  0.250000  0.905790  0.868720  1
  O  O36  1  0.939659  0.383347  0.207102  1
  O  O37  1  0.951944  0.207634  0.904214  1
  O  O38  1  0.054101  0.259011  0.568129  1
  O  O39  1  0.250000  0.500652  0.044776  1
