# generated using pymatgen
data_HfIr
_symmetry_space_group_name_H-M   'P 1'
_cell_length_a   3.13507174
_cell_length_b   4.50276082
_cell_length_c   5.36192663
_cell_angle_alpha   90.00000000
_cell_angle_beta   107.87622338
_cell_angle_gamma   90.00000000
_symmetry_Int_Tables_number   1
_chemical_formula_structural   HfIr
_chemical_formula_sum   'Hf2 Ir2'
_cell_volume   72.03727524
_cell_formula_units_Z   2
loop_
 _symmetry_equiv_pos_site_id
 _symmetry_equiv_pos_as_xyz
  1  'x, y, z'
loop_
 _atom_site_type_symbol
 _atom_site_label
 _atom_site_symmetry_multiplicity
 _atom_site_fract_x
 _atom_site_fract_y
 _atom_site_fract_z
 _atom_site_occupancy
  Hf  Hf0  1  0.350723  0.250000  0.211362  1
  Hf  Hf1  1  0.649277  0.750000  0.788638  1
  Ir  Ir2  1  0.097637  0.250000  0.684406  1
  Ir  Ir3  1  0.902363  0.750000  0.315594  1
