# generated using pymatgen
data_LaNi5P3
_symmetry_space_group_name_H-M   'P 1'
_cell_length_a   3.63261777
_cell_length_b   6.12340750
_cell_length_c   11.50333530
_cell_angle_alpha   90.00000000
_cell_angle_beta   90.00000000
_cell_angle_gamma   107.25454588
_symmetry_Int_Tables_number   1
_chemical_formula_structural   LaNi5P3
_chemical_formula_sum   'La2 Ni10 P6'
_cell_volume   244.36465198
_cell_formula_units_Z   2
loop_
 _symmetry_equiv_pos_site_id
 _symmetry_equiv_pos_as_xyz
  1  'x, y, z'
loop_
 _atom_site_type_symbol
 _atom_site_label
 _atom_site_symmetry_multiplicity
 _atom_site_fract_x
 _atom_site_fract_y
 _atom_site_fract_z
 _atom_site_occupancy
  P  P0  1  0.383225  0.766451  0.250000  1
  P  P1  1  0.616775  0.233549  0.750000  1
  P  P2  1  0.882173  0.764345  0.538900  1
  P  P3  1  0.117827  0.235655  0.461100  1
  P  P4  1  0.117827  0.235655  0.038900  1
  P  P5  1  0.882173  0.764345  0.961100  1
  Ni  Ni6  1  0.948708  0.897415  0.145389  1
  Ni  Ni7  1  0.948708  0.897415  0.354611  1
  Ni  Ni8  1  0.301219  0.602438  0.431470  1
  Ni  Ni9  1  0.698781  0.397562  0.568530  1
  Ni  Ni10  1  0.698781  0.397562  0.931470  1
  Ni  Ni11  1  0.301219  0.602438  0.068530  1
  Ni  Ni12  1  0.500000  0.000000  0.500000  1
  Ni  Ni13  1  0.500000  0.000000  0.000000  1
  Ni  Ni14  1  0.051292  0.102585  0.645389  1
  Ni  Ni15  1  0.051292  0.102585  0.854611  1
  La  La16  1  0.661887  0.323775  0.250000  1
  La  La17  1  0.338113  0.676225  0.750000  1
