# generated using pymatgen
data_RhPb2F7
_symmetry_space_group_name_H-M   'P 1'
_cell_length_a   5.69439964
_cell_length_b   9.03287805
_cell_length_c   12.02533399
_cell_angle_alpha   90.00000000
_cell_angle_beta   90.00000000
_cell_angle_gamma   90.66320626
_symmetry_Int_Tables_number   1
_chemical_formula_structural   RhPb2F7
_chemical_formula_sum   'Rh4 Pb8 F28'
_cell_volume   618.50347380
_cell_formula_units_Z   4
loop_
 _symmetry_equiv_pos_site_id
 _symmetry_equiv_pos_as_xyz
  1  'x, y, z'
loop_
 _atom_site_type_symbol
 _atom_site_label
 _atom_site_symmetry_multiplicity
 _atom_site_fract_x
 _atom_site_fract_y
 _atom_site_fract_z
 _atom_site_occupancy
  F  F0  1  0.993028  0.774167  0.776693  1
  F  F1  1  0.006972  0.725833  0.276693  1
  F  F2  1  0.006972  0.225833  0.223307  1
  F  F3  1  0.993028  0.274167  0.723307  1
  F  F4  1  0.495684  0.309454  0.770746  1
  F  F5  1  0.504316  0.190546  0.270746  1
  F  F6  1  0.504316  0.690546  0.229254  1
  F  F7  1  0.495684  0.809454  0.729254  1
  F  F8  1  0.208434  0.477033  0.335635  1
  F  F9  1  0.791566  0.022967  0.835635  1
  F  F10  1  0.791566  0.522967  0.664365  1
  F  F11  1  0.208434  0.977033  0.164365  1
  F  F12  1  0.895314  0.993999  0.393969  1
  F  F13  1  0.104686  0.506001  0.893969  1
  F  F14  1  0.104686  0.006001  0.606031  1
  F  F15  1  0.895314  0.493999  0.106031  1
  F  F16  1  0.884157  0.314429  0.489002  1
  F  F17  1  0.115843  0.185571  0.989002  1
  F  F18  1  0.115843  0.685571  0.510998  1
  F  F19  1  0.884157  0.814429  0.010998  1
  F  F20  1  0.597053  0.631633  0.447134  1
  F  F21  1  0.402947  0.868367  0.947134  1
  F  F22  1  0.402947  0.368367  0.552866  1
  F  F23  1  0.597053  0.131633  0.052866  1
  F  F24  1  0.414780  0.896716  0.401825  1
  F  F25  1  0.585220  0.603284  0.901825  1
  F  F26  1  0.585220  0.103284  0.598175  1
  F  F27  1  0.414780  0.396716  0.098175  1
  Rh  Rh28  1  0.697027  0.312300  0.632089  1
  Rh  Rh29  1  0.302973  0.187700  0.132089  1
  Rh  Rh30  1  0.302973  0.687700  0.367911  1
  Rh  Rh31  1  0.697027  0.812300  0.867911  1
  Pb  Pb32  1  0.767179  0.350900  0.947088  1
  Pb  Pb33  1  0.232821  0.149100  0.447088  1
  Pb  Pb34  1  0.232821  0.649100  0.052912  1
  Pb  Pb35  1  0.767179  0.850900  0.552912  1
  Pb  Pb36  1  0.210977  0.044786  0.795104  1
  Pb  Pb37  1  0.789023  0.455214  0.295104  1
  Pb  Pb38  1  0.789023  0.955214  0.204896  1
  Pb  Pb39  1  0.210977  0.544786  0.704896  1
