# generated using pymatgen
data_Te2Mo3W(SeS2)2
_symmetry_space_group_name_H-M   'P 1'
_cell_length_a   3.30902907
_cell_length_b   3.30896120
_cell_length_c   38.53505326
_cell_angle_alpha   90.00317775
_cell_angle_beta   90.00000000
_cell_angle_gamma   120.00067862
_symmetry_Int_Tables_number   1
_chemical_formula_structural   Te2Mo3W(SeS2)2
_chemical_formula_sum   'Te2 Mo3 W1 Se2 S4'
_cell_volume   365.40617440
_cell_formula_units_Z   1
loop_
 _symmetry_equiv_pos_site_id
 _symmetry_equiv_pos_as_xyz
  1  'x, y, z'
loop_
 _atom_site_type_symbol
 _atom_site_label
 _atom_site_symmetry_multiplicity
 _atom_site_fract_x
 _atom_site_fract_y
 _atom_site_fract_z
 _atom_site_occupancy
  Te  Te0  1  0.666634  0.333267  0.420330  1
  Te  Te1  1  0.666682  0.333364  0.520119  1
  Mo  Mo2  1  0.333291  0.666582  0.093811  1
  Mo  Mo3  1  0.666729  0.333458  0.280967  1
  Mo  Mo4  1  0.666677  0.333353  0.657908  1
  W  W5  1  0.333316  0.666631  0.470229  1
  Se  Se6  1  0.333430  0.666861  0.324576  1
  Se  Se7  1  0.333346  0.666694  0.237393  1
  S  S8  1  0.333327  0.666655  0.697540  1
  S  S9  1  0.666617  0.333232  0.054255  1
  S  S10  1  0.666650  0.333299  0.133372  1
  S  S11  1  0.333302  0.666604  0.618248  1
