# generated using pymatgen
data_Mo3W(SeS)4
_symmetry_space_group_name_H-M   'P 1'
_cell_length_a   3.25406103
_cell_length_b   3.25406878
_cell_length_c   36.83873233
_cell_angle_alpha   90.00037389
_cell_angle_beta   90.00000000
_cell_angle_gamma   119.99992135
_symmetry_Int_Tables_number   1
_chemical_formula_structural   Mo3W(SeS)4
_chemical_formula_sum   'Mo3 W1 Se4 S4'
_cell_volume   337.82211354
_cell_formula_units_Z   1
loop_
 _symmetry_equiv_pos_site_id
 _symmetry_equiv_pos_as_xyz
  1  'x, y, z'
loop_
 _atom_site_type_symbol
 _atom_site_label
 _atom_site_symmetry_multiplicity
 _atom_site_fract_x
 _atom_site_fract_y
 _atom_site_fract_z
 _atom_site_occupancy
  Mo  Mo0  1  0.333310  0.666619  0.093914  1
  Mo  Mo1  1  0.333310  0.666620  0.469672  1
  Mo  Mo2  1  0.666691  0.333382  0.657566  1
  W  W3  1  0.666692  0.333384  0.281794  1
  Se  Se4  1  0.333351  0.666703  0.703624  1
  Se  Se5  1  0.666651  0.333300  0.423584  1
  Se  Se6  1  0.666651  0.333300  0.515719  1
  Se  Se7  1  0.333351  0.666704  0.611495  1
  S  S8  1  0.333351  0.666703  0.323816  1
  S  S9  1  0.666648  0.333295  0.052018  1
  S  S10  1  0.666642  0.333284  0.135802  1
  S  S11  1  0.333352  0.666704  0.239744  1
