# generated using pymatgen
data_TeMoWSeS2
_symmetry_space_group_name_H-M   'P 1'
_cell_length_a   3.31049274
_cell_length_b   3.31046378
_cell_length_c   37.63731907
_cell_angle_alpha   89.99997723
_cell_angle_beta   90.00000000
_cell_angle_gamma   120.00028940
_symmetry_Int_Tables_number   1
_chemical_formula_structural   TeMoWSeS2
_chemical_formula_sum   'Te2 Mo2 W2 Se2 S4'
_cell_volume   357.21486751
_cell_formula_units_Z   2
loop_
 _symmetry_equiv_pos_site_id
 _symmetry_equiv_pos_as_xyz
  1  'x, y, z'
loop_
 _atom_site_type_symbol
 _atom_site_label
 _atom_site_symmetry_multiplicity
 _atom_site_fract_x
 _atom_site_fract_y
 _atom_site_fract_z
 _atom_site_occupancy
  Te  Te0  1  0.333359  0.666719  0.708650  1
  Te  Te1  1  0.333352  0.666705  0.606421  1
  Mo  Mo2  1  0.333320  0.666639  0.469636  1
  Mo  Mo3  1  0.666684  0.333368  0.281809  1
  W  W4  1  0.333309  0.666618  0.093925  1
  W  W5  1  0.666692  0.333383  0.657568  1
  Se  Se6  1  0.666650  0.333299  0.049057  1
  Se  Se7  1  0.666640  0.333279  0.138796  1
  S  S8  1  0.333356  0.666714  0.322385  1
  S  S9  1  0.666639  0.333278  0.429091  1
  S  S10  1  0.666640  0.333279  0.510186  1
  S  S11  1  0.333358  0.666717  0.241224  1
