# generated using pymatgen
data_HfTe3
_symmetry_space_group_name_H-M   'P 1'
_cell_length_a   3.95769001
_cell_length_b   5.94187987
_cell_length_c   10.40746873
_cell_angle_alpha   97.58891530
_cell_angle_beta   90.00000000
_cell_angle_gamma   90.00000000
_symmetry_Int_Tables_number   1
_chemical_formula_structural   HfTe3
_chemical_formula_sum   'Hf2 Te6'
_cell_volume   242.59958903
_cell_formula_units_Z   2
loop_
 _symmetry_equiv_pos_site_id
 _symmetry_equiv_pos_as_xyz
  1  'x, y, z'
loop_
 _atom_site_type_symbol
 _atom_site_label
 _atom_site_symmetry_multiplicity
 _atom_site_fract_x
 _atom_site_fract_y
 _atom_site_fract_z
 _atom_site_occupancy
  Hf  Hf0  1  0.750000  0.712584  0.837452  1
  Hf  Hf1  1  0.250000  0.287416  0.162549  1
  Te  Te2  1  0.750000  0.564914  0.322341  1
  Te  Te3  1  0.250000  0.435086  0.677659  1
  Te  Te4  1  0.750000  0.237451  0.948820  1
  Te  Te5  1  0.250000  0.762549  0.051180  1
  Te  Te6  1  0.750000  0.089275  0.327231  1
  Te  Te7  1  0.250000  0.910725  0.672769  1
