# generated using pymatgen
data_Te2Mo3W(Se2S)2
_symmetry_space_group_name_H-M   'P 1'
_cell_length_a   3.34591626
_cell_length_b   3.34591676
_cell_length_c   38.02533157
_cell_angle_alpha   89.99990514
_cell_angle_beta   90.00000000
_cell_angle_gamma   119.99999503
_symmetry_Int_Tables_number   1
_chemical_formula_structural   Te2Mo3W(Se2S)2
_chemical_formula_sum   'Te2 Mo3 W1 Se4 S2'
_cell_volume   368.66665896
_cell_formula_units_Z   1
loop_
 _symmetry_equiv_pos_site_id
 _symmetry_equiv_pos_as_xyz
  1  'x, y, z'
loop_
 _atom_site_type_symbol
 _atom_site_label
 _atom_site_symmetry_multiplicity
 _atom_site_fract_x
 _atom_site_fract_y
 _atom_site_fract_z
 _atom_site_occupancy
  Te  Te0  1  0.333353  0.666706  0.707657  1
  Te  Te1  1  0.333353  0.666707  0.607418  1
  Mo  Mo2  1  0.333307  0.666614  0.093899  1
  Mo  Mo3  1  0.333310  0.666619  0.469654  1
  Mo  Mo4  1  0.666690  0.333379  0.281785  1
  W  W5  1  0.666691  0.333382  0.657583  1
  Se  Se6  1  0.333358  0.666717  0.325636  1
  Se  Se7  1  0.666636  0.333272  0.050088  1
  Se  Se8  1  0.666650  0.333300  0.137750  1
  Se  Se9  1  0.333351  0.666704  0.237966  1
  S  S10  1  0.666652  0.333303  0.429810  1
  S  S11  1  0.666649  0.333297  0.509504  1
