# generated using pymatgen
data_La2Be2GeO7
_symmetry_space_group_name_H-M   'P 1'
_cell_length_a   4.99174909
_cell_length_b   7.72548230
_cell_length_c   7.72548230
_cell_angle_alpha   90.00000000
_cell_angle_beta   90.00000000
_cell_angle_gamma   90.00000000
_symmetry_Int_Tables_number   1
_chemical_formula_structural   La2Be2GeO7
_chemical_formula_sum   'La4 Be4 Ge2 O14'
_cell_volume   297.92294414
_cell_formula_units_Z   2
loop_
 _symmetry_equiv_pos_site_id
 _symmetry_equiv_pos_as_xyz
  1  'x, y, z'
loop_
 _atom_site_type_symbol
 _atom_site_label
 _atom_site_symmetry_multiplicity
 _atom_site_fract_x
 _atom_site_fract_y
 _atom_site_fract_z
 _atom_site_occupancy
  Be  Be0  1  0.037811  0.366930  0.133070  1
  Be  Be1  1  0.962189  0.866930  0.366930  1
  Be  Be2  1  0.037811  0.633070  0.866930  1
  Be  Be3  1  0.962189  0.133070  0.633070  1
  O  O4  1  0.801280  0.921816  0.173806  1
  O  O5  1  0.198720  0.173806  0.078184  1
  O  O6  1  0.198720  0.578184  0.673806  1
  O  O7  1  0.198720  0.421816  0.326194  1
  O  O8  1  0.801280  0.326194  0.578184  1
  O  O9  1  0.801280  0.673806  0.421816  1
  O  O10  1  0.833766  0.000000  0.500000  1
  O  O11  1  0.166234  0.500000  0.000000  1
  O  O12  1  0.280903  0.142614  0.642613  1
  O  O13  1  0.719097  0.642613  0.857387  1
  O  O14  1  0.719097  0.357386  0.142614  1
  O  O15  1  0.280903  0.857387  0.357386  1
  O  O16  1  0.801280  0.078184  0.826194  1
  O  O17  1  0.198720  0.826194  0.921816  1
  Ge  Ge18  1  0.000000  0.500000  0.500000  1
  Ge  Ge19  1  0.000000  0.000000  0.000000  1
  La  La20  1  0.501466  0.660886  0.160886  1
  La  La21  1  0.498534  0.160886  0.339114  1
  La  La22  1  0.498534  0.839114  0.660886  1
  La  La23  1  0.501466  0.339114  0.839114  1
