# generated using pymatgen
data_Na5Lu(MoO4)4
_symmetry_space_group_name_H-M   'P 1'
_cell_length_a   9.95585837
_cell_length_b   9.95585837
_cell_length_c   9.95585837
_cell_angle_alpha   109.45098076
_cell_angle_beta   109.48134159
_cell_angle_gamma   109.48134150
_symmetry_Int_Tables_number   1
_chemical_formula_structural   Na5Lu(MoO4)4
_chemical_formula_sum   'Na10 Lu2 Mo8 O32'
_cell_volume   759.65114692
_cell_formula_units_Z   2
loop_
 _symmetry_equiv_pos_site_id
 _symmetry_equiv_pos_as_xyz
  1  'x, y, z'
loop_
 _atom_site_type_symbol
 _atom_site_label
 _atom_site_symmetry_multiplicity
 _atom_site_fract_x
 _atom_site_fract_y
 _atom_site_fract_z
 _atom_site_occupancy
  O  O0  1  0.154979  0.517643  0.010169  1
  O  O1  1  0.492525  0.510168  0.855189  1
  O  O2  1  0.007476  0.862664  0.017643  1
  O  O3  1  0.345020  0.355189  0.362663  1
  O  O4  1  0.845021  0.482357  0.989832  1
  O  O5  1  0.507475  0.489832  0.144812  1
  O  O6  1  0.992525  0.137336  0.982356  1
  O  O7  1  0.654980  0.644811  0.637336  1
  O  O8  1  0.920040  0.573016  0.775217  1
  O  O9  1  0.202201  0.275217  0.855176  1
  O  O10  1  0.297799  0.152975  0.073016  1
  O  O11  1  0.579960  0.355177  0.652976  1
  O  O12  1  0.079959  0.426984  0.224783  1
  O  O13  1  0.797799  0.724783  0.144823  1
  O  O14  1  0.702201  0.847025  0.926984  1
  O  O15  1  0.420041  0.644823  0.347024  1
  O  O16  1  0.866922  0.243261  0.671369  1
  O  O17  1  0.428108  0.171368  0.804447  1
  O  O18  1  0.071892  0.876338  0.743260  1
  O  O19  1  0.633078  0.304446  0.376338  1
  O  O20  1  0.643629  0.944077  0.654416  1
  O  O21  1  0.710339  0.154415  0.010786  1
  O  O22  1  0.789661  0.800447  0.444077  1
  O  O23  1  0.856371  0.510786  0.300447  1
  O  O24  1  0.356371  0.055923  0.345585  1
  O  O25  1  0.289661  0.845585  0.989214  1
  O  O26  1  0.133078  0.756741  0.328632  1
  O  O27  1  0.143629  0.489214  0.699553  1
  O  O28  1  0.366922  0.695554  0.623663  1
  O  O29  1  0.928108  0.123662  0.256739  1
  O  O30  1  0.571892  0.828632  0.195554  1
  O  O31  1  0.210339  0.199553  0.555923  1
  Na  Na32  1  0.665746  0.201999  0.775654  1
  Na  Na33  1  0.573655  0.275654  0.109908  1
  Na  Na34  1  0.926345  0.036253  0.701999  1
  Na  Na35  1  0.834254  0.609908  0.536253  1
  Na  Na36  1  0.334254  0.798001  0.224345  1
  Na  Na37  1  0.426346  0.724346  0.890092  1
  Na  Na38  1  0.073654  0.963747  0.298000  1
  Na  Na39  1  0.165746  0.390092  0.463747  1
  Na  Na40  1  0.250000  0.875000  0.625000  1
  Na  Na41  1  0.749999  0.125000  0.374999  1
  Mo  Mo42  1  0.660537  0.704275  0.228403  1
  Mo  Mo43  1  0.839463  0.067866  0.043738  1
  Mo  Mo44  1  0.024128  0.456262  0.795725  1
  Mo  Mo45  1  0.339463  0.295725  0.771596  1
  Mo  Mo46  1  0.160536  0.932134  0.956262  1
  Mo  Mo47  1  0.475872  0.271597  0.432134  1
  Mo  Mo48  1  0.975872  0.543738  0.204274  1
  Mo  Mo49  1  0.524128  0.728403  0.567866  1
  Lu  Lu50  1  0.250000  0.375000  0.125000  1
  Lu  Lu51  1  0.750000  0.625000  0.875000  1
