# generated using pymatgen
data_CeSc3(BO3)4
_symmetry_space_group_name_H-M   'P 1'
_cell_length_a   6.30525197
_cell_length_b   6.30525197
_cell_length_c   6.30525197
_cell_angle_alpha   103.21228877
_cell_angle_beta   103.21228886
_cell_angle_gamma   103.21228879
_symmetry_Int_Tables_number   1
_chemical_formula_structural   CeSc3(BO3)4
_chemical_formula_sum   'Ce1 Sc3 B4 O12'
_cell_volume   226.91111766
_cell_formula_units_Z   1
loop_
 _symmetry_equiv_pos_site_id
 _symmetry_equiv_pos_as_xyz
  1  'x, y, z'
loop_
 _atom_site_type_symbol
 _atom_site_label
 _atom_site_symmetry_multiplicity
 _atom_site_fract_x
 _atom_site_fract_y
 _atom_site_fract_z
 _atom_site_occupancy
  B  B0  1  0.500000  0.500000  0.500000  1
  B  B1  1  0.049580  0.950420  0.500000  1
  B  B2  1  0.950420  0.500000  0.049580  1
  B  B3  1  0.500000  0.049580  0.950420  1
  O  O4  1  0.909265  0.090735  0.500000  1
  O  O5  1  0.500000  0.640452  0.359548  1
  O  O6  1  0.359548  0.500000  0.640452  1
  O  O7  1  0.640452  0.359548  0.500000  1
  O  O8  1  0.627539  0.030399  0.799189  1
  O  O9  1  0.799189  0.627539  0.030399  1
  O  O10  1  0.030399  0.799189  0.627539  1
  O  O11  1  0.969601  0.372461  0.200811  1
  O  O12  1  0.200811  0.969601  0.372461  1
  O  O13  1  0.372461  0.200811  0.969601  1
  O  O14  1  0.500000  0.909265  0.090735  1
  O  O15  1  0.090735  0.500000  0.909265  1
  Sc  Sc16  1  0.548034  0.000000  0.451966  1
  Sc  Sc17  1  0.000000  0.451966  0.548034  1
  Sc  Sc18  1  0.451966  0.548034  0.000000  1
  Ce  Ce19  1  0.000000  0.000000  0.000000  1
