# generated using pymatgen
data_TmMnSi2
_symmetry_space_group_name_H-M   'P 1'
_cell_length_a   4.20251075
_cell_length_b   4.13696814
_cell_length_c   8.11682967
_cell_angle_alpha   104.76404035
_cell_angle_beta   90.00000000
_cell_angle_gamma   90.00000000
_symmetry_Int_Tables_number   1
_chemical_formula_structural   TmMnSi2
_chemical_formula_sum   'Tm2 Mn2 Si4'
_cell_volume   136.45721837
_cell_formula_units_Z   2
loop_
 _symmetry_equiv_pos_site_id
 _symmetry_equiv_pos_as_xyz
  1  'x, y, z'
loop_
 _atom_site_type_symbol
 _atom_site_label
 _atom_site_symmetry_multiplicity
 _atom_site_fract_x
 _atom_site_fract_y
 _atom_site_fract_z
 _atom_site_occupancy
  Tm  Tm0  1  0.250000  0.394997  0.789993  1
  Tm  Tm1  1  0.750000  0.605003  0.210007  1
  Mn  Mn2  1  0.250000  0.187660  0.375321  1
  Mn  Mn3  1  0.750000  0.812340  0.624679  1
  Si  Si4  1  0.250000  0.042607  0.085214  1
  Si  Si5  1  0.750000  0.957393  0.914786  1
  Si  Si6  1  0.250000  0.752873  0.505746  1
  Si  Si7  1  0.750000  0.247127  0.494254  1
