# generated using pymatgen
data_Er2Co3Ge5
_symmetry_space_group_name_H-M   'P 1'
_cell_length_a   8.04383313
_cell_length_b   8.04383313
_cell_length_c   5.69081876
_cell_angle_alpha   70.53419151
_cell_angle_beta   109.46580849
_cell_angle_gamma   86.20573136
_symmetry_Int_Tables_number   1
_chemical_formula_structural   Er2Co3Ge5
_chemical_formula_sum   'Er4 Co6 Ge10'
_cell_volume   320.75264319
_cell_formula_units_Z   2
loop_
 _symmetry_equiv_pos_site_id
 _symmetry_equiv_pos_as_xyz
  1  'x, y, z'
loop_
 _atom_site_type_symbol
 _atom_site_label
 _atom_site_symmetry_multiplicity
 _atom_site_fract_x
 _atom_site_fract_y
 _atom_site_fract_z
 _atom_site_occupancy
  Er  Er0  1  0.590561  0.127373  0.732363  1
  Er  Er1  1  0.872627  0.409438  0.232364  1
  Er  Er2  1  0.409434  0.872610  0.267646  1
  Er  Er3  1  0.127390  0.590565  0.767645  1
  Co  Co4  1  0.997263  0.997266  0.749998  1
  Co  Co5  1  0.002735  0.002738  0.249999  1
  Co  Co6  1  0.261374  0.456172  0.380314  1
  Co  Co7  1  0.543828  0.738626  0.880313  1
  Co  Co8  1  0.738625  0.543834  0.619683  1
  Co  Co9  1  0.456166  0.261375  0.119681  1
  Ge  Ge10  1  0.738067  0.080560  0.326422  1
  Ge  Ge11  1  0.080553  0.738084  0.173568  1
  Ge  Ge12  1  0.261916  0.919447  0.673569  1
  Ge  Ge13  1  0.919440  0.261933  0.826422  1
  Ge  Ge14  1  0.787256  0.787250  0.749983  1
  Ge  Ge15  1  0.212751  0.212745  0.249984  1
  Ge  Ge16  1  0.490771  0.490757  0.750007  1
  Ge  Ge17  1  0.509242  0.509230  0.250008  1
  Ge  Ge18  1  0.225578  0.225574  0.750021  1
  Ge  Ge19  1  0.774426  0.774422  0.250022  1
