# generated using pymatgen
data_Sr2CuGe2O7
_symmetry_space_group_name_H-M   'P 1'
_cell_length_a   5.28056556
_cell_length_b   8.38505755
_cell_length_c   8.38505755
_cell_angle_alpha   90.00000000
_cell_angle_beta   90.00000000
_cell_angle_gamma   90.00000000
_symmetry_Int_Tables_number   1
_chemical_formula_structural   Sr2CuGe2O7
_chemical_formula_sum   'Sr4 Cu2 Ge4 O14'
_cell_volume   371.27228788
_cell_formula_units_Z   2
loop_
 _symmetry_equiv_pos_site_id
 _symmetry_equiv_pos_as_xyz
  1  'x, y, z'
loop_
 _atom_site_type_symbol
 _atom_site_label
 _atom_site_symmetry_multiplicity
 _atom_site_fract_x
 _atom_site_fract_y
 _atom_site_fract_z
 _atom_site_occupancy
  O  O0  1  0.687575  0.680555  0.586358  1
  O  O1  1  0.687575  0.319445  0.413642  1
  O  O2  1  0.312425  0.413642  0.680555  1
  O  O3  1  0.312425  0.586358  0.319445  1
  O  O4  1  0.687575  0.913642  0.819445  1
  O  O5  1  0.312425  0.819445  0.086358  1
  O  O6  1  0.312425  0.180555  0.913642  1
  O  O7  1  0.687575  0.086358  0.180555  1
  O  O8  1  0.203147  0.865513  0.634487  1
  O  O9  1  0.796853  0.634487  0.134487  1
  O  O10  1  0.674368  0.000000  0.500000  1
  O  O11  1  0.325632  0.500000  0.000000  1
  O  O12  1  0.203147  0.134487  0.365513  1
  O  O13  1  0.796853  0.365513  0.865513  1
  Cu  Cu14  1  0.500000  0.000000  0.000000  1
  Cu  Cu15  1  0.500000  0.500000  0.500000  1
  Ge  Ge16  1  0.532495  0.859284  0.640716  1
  Ge  Ge17  1  0.532495  0.140716  0.359284  1
  Ge  Ge18  1  0.467505  0.640716  0.140716  1
  Ge  Ge19  1  0.467505  0.359284  0.859284  1
  Sr  Sr20  1  0.989092  0.665266  0.834734  1
  Sr  Sr21  1  0.010908  0.834734  0.334734  1
  Sr  Sr22  1  0.010908  0.165266  0.665266  1
  Sr  Sr23  1  0.989092  0.334734  0.165266  1
