# generated using pymatgen
data_P2S7
_symmetry_space_group_name_H-M   'P 1'
_cell_length_a   6.41321435
_cell_length_b   6.62408522
_cell_length_c   11.67301776
_cell_angle_alpha   82.25173431
_cell_angle_beta   88.46963174
_cell_angle_gamma   85.83521925
_symmetry_Int_Tables_number   1
_chemical_formula_structural   P2S7
_chemical_formula_sum   'P4 S14'
_cell_volume   489.99257669
_cell_formula_units_Z   2
loop_
 _symmetry_equiv_pos_site_id
 _symmetry_equiv_pos_as_xyz
  1  'x, y, z'
loop_
 _atom_site_type_symbol
 _atom_site_label
 _atom_site_symmetry_multiplicity
 _atom_site_fract_x
 _atom_site_fract_y
 _atom_site_fract_z
 _atom_site_occupancy
  P  P0  1  0.051737  0.164800  0.063430  1
  P  P1  1  0.626861  0.808421  0.493653  1
  P  P2  1  0.373138  0.191579  0.506346  1
  P  P3  1  0.948262  0.835200  0.936570  1
  S  S4  1  0.268716  0.355019  0.051405  1
  S  S5  1  0.145506  0.847708  0.080794  1
  S  S6  1  0.857075  0.221637  0.207765  1
  S  S7  1  0.638606  0.006807  0.217360  1
  S  S8  1  0.752883  0.757431  0.328640  1
  S  S9  1  0.279209  0.422377  0.396970  1
  S  S10  1  0.299255  0.895892  0.474071  1
  S  S11  1  0.700746  0.104107  0.525930  1
  S  S12  1  0.720792  0.577624  0.603030  1
  S  S13  1  0.247117  0.242568  0.671360  1
  S  S14  1  0.361393  0.993192  0.782640  1
  S  S15  1  0.142926  0.778362  0.792235  1
  S  S16  1  0.854494  0.152292  0.919206  1
  S  S17  1  0.731283  0.644982  0.948596  1
