# generated using pymatgen
data_Te2MoWSe2
_symmetry_space_group_name_H-M   'P 1'
_cell_length_a   3.43872283
_cell_length_b   3.43869407
_cell_length_c   39.10559412
_cell_angle_alpha   90.00041617
_cell_angle_beta   90.00000036
_cell_angle_gamma   120.00027571
_symmetry_Int_Tables_number   1
_chemical_formula_structural   Te2MoWSe2
_chemical_formula_sum   'Te4 Mo2 W2 Se4'
_cell_volume   400.45989107
_cell_formula_units_Z   2
loop_
 _symmetry_equiv_pos_site_id
 _symmetry_equiv_pos_as_xyz
  1  'x, y, z'
loop_
 _atom_site_type_symbol
 _atom_site_label
 _atom_site_symmetry_multiplicity
 _atom_site_fract_x
 _atom_site_fract_y
 _atom_site_fract_z
 _atom_site_occupancy
  Te  Te0  1  0.333353  0.666708  0.329206  1
  Te  Te1  1  0.333359  0.666718  0.705260  1
  Te  Te2  1  0.333351  0.666703  0.234383  1
  Te  Te3  1  0.333357  0.666716  0.609791  1
  Mo  Mo4  1  0.333312  0.666624  0.469679  1
  Mo  Mo5  1  0.666689  0.333378  0.281819  1
  W  W6  1  0.333310  0.666619  0.093921  1
  W  W7  1  0.666692  0.333384  0.657542  1
  Se  Se8  1  0.666645  0.333289  0.051990  1
  Se  Se9  1  0.666636  0.333272  0.427769  1
  Se  Se10  1  0.666647  0.333293  0.135865  1
  Se  Se11  1  0.666648  0.333296  0.511523  1
