# generated using pymatgen
data_Li6Ho(BO3)3
_symmetry_space_group_name_H-M   'P 1'
_cell_length_a   6.70211272
_cell_length_b   7.24424259
_cell_length_c   16.50978236
_cell_angle_alpha   90.00000000
_cell_angle_beta   90.00000000
_cell_angle_gamma   105.34451212
_symmetry_Int_Tables_number   1
_chemical_formula_structural   Li6Ho(BO3)3
_chemical_formula_sum   'Li24 Ho4 B12 O36'
_cell_volume   773.00393537
_cell_formula_units_Z   4
loop_
 _symmetry_equiv_pos_site_id
 _symmetry_equiv_pos_as_xyz
  1  'x, y, z'
loop_
 _atom_site_type_symbol
 _atom_site_label
 _atom_site_symmetry_multiplicity
 _atom_site_fract_x
 _atom_site_fract_y
 _atom_site_fract_z
 _atom_site_occupancy
  Li  Li0  1  0.670040  0.546147  0.969905  1
  Li  Li1  1  0.829960  0.453853  0.469905  1
  Li  Li2  1  0.329960  0.453853  0.030095  1
  Li  Li3  1  0.170040  0.546147  0.530095  1
  Li  Li4  1  0.954549  0.437347  0.795111  1
  Li  Li5  1  0.545451  0.562653  0.295111  1
  Li  Li6  1  0.045451  0.562653  0.204889  1
  Li  Li7  1  0.454549  0.437347  0.704889  1
  Li  Li8  1  0.586362  0.136713  0.053235  1
  Li  Li9  1  0.913638  0.863287  0.553235  1
  Li  Li10  1  0.413638  0.863287  0.946765  1
  Li  Li11  1  0.086362  0.136713  0.446765  1
  Li  Li12  1  0.365061  0.715233  0.794122  1
  Li  Li13  1  0.134939  0.284767  0.294122  1
  Li  Li14  1  0.634939  0.284767  0.205878  1
  Li  Li15  1  0.865061  0.715233  0.705878  1
  Li  Li16  1  0.944084  0.306289  0.964757  1
  Li  Li17  1  0.555916  0.693711  0.464757  1
  Li  Li18  1  0.055916  0.693711  0.035243  1
  Li  Li19  1  0.444084  0.306289  0.535243  1
  Li  Li20  1  0.176199  0.071580  0.004423  1
  Li  Li21  1  0.323801  0.928420  0.504423  1
  Li  Li22  1  0.823801  0.928420  0.995577  1
  Li  Li23  1  0.676199  0.071580  0.495577  1
  B  B24  1  0.998666  0.285405  0.121139  1
  B  B25  1  0.501334  0.714595  0.621139  1
  B  B26  1  0.001334  0.714595  0.878861  1
  B  B27  1  0.498666  0.285405  0.378861  1
  B  B28  1  0.661613  0.083670  0.864009  1
  B  B29  1  0.838387  0.916330  0.364009  1
  B  B30  1  0.338387  0.916330  0.135991  1
  B  B31  1  0.161613  0.083670  0.635991  1
  B  B32  1  0.810136  0.438467  0.615582  1
  B  B33  1  0.689864  0.561533  0.115582  1
  B  B34  1  0.189864  0.561533  0.384418  1
  B  B35  1  0.310136  0.438467  0.884418  1
  O  O36  1  0.956521  0.119156  0.074400  1
  O  O37  1  0.543479  0.880844  0.574400  1
  O  O38  1  0.043479  0.880844  0.925600  1
  O  O39  1  0.456521  0.119156  0.425600  1
  O  O40  1  0.941680  0.258836  0.202653  1
  O  O41  1  0.558320  0.741164  0.702653  1
  O  O42  1  0.058320  0.741164  0.797347  1
  O  O43  1  0.441680  0.258836  0.297347  1
  O  O44  1  0.086141  0.462436  0.088717  1
  O  O45  1  0.413859  0.537564  0.588717  1
  O  O46  1  0.913859  0.537564  0.911283  1
  O  O47  1  0.586141  0.462436  0.411283  1
  O  O48  1  0.675862  0.088193  0.946410  1
  O  O49  1  0.824138  0.911807  0.446410  1
  O  O50  1  0.324138  0.911807  0.053590  1
  O  O51  1  0.175862  0.088193  0.553590  1
  O  O52  1  0.971545  0.009079  0.674426  1
  O  O53  1  0.528455  0.990921  0.174426  1
  O  O54  1  0.028455  0.990921  0.325574  1
  O  O55  1  0.471545  0.009079  0.825574  1
  O  O56  1  0.834339  0.143793  0.814130  1
  O  O57  1  0.665661  0.856207  0.314130  1
  O  O58  1  0.165661  0.856207  0.185870  1
  O  O59  1  0.334339  0.143793  0.685870  1
  O  O60  1  0.922523  0.605070  0.579102  1
  O  O61  1  0.577477  0.394930  0.079102  1
  O  O62  1  0.077477  0.394930  0.420898  1
  O  O63  1  0.422523  0.605070  0.920898  1
  O  O64  1  0.770440  0.419741  0.698398  1
  O  O65  1  0.729560  0.580259  0.198398  1
  O  O66  1  0.229560  0.580259  0.301602  1
  O  O67  1  0.270440  0.419741  0.801602  1
  O  O68  1  0.728465  0.275327  0.568990  1
  O  O69  1  0.771535  0.724673  0.068990  1
  O  O70  1  0.271535  0.724673  0.431010  1
  O  O71  1  0.228465  0.275327  0.931010  1
  Ho  Ho72  1  0.652831  0.079521  0.690012  1
  Ho  Ho73  1  0.847169  0.920479  0.190012  1
  Ho  Ho74  1  0.347169  0.920479  0.309988  1
  Ho  Ho75  1  0.152831  0.079521  0.809988  1
