# generated using pymatgen
data_Nd10Se19
_symmetry_space_group_name_H-M   'P 1'
_cell_length_a   9.33813417
_cell_length_b   9.33813417
_cell_length_c   17.07018946
_cell_angle_alpha   90.00000000
_cell_angle_beta   90.00000000
_cell_angle_gamma   90.00000000
_symmetry_Int_Tables_number   1
_chemical_formula_structural   Nd10Se19
_chemical_formula_sum   'Nd20 Se38'
_cell_volume   1488.53331975
_cell_formula_units_Z   2
loop_
 _symmetry_equiv_pos_site_id
 _symmetry_equiv_pos_as_xyz
  1  'x, y, z'
loop_
 _atom_site_type_symbol
 _atom_site_label
 _atom_site_symmetry_multiplicity
 _atom_site_fract_x
 _atom_site_fract_y
 _atom_site_fract_z
 _atom_site_occupancy
  Se  Se0  1  0.750000  0.250000  0.064347  1
  Se  Se1  1  0.750000  0.250000  0.564347  1
  Se  Se2  1  0.250000  0.750000  0.935653  1
  Se  Se3  1  0.250000  0.750000  0.435653  1
  Se  Se4  1  0.850559  0.552292  0.936822  1
  Se  Se5  1  0.447708  0.350559  0.436822  1
  Se  Se6  1  0.052292  0.149441  0.436822  1
  Se  Se7  1  0.649441  0.947708  0.936822  1
  Se  Se8  1  0.149441  0.447708  0.063178  1
  Se  Se9  1  0.552292  0.649441  0.563178  1
  Se  Se10  1  0.947708  0.850559  0.563178  1
  Se  Se11  1  0.350559  0.052292  0.063178  1
  Se  Se12  1  0.451110  0.347709  0.929153  1
  Se  Se13  1  0.652291  0.951110  0.429153  1
  Se  Se14  1  0.847709  0.548890  0.429153  1
  Se  Se15  1  0.048890  0.152291  0.929153  1
  Se  Se16  1  0.548890  0.652291  0.070847  1
  Se  Se17  1  0.347709  0.048890  0.570847  1
  Se  Se18  1  0.152291  0.451110  0.570847  1
  Se  Se19  1  0.951110  0.847709  0.070847  1
  Se  Se20  1  0.881451  0.065216  0.249331  1
  Se  Se21  1  0.934784  0.381451  0.749331  1
  Se  Se22  1  0.565216  0.118549  0.749331  1
  Se  Se23  1  0.618549  0.434784  0.249331  1
  Se  Se24  1  0.118549  0.934784  0.750669  1
  Se  Se25  1  0.065216  0.618549  0.250669  1
  Se  Se26  1  0.434784  0.881451  0.250669  1
  Se  Se27  1  0.381451  0.565216  0.750669  1
  Se  Se28  1  0.970278  0.327001  0.250191  1
  Se  Se29  1  0.672999  0.470278  0.750191  1
  Se  Se30  1  0.827001  0.029722  0.750191  1
  Se  Se31  1  0.529722  0.172999  0.250191  1
  Se  Se32  1  0.029722  0.672999  0.749809  1
  Se  Se33  1  0.327001  0.529722  0.249809  1
  Se  Se34  1  0.172999  0.970278  0.249809  1
  Se  Se35  1  0.470278  0.827001  0.749809  1
  Se  Se36  1  0.750000  0.750000  0.250000  1
  Se  Se37  1  0.250000  0.250000  0.750000  1
  Nd  Nd38  1  0.250000  0.750000  0.116654  1
  Nd  Nd39  1  0.250000  0.750000  0.616654  1
  Nd  Nd40  1  0.750000  0.250000  0.883346  1
  Nd  Nd41  1  0.750000  0.250000  0.383346  1
  Nd  Nd42  1  0.553260  0.647916  0.893896  1
  Nd  Nd43  1  0.352084  0.053260  0.393896  1
  Nd  Nd44  1  0.147916  0.446740  0.393896  1
  Nd  Nd45  1  0.946740  0.852084  0.893896  1
  Nd  Nd46  1  0.446740  0.352084  0.106104  1
  Nd  Nd47  1  0.647916  0.946740  0.606104  1
  Nd  Nd48  1  0.852084  0.553260  0.606104  1
  Nd  Nd49  1  0.053260  0.147916  0.106104  1
  Nd  Nd50  1  0.456457  0.347166  0.619587  1
  Nd  Nd51  1  0.652834  0.956457  0.119587  1
  Nd  Nd52  1  0.847166  0.543543  0.119587  1
  Nd  Nd53  1  0.043543  0.152834  0.619587  1
  Nd  Nd54  1  0.543543  0.652834  0.380413  1
  Nd  Nd55  1  0.347166  0.043543  0.880413  1
  Nd  Nd56  1  0.152834  0.456457  0.880413  1
  Nd  Nd57  1  0.956457  0.847166  0.380413  1
