# generated using pymatgen
data_Mo2W(SeS2)2
_symmetry_space_group_name_H-M   'P 1'
_cell_length_a   3.23065904
_cell_length_b   3.23060192
_cell_length_c   29.69340585
_cell_angle_alpha   89.99991757
_cell_angle_beta   90.00000000
_cell_angle_gamma   120.00058491
_symmetry_Int_Tables_number   1
_chemical_formula_structural   Mo2W(SeS2)2
_chemical_formula_sum   'Mo2 W1 Se2 S4'
_cell_volume   268.38773070
_cell_formula_units_Z   1
loop_
 _symmetry_equiv_pos_site_id
 _symmetry_equiv_pos_as_xyz
  1  'x, y, z'
loop_
 _atom_site_type_symbol
 _atom_site_label
 _atom_site_symmetry_multiplicity
 _atom_site_fract_x
 _atom_site_fract_y
 _atom_site_fract_z
 _atom_site_occupancy
  Mo  Mo0  1  0.333311  0.666621  0.115637  1
  Mo  Mo1  1  0.666688  0.333376  0.346973  1
  W  W2  1  0.333310  0.666620  0.578336  1
  Se  Se3  1  0.333355  0.666711  0.404491  1
  Se  Se4  1  0.333359  0.666719  0.289456  1
  S  S5  1  0.666644  0.333286  0.063322  1
  S  S6  1  0.666643  0.333286  0.525852  1
  S  S7  1  0.666646  0.333291  0.167966  1
  S  S8  1  0.666645  0.333289  0.630808  1
