# generated using pymatgen
data_CaTe3O8
_symmetry_space_group_name_H-M   'P 1'
_cell_length_a   5.80405267
_cell_length_b   6.93082607
_cell_length_c   9.76994155
_cell_angle_alpha   73.41791992
_cell_angle_beta   72.72032282
_cell_angle_gamma   65.24664538
_symmetry_Int_Tables_number   1
_chemical_formula_structural   CaTe3O8
_chemical_formula_sum   'Ca2 Te6 O16'
_cell_volume   334.86834240
_cell_formula_units_Z   2
loop_
 _symmetry_equiv_pos_site_id
 _symmetry_equiv_pos_as_xyz
  1  'x, y, z'
loop_
 _atom_site_type_symbol
 _atom_site_label
 _atom_site_symmetry_multiplicity
 _atom_site_fract_x
 _atom_site_fract_y
 _atom_site_fract_z
 _atom_site_occupancy
  O  O0  1  0.426398  0.451029  0.910121  1
  O  O1  1  0.787547  0.048971  0.589879  1
  O  O2  1  0.573602  0.548971  0.089879  1
  O  O3  1  0.212453  0.951029  0.410121  1
  O  O4  1  0.987060  0.300800  0.907064  1
  O  O5  1  0.194924  0.199200  0.592936  1
  O  O6  1  0.012940  0.699200  0.092936  1
  O  O7  1  0.805076  0.800800  0.407064  1
  O  O8  1  0.694230  0.505835  0.658570  1
  O  O9  1  0.858634  0.994165  0.841430  1
  O  O10  1  0.305770  0.494165  0.341430  1
  O  O11  1  0.141366  0.005835  0.158570  1
  O  O12  1  0.659386  0.084516  0.123587  1
  O  O13  1  0.867488  0.415484  0.376413  1
  O  O14  1  0.340614  0.915484  0.876413  1
  O  O15  1  0.132512  0.584516  0.623587  1
  Ca  Ca16  1  0.431866  0.250000  0.750000  1
  Ca  Ca17  1  0.568134  0.750000  0.250000  1
  Te  Te18  1  0.000000  0.500000  0.500000  1
  Te  Te19  1  0.000000  0.000000  0.000000  1
  Te  Te20  1  0.874463  0.076293  0.358356  1
  Te  Te21  1  0.309112  0.423707  0.141644  1
  Te  Te22  1  0.125537  0.923707  0.641644  1
  Te  Te23  1  0.690888  0.576293  0.858356  1
