# generated using pymatgen
data_Te2Mo2SeS
_symmetry_space_group_name_H-M   'P 1'
_cell_length_a   3.39788065
_cell_length_b   3.39789090
_cell_length_c   38.62552712
_cell_angle_alpha   89.99991101
_cell_angle_beta   90.00000000
_cell_angle_gamma   119.99990012
_symmetry_Int_Tables_number   1
_chemical_formula_structural   Te2Mo2SeS
_chemical_formula_sum   'Te4 Mo4 Se2 S2'
_cell_volume   386.20957672
_cell_formula_units_Z   2
loop_
 _symmetry_equiv_pos_site_id
 _symmetry_equiv_pos_as_xyz
  1  'x, y, z'
loop_
 _atom_site_type_symbol
 _atom_site_label
 _atom_site_symmetry_multiplicity
 _atom_site_fract_x
 _atom_site_fract_y
 _atom_site_fract_z
 _atom_site_occupancy
  Te  Te0  1  0.333352  0.666705  0.705965  1
  Te  Te1  1  0.666647  0.333293  0.045447  1
  Te  Te2  1  0.666649  0.333296  0.142424  1
  Te  Te3  1  0.333351  0.666702  0.609104  1
  Mo  Mo4  1  0.333309  0.666619  0.093915  1
  Mo  Mo5  1  0.333312  0.666624  0.469664  1
  Mo  Mo6  1  0.666692  0.333383  0.281807  1
  Mo  Mo7  1  0.666690  0.333381  0.657550  1
  Se  Se8  1  0.666641  0.333281  0.427023  1
  Se  Se9  1  0.666650  0.333299  0.512265  1
  S  S10  1  0.333353  0.666708  0.320653  1
  S  S11  1  0.333353  0.666708  0.242931  1
