# generated using pymatgen
data_K3TmSi2O7
_symmetry_space_group_name_H-M   'P 1'
_cell_length_a   9.87924990
_cell_length_b   9.87924990
_cell_length_c   14.39991695
_cell_angle_alpha   90.00000000
_cell_angle_beta   90.00000000
_cell_angle_gamma   120.00000001
_symmetry_Int_Tables_number   1
_chemical_formula_structural   K3TmSi2O7
_chemical_formula_sum   'K18 Tm6 Si12 O42'
_cell_volume   1217.13446792
_cell_formula_units_Z   6
loop_
 _symmetry_equiv_pos_site_id
 _symmetry_equiv_pos_as_xyz
  1  'x, y, z'
loop_
 _atom_site_type_symbol
 _atom_site_label
 _atom_site_symmetry_multiplicity
 _atom_site_fract_x
 _atom_site_fract_y
 _atom_site_fract_z
 _atom_site_occupancy
  O  O0  1  0.410309  0.000000  0.750000  1
  O  O1  1  0.410309  0.410309  0.250000  1
  O  O2  1  0.000000  0.589691  0.250000  1
  O  O3  1  0.000000  0.410309  0.750000  1
  O  O4  1  0.589691  0.589691  0.750000  1
  O  O5  1  0.589691  0.000000  0.250000  1
  O  O6  1  0.823479  0.823479  0.851005  1
  O  O7  1  0.176521  0.000000  0.851005  1
  O  O8  1  0.000000  0.176521  0.851005  1
  O  O9  1  0.000000  0.823479  0.351005  1
  O  O10  1  0.176521  0.000000  0.648995  1
  O  O11  1  0.176521  0.176521  0.351005  1
  O  O12  1  0.823479  0.000000  0.351005  1
  O  O13  1  0.176521  0.176521  0.148995  1
  O  O14  1  0.000000  0.823479  0.148995  1
  O  O15  1  0.000000  0.176521  0.648995  1
  O  O16  1  0.823479  0.823479  0.648995  1
  O  O17  1  0.823479  0.000000  0.148995  1
  O  O18  1  0.322046  0.843467  0.909360  1
  O  O19  1  0.156533  0.478579  0.909360  1
  O  O20  1  0.521421  0.677954  0.909360  1
  O  O21  1  0.478579  0.322046  0.409360  1
  O  O22  1  0.677954  0.521421  0.590640  1
  O  O23  1  0.677954  0.156533  0.409360  1
  O  O24  1  0.843467  0.521421  0.409360  1
  O  O25  1  0.156533  0.677954  0.090640  1
  O  O26  1  0.521421  0.843467  0.090640  1
  O  O27  1  0.478579  0.156533  0.590640  1
  O  O28  1  0.843467  0.322046  0.590640  1
  O  O29  1  0.322046  0.478579  0.090640  1
  O  O30  1  0.677954  0.156533  0.090640  1
  O  O31  1  0.843467  0.521421  0.090640  1
  O  O32  1  0.478579  0.322046  0.090640  1
  O  O33  1  0.521421  0.677954  0.590640  1
  O  O34  1  0.322046  0.478579  0.409360  1
  O  O35  1  0.322046  0.843467  0.590640  1
  O  O36  1  0.677954  0.521421  0.909360  1
  O  O37  1  0.156533  0.677954  0.409360  1
  O  O38  1  0.521421  0.843467  0.409360  1
  O  O39  1  0.478579  0.156533  0.909360  1
  O  O40  1  0.843467  0.322046  0.909360  1
  O  O41  1  0.156533  0.478579  0.590640  1
  Si  Si42  1  0.657883  0.657883  0.857609  1
  Si  Si43  1  0.342117  0.000000  0.857609  1
  Si  Si44  1  0.000000  0.342117  0.857609  1
  Si  Si45  1  0.000000  0.657883  0.357609  1
  Si  Si46  1  0.342117  0.000000  0.642391  1
  Si  Si47  1  0.342117  0.342117  0.357609  1
  Si  Si48  1  0.657883  0.000000  0.357609  1
  Si  Si49  1  0.342117  0.342117  0.142391  1
  Si  Si50  1  0.000000  0.657883  0.142391  1
  Si  Si51  1  0.000000  0.342117  0.642391  1
  Si  Si52  1  0.657883  0.657883  0.642391  1
  Si  Si53  1  0.657883  0.000000  0.142391  1
  K  K54  1  0.000000  0.000000  0.500000  1
  K  K55  1  0.332300  0.000000  0.092191  1
  K  K56  1  0.332300  0.332300  0.592191  1
  K  K57  1  0.000000  0.667700  0.592191  1
  K  K58  1  0.000000  0.332300  0.092191  1
  K  K59  1  0.667700  0.667700  0.092191  1
  K  K60  1  0.332300  0.000000  0.407809  1
  K  K61  1  0.000000  0.000000  0.000000  1
  K  K62  1  0.333333  0.666667  0.750000  1
  K  K63  1  0.666667  0.333333  0.250000  1
  K  K64  1  0.666667  0.333333  0.750000  1
  K  K65  1  0.333333  0.666667  0.250000  1
  K  K66  1  0.667700  0.667700  0.407809  1
  K  K67  1  0.667700  0.000000  0.907809  1
  K  K68  1  0.000000  0.667700  0.907809  1
  K  K69  1  0.000000  0.332300  0.407809  1
  K  K70  1  0.667700  0.000000  0.592191  1
  K  K71  1  0.332300  0.332300  0.907809  1
  Tm  Tm72  1  0.000000  0.000000  0.750000  1
  Tm  Tm73  1  0.333333  0.666667  0.000000  1
  Tm  Tm74  1  0.666667  0.333333  0.500000  1
  Tm  Tm75  1  0.666667  0.333333  0.000000  1
  Tm  Tm76  1  0.333333  0.666667  0.500000  1
  Tm  Tm77  1  0.000000  0.000000  0.250000  1
