# generated using pymatgen
data_SrGa4O7
_symmetry_space_group_name_H-M   'P 1'
_cell_length_a   5.77642147
_cell_length_b   8.26415841
_cell_length_c   8.26415841
_cell_angle_alpha   68.64246225
_cell_angle_beta   77.27040524
_cell_angle_gamma   77.27040526
_symmetry_Int_Tables_number   1
_chemical_formula_structural   SrGa4O7
_chemical_formula_sum   'Sr2 Ga8 O14'
_cell_volume   354.09736245
_cell_formula_units_Z   2
loop_
 _symmetry_equiv_pos_site_id
 _symmetry_equiv_pos_as_xyz
  1  'x, y, z'
loop_
 _atom_site_type_symbol
 _atom_site_label
 _atom_site_symmetry_multiplicity
 _atom_site_fract_x
 _atom_site_fract_y
 _atom_site_fract_z
 _atom_site_occupancy
  O  O0  1  0.250000  0.966148  0.033852  1
  O  O1  1  0.750000  0.033852  0.966148  1
  O  O2  1  0.146475  0.124600  0.636003  1
  O  O3  1  0.353525  0.363997  0.875401  1
  O  O4  1  0.853526  0.875401  0.363997  1
  O  O5  1  0.646474  0.636003  0.124600  1
  O  O6  1  0.441414  0.664351  0.568789  1
  O  O7  1  0.058586  0.431211  0.335649  1
  O  O8  1  0.906873  0.250409  0.126960  1
  O  O9  1  0.593127  0.873040  0.749591  1
  O  O10  1  0.093127  0.749591  0.873040  1
  O  O11  1  0.406873  0.126960  0.250409  1
  O  O12  1  0.941414  0.568789  0.664351  1
  O  O13  1  0.558586  0.335649  0.431211  1
  Ga  Ga14  1  0.300104  0.244330  0.418928  1
  Ga  Ga15  1  0.199896  0.581072  0.755670  1
  Ga  Ga16  1  0.699896  0.755670  0.581072  1
  Ga  Ga17  1  0.800104  0.418928  0.244330  1
  Ga  Ga18  1  0.258668  0.942648  0.818608  1
  Ga  Ga19  1  0.241332  0.181392  0.057352  1
  Ga  Ga20  1  0.758668  0.818608  0.942648  1
  Ga  Ga21  1  0.741332  0.057352  0.181392  1
  Sr  Sr22  1  0.250000  0.689045  0.310955  1
  Sr  Sr23  1  0.750000  0.310955  0.689045  1
