# generated using pymatgen
data_Te6Mo3WSe2
_symmetry_space_group_name_H-M   'P 1'
_cell_length_a   3.49645433
_cell_length_b   3.49645217
_cell_length_c   39.60687044
_cell_angle_alpha   90.00029421
_cell_angle_beta   90.00000000
_cell_angle_gamma   120.00002035
_symmetry_Int_Tables_number   1
_chemical_formula_structural   Te6Mo3WSe2
_chemical_formula_sum   'Te6 Mo3 W1 Se2'
_cell_volume   419.33056739
_cell_formula_units_Z   1
loop_
 _symmetry_equiv_pos_site_id
 _symmetry_equiv_pos_as_xyz
  1  'x, y, z'
loop_
 _atom_site_type_symbol
 _atom_site_label
 _atom_site_symmetry_multiplicity
 _atom_site_fract_x
 _atom_site_fract_y
 _atom_site_fract_z
 _atom_site_occupancy
  Te  Te0  1  0.333356  0.666712  0.328100  1
  Te  Te1  1  0.333354  0.666709  0.703822  1
  Te  Te2  1  0.666637  0.333273  0.047629  1
  Te  Te3  1  0.666649  0.333297  0.140224  1
  Te  Te4  1  0.333352  0.666706  0.235503  1
  Te  Te5  1  0.333355  0.666711  0.611225  1
  Mo  Mo6  1  0.333309  0.666618  0.093906  1
  Mo  Mo7  1  0.666692  0.333384  0.281821  1
  Mo  Mo8  1  0.666690  0.333381  0.657534  1
  W  W9  1  0.333313  0.666626  0.469663  1
  Se  Se10  1  0.666645  0.333289  0.428664  1
  Se  Se11  1  0.666647  0.333294  0.510658  1
