# generated using pymatgen
data_NdF3
_symmetry_space_group_name_H-M   'P 1'
_cell_length_a   7.10653810
_cell_length_b   7.10653810
_cell_length_c   7.07674441
_cell_angle_alpha   90.00000000
_cell_angle_beta   90.00000000
_cell_angle_gamma   119.99999999
_symmetry_Int_Tables_number   1
_chemical_formula_structural   NdF3
_chemical_formula_sum   'Nd6 F18'
_cell_volume   309.51401567
_cell_formula_units_Z   6
loop_
 _symmetry_equiv_pos_site_id
 _symmetry_equiv_pos_as_xyz
  1  'x, y, z'
loop_
 _atom_site_type_symbol
 _atom_site_label
 _atom_site_symmetry_multiplicity
 _atom_site_fract_x
 _atom_site_fract_y
 _atom_site_fract_z
 _atom_site_occupancy
  F  F0  1  0.000000  0.000000  0.750000  1
  F  F1  1  0.000000  0.000000  0.250000  1
  F  F2  1  0.333333  0.666667  0.499971  1
  F  F3  1  0.666667  0.333333  0.999971  1
  F  F4  1  0.666667  0.333333  0.500029  1
  F  F5  1  0.333333  0.666667  0.000029  1
  F  F6  1  0.343882  1.000005  0.166215  1
  F  F7  1  0.343877  0.343882  0.666215  1
  F  F8  1  1.000005  0.656123  0.666215  1
  F  F9  1  -0.000005  0.343877  0.166215  1
  F  F10  1  0.656123  0.656118  0.166215  1
  F  F11  1  0.343877  -0.000005  0.833785  1
  F  F12  1  0.656118  0.656123  0.833785  1
  F  F13  1  0.656118  -0.000005  0.666215  1
  F  F14  1  1.000005  0.343882  0.833785  1
  F  F15  1  -0.000005  0.656118  0.333785  1
  F  F16  1  0.656123  1.000005  0.333785  1
  F  F17  1  0.343882  0.343877  0.333785  1
  Nd  Nd18  1  0.670055  0.670055  0.500000  1
  Nd  Nd19  1  0.000000  0.670055  0.000000  1
  Nd  Nd20  1  0.670055  0.000000  0.000000  1
  Nd  Nd21  1  0.329945  0.000000  0.500000  1
  Nd  Nd22  1  0.000000  0.329945  0.500000  1
  Nd  Nd23  1  0.329945  0.329945  0.000000  1
