# generated using pymatgen
data_MoWSe3S
_symmetry_space_group_name_H-M   'P 1'
_cell_length_a   3.28623276
_cell_length_b   3.28618152
_cell_length_c   37.36587696
_cell_angle_alpha   90.00010137
_cell_angle_beta   90.00000000
_cell_angle_gamma   120.00051576
_symmetry_Int_Tables_number   1
_chemical_formula_structural   MoWSe3S
_chemical_formula_sum   'Mo2 W2 Se6 S2'
_cell_volume   349.45674248
_cell_formula_units_Z   2
loop_
 _symmetry_equiv_pos_site_id
 _symmetry_equiv_pos_as_xyz
  1  'x, y, z'
loop_
 _atom_site_type_symbol
 _atom_site_label
 _atom_site_symmetry_multiplicity
 _atom_site_fract_x
 _atom_site_fract_y
 _atom_site_fract_z
 _atom_site_occupancy
  Mo  Mo0  1  0.333307  0.666614  0.093923  1
  Mo  Mo1  1  0.666691  0.333382  0.657549  1
  W  W2  1  0.333313  0.666626  0.469647  1
  W  W3  1  0.666691  0.333383  0.281792  1
  Se  Se4  1  0.333354  0.666710  0.702676  1
  Se  Se5  1  0.666639  0.333277  0.048799  1
  Se  Se6  1  0.666649  0.333297  0.424256  1
  Se  Se7  1  0.666640  0.333279  0.139050  1
  Se  Se8  1  0.666649  0.333297  0.515057  1
  Se  Se9  1  0.333354  0.666709  0.612410  1
  S  S10  1  0.333356  0.666713  0.323050  1
  S  S11  1  0.333356  0.666713  0.240540  1
