# generated using pymatgen
data_SrTlPS4
_symmetry_space_group_name_H-M   'P 1'
_cell_length_a   6.66648437
_cell_length_b   8.80321774
_cell_length_c   12.87678883
_cell_angle_alpha   90.00000000
_cell_angle_beta   90.00000000
_cell_angle_gamma   90.00000000
_symmetry_Int_Tables_number   1
_chemical_formula_structural   SrTlPS4
_chemical_formula_sum   'Sr4 Tl4 P4 S16'
_cell_volume   755.69384111
_cell_formula_units_Z   4
loop_
 _symmetry_equiv_pos_site_id
 _symmetry_equiv_pos_as_xyz
  1  'x, y, z'
loop_
 _atom_site_type_symbol
 _atom_site_label
 _atom_site_symmetry_multiplicity
 _atom_site_fract_x
 _atom_site_fract_y
 _atom_site_fract_z
 _atom_site_occupancy
  P  P0  1  0.750000  0.128209  0.647436  1
  P  P1  1  0.250000  0.628209  0.852564  1
  P  P2  1  0.750000  0.371791  0.147436  1
  P  P3  1  0.250000  0.871791  0.352564  1
  S  S4  1  0.495490  0.639380  0.755162  1
  S  S5  1  0.995490  0.360620  0.244838  1
  S  S6  1  0.504510  0.139380  0.744838  1
  S  S7  1  0.004510  0.860620  0.255162  1
  S  S8  1  0.995490  0.139380  0.744838  1
  S  S9  1  0.504510  0.360620  0.244838  1
  S  S10  1  0.495490  0.860620  0.255162  1
  S  S11  1  0.004510  0.639380  0.755162  1
  S  S12  1  0.250000  0.687742  0.449478  1
  S  S13  1  0.750000  0.312258  0.550522  1
  S  S14  1  0.750000  0.187742  0.050522  1
  S  S15  1  0.250000  0.812258  0.949478  1
  S  S16  1  0.250000  0.073924  0.431683  1
  S  S17  1  0.750000  0.926076  0.568317  1
  S  S18  1  0.750000  0.573924  0.068317  1
  S  S19  1  0.250000  0.426076  0.931683  1
  Sr  Sr20  1  0.250000  0.607567  0.135410  1
  Sr  Sr21  1  0.750000  0.392433  0.864590  1
  Sr  Sr22  1  0.750000  0.107567  0.364590  1
  Sr  Sr23  1  0.250000  0.892433  0.635410  1
  Tl  Tl24  1  0.750000  0.878751  0.888821  1
  Tl  Tl25  1  0.250000  0.121249  0.111179  1
  Tl  Tl26  1  0.250000  0.378751  0.611179  1
  Tl  Tl27  1  0.750000  0.621249  0.388821  1
