# generated using pymatgen
data_Rb2B4O7
_symmetry_space_group_name_H-M   'P 1'
_cell_length_a   6.73519136
_cell_length_b   10.03715117
_cell_length_c   10.77612034
_cell_angle_alpha   89.17702048
_cell_angle_beta   76.65661001
_cell_angle_gamma   78.70312968
_symmetry_Int_Tables_number   1
_chemical_formula_structural   Rb2B4O7
_chemical_formula_sum   'Rb8 B16 O28'
_cell_volume   694.72621650
_cell_formula_units_Z   4
loop_
 _symmetry_equiv_pos_site_id
 _symmetry_equiv_pos_as_xyz
  1  'x, y, z'
loop_
 _atom_site_type_symbol
 _atom_site_label
 _atom_site_symmetry_multiplicity
 _atom_site_fract_x
 _atom_site_fract_y
 _atom_site_fract_z
 _atom_site_occupancy
  B  B0  1  0.297013  0.712359  0.449754  1
  B  B1  1  0.702987  0.287641  0.550246  1
  B  B2  1  0.851334  0.791321  0.148157  1
  B  B3  1  0.148666  0.208679  0.851843  1
  B  B4  1  0.131212  0.441632  0.199334  1
  B  B5  1  0.868788  0.558368  0.800666  1
  B  B6  1  0.207324  0.086713  0.262969  1
  B  B7  1  0.792676  0.913287  0.737031  1
  B  B8  1  0.436784  0.837556  0.260867  1
  B  B9  1  0.563216  0.162444  0.739133  1
  B  B10  1  0.911314  0.289886  0.319418  1
  B  B11  1  0.088686  0.710114  0.680582  1
  B  B12  1  0.074550  0.229141  0.100737  1
  B  B13  1  0.925450  0.770859  0.899263  1
  B  B14  1  0.165147  0.689549  0.251336  1
  B  B15  1  0.834853  0.310451  0.748664  1
  O  O16  1  0.875602  0.255475  0.197001  1
  O  O17  1  0.074631  0.179108  0.355518  1
  O  O18  1  0.282951  0.697401  0.579691  1
  O  O19  1  0.717049  0.302599  0.420309  1
  O  O20  1  0.011846  0.577446  0.689918  1
  O  O21  1  0.925369  0.820892  0.644482  1
  O  O22  1  0.666901  0.018503  0.692273  1
  O  O23  1  0.333099  0.981497  0.307727  1
  O  O24  1  0.360162  0.157139  0.827604  1
  O  O25  1  0.639838  0.842861  0.172396  1
  O  O26  1  0.682921  0.229806  0.804921  1
  O  O27  1  0.317079  0.770194  0.195079  1
  O  O28  1  0.775780  0.446824  0.817982  1
  O  O29  1  0.224220  0.553176  0.182018  1
  O  O30  1  0.538202  0.231983  0.617180  1
  O  O31  1  0.461798  0.768017  0.382820  1
  O  O32  1  0.840223  0.330408  0.609140  1
  O  O33  1  0.159777  0.669592  0.390860  1
  O  O34  1  0.055073  0.246895  0.751826  1
  O  O35  1  0.944927  0.753105  0.248174  1
  O  O36  1  0.187100  0.345978  0.099834  1
  O  O37  1  0.812900  0.654022  0.900166  1
  O  O38  1  0.211364  0.103192  0.135159  1
  O  O39  1  0.788636  0.896808  0.864841  1
  O  O40  1  0.969909  0.784261  0.024687  1
  O  O41  1  0.030091  0.215739  0.975313  1
  O  O42  1  0.988154  0.422554  0.310082  1
  O  O43  1  0.124398  0.744525  0.802999  1
  Rb  Rb44  1  0.768139  0.987921  0.407726  1
  Rb  Rb45  1  0.231861  0.012079  0.592274  1
  Rb  Rb46  1  0.242363  0.380677  0.494428  1
  Rb  Rb47  1  0.757637  0.619323  0.505572  1
  Rb  Rb48  1  0.668194  0.517114  0.123464  1
  Rb  Rb49  1  0.331806  0.482886  0.876536  1
  Rb  Rb50  1  0.648914  0.121848  0.046964  1
  Rb  Rb51  1  0.351086  0.878152  0.953036  1
