# generated using pymatgen
data_Sm3Sb4Pt7
_symmetry_space_group_name_H-M   'P 1'
_cell_length_a   4.30460521
_cell_length_b   8.61516571
_cell_length_c   8.64645632
_cell_angle_alpha   75.40438168
_cell_angle_beta   75.58620482
_cell_angle_gamma   75.53271385
_symmetry_Int_Tables_number   1
_chemical_formula_structural   Sm3Sb4Pt7
_chemical_formula_sum   'Sm3 Sb4 Pt7'
_cell_volume   294.48854516
_cell_formula_units_Z   1
loop_
 _symmetry_equiv_pos_site_id
 _symmetry_equiv_pos_as_xyz
  1  'x, y, z'
loop_
 _atom_site_type_symbol
 _atom_site_label
 _atom_site_symmetry_multiplicity
 _atom_site_fract_x
 _atom_site_fract_y
 _atom_site_fract_z
 _atom_site_occupancy
  Sb  Sb0  1  0.359483  0.871672  0.409363  1
  Sb  Sb1  1  0.828610  0.318042  0.024737  1
  Sb  Sb2  1  0.171390  0.681958  0.975263  1
  Sb  Sb3  1  0.640517  0.128328  0.590637  1
  Sm  Sm4  1  0.500000  0.000000  0.000000  1
  Sm  Sm5  1  0.171711  0.341863  0.314715  1
  Sm  Sm6  1  0.828289  0.658137  0.685285  1
  Pt  Pt7  1  0.169164  0.930725  0.730947  1
  Pt  Pt8  1  0.377220  0.401400  0.844160  1
  Pt  Pt9  1  0.500000  0.500000  0.500000  1
  Pt  Pt10  1  0.830836  0.069275  0.269053  1
  Pt  Pt11  1  0.016922  0.293495  0.672661  1
  Pt  Pt12  1  0.983078  0.706505  0.327339  1
  Pt  Pt13  1  0.622780  0.598600  0.155840  1
