# generated using pymatgen
data_Pu2SnPt2
_symmetry_space_group_name_H-M   'P 1'
_cell_length_a   3.65404185
_cell_length_b   7.68883380
_cell_length_c   7.68883380
_cell_angle_alpha   90.00000000
_cell_angle_beta   90.00000000
_cell_angle_gamma   90.00000000
_symmetry_Int_Tables_number   1
_chemical_formula_structural   Pu2SnPt2
_chemical_formula_sum   'Pu4 Sn2 Pt4'
_cell_volume   216.02024975
_cell_formula_units_Z   2
loop_
 _symmetry_equiv_pos_site_id
 _symmetry_equiv_pos_as_xyz
  1  'x, y, z'
loop_
 _atom_site_type_symbol
 _atom_site_label
 _atom_site_symmetry_multiplicity
 _atom_site_fract_x
 _atom_site_fract_y
 _atom_site_fract_z
 _atom_site_occupancy
  Sn  Sn0  1  0.000000  0.500000  0.500000  1
  Sn  Sn1  1  0.000000  0.000000  0.000000  1
  Pt  Pt2  1  0.000000  0.631420  0.131420  1
  Pt  Pt3  1  0.000000  0.868580  0.631420  1
  Pt  Pt4  1  0.000000  0.368580  0.868580  1
  Pt  Pt5  1  0.000000  0.131420  0.368580  1
  Pu  Pu6  1  0.500000  0.829302  0.329302  1
  Pu  Pu7  1  0.500000  0.670698  0.829302  1
  Pu  Pu8  1  0.500000  0.329302  0.170698  1
  Pu  Pu9  1  0.500000  0.170698  0.670698  1
