# generated using pymatgen
data_Ba3(AlN2)2
_symmetry_space_group_name_H-M   'P 1'
_cell_length_a   6.27119210
_cell_length_b   10.31969034
_cell_length_c   10.18969324
_cell_angle_alpha   90.00000000
_cell_angle_beta   90.00000000
_cell_angle_gamma   90.00000000
_symmetry_Int_Tables_number   1
_chemical_formula_structural   Ba3(AlN2)2
_chemical_formula_sum   'Ba12 Al8 N16'
_cell_volume   659.44393733
_cell_formula_units_Z   4
loop_
 _symmetry_equiv_pos_site_id
 _symmetry_equiv_pos_as_xyz
  1  'x, y, z'
loop_
 _atom_site_type_symbol
 _atom_site_label
 _atom_site_symmetry_multiplicity
 _atom_site_fract_x
 _atom_site_fract_y
 _atom_site_fract_z
 _atom_site_occupancy
  N  N0  1  0.857418  0.144663  0.634339  1
  N  N1  1  0.857418  0.355337  0.865661  1
  N  N2  1  0.642582  0.644663  0.865661  1
  N  N3  1  0.642582  0.855337  0.634339  1
  N  N4  1  0.142582  0.855337  0.365661  1
  N  N5  1  0.142582  0.644663  0.134339  1
  N  N6  1  0.357418  0.355337  0.134339  1
  N  N7  1  0.357418  0.144663  0.365661  1
  N  N8  1  0.535361  0.099485  0.827773  1
  N  N9  1  0.535361  0.400515  0.672227  1
  N  N10  1  0.964639  0.599485  0.672227  1
  N  N11  1  0.964639  0.900515  0.827773  1
  N  N12  1  0.464639  0.599485  0.327773  1
  N  N13  1  0.035361  0.400515  0.327773  1
  N  N14  1  0.035361  0.099485  0.172227  1
  N  N15  1  0.464639  0.900515  0.172227  1
  Al  Al16  1  0.250000  0.000000  0.267726  1
  Al  Al17  1  0.250000  0.500000  0.232274  1
  Al  Al18  1  0.750000  0.000000  0.732274  1
  Al  Al19  1  0.750000  0.500000  0.767726  1
  Al  Al20  1  0.826340  0.750000  0.750000  1
  Al  Al21  1  0.326340  0.750000  0.250000  1
  Al  Al22  1  0.173660  0.250000  0.250000  1
  Al  Al23  1  0.673660  0.250000  0.750000  1
  Ba  Ba24  1  0.250000  0.500000  0.908715  1
  Ba  Ba25  1  0.250000  0.000000  0.591285  1
  Ba  Ba26  1  0.750000  0.500000  0.091285  1
  Ba  Ba27  1  0.750000  0.000000  0.408715  1
  Ba  Ba28  1  0.114629  0.154830  0.913281  1
  Ba  Ba29  1  0.114629  0.345170  0.586719  1
  Ba  Ba30  1  0.385371  0.654830  0.586719  1
  Ba  Ba31  1  0.385371  0.845170  0.913281  1
  Ba  Ba32  1  0.885371  0.845170  0.086719  1
  Ba  Ba33  1  0.885371  0.654830  0.413281  1
  Ba  Ba34  1  0.614629  0.345170  0.413281  1
  Ba  Ba35  1  0.614629  0.154830  0.086719  1
