# generated using pymatgen
data_Te2MoWS2
_symmetry_space_group_name_H-M   'P 1'
_cell_length_a   3.35969784
_cell_length_b   3.35988057
_cell_length_c   40.04842091
_cell_angle_alpha   89.99586139
_cell_angle_beta   90.00000000
_cell_angle_gamma   119.99820097
_symmetry_Int_Tables_number   1
_chemical_formula_structural   Te2MoWS2
_chemical_formula_sum   'Te4 Mo2 W2 S4'
_cell_volume   391.51459804
_cell_formula_units_Z   2
loop_
 _symmetry_equiv_pos_site_id
 _symmetry_equiv_pos_as_xyz
  1  'x, y, z'
loop_
 _atom_site_type_symbol
 _atom_site_label
 _atom_site_symmetry_multiplicity
 _atom_site_fract_x
 _atom_site_fract_y
 _atom_site_fract_z
 _atom_site_occupancy
  Te  Te0  1  0.333391  0.666783  0.327812  1
  Te  Te1  1  0.666625  0.333249  0.423847  1
  Te  Te2  1  0.666542  0.333084  0.518162  1
  Te  Te3  1  0.333479  0.666960  0.232828  1
  Mo  Mo4  1  0.333328  0.666655  0.093887  1
  Mo  Mo5  1  0.333264  0.666528  0.470997  1
  W  W6  1  0.666748  0.333496  0.280327  1
  W  W7  1  0.666652  0.333303  0.657720  1
  S  S8  1  0.333294  0.666590  0.695598  1
  S  S9  1  0.666683  0.333366  0.056133  1
  S  S10  1  0.666657  0.333314  0.131615  1
  S  S11  1  0.333335  0.666672  0.619822  1
