# generated using pymatgen
data_Ba2Tl2O5
_symmetry_space_group_name_H-M   'P 1'
_cell_length_a   6.18044734
_cell_length_b   6.44775374
_cell_length_c   17.36868919
_cell_angle_alpha   90.00000000
_cell_angle_beta   90.00000000
_cell_angle_gamma   90.00000000
_symmetry_Int_Tables_number   1
_chemical_formula_structural   Ba2Tl2O5
_chemical_formula_sum   'Ba8 Tl8 O20'
_cell_volume   692.14230680
_cell_formula_units_Z   4
loop_
 _symmetry_equiv_pos_site_id
 _symmetry_equiv_pos_as_xyz
  1  'x, y, z'
loop_
 _atom_site_type_symbol
 _atom_site_label
 _atom_site_symmetry_multiplicity
 _atom_site_fract_x
 _atom_site_fract_y
 _atom_site_fract_z
 _atom_site_occupancy
  O  O0  1  0.386060  0.879411  0.250000  1
  O  O1  1  0.886060  0.620589  0.250000  1
  O  O2  1  0.113940  0.379411  0.750000  1
  O  O3  1  0.613940  0.120589  0.750000  1
  O  O4  1  0.046717  0.926496  0.639258  1
  O  O5  1  0.546717  0.573504  0.860742  1
  O  O6  1  0.453283  0.426496  0.360742  1
  O  O7  1  0.953283  0.073504  0.139258  1
  O  O8  1  0.953283  0.073504  0.360742  1
  O  O9  1  0.453283  0.426496  0.139258  1
  O  O10  1  0.546717  0.573504  0.639258  1
  O  O11  1  0.046717  0.926496  0.860742  1
  O  O12  1  0.245970  0.777212  0.485215  1
  O  O13  1  0.745970  0.722788  0.014785  1
  O  O14  1  0.254030  0.277212  0.514785  1
  O  O15  1  0.754030  0.222788  0.985215  1
  O  O16  1  0.245970  0.777212  0.014785  1
  O  O17  1  0.745970  0.722788  0.485215  1
  O  O18  1  0.254030  0.277212  0.985215  1
  O  O19  1  0.754030  0.222788  0.514785  1
  Ba  Ba20  1  0.491027  0.981141  0.888797  1
  Ba  Ba21  1  0.991027  0.518859  0.611203  1
  Ba  Ba22  1  0.008973  0.481141  0.111203  1
  Ba  Ba23  1  0.508973  0.018859  0.388797  1
  Ba  Ba24  1  0.508973  0.018859  0.111203  1
  Ba  Ba25  1  0.008973  0.481141  0.388797  1
  Ba  Ba26  1  0.991027  0.518859  0.888797  1
  Ba  Ba27  1  0.491027  0.981141  0.611203  1
  Tl  Tl28  1  0.000000  0.000000  0.000000  1
  Tl  Tl29  1  0.500000  0.500000  0.500000  1
  Tl  Tl30  1  0.500000  0.500000  0.000000  1
  Tl  Tl31  1  0.000000  0.000000  0.500000  1
  Tl  Tl32  1  0.974671  0.055719  0.750000  1
  Tl  Tl33  1  0.474671  0.444281  0.750000  1
  Tl  Tl34  1  0.525329  0.555719  0.250000  1
  Tl  Tl35  1  0.025329  0.944281  0.250000  1
