# generated using pymatgen
data_LaCo(BO2)5
_symmetry_space_group_name_H-M   'P 1'
_cell_length_a   7.68352795
_cell_length_b   8.88776905
_cell_length_c   9.57125962
_cell_angle_alpha   92.44158244
_cell_angle_beta   90.00000000
_cell_angle_gamma   90.00000000
_symmetry_Int_Tables_number   1
_chemical_formula_structural   LaCo(BO2)5
_chemical_formula_sum   'La4 Co4 B20 O40'
_cell_volume   653.02241807
_cell_formula_units_Z   4
loop_
 _symmetry_equiv_pos_site_id
 _symmetry_equiv_pos_as_xyz
  1  'x, y, z'
loop_
 _atom_site_type_symbol
 _atom_site_label
 _atom_site_symmetry_multiplicity
 _atom_site_fract_x
 _atom_site_fract_y
 _atom_site_fract_z
 _atom_site_occupancy
  B  B0  1  0.816743  0.574680  0.083739  1
  B  B1  1  0.316743  0.925320  0.416262  1
  B  B2  1  0.183257  0.425319  0.916262  1
  B  B3  1  0.683258  0.074680  0.583738  1
  B  B4  1  0.093512  0.651846  0.494090  1
  B  B5  1  0.593512  0.848154  0.005910  1
  B  B6  1  0.906488  0.348154  0.505909  1
  B  B7  1  0.406487  0.151846  0.994090  1
  B  B8  1  0.035249  0.784526  0.051905  1
  B  B9  1  0.535248  0.715474  0.448095  1
  B  B10  1  0.964752  0.215474  0.948095  1
  B  B11  1  0.464751  0.284526  0.551905  1
  B  B12  1  0.826551  0.013349  0.109422  1
  B  B13  1  0.326551  0.486651  0.390578  1
  B  B14  1  0.173449  0.986651  0.890578  1
  B  B15  1  0.673448  0.513349  0.609423  1
  B  B16  1  0.081622  0.592315  0.234097  1
  B  B17  1  0.581621  0.907685  0.265903  1
  B  B18  1  0.918379  0.407686  0.765903  1
  B  B19  1  0.418379  0.092314  0.734096  1
  O  O20  1  0.960337  0.271354  0.388283  1
  O  O21  1  0.460337  0.228646  0.111717  1
  O  O22  1  0.039662  0.728647  0.611717  1
  O  O23  1  0.539663  0.771354  0.888283  1
  O  O24  1  0.155728  0.993768  0.434551  1
  O  O25  1  0.655727  0.506232  0.065449  1
  O  O26  1  0.844272  0.006232  0.565449  1
  O  O27  1  0.344272  0.493769  0.934551  1
  O  O28  1  0.876044  0.692202  0.008233  1
  O  O29  1  0.376044  0.807798  0.491767  1
  O  O30  1  0.123955  0.307798  0.991767  1
  O  O31  1  0.623956  0.192202  0.508234  1
  O  O32  1  0.719821  0.959014  0.990953  1
  O  O33  1  0.219820  0.540985  0.509048  1
  O  O34  1  0.280179  0.040986  0.009047  1
  O  O35  1  0.780179  0.459014  0.490953  1
  O  O36  1  0.890381  0.168464  0.085062  1
  O  O37  1  0.390381  0.331536  0.414938  1
  O  O38  1  0.109619  0.831535  0.914939  1
  O  O39  1  0.609620  0.668465  0.585062  1
  O  O40  1  0.977774  0.915797  0.142801  1
  O  O41  1  0.477773  0.584203  0.357199  1
  O  O42  1  0.022227  0.084203  0.857199  1
  O  O43  1  0.522226  0.415798  0.642801  1
  O  O44  1  0.153181  0.690168  0.129049  1
  O  O45  1  0.653181  0.809832  0.370950  1
  O  O46  1  0.846820  0.309832  0.870951  1
  O  O47  1  0.346820  0.190168  0.629050  1
  O  O48  1  0.918733  0.516710  0.187595  1
  O  O49  1  0.418734  0.983290  0.312405  1
  O  O50  1  0.081266  0.483290  0.812405  1
  O  O51  1  0.581267  0.016709  0.687595  1
  O  O52  1  0.034965  0.685056  0.363168  1
  O  O53  1  0.534965  0.814944  0.136833  1
  O  O54  1  0.965035  0.314944  0.636832  1
  O  O55  1  0.465036  0.185056  0.863167  1
  O  O56  1  0.220110  0.478325  0.259485  1
  O  O57  1  0.720111  0.021674  0.240515  1
  O  O58  1  0.779889  0.521675  0.740515  1
  O  O59  1  0.279890  0.978325  0.759485  1
  Co  Co60  1  0.909835  0.898624  0.375326  1
  Co  Co61  1  0.409835  0.601376  0.124674  1
  Co  Co62  1  0.090165  0.101375  0.624673  1
  Co  Co63  1  0.590165  0.398625  0.875327  1
  La  La64  1  0.685760  0.318951  0.263842  1
  La  La65  1  0.185760  0.181049  0.236158  1
  La  La66  1  0.314240  0.681049  0.736157  1
  La  La67  1  0.814239  0.818951  0.763842  1
