# generated using pymatgen
data_Sr5Sn3
_symmetry_space_group_name_H-M   'P 1'
_cell_length_a   8.61645644
_cell_length_b   8.61633337
_cell_length_c   10.26698116
_cell_angle_alpha   114.81967153
_cell_angle_beta   114.81058398
_cell_angle_gamma   89.99999999
_symmetry_Int_Tables_number   1
_chemical_formula_structural   Sr5Sn3
_chemical_formula_sum   'Sr10 Sn6'
_cell_volume   613.46081406
_cell_formula_units_Z   2
loop_
 _symmetry_equiv_pos_site_id
 _symmetry_equiv_pos_as_xyz
  1  'x, y, z'
loop_
 _atom_site_type_symbol
 _atom_site_label
 _atom_site_symmetry_multiplicity
 _atom_site_fract_x
 _atom_site_fract_y
 _atom_site_fract_z
 _atom_site_occupancy
  Sr  Sr0  1  0.318663  0.818687  0.283682  1
  Sr  Sr1  1  0.465019  0.318687  0.283682  1
  Sr  Sr2  1  0.818671  0.964980  0.283631  1
  Sr  Sr3  1  0.534981  0.681313  0.716318  1
  Sr  Sr4  1  0.181329  0.035020  0.716369  1
  Sr  Sr5  1  0.035041  0.535020  0.716369  1
  Sr  Sr6  1  0.681337  0.181313  0.716318  1
  Sr  Sr7  1  0.964959  0.464980  0.283631  1
  Sr  Sr8  1  0.000000  0.000000  0.000000  1
  Sr  Sr9  1  0.500000  0.500000  0.000000  1
  Sn  Sn10  1  0.379378  0.879406  0.000310  1
  Sn  Sn11  1  0.120933  0.379406  0.000310  1
  Sn  Sn12  1  0.879067  0.620594  0.999690  1
  Sn  Sn13  1  0.620622  0.120594  0.999690  1
  Sn  Sn14  1  0.249929  0.250000  0.500000  1
  Sn  Sn15  1  0.750071  0.750000  0.500000  1
