# generated using pymatgen
data_Na3GaSe3
_symmetry_space_group_name_H-M   'P 1'
_cell_length_a   7.34976538
_cell_length_b   7.57568345
_cell_length_c   13.31842267
_cell_angle_alpha   90.38228219
_cell_angle_beta   90.00000000
_cell_angle_gamma   90.00000000
_symmetry_Int_Tables_number   1
_chemical_formula_structural   Na3GaSe3
_chemical_formula_sum   'Na12 Ga4 Se12'
_cell_volume   741.54655557
_cell_formula_units_Z   4
loop_
 _symmetry_equiv_pos_site_id
 _symmetry_equiv_pos_as_xyz
  1  'x, y, z'
loop_
 _atom_site_type_symbol
 _atom_site_label
 _atom_site_symmetry_multiplicity
 _atom_site_fract_x
 _atom_site_fract_y
 _atom_site_fract_z
 _atom_site_occupancy
  Na  Na0  1  0.470799  0.727440  0.786967  1
  Na  Na1  1  0.970799  0.772560  0.713033  1
  Na  Na2  1  0.529201  0.272560  0.213033  1
  Na  Na3  1  0.029201  0.227440  0.286967  1
  Na  Na4  1  0.496466  0.334430  0.606520  1
  Na  Na5  1  0.996466  0.165570  0.893480  1
  Na  Na6  1  0.503534  0.665570  0.393480  1
  Na  Na7  1  0.003534  0.834430  0.106520  1
  Na  Na8  1  0.496360  0.209577  0.895327  1
  Na  Na9  1  0.996360  0.290423  0.604673  1
  Na  Na10  1  0.503640  0.790423  0.104673  1
  Na  Na11  1  0.003640  0.709577  0.395327  1
  Ga  Ga12  1  0.855660  0.584454  0.917897  1
  Ga  Ga13  1  0.355660  0.915546  0.582103  1
  Ga  Ga14  1  0.144340  0.415546  0.082103  1
  Ga  Ga15  1  0.644340  0.084454  0.417897  1
  Se  Se16  1  0.695332  0.919289  0.573514  1
  Se  Se17  1  0.195332  0.580711  0.926486  1
  Se  Se18  1  0.304668  0.080711  0.426486  1
  Se  Se19  1  0.804668  0.419289  0.073514  1
  Se  Se20  1  0.251371  0.072714  0.728418  1
  Se  Se21  1  0.751371  0.427286  0.771582  1
  Se  Se22  1  0.748629  0.927286  0.271582  1
  Se  Se23  1  0.248629  0.572714  0.228418  1
  Se  Se24  1  0.739485  0.879497  0.928934  1
  Se  Se25  1  0.239485  0.620503  0.571066  1
  Se  Se26  1  0.260515  0.120503  0.071066  1
  Se  Se27  1  0.760515  0.379497  0.428934  1
