# generated using pymatgen
data_RbC
_symmetry_space_group_name_H-M   'P 1'
_cell_length_a   4.80064930
_cell_length_b   9.47494895
_cell_length_c   9.85474960
_cell_angle_alpha   90.00000000
_cell_angle_beta   90.00000000
_cell_angle_gamma   90.00000000
_symmetry_Int_Tables_number   1
_chemical_formula_structural   RbC
_chemical_formula_sum   'Rb8 C8'
_cell_volume   448.25222425
_cell_formula_units_Z   8
loop_
 _symmetry_equiv_pos_site_id
 _symmetry_equiv_pos_as_xyz
  1  'x, y, z'
loop_
 _atom_site_type_symbol
 _atom_site_label
 _atom_site_symmetry_multiplicity
 _atom_site_fract_x
 _atom_site_fract_y
 _atom_site_fract_z
 _atom_site_occupancy
  C  C0  1  0.250000  0.668721  0.646662  1
  C  C1  1  0.750000  0.331279  0.353338  1
  C  C2  1  0.250000  0.168721  0.853338  1
  C  C3  1  0.750000  0.831279  0.146662  1
  C  C4  1  0.250000  0.789423  0.590672  1
  C  C5  1  0.750000  0.210577  0.409328  1
  C  C6  1  0.250000  0.289423  0.909328  1
  C  C7  1  0.750000  0.710577  0.090672  1
  Rb  Rb8  1  0.250000  0.987078  0.331456  1
  Rb  Rb9  1  0.750000  0.012922  0.668544  1
  Rb  Rb10  1  0.250000  0.487078  0.168544  1
  Rb  Rb11  1  0.750000  0.512922  0.831456  1
  Rb  Rb12  1  0.250000  0.339176  0.572257  1
  Rb  Rb13  1  0.750000  0.660824  0.427743  1
  Rb  Rb14  1  0.250000  0.839176  0.927743  1
  Rb  Rb15  1  0.750000  0.160824  0.072257  1
