# generated using pymatgen
data_Te2MoW3(SeS2)2
_symmetry_space_group_name_H-M   'P 1'
_cell_length_a   3.30657732
_cell_length_b   3.30659891
_cell_length_c   37.68999803
_cell_angle_alpha   89.99998353
_cell_angle_beta   90.00000000
_cell_angle_gamma   119.99978400
_symmetry_Int_Tables_number   1
_chemical_formula_structural   Te2MoW3(SeS2)2
_chemical_formula_sum   'Te2 Mo1 W3 Se2 S4'
_cell_volume   356.87645209
_cell_formula_units_Z   1
loop_
 _symmetry_equiv_pos_site_id
 _symmetry_equiv_pos_as_xyz
  1  'x, y, z'
loop_
 _atom_site_type_symbol
 _atom_site_label
 _atom_site_symmetry_multiplicity
 _atom_site_fract_x
 _atom_site_fract_y
 _atom_site_fract_z
 _atom_site_occupancy
  Te  Te0  1  0.666646  0.333290  0.418641  1
  Te  Te1  1  0.666645  0.333289  0.520694  1
  Mo  Mo2  1  0.333310  0.666620  0.093922  1
  W  W3  1  0.333309  0.666619  0.469647  1
  W  W4  1  0.666690  0.333381  0.281763  1
  W  W5  1  0.666694  0.333388  0.657567  1
  Se  Se6  1  0.666646  0.333291  0.049341  1
  Se  Se7  1  0.666638  0.333274  0.138513  1
  S  S8  1  0.333354  0.666708  0.322473  1
  S  S9  1  0.333356  0.666712  0.698255  1
  S  S10  1  0.333355  0.666711  0.241076  1
  S  S11  1  0.333357  0.666716  0.616856  1
