# generated using pymatgen
data_Cu(RhSe2)2
_symmetry_space_group_name_H-M   'P 1'
_cell_length_a   7.35554806
_cell_length_b   7.35554806
_cell_length_c   7.35554806
_cell_angle_alpha   60.00000000
_cell_angle_beta   60.00000000
_cell_angle_gamma   59.99999997
_symmetry_Int_Tables_number   1
_chemical_formula_structural   Cu(RhSe2)2
_chemical_formula_sum   'Cu2 Rh4 Se8'
_cell_volume   281.40390154
_cell_formula_units_Z   2
loop_
 _symmetry_equiv_pos_site_id
 _symmetry_equiv_pos_as_xyz
  1  'x, y, z'
loop_
 _atom_site_type_symbol
 _atom_site_label
 _atom_site_symmetry_multiplicity
 _atom_site_fract_x
 _atom_site_fract_y
 _atom_site_fract_z
 _atom_site_occupancy
  Cu  Cu0  1  0.875000  0.875000  0.875000  1
  Cu  Cu1  1  0.125000  0.125000  0.125000  1
  Se  Se2  1  0.259496  0.259496  0.721513  1
  Se  Se3  1  0.740504  0.740504  0.740504  1
  Se  Se4  1  0.740504  0.740504  0.278487  1
  Se  Se5  1  0.259496  0.721513  0.259496  1
  Se  Se6  1  0.259496  0.259496  0.259496  1
  Se  Se7  1  0.278487  0.740504  0.740504  1
  Se  Se8  1  0.740504  0.278487  0.740504  1
  Se  Se9  1  0.721513  0.259496  0.259496  1
  Rh  Rh10  1  0.500000  0.500000  0.500000  1
  Rh  Rh11  1  0.500000  0.000000  0.500000  1
  Rh  Rh12  1  0.000000  0.500000  0.500000  1
  Rh  Rh13  1  0.500000  0.500000  0.000000  1
