# generated using pymatgen
data_Na3Y(Si2O5)3
_symmetry_space_group_name_H-M   'P 1'
_cell_length_a   10.62574304
_cell_length_b   11.66639237
_cell_length_c   11.66639236
_cell_angle_alpha   100.63066956
_cell_angle_beta   90.00000000
_cell_angle_gamma   90.00000000
_symmetry_Int_Tables_number   1
_chemical_formula_structural   Na3Y(Si2O5)3
_chemical_formula_sum   'Na12 Y4 Si24 O60'
_cell_volume   1421.39194498
_cell_formula_units_Z   4
loop_
 _symmetry_equiv_pos_site_id
 _symmetry_equiv_pos_as_xyz
  1  'x, y, z'
loop_
 _atom_site_type_symbol
 _atom_site_label
 _atom_site_symmetry_multiplicity
 _atom_site_fract_x
 _atom_site_fract_y
 _atom_site_fract_z
 _atom_site_occupancy
  O  O0  1  0.157275  0.343366  0.988276  1
  O  O1  1  0.657275  0.156634  0.511724  1
  O  O2  1  0.842725  0.988276  0.343366  1
  O  O3  1  0.342725  0.511724  0.156634  1
  O  O4  1  0.842725  0.656634  0.011724  1
  O  O5  1  0.342725  0.843366  0.488276  1
  O  O6  1  0.157275  0.011724  0.656634  1
  O  O7  1  0.657275  0.488276  0.843366  1
  O  O8  1  0.168942  0.512774  0.762760  1
  O  O9  1  0.668942  0.987226  0.737240  1
  O  O10  1  0.831058  0.762760  0.512774  1
  O  O11  1  0.331058  0.737240  0.987226  1
  O  O12  1  0.831058  0.487226  0.237240  1
  O  O13  1  0.331058  0.012774  0.262760  1
  O  O14  1  0.168942  0.237240  0.487226  1
  O  O15  1  0.668942  0.262760  0.012774  1
  O  O16  1  0.486434  0.332832  0.885489  1
  O  O17  1  0.986434  0.167168  0.614511  1
  O  O18  1  0.513566  0.885489  0.332832  1
  O  O19  1  0.013566  0.614511  0.167168  1
  O  O20  1  0.513566  0.667168  0.114511  1
  O  O21  1  0.013566  0.832832  0.385489  1
  O  O22  1  0.486434  0.114511  0.667168  1
  O  O23  1  0.986434  0.385489  0.832832  1
  O  O24  1  0.432219  0.665506  0.334494  1
  O  O25  1  0.424878  0.252386  0.077932  1
  O  O26  1  0.575122  0.077932  0.252386  1
  O  O27  1  0.075122  0.422068  0.247614  1
  O  O28  1  0.575122  0.747614  0.922068  1
  O  O29  1  0.075122  0.752386  0.577932  1
  O  O30  1  0.424878  0.922068  0.747614  1
  O  O31  1  0.924878  0.577932  0.752386  1
  O  O32  1  0.318728  0.343336  0.346255  1
  O  O33  1  0.818728  0.156664  0.153745  1
  O  O34  1  0.681272  0.346255  0.343336  1
  O  O35  1  0.181272  0.153745  0.156664  1
  O  O36  1  0.681272  0.656664  0.653745  1
  O  O37  1  0.181272  0.843336  0.846255  1
  O  O38  1  0.318728  0.653745  0.656664  1
  O  O39  1  0.818728  0.846255  0.843336  1
  O  O40  1  0.798654  0.068293  0.931707  1
  O  O41  1  0.298654  0.431707  0.568293  1
  O  O42  1  0.201346  0.931707  0.068293  1
  O  O43  1  0.701346  0.568293  0.431707  1
  O  O44  1  0.505686  0.107119  0.892881  1
  O  O45  1  0.005686  0.392881  0.607119  1
  O  O46  1  0.494314  0.892881  0.107119  1
  O  O47  1  0.994314  0.607119  0.392881  1
  O  O48  1  0.587456  0.501780  0.221979  1
  O  O49  1  0.087456  0.998220  0.278021  1
  O  O50  1  0.412544  0.221979  0.501780  1
  O  O51  1  0.912544  0.278021  0.998220  1
  O  O52  1  0.412544  0.498220  0.778021  1
  O  O53  1  0.912544  0.001780  0.721979  1
  O  O54  1  0.587456  0.778021  0.498220  1
  O  O55  1  0.087456  0.721979  0.001780  1
  O  O56  1  0.067781  0.165506  0.834494  1
  O  O57  1  0.567781  0.334494  0.665506  1
  O  O58  1  0.932219  0.834494  0.165506  1
  O  O59  1  0.924878  0.247614  0.422068  1
  Na  Na60  1  0.750000  0.971333  0.528667  1
  Na  Na61  1  0.250000  0.528667  0.971333  1
  Na  Na62  1  0.250000  0.028667  0.471333  1
  Na  Na63  1  0.750000  0.471333  0.028667  1
  Na  Na64  1  0.000000  0.238895  0.238895  1
  Na  Na65  1  0.500000  0.261105  0.261105  1
  Na  Na66  1  0.000000  0.761105  0.761105  1
  Na  Na67  1  0.500000  0.738895  0.738895  1
  Na  Na68  1  0.750240  0.927977  0.072023  1
  Na  Na69  1  0.250240  0.572023  0.427977  1
  Na  Na70  1  0.249760  0.072023  0.927977  1
  Na  Na71  1  0.749760  0.427977  0.572023  1
  Si  Si72  1  0.019849  0.470664  0.739672  1
  Si  Si73  1  0.519849  0.029336  0.760328  1
  Si  Si74  1  0.980151  0.739672  0.470664  1
  Si  Si75  1  0.480151  0.760328  0.029336  1
  Si  Si76  1  0.980151  0.529336  0.260328  1
  Si  Si77  1  0.480151  0.970664  0.239672  1
  Si  Si78  1  0.019849  0.260328  0.529336  1
  Si  Si79  1  0.519849  0.239672  0.970664  1
  Si  Si80  1  0.535199  0.415022  0.794997  1
  Si  Si81  1  0.035199  0.084978  0.705003  1
  Si  Si82  1  0.464801  0.794997  0.415022  1
  Si  Si83  1  0.964801  0.705003  0.084978  1
  Si  Si84  1  0.464801  0.584978  0.205003  1
  Si  Si85  1  0.964801  0.915022  0.294997  1
  Si  Si86  1  0.535199  0.205003  0.584978  1
  Si  Si87  1  0.035199  0.294997  0.915022  1
  Si  Si88  1  0.300286  0.527711  0.690085  1
  Si  Si89  1  0.800286  0.972289  0.809915  1
  Si  Si90  1  0.699714  0.690085  0.527711  1
  Si  Si91  1  0.199714  0.809915  0.972289  1
  Si  Si92  1  0.699714  0.472289  0.309915  1
  Si  Si93  1  0.199714  0.027711  0.190085  1
  Si  Si94  1  0.300286  0.309915  0.472289  1
  Si  Si95  1  0.800286  0.190085  0.027711  1
  Y  Y96  1  0.250000  0.840911  0.659089  1
  Y  Y97  1  0.750000  0.659089  0.840911  1
  Y  Y98  1  0.750000  0.159089  0.340911  1
  Y  Y99  1  0.250000  0.340911  0.159089  1
