# generated using pymatgen
data_Rb2VAgSe4
_symmetry_space_group_name_H-M   'P 1'
_cell_length_a   6.05150026
_cell_length_b   7.69558391
_cell_length_c   12.63641361
_cell_angle_alpha   84.59784561
_cell_angle_beta   76.14610143
_cell_angle_gamma   66.84748280
_symmetry_Int_Tables_number   1
_chemical_formula_structural   Rb2VAgSe4
_chemical_formula_sum   'Rb4 V2 Ag2 Se8'
_cell_volume   525.34033471
_cell_formula_units_Z   2
loop_
 _symmetry_equiv_pos_site_id
 _symmetry_equiv_pos_as_xyz
  1  'x, y, z'
loop_
 _atom_site_type_symbol
 _atom_site_label
 _atom_site_symmetry_multiplicity
 _atom_site_fract_x
 _atom_site_fract_y
 _atom_site_fract_z
 _atom_site_occupancy
  V  V0  1  0.875000  0.250000  0.250000  1
  V  V1  1  0.125000  0.750000  0.750000  1
  Se  Se2  1  0.071637  0.553730  0.637745  1
  Se  Se3  1  0.763113  0.946270  0.862255  1
  Se  Se4  1  0.625368  0.446270  0.137745  1
  Se  Se5  1  0.709382  0.053730  0.362255  1
  Se  Se6  1  0.374632  0.553730  0.862255  1
  Se  Se7  1  0.290618  0.946270  0.637745  1
  Se  Se8  1  0.236887  0.053730  0.137745  1
  Se  Se9  1  0.928363  0.446270  0.362255  1
  Rb  Rb10  1  0.944086  0.750000  0.111828  1
  Rb  Rb11  1  0.305914  0.750000  0.388172  1
  Rb  Rb12  1  0.694086  0.250000  0.611828  1
  Rb  Rb13  1  0.055914  0.250000  0.888172  1
  Ag  Ag14  1  0.375000  0.250000  0.250000  1
  Ag  Ag15  1  0.625000  0.750000  0.750000  1
