# generated using pymatgen
data_Te2W2SeS
_symmetry_space_group_name_H-M   'P 1'
_cell_length_a   3.39715289
_cell_length_b   3.39717494
_cell_length_c   38.82247951
_cell_angle_alpha   90.00014347
_cell_angle_beta   89.99998485
_cell_angle_gamma   119.99974810
_symmetry_Int_Tables_number   1
_chemical_formula_structural   Te2W2SeS
_chemical_formula_sum   'Te4 W4 Se2 S2'
_cell_volume   388.01454753
_cell_formula_units_Z   2
loop_
 _symmetry_equiv_pos_site_id
 _symmetry_equiv_pos_as_xyz
  1  'x, y, z'
loop_
 _atom_site_type_symbol
 _atom_site_label
 _atom_site_symmetry_multiplicity
 _atom_site_fract_x
 _atom_site_fract_y
 _atom_site_fract_z
 _atom_site_occupancy
  Te  Te0  1  0.333360  0.666720  0.706031  1
  Te  Te1  1  0.666643  0.333284  0.045441  1
  Te  Te2  1  0.666645  0.333290  0.142423  1
  Te  Te3  1  0.333367  0.666734  0.609050  1
  W  W4  1  0.333309  0.666617  0.093902  1
  W  W5  1  0.333306  0.666611  0.469648  1
  W  W6  1  0.666688  0.333376  0.281788  1
  W  W7  1  0.666691  0.333383  0.657575  1
  Se  Se8  1  0.666636  0.333270  0.427040  1
  Se  Se9  1  0.666645  0.333290  0.512247  1
  S  S10  1  0.333355  0.666710  0.320619  1
  S  S11  1  0.333356  0.666714  0.242985  1
