# generated using pymatgen
data_Sm4Si2Se3O7
_symmetry_space_group_name_H-M   'P 1'
_cell_length_a   11.15777363
_cell_length_b   11.15777364
_cell_length_c   11.15777363
_cell_angle_alpha   99.97684492
_cell_angle_beta   114.41701872
_cell_angle_gamma   114.41701875
_symmetry_Int_Tables_number   1
_chemical_formula_structural   Sm4Si2Se3O7
_chemical_formula_sum   'Sm16 Si8 Se12 O28'
_cell_volume   1047.84084626
_cell_formula_units_Z   4
loop_
 _symmetry_equiv_pos_site_id
 _symmetry_equiv_pos_as_xyz
  1  'x, y, z'
loop_
 _atom_site_type_symbol
 _atom_site_label
 _atom_site_symmetry_multiplicity
 _atom_site_fract_x
 _atom_site_fract_y
 _atom_site_fract_z
 _atom_site_occupancy
  O  O0  1  0.250000  0.391560  0.141560  1
  O  O1  1  0.750000  0.141560  0.391560  1
  O  O2  1  0.750000  0.608440  0.858440  1
  O  O3  1  0.250000  0.858440  0.608440  1
  O  O4  1  0.021763  0.830665  0.352428  1
  O  O5  1  0.478237  0.830665  0.808902  1
  O  O6  1  0.478237  0.647572  0.169335  1
  O  O7  1  0.978237  0.808902  0.830665  1
  O  O8  1  0.521763  0.352428  0.830665  1
  O  O9  1  0.521763  0.169335  0.191098  1
  O  O10  1  0.978237  0.169335  0.647572  1
  O  O11  1  0.021763  0.191098  0.169335  1
  O  O12  1  0.770861  0.920755  0.431236  1
  O  O13  1  0.729139  0.160376  0.149894  1
  O  O14  1  0.729139  0.568764  0.079245  1
  O  O15  1  0.989518  0.149894  0.920755  1
  O  O16  1  0.510482  0.431236  0.160376  1
  O  O17  1  0.510482  0.079245  0.850106  1
  O  O18  1  0.989518  0.839624  0.568764  1
  O  O19  1  0.770861  0.850106  0.839624  1
  O  O20  1  0.229139  0.079245  0.568764  1
  O  O21  1  0.270861  0.839624  0.850106  1
  O  O22  1  0.270861  0.431236  0.920755  1
  O  O23  1  0.010482  0.850106  0.079245  1
  O  O24  1  0.489518  0.568764  0.839624  1
  O  O25  1  0.489518  0.920755  0.149894  1
  O  O26  1  0.010482  0.160376  0.431236  1
  O  O27  1  0.229139  0.149894  0.160376  1
  Si  Si28  1  0.374247  0.906718  0.780965  1
  Si  Si29  1  0.125753  0.906718  0.532470  1
  Si  Si30  1  0.125753  0.219035  0.093282  1
  Si  Si31  1  0.625753  0.532470  0.906718  1
  Si  Si32  1  0.874247  0.780965  0.906718  1
  Si  Si33  1  0.874247  0.093282  0.467530  1
  Si  Si34  1  0.625753  0.093282  0.219035  1
  Si  Si35  1  0.374247  0.467530  0.093282  1
  Se  Se36  1  0.250000  0.125000  0.875000  1
  Se  Se37  1  0.750000  0.875000  0.125000  1
  Se  Se38  1  0.750000  0.375000  0.625000  1
  Se  Se39  1  0.250000  0.625000  0.375000  1
  Se  Se40  1  0.854385  0.500000  0.354385  1
  Se  Se41  1  0.854385  0.354385  0.000000  1
  Se  Se42  1  0.645615  0.645615  0.500000  1
  Se  Se43  1  0.645615  0.000000  0.645615  1
  Se  Se44  1  0.145615  0.500000  0.645615  1
  Se  Se45  1  0.145615  0.645615  0.000000  1
  Se  Se46  1  0.354385  0.354385  0.500000  1
  Se  Se47  1  0.354385  0.000000  0.354385  1
  Sm  Sm48  1  0.095089  0.047545  0.297545  1
  Sm  Sm49  1  0.250000  0.297545  0.702455  1
  Sm  Sm50  1  0.250000  0.952455  0.047545  1
  Sm  Sm51  1  0.404911  0.702455  0.952455  1
  Sm  Sm52  1  0.904911  0.952455  0.702455  1
  Sm  Sm53  1  0.750000  0.702455  0.297545  1
  Sm  Sm54  1  0.750000  0.047545  0.952455  1
  Sm  Sm55  1  0.595089  0.297545  0.047545  1
  Sm  Sm56  1  0.010669  0.666627  0.177296  1
  Sm  Sm57  1  0.489331  0.666627  0.655958  1
  Sm  Sm58  1  0.489331  0.822704  0.333373  1
  Sm  Sm59  1  0.989331  0.655958  0.666627  1
  Sm  Sm60  1  0.510669  0.177296  0.666627  1
  Sm  Sm61  1  0.510669  0.333373  0.344042  1
  Sm  Sm62  1  0.989331  0.333373  0.822704  1
  Sm  Sm63  1  0.010669  0.344042  0.333373  1
