# generated using pymatgen
data_Ba4GeP4
_symmetry_space_group_name_H-M   'P 1'
_cell_length_a   13.22419104
_cell_length_b   13.22419104
_cell_length_c   13.22419104
_cell_angle_alpha   90.00000000
_cell_angle_beta   90.00000000
_cell_angle_gamma   90.00000000
_symmetry_Int_Tables_number   1
_chemical_formula_structural   Ba4GeP4
_chemical_formula_sum   'Ba32 Ge8 P32'
_cell_volume   2312.63632876
_cell_formula_units_Z   8
loop_
 _symmetry_equiv_pos_site_id
 _symmetry_equiv_pos_as_xyz
  1  'x, y, z'
loop_
 _atom_site_type_symbol
 _atom_site_label
 _atom_site_symmetry_multiplicity
 _atom_site_fract_x
 _atom_site_fract_y
 _atom_site_fract_z
 _atom_site_occupancy
  P  P0  1  0.650970  0.896405  0.612197  1
  P  P1  1  0.650970  0.103595  0.387803  1
  P  P2  1  0.896405  0.612197  0.650970  1
  P  P3  1  0.103595  0.612197  0.349030  1
  P  P4  1  0.612197  0.650970  0.896405  1
  P  P5  1  0.387803  0.349030  0.896405  1
  P  P6  1  0.849030  0.887803  0.396405  1
  P  P7  1  0.849030  0.112197  0.603595  1
  P  P8  1  0.150970  0.887803  0.603595  1
  P  P9  1  0.112197  0.603595  0.849030  1
  P  P10  1  0.603595  0.150970  0.887803  1
  P  P11  1  0.603595  0.849030  0.112197  1
  P  P12  1  0.887803  0.396405  0.849030  1
  P  P13  1  0.396405  0.849030  0.887803  1
  P  P14  1  0.887803  0.603595  0.150970  1
  P  P15  1  0.112197  0.396405  0.150970  1
  P  P16  1  0.396405  0.150970  0.112197  1
  P  P17  1  0.387803  0.650970  0.103595  1
  P  P18  1  0.612197  0.349030  0.103595  1
  P  P19  1  0.896405  0.387803  0.349030  1
  P  P20  1  0.103595  0.387803  0.650970  1
  P  P21  1  0.349030  0.103595  0.612197  1
  P  P22  1  0.349030  0.896405  0.387803  1
  P  P23  1  0.150970  0.112197  0.396405  1
  P  P24  1  0.895460  0.895460  0.895460  1
  P  P25  1  0.604540  0.395460  0.604540  1
  P  P26  1  0.395460  0.604540  0.604540  1
  P  P27  1  0.604540  0.604540  0.395460  1
  P  P28  1  0.895460  0.104540  0.104540  1
  P  P29  1  0.104540  0.104540  0.895460  1
  P  P30  1  0.104540  0.895460  0.104540  1
  P  P31  1  0.395460  0.395460  0.395460  1
  Ge  Ge32  1  0.750000  0.000000  0.500000  1
  Ge  Ge33  1  0.500000  0.750000  0.000000  1
  Ge  Ge34  1  0.500000  0.250000  0.000000  1
  Ge  Ge35  1  0.000000  0.500000  0.250000  1
  Ge  Ge36  1  0.000000  0.500000  0.750000  1
  Ge  Ge37  1  0.250000  0.000000  0.500000  1
  Ge  Ge38  1  0.500000  0.500000  0.500000  1
  Ge  Ge39  1  0.000000  0.000000  0.000000  1
  Ba  Ba40  1  0.904899  0.867716  0.644915  1
  Ba  Ba41  1  0.904899  0.132284  0.355085  1
  Ba  Ba42  1  0.867716  0.644915  0.904899  1
  Ba  Ba43  1  0.132284  0.644915  0.095101  1
  Ba  Ba44  1  0.644915  0.904899  0.867716  1
  Ba  Ba45  1  0.355085  0.095101  0.867716  1
  Ba  Ba46  1  0.595101  0.855085  0.367716  1
  Ba  Ba47  1  0.595101  0.144915  0.632284  1
  Ba  Ba48  1  0.404899  0.855085  0.632284  1
  Ba  Ba49  1  0.144915  0.632284  0.595101  1
  Ba  Ba50  1  0.632284  0.404899  0.855085  1
  Ba  Ba51  1  0.632284  0.595101  0.144915  1
  Ba  Ba52  1  0.855085  0.367716  0.595101  1
  Ba  Ba53  1  0.367716  0.595101  0.855085  1
  Ba  Ba54  1  0.855085  0.632284  0.404899  1
  Ba  Ba55  1  0.144915  0.367716  0.404899  1
  Ba  Ba56  1  0.367716  0.404899  0.144915  1
  Ba  Ba57  1  0.355085  0.904899  0.132284  1
  Ba  Ba58  1  0.644915  0.095101  0.132284  1
  Ba  Ba59  1  0.867716  0.355085  0.095101  1
  Ba  Ba60  1  0.132284  0.355085  0.904899  1
  Ba  Ba61  1  0.095101  0.132284  0.644915  1
  Ba  Ba62  1  0.095101  0.867716  0.355085  1
  Ba  Ba63  1  0.404899  0.144915  0.367716  1
  Ba  Ba64  1  0.144978  0.144978  0.144978  1
  Ba  Ba65  1  0.355022  0.644978  0.355022  1
  Ba  Ba66  1  0.644978  0.355022  0.355022  1
  Ba  Ba67  1  0.355022  0.355022  0.644978  1
  Ba  Ba68  1  0.144978  0.855022  0.855022  1
  Ba  Ba69  1  0.855022  0.855022  0.144978  1
  Ba  Ba70  1  0.855022  0.144978  0.855022  1
  Ba  Ba71  1  0.644978  0.644978  0.644978  1
