# generated using pymatgen
data_V2ZnO4
_symmetry_space_group_name_H-M   'P 1'
_cell_length_a   6.00479702
_cell_length_b   6.00479778
_cell_length_c   6.04946184
_cell_angle_alpha   119.75606333
_cell_angle_beta   119.75606587
_cell_angle_gamma   89.99999488
_symmetry_Int_Tables_number   1
_chemical_formula_structural   V2ZnO4
_chemical_formula_sum   'V4 Zn2 O8'
_cell_volume   155.37096267
_cell_formula_units_Z   2
loop_
 _symmetry_equiv_pos_site_id
 _symmetry_equiv_pos_as_xyz
  1  'x, y, z'
loop_
 _atom_site_type_symbol
 _atom_site_label
 _atom_site_symmetry_multiplicity
 _atom_site_fract_x
 _atom_site_fract_y
 _atom_site_fract_z
 _atom_site_occupancy
  V  V0  1  0.000000  0.000000  0.500000  1
  V  V1  1  0.000000  0.500000  0.000000  1
  V  V2  1  0.500000  0.000000  0.500000  1
  V  V3  1  0.000000  0.000000  0.000000  1
  Zn  Zn4  1  0.375000  0.625000  0.750000  1
  Zn  Zn5  1  0.625000  0.375000  0.250000  1
  O  O6  1  0.761585  0.779544  0.523170  1
  O  O7  1  0.756375  0.238415  0.976830  1
  O  O8  1  0.220456  0.238415  0.976830  1
  O  O9  1  0.238415  0.220456  0.476830  1
  O  O10  1  0.238415  0.756375  0.476830  1
  O  O11  1  0.243625  0.761585  0.023170  1
  O  O12  1  0.761585  0.243625  0.523170  1
  O  O13  1  0.779544  0.761585  0.023170  1
