# generated using pymatgen
data_Sr3BeB6O13
_symmetry_space_group_name_H-M   'P 1'
_cell_length_a   12.91145038
_cell_length_b   10.13451513
_cell_length_c   8.14213929
_cell_angle_alpha   90.00000000
_cell_angle_beta   90.00000000
_cell_angle_gamma   90.00000000
_symmetry_Int_Tables_number   1
_chemical_formula_structural   Sr3BeB6O13
_chemical_formula_sum   'Sr12 Be4 B24 O52'
_cell_volume   1065.40942316
_cell_formula_units_Z   4
loop_
 _symmetry_equiv_pos_site_id
 _symmetry_equiv_pos_as_xyz
  1  'x, y, z'
loop_
 _atom_site_type_symbol
 _atom_site_label
 _atom_site_symmetry_multiplicity
 _atom_site_fract_x
 _atom_site_fract_y
 _atom_site_fract_z
 _atom_site_occupancy
  Sr  Sr0  1  0.991346  0.498009  0.766407  1
  Sr  Sr1  1  0.491346  0.001991  0.733593  1
  Sr  Sr2  1  0.008654  0.998009  0.233593  1
  Sr  Sr3  1  0.508654  0.501991  0.266407  1
  Sr  Sr4  1  0.008654  0.501991  0.233593  1
  Sr  Sr5  1  0.508654  0.998009  0.266407  1
  Sr  Sr6  1  0.991346  0.001991  0.766407  1
  Sr  Sr7  1  0.491346  0.498009  0.733593  1
  Sr  Sr8  1  0.762091  0.750000  0.593705  1
  Sr  Sr9  1  0.262091  0.750000  0.906295  1
  Sr  Sr10  1  0.237909  0.250000  0.406295  1
  Sr  Sr11  1  0.737909  0.250000  0.093705  1
  Be  Be12  1  0.159577  0.250000  0.792659  1
  Be  Be13  1  0.659577  0.250000  0.707341  1
  Be  Be14  1  0.840423  0.750000  0.207341  1
  Be  Be15  1  0.340423  0.750000  0.292659  1
  B  B16  1  0.311513  0.125132  0.973314  1
  B  B17  1  0.811513  0.374868  0.526686  1
  B  B18  1  0.688487  0.625132  0.026686  1
  B  B19  1  0.188487  0.874868  0.473314  1
  B  B20  1  0.688487  0.874868  0.026686  1
  B  B21  1  0.188487  0.625132  0.473314  1
  B  B22  1  0.311513  0.374868  0.973314  1
  B  B23  1  0.811513  0.125132  0.526686  1
  B  B24  1  0.762855  0.519304  0.285985  1
  B  B25  1  0.262855  0.980696  0.214015  1
  B  B26  1  0.237145  0.019304  0.714015  1
  B  B27  1  0.737145  0.480696  0.785985  1
  B  B28  1  0.237145  0.480696  0.714015  1
  B  B29  1  0.737145  0.019304  0.785985  1
  B  B30  1  0.762855  0.980696  0.285985  1
  B  B31  1  0.262855  0.519304  0.214015  1
  B  B32  1  0.960329  0.250000  0.974240  1
  B  B33  1  0.460329  0.250000  0.525760  1
  B  B34  1  0.039671  0.750000  0.025760  1
  B  B35  1  0.539671  0.750000  0.474240  1
  B  B36  1  0.029597  0.750000  0.563716  1
  B  B37  1  0.529597  0.750000  0.936284  1
  B  B38  1  0.970403  0.250000  0.436284  1
  B  B39  1  0.470403  0.250000  0.063716  1
  O  O40  1  0.754686  0.403277  0.373741  1
  O  O41  1  0.254686  0.096723  0.126259  1
  O  O42  1  0.245314  0.903277  0.626259  1
  O  O43  1  0.745314  0.596723  0.873741  1
  O  O44  1  0.245314  0.596723  0.626259  1
  O  O45  1  0.745314  0.903277  0.873741  1
  O  O46  1  0.754686  0.096723  0.373741  1
  O  O47  1  0.254686  0.403277  0.126259  1
  O  O48  1  0.948767  0.750000  0.666444  1
  O  O49  1  0.448767  0.750000  0.833556  1
  O  O50  1  0.051233  0.250000  0.333556  1
  O  O51  1  0.551233  0.250000  0.166444  1
  O  O52  1  0.271687  0.250000  0.904946  1
  O  O53  1  0.771687  0.250000  0.595054  1
  O  O54  1  0.728313  0.750000  0.095054  1
  O  O55  1  0.228313  0.750000  0.404946  1
  O  O56  1  0.801809  0.481600  0.648801  1
  O  O57  1  0.301809  0.018400  0.851199  1
  O  O58  1  0.198191  0.981600  0.351199  1
  O  O59  1  0.698191  0.518400  0.148801  1
  O  O60  1  0.198191  0.518400  0.351199  1
  O  O61  1  0.698191  0.981600  0.148801  1
  O  O62  1  0.801809  0.018400  0.648801  1
  O  O63  1  0.301809  0.481600  0.851199  1
  O  O64  1  0.170576  0.381572  0.677536  1
  O  O65  1  0.670576  0.118428  0.822464  1
  O  O66  1  0.829424  0.881572  0.322464  1
  O  O67  1  0.329424  0.618428  0.177536  1
  O  O68  1  0.829424  0.618428  0.322464  1
  O  O69  1  0.329424  0.881572  0.177536  1
  O  O70  1  0.170576  0.118428  0.677536  1
  O  O71  1  0.670576  0.381572  0.822464  1
  O  O72  1  0.046407  0.250000  0.870635  1
  O  O73  1  0.546407  0.250000  0.629365  1
  O  O74  1  0.953593  0.750000  0.129365  1
  O  O75  1  0.453593  0.750000  0.370635  1
  O  O76  1  0.084697  0.630291  0.982052  1
  O  O77  1  0.584697  0.869709  0.517948  1
  O  O78  1  0.915303  0.130291  0.017948  1
  O  O79  1  0.415303  0.369709  0.482052  1
  O  O80  1  0.915303  0.369709  0.017948  1
  O  O81  1  0.415303  0.130291  0.482052  1
  O  O82  1  0.084697  0.869709  0.982052  1
  O  O83  1  0.584697  0.630291  0.517948  1
  O  O84  1  0.075468  0.868232  0.510842  1
  O  O85  1  0.575468  0.631768  0.989158  1
  O  O86  1  0.924532  0.368232  0.489158  1
  O  O87  1  0.424532  0.131768  0.010842  1
  O  O88  1  0.924532  0.131768  0.489158  1
  O  O89  1  0.424532  0.368232  0.010842  1
  O  O90  1  0.075468  0.631768  0.510842  1
  O  O91  1  0.575468  0.868232  0.989158  1
