# generated using pymatgen
data_Ba3TaAs3O
_symmetry_space_group_name_H-M   'P 1'
_cell_length_a   6.81808775
_cell_length_b   11.24893689
_cell_length_c   13.68252998
_cell_angle_alpha   90.00000000
_cell_angle_beta   90.00000000
_cell_angle_gamma   90.00000000
_symmetry_Int_Tables_number   1
_chemical_formula_structural   Ba3TaAs3O
_chemical_formula_sum   'Ba12 Ta4 As12 O4'
_cell_volume   1049.39858687
_cell_formula_units_Z   4
loop_
 _symmetry_equiv_pos_site_id
 _symmetry_equiv_pos_as_xyz
  1  'x, y, z'
loop_
 _atom_site_type_symbol
 _atom_site_label
 _atom_site_symmetry_multiplicity
 _atom_site_fract_x
 _atom_site_fract_y
 _atom_site_fract_z
 _atom_site_occupancy
  O  O0  1  0.113779  0.250000  0.053182  1
  O  O1  1  0.613779  0.250000  0.446818  1
  O  O2  1  0.886221  0.750000  0.946818  1
  O  O3  1  0.386221  0.750000  0.553182  1
  As  As4  1  0.272340  0.250000  0.633395  1
  As  As5  1  0.772340  0.250000  0.866605  1
  As  As6  1  0.727660  0.750000  0.366605  1
  As  As7  1  0.227660  0.750000  0.133395  1
  As  As8  1  0.736144  0.443752  0.117619  1
  As  As9  1  0.236144  0.056248  0.382381  1
  As  As10  1  0.263856  0.943752  0.882381  1
  As  As11  1  0.763856  0.556248  0.617619  1
  As  As12  1  0.263856  0.556248  0.882381  1
  As  As13  1  0.236144  0.443752  0.382381  1
  As  As14  1  0.736144  0.056248  0.117619  1
  As  As15  1  0.763856  0.943752  0.617619  1
  Ba  Ba16  1  0.242926  0.044771  0.130950  1
  Ba  Ba17  1  0.727143  0.750000  0.128572  1
  Ba  Ba18  1  0.772857  0.250000  0.628572  1
  Ba  Ba19  1  0.272857  0.250000  0.871428  1
  Ba  Ba20  1  0.757074  0.955229  0.869050  1
  Ba  Ba21  1  0.257074  0.544771  0.630950  1
  Ba  Ba22  1  0.242926  0.455229  0.130950  1
  Ba  Ba23  1  0.742926  0.044771  0.369050  1
  Ba  Ba24  1  0.257074  0.955229  0.630950  1
  Ba  Ba25  1  0.742926  0.455229  0.369050  1
  Ba  Ba26  1  0.757074  0.544771  0.869050  1
  Ba  Ba27  1  0.227143  0.750000  0.371428  1
  Ta  Ta28  1  0.661527  0.750000  0.545324  1
  Ta  Ta29  1  0.161527  0.750000  0.954676  1
  Ta  Ta30  1  0.338473  0.250000  0.454676  1
  Ta  Ta31  1  0.838473  0.250000  0.045324  1
