# generated using pymatgen
data_K2ZrF6
_symmetry_space_group_name_H-M   'P 1'
_cell_length_a   6.69609622
_cell_length_b   6.76125511
_cell_length_c   7.01592386
_cell_angle_alpha   90.00000000
_cell_angle_beta   90.00000000
_cell_angle_gamma   119.68171606
_symmetry_Int_Tables_number   1
_chemical_formula_structural   K2ZrF6
_chemical_formula_sum   'K4 Zr2 F12'
_cell_volume   275.96148830
_cell_formula_units_Z   2
loop_
 _symmetry_equiv_pos_site_id
 _symmetry_equiv_pos_as_xyz
  1  'x, y, z'
loop_
 _atom_site_type_symbol
 _atom_site_label
 _atom_site_symmetry_multiplicity
 _atom_site_fract_x
 _atom_site_fract_y
 _atom_site_fract_z
 _atom_site_occupancy
  F  F0  1  0.099145  0.198290  0.045967  1
  F  F1  1  0.900855  0.801710  0.954033  1
  F  F2  1  0.900855  0.801710  0.545967  1
  F  F3  1  0.099145  0.198290  0.454033  1
  F  F4  1  0.386654  0.393785  0.750000  1
  F  F5  1  0.992869  0.606215  0.250000  1
  F  F6  1  0.699702  0.981386  0.750000  1
  F  F7  1  0.718316  0.018614  0.250000  1
  F  F8  1  0.300298  0.018614  0.250000  1
  F  F9  1  0.281684  0.981386  0.750000  1
  F  F10  1  0.007131  0.393785  0.750000  1
  F  F11  1  0.613346  0.606215  0.250000  1
  K  K12  1  0.342936  0.685873  0.500901  1
  K  K13  1  0.657064  0.314127  0.499099  1
  K  K14  1  0.657064  0.314127  0.000901  1
  K  K15  1  0.342936  0.685873  0.999099  1
  Zr  Zr16  1  0.949160  0.898320  0.250000  1
  Zr  Zr17  1  0.050840  0.101680  0.750000  1
