# generated using pymatgen
data_Te4MoW3(SeS)2
_symmetry_space_group_name_H-M   'P 1'
_cell_length_a   3.39912657
_cell_length_b   3.39913785
_cell_length_c   38.78385743
_cell_angle_alpha   90.00003026
_cell_angle_beta   90.00000000
_cell_angle_gamma   119.99989011
_symmetry_Int_Tables_number   1
_chemical_formula_structural   Te4MoW3(SeS)2
_chemical_formula_sum   'Te4 Mo1 W3 Se2 S2'
_cell_volume   388.07728943
_cell_formula_units_Z   1
loop_
 _symmetry_equiv_pos_site_id
 _symmetry_equiv_pos_as_xyz
  1  'x, y, z'
loop_
 _atom_site_type_symbol
 _atom_site_label
 _atom_site_symmetry_multiplicity
 _atom_site_fract_x
 _atom_site_fract_y
 _atom_site_fract_z
 _atom_site_occupancy
  Te  Te0  1  0.333354  0.666708  0.330334  1
  Te  Te1  1  0.333353  0.666708  0.706091  1
  Te  Te2  1  0.333353  0.666706  0.233223  1
  Te  Te3  1  0.333352  0.666705  0.608975  1
  Mo  Mo4  1  0.333311  0.666622  0.469669  1
  W  W5  1  0.333311  0.666623  0.093934  1
  W  W6  1  0.666689  0.333379  0.281812  1
  W  W7  1  0.666689  0.333378  0.657545  1
  Se  Se8  1  0.666648  0.333294  0.427168  1
  Se  Se9  1  0.666648  0.333294  0.512142  1
  S  S10  1  0.666646  0.333291  0.055073  1
  S  S11  1  0.666646  0.333292  0.132781  1
