# generated using pymatgen
data_LiMg3P3O11
_symmetry_space_group_name_H-M   'P 1'
_cell_length_a   9.15723056
_cell_length_b   10.72919222
_cell_length_c   8.40362220
_cell_angle_alpha   90.00000000
_cell_angle_beta   90.00000000
_cell_angle_gamma   90.00000000
_symmetry_Int_Tables_number   1
_chemical_formula_structural   LiMg3P3O11
_chemical_formula_sum   'Li4 Mg12 P12 O44'
_cell_volume   825.65324982
_cell_formula_units_Z   4
loop_
 _symmetry_equiv_pos_site_id
 _symmetry_equiv_pos_as_xyz
  1  'x, y, z'
loop_
 _atom_site_type_symbol
 _atom_site_label
 _atom_site_symmetry_multiplicity
 _atom_site_fract_x
 _atom_site_fract_y
 _atom_site_fract_z
 _atom_site_occupancy
  Li  Li0  1  0.812754  0.750000  0.025260  1
  Li  Li1  1  0.312754  0.750000  0.474740  1
  Li  Li2  1  0.187246  0.250000  0.974740  1
  Li  Li3  1  0.687246  0.250000  0.525260  1
  Mg  Mg4  1  0.545586  0.089975  0.859551  1
  Mg  Mg5  1  0.045586  0.410025  0.640449  1
  Mg  Mg6  1  0.454414  0.589975  0.140449  1
  Mg  Mg7  1  0.954414  0.910025  0.359551  1
  Mg  Mg8  1  0.454414  0.910025  0.140449  1
  Mg  Mg9  1  0.954414  0.589975  0.359551  1
  Mg  Mg10  1  0.545586  0.410025  0.859551  1
  Mg  Mg11  1  0.045586  0.089975  0.640449  1
  Mg  Mg12  1  -0.000000  0.000000  -0.000000  1
  Mg  Mg13  1  0.500000  0.500000  0.500000  1
  Mg  Mg14  1  -0.000000  0.500000  -0.000000  1
  Mg  Mg15  1  0.500000  0.000000  0.500000  1
  P  P16  1  0.710843  0.109066  0.214063  1
  P  P17  1  0.210843  0.390934  0.285937  1
  P  P18  1  0.289157  0.609066  0.785937  1
  P  P19  1  0.789157  0.890934  0.714063  1
  P  P20  1  0.289157  0.890934  0.785937  1
  P  P21  1  0.789157  0.609066  0.714063  1
  P  P22  1  0.710843  0.390934  0.214063  1
  P  P23  1  0.210843  0.109066  0.285937  1
  P  P24  1  0.646842  0.750000  0.289522  1
  P  P25  1  0.146842  0.750000  0.210478  1
  P  P26  1  0.353158  0.250000  0.710478  1
  P  P27  1  0.853158  0.250000  0.789522  1
  O  O28  1  0.850122  0.029975  0.200798  1
  O  O29  1  0.350122  0.470025  0.299202  1
  O  O30  1  0.149878  0.529975  0.799202  1
  O  O31  1  0.649878  0.970025  0.700798  1
  O  O32  1  0.149878  0.970025  0.799202  1
  O  O33  1  0.649878  0.529975  0.700798  1
  O  O34  1  0.850122  0.470025  0.200798  1
  O  O35  1  0.350122  0.029975  0.299202  1
  O  O36  1  0.891616  0.250000  0.607592  1
  O  O37  1  0.391616  0.250000  0.892408  1
  O  O38  1  0.108384  0.750000  0.392408  1
  O  O39  1  0.608384  0.750000  0.107592  1
  O  O40  1  0.927381  0.132480  0.855340  1
  O  O41  1  0.427381  0.367520  0.644660  1
  O  O42  1  0.072619  0.632480  0.144660  1
  O  O43  1  0.572619  0.867520  0.355340  1
  O  O44  1  0.072619  0.867520  0.144660  1
  O  O45  1  0.572619  0.632480  0.355340  1
  O  O46  1  0.927381  0.367520  0.855340  1
  O  O47  1  0.427381  0.132480  0.644660  1
  O  O48  1  0.649501  0.115124  0.382109  1
  O  O49  1  0.149501  0.384876  0.117891  1
  O  O50  1  0.350499  0.615124  0.617892  1
  O  O51  1  0.850499  0.884876  0.882108  1
  O  O52  1  0.350499  0.884876  0.617892  1
  O  O53  1  0.850499  0.615124  0.882108  1
  O  O54  1  0.649501  0.384876  0.382109  1
  O  O55  1  0.149501  0.115124  0.117891  1
  O  O56  1  0.815035  0.750000  0.311302  1
  O  O57  1  0.315035  0.750000  0.188698  1
  O  O58  1  0.184965  0.250000  0.688698  1
  O  O59  1  0.684965  0.250000  0.811302  1
  O  O60  1  0.598405  0.063616  0.089788  1
  O  O61  1  0.098405  0.436384  0.410212  1
  O  O62  1  0.401595  0.563616  0.910212  1
  O  O63  1  0.901595  0.936384  0.589788  1
  O  O64  1  0.401595  0.936384  0.910212  1
  O  O65  1  0.901595  0.563616  0.589788  1
  O  O66  1  0.598405  0.436384  0.089788  1
  O  O67  1  0.098405  0.063616  0.410212  1
  O  O68  1  0.759159  0.250000  0.163534  1
  O  O69  1  0.259159  0.250000  0.336466  1
  O  O70  1  0.240841  0.750000  0.836466  1
  O  O71  1  0.740841  0.750000  0.663534  1
