# generated using pymatgen
data_Nb9PO25
_symmetry_space_group_name_H-M   'P 1'
_cell_length_a   3.90773360
_cell_length_b   11.43543621
_cell_length_c   11.43543621
_cell_angle_alpha   88.32710468
_cell_angle_beta   80.16213351
_cell_angle_gamma   80.16213346
_symmetry_Int_Tables_number   1
_chemical_formula_structural   Nb9PO25
_chemical_formula_sum   'Nb9 P1 O25'
_cell_volume   496.09305542
_cell_formula_units_Z   1
loop_
 _symmetry_equiv_pos_site_id
 _symmetry_equiv_pos_as_xyz
  1  'x, y, z'
loop_
 _atom_site_type_symbol
 _atom_site_label
 _atom_site_symmetry_multiplicity
 _atom_site_fract_x
 _atom_site_fract_y
 _atom_site_fract_z
 _atom_site_occupancy
  O  O0  1  0.145227  0.489749  0.199923  1
  O  O1  1  0.654849  0.199924  0.510251  1
  O  O2  1  0.365024  0.800077  0.489749  1
  O  O3  1  0.834897  0.510251  0.800077  1
  O  O4  1  0.970164  0.614712  0.511158  1
  O  O5  1  0.518677  0.511159  0.385288  1
  O  O6  1  0.415124  0.488841  0.614712  1
  O  O7  1  0.096033  0.385288  0.488842  1
  O  O8  1  0.978323  0.731557  0.289593  1
  O  O9  1  0.732082  0.289593  0.268444  1
  O  O10  1  0.500001  0.000000  1.000000  1
  O  O11  1  0.256727  0.139501  0.365978  1
  O  O12  1  0.377297  0.365978  0.860498  1
  O  O13  1  0.603773  0.634022  0.139502  1
  O  O14  1  0.762206  0.860498  0.634022  1
  O  O15  1  0.117943  0.938060  0.830563  1
  O  O16  1  0.051492  0.830562  0.061940  1
  O  O17  1  0.290119  0.710407  0.731556  1
  O  O18  1  0.886569  0.061939  0.169437  1
  O  O19  1  0.192813  0.045118  0.605096  1
  O  O20  1  0.202091  0.605096  0.954883  1
  O  O21  1  0.762069  0.394904  0.045117  1
  O  O22  1  0.843027  0.954883  0.394904  1
  O  O23  1  0.999472  0.268444  0.710407  1
  O  O24  1  0.943996  0.169437  0.938061  1
  P  P25  1  0.250001  0.500000  0.500000  1
  Nb  Nb26  1  0.883606  0.327747  0.889608  1
  Nb  Nb27  1  0.330527  0.557172  0.784746  1
  Nb  Nb28  1  0.112301  0.215254  0.557172  1
  Nb  Nb29  1  0.788645  0.110392  0.327747  1
  Nb  Nb30  1  0.672446  0.442828  0.215254  1
  Nb  Nb31  1  0.100962  0.672253  0.110392  1
  Nb  Nb32  1  0.226784  0.889608  0.672253  1
  Nb  Nb33  1  0.000000  0.000000  0.000000  1
  Nb  Nb34  1  0.884727  0.784746  0.442828  1
