# generated using pymatgen
data_Sr2CoMoO6
_symmetry_space_group_name_H-M   'P 1'
_cell_length_a   5.70342575
_cell_length_b   5.70342574
_cell_length_c   5.70342575
_cell_angle_alpha   87.33321492
_cell_angle_beta   121.55142900
_cell_angle_gamma   121.55142903
_symmetry_Int_Tables_number   1
_chemical_formula_structural   Sr2CoMoO6
_chemical_formula_sum   'Sr2 Co1 Mo1 O6'
_cell_volume   127.96049227
_cell_formula_units_Z   1
loop_
 _symmetry_equiv_pos_site_id
 _symmetry_equiv_pos_as_xyz
  1  'x, y, z'
loop_
 _atom_site_type_symbol
 _atom_site_label
 _atom_site_symmetry_multiplicity
 _atom_site_fract_x
 _atom_site_fract_y
 _atom_site_fract_z
 _atom_site_occupancy
  O  O0  1  0.000001  0.736500  0.736501  1
  O  O1  1  0.999999  0.263499  0.263500  1
  O  O2  1  0.485873  0.788773  0.697101  1
  O  O3  1  0.908328  0.697101  0.211228  1
  O  O4  1  0.514128  0.211228  0.302899  1
  O  O5  1  0.091673  0.302900  0.788772  1
  Co  Co6  1  0.000000  0.000000  0.000000  1
  Sr  Sr7  1  0.500000  0.750001  0.249999  1
  Sr  Sr8  1  0.500000  0.250000  0.749999  1
  Mo  Mo9  1  1.000000  0.500000  0.500000  1
