# generated using pymatgen
data_CeGaO3
_symmetry_space_group_name_H-M   'P 1'
_cell_length_a   5.57757177
_cell_length_b   7.89384486
_cell_length_c   5.47913213
_cell_angle_alpha   90.00000000
_cell_angle_beta   90.00000000
_cell_angle_gamma   90.00000000
_symmetry_Int_Tables_number   1
_chemical_formula_structural   CeGaO3
_chemical_formula_sum   'Ce4 Ga4 O12'
_cell_volume   241.23789364
_cell_formula_units_Z   4
loop_
 _symmetry_equiv_pos_site_id
 _symmetry_equiv_pos_as_xyz
  1  'x, y, z'
loop_
 _atom_site_type_symbol
 _atom_site_label
 _atom_site_symmetry_multiplicity
 _atom_site_fract_x
 _atom_site_fract_y
 _atom_site_fract_z
 _atom_site_occupancy
  Ce  Ce0  1  0.538682  0.250000  0.510466  1
  Ce  Ce1  1  0.038682  0.250000  0.989534  1
  Ce  Ce2  1  0.461318  0.750000  0.489534  1
  Ce  Ce3  1  0.961318  0.750000  0.010466  1
  Ga  Ga4  1  0.000000  0.000000  0.500000  1
  Ga  Ga5  1  0.500000  0.500000  0.000000  1
  Ga  Ga6  1  0.000000  0.500000  0.500000  1
  Ga  Ga7  1  0.500000  0.000000  0.000000  1
  O  O8  1  0.982206  0.250000  0.418898  1
  O  O9  1  0.482206  0.250000  0.081102  1
  O  O10  1  0.017794  0.750000  0.581102  1
  O  O11  1  0.517794  0.750000  0.918898  1
  O  O12  1  0.790419  0.042850  0.789587  1
  O  O13  1  0.290419  0.457150  0.710413  1
  O  O14  1  0.209581  0.542850  0.210413  1
  O  O15  1  0.709581  0.957150  0.289587  1
  O  O16  1  0.209581  0.957150  0.210413  1
  O  O17  1  0.709581  0.542850  0.289587  1
  O  O18  1  0.790419  0.457150  0.789587  1
  O  O19  1  0.290419  0.042850  0.710413  1
