# generated using pymatgen
data_Na3SiTe3
_symmetry_space_group_name_H-M   'P 1'
_cell_length_a   8.90510423
_cell_length_b   8.89278371
_cell_length_c   12.89722402
_cell_angle_alpha   90.00000000
_cell_angle_beta   90.00000000
_cell_angle_gamma   119.10983673
_symmetry_Int_Tables_number   1
_chemical_formula_structural   Na3SiTe3
_chemical_formula_sum   'Na12 Si4 Te12'
_cell_volume   892.33865438
_cell_formula_units_Z   4
loop_
 _symmetry_equiv_pos_site_id
 _symmetry_equiv_pos_as_xyz
  1  'x, y, z'
loop_
 _atom_site_type_symbol
 _atom_site_label
 _atom_site_symmetry_multiplicity
 _atom_site_fract_x
 _atom_site_fract_y
 _atom_site_fract_z
 _atom_site_occupancy
  Na  Na0  1  0.723587  0.752722  0.229055  1
  Na  Na1  1  0.776413  0.747278  0.729055  1
  Na  Na2  1  0.276413  0.247279  0.770945  1
  Na  Na3  1  0.223587  0.252721  0.270945  1
  Na  Na4  1  0.026501  0.300030  0.557832  1
  Na  Na5  1  0.473499  0.199970  0.057832  1
  Na  Na6  1  0.973499  0.699970  0.442168  1
  Na  Na7  1  0.526501  0.800030  0.942168  1
  Na  Na8  1  0.979236  0.485322  0.151949  1
  Na  Na9  1  0.520764  0.014678  0.651949  1
  Na  Na10  1  0.020764  0.514678  0.848051  1
  Na  Na11  1  0.479236  0.985322  0.348051  1
  Si  Si12  1  0.032500  0.885987  0.009237  1
  Si  Si13  1  0.467500  0.614013  0.509237  1
  Si  Si14  1  0.967500  0.114013  0.990763  1
  Si  Si15  1  0.532500  0.385987  0.490763  1
  Te  Te16  1  0.759491  0.424429  0.622966  1
  Te  Te17  1  0.740509  0.075571  0.122966  1
  Te  Te18  1  0.240509  0.575571  0.377034  1
  Te  Te19  1  0.259491  0.924429  0.877034  1
  Te  Te20  1  0.258390  0.107457  0.525481  1
  Te  Te21  1  0.241610  0.392543  0.025481  1
  Te  Te22  1  0.741610  0.892543  0.474519  1
  Te  Te23  1  0.758390  0.607457  0.974519  1
  Te  Te24  1  0.635964  0.386267  0.307331  1
  Te  Te25  1  0.864036  0.113733  0.807331  1
  Te  Te26  1  0.364036  0.613733  0.692669  1
  Te  Te27  1  0.135964  0.886267  0.192669  1
