# generated using pymatgen
data_Sm(ErS2)3
_symmetry_space_group_name_H-M   'P 1'
_cell_length_a   3.94832504
_cell_length_b   10.99931098
_cell_length_c   11.26554709
_cell_angle_alpha   108.78698177
_cell_angle_beta   90.00000000
_cell_angle_gamma   90.00000000
_symmetry_Int_Tables_number   1
_chemical_formula_structural   Sm(ErS2)3
_chemical_formula_sum   'Sm2 Er6 S12'
_cell_volume   463.18378306
_cell_formula_units_Z   2
loop_
 _symmetry_equiv_pos_site_id
 _symmetry_equiv_pos_as_xyz
  1  'x, y, z'
loop_
 _atom_site_type_symbol
 _atom_site_label
 _atom_site_symmetry_multiplicity
 _atom_site_fract_x
 _atom_site_fract_y
 _atom_site_fract_z
 _atom_site_occupancy
  S  S0  1  0.250000  0.304984  0.251005  1
  S  S1  1  0.750000  0.695016  0.748995  1
  S  S2  1  0.250000  0.417924  0.595297  1
  S  S3  1  0.750000  0.582076  0.404703  1
  S  S4  1  0.250000  0.615774  0.963303  1
  S  S5  1  0.750000  0.384226  0.036697  1
  S  S6  1  0.250000  0.977522  0.112003  1
  S  S7  1  0.750000  0.022478  0.887997  1
  S  S8  1  0.750000  0.104027  0.439461  1
  S  S9  1  0.250000  0.895973  0.560539  1
  S  S10  1  0.750000  0.761185  0.226232  1
  S  S11  1  0.250000  0.238815  0.773768  1
  Sm  Sm12  1  0.250000  0.547164  0.193473  1
  Sm  Sm13  1  0.750000  0.452836  0.806527  1
  Er  Er14  1  0.250000  0.660801  0.585701  1
  Er  Er15  1  0.750000  0.339199  0.414299  1
  Er  Er16  1  0.250000  0.181007  0.002139  1
  Er  Er17  1  0.750000  0.818993  0.997861  1
  Er  Er18  1  0.250000  0.937907  0.332327  1
  Er  Er19  1  0.750000  0.062093  0.667673  1
