# generated using pymatgen
data_K2Li3GaO4
_symmetry_space_group_name_H-M   'P 1'
_cell_length_a   5.60825570
_cell_length_b   8.90846736
_cell_length_c   10.44516887
_cell_angle_alpha   90.00000000
_cell_angle_beta   98.79995382
_cell_angle_gamma   90.00000000
_symmetry_Int_Tables_number   1
_chemical_formula_structural   K2Li3GaO4
_chemical_formula_sum   'K8 Li12 Ga4 O16'
_cell_volume   515.70773064
_cell_formula_units_Z   4
loop_
 _symmetry_equiv_pos_site_id
 _symmetry_equiv_pos_as_xyz
  1  'x, y, z'
loop_
 _atom_site_type_symbol
 _atom_site_label
 _atom_site_symmetry_multiplicity
 _atom_site_fract_x
 _atom_site_fract_y
 _atom_site_fract_z
 _atom_site_occupancy
  Li  Li0  1  0.416256  0.261470  0.799013  1
  Li  Li1  1  0.083744  0.761470  0.700987  1
  Li  Li2  1  0.583744  0.738530  0.200987  1
  Li  Li3  1  0.916256  0.238530  0.299013  1
  Li  Li4  1  0.609395  0.035283  0.702766  1
  Li  Li5  1  0.890605  0.535283  0.797234  1
  Li  Li6  1  0.390605  0.964717  0.297234  1
  Li  Li7  1  0.109395  0.464717  0.202766  1
  Li  Li8  1  0.301649  0.491028  0.930143  1
  Li  Li9  1  0.198351  0.991028  0.569857  1
  Li  Li10  1  0.698351  0.508972  0.069857  1
  Li  Li11  1  0.801649  0.008972  0.430143  1
  O  O12  1  0.108089  0.322224  0.857570  1
  O  O13  1  0.391911  0.822224  0.642430  1
  O  O14  1  0.891911  0.677776  0.142430  1
  O  O15  1  0.608089  0.177776  0.357570  1
  O  O16  1  0.385762  0.189894  0.618238  1
  O  O17  1  0.114238  0.689894  0.881762  1
  O  O18  1  0.614238  0.810106  0.381762  1
  O  O19  1  0.885762  0.310106  0.118238  1
  O  O20  1  0.667491  0.109040  0.884961  1
  O  O21  1  0.832509  0.609040  0.615039  1
  O  O22  1  0.332509  0.890960  0.115039  1
  O  O23  1  0.167491  0.390960  0.384961  1
  O  O24  1  0.118156  0.051367  0.376508  1
  O  O25  1  0.381844  0.551367  0.123492  1
  O  O26  1  0.881844  0.948633  0.623492  1
  O  O27  1  0.618156  0.448633  0.876508  1
  K  K28  1  0.846266  0.992786  0.137314  1
  K  K29  1  0.653734  0.492786  0.362686  1
  K  K30  1  0.153734  0.007214  0.862686  1
  K  K31  1  0.346266  0.507214  0.637314  1
  K  K32  1  0.110877  0.727866  0.390789  1
  K  K33  1  0.389123  0.227866  0.109211  1
  K  K34  1  0.889123  0.272134  0.609211  1
  K  K35  1  0.610877  0.772134  0.890789  1
  Ga  Ga36  1  0.833706  0.288559  0.936492  1
  Ga  Ga37  1  0.666294  0.788559  0.563508  1
  Ga  Ga38  1  0.166294  0.711441  0.063508  1
  Ga  Ga39  1  0.333706  0.211441  0.436492  1
