# generated using pymatgen
data_Sc11Ir4
_symmetry_space_group_name_H-M   'P 1'
_cell_length_a   9.47625597
_cell_length_b   9.47625597
_cell_length_c   9.47625597
_cell_angle_alpha   60.00000003
_cell_angle_beta   60.00000002
_cell_angle_gamma   60.00000000
_symmetry_Int_Tables_number   1
_chemical_formula_structural   Sc11Ir4
_chemical_formula_sum   'Sc22 Ir8'
_cell_volume   601.72125385
_cell_formula_units_Z   2
loop_
 _symmetry_equiv_pos_site_id
 _symmetry_equiv_pos_as_xyz
  1  'x, y, z'
loop_
 _atom_site_type_symbol
 _atom_site_label
 _atom_site_symmetry_multiplicity
 _atom_site_fract_x
 _atom_site_fract_y
 _atom_site_fract_z
 _atom_site_occupancy
  Sc  Sc0  1  0.843009  0.843009  0.843009  1
  Sc  Sc1  1  0.156991  0.156991  0.529026  1
  Sc  Sc2  1  0.156991  0.529026  0.156991  1
  Sc  Sc3  1  0.529026  0.156991  0.156991  1
  Sc  Sc4  1  0.843009  0.470974  0.843009  1
  Sc  Sc5  1  0.470974  0.843009  0.843009  1
  Sc  Sc6  1  0.843009  0.843009  0.470974  1
  Sc  Sc7  1  0.156991  0.156991  0.156991  1
  Sc  Sc8  1  0.801976  0.198024  0.198024  1
  Sc  Sc9  1  0.801976  0.801976  0.198024  1
  Sc  Sc10  1  0.198024  0.198024  0.801976  1
  Sc  Sc11  1  0.801976  0.198024  0.801976  1
  Sc  Sc12  1  0.198024  0.801976  0.198024  1
  Sc  Sc13  1  0.198024  0.801976  0.801976  1
  Sc  Sc14  1  0.382480  0.382480  0.382480  1
  Sc  Sc15  1  0.617520  0.617520  0.147440  1
  Sc  Sc16  1  0.147440  0.617520  0.617520  1
  Sc  Sc17  1  0.617520  0.147440  0.617520  1
  Sc  Sc18  1  0.852560  0.382480  0.382480  1
  Sc  Sc19  1  0.382480  0.852560  0.382480  1
  Sc  Sc20  1  0.382480  0.382480  0.852560  1
  Sc  Sc21  1  0.617520  0.617520  0.617520  1
  Ir  Ir22  1  0.500000  0.000000  0.500000  1
  Ir  Ir23  1  0.000000  0.500000  0.000000  1
  Ir  Ir24  1  0.000000  0.500000  0.500000  1
  Ir  Ir25  1  0.500000  0.500000  0.000000  1
  Ir  Ir26  1  0.000000  0.000000  0.500000  1
  Ir  Ir27  1  0.500000  0.000000  0.000000  1
  Ir  Ir28  1  0.500000  0.500000  0.500000  1
  Ir  Ir29  1  0.000000  0.000000  0.000000  1
