# generated using pymatgen
data_Ag3Sn2(GeP2)3
_symmetry_space_group_name_H-M   'P 1'
_cell_length_a   9.20276591
_cell_length_b   9.20276592
_cell_length_c   9.20276592
_cell_angle_alpha   109.47122063
_cell_angle_beta   109.47122065
_cell_angle_gamma   109.47122063
_symmetry_Int_Tables_number   1
_chemical_formula_structural   Ag3Sn2(GeP2)3
_chemical_formula_sum   'Ag6 Sn4 Ge6 P12'
_cell_volume   599.97511210
_cell_formula_units_Z   2
loop_
 _symmetry_equiv_pos_site_id
 _symmetry_equiv_pos_as_xyz
  1  'x, y, z'
loop_
 _atom_site_type_symbol
 _atom_site_label
 _atom_site_symmetry_multiplicity
 _atom_site_fract_x
 _atom_site_fract_y
 _atom_site_fract_z
 _atom_site_occupancy
  P  P0  1  0.239817  0.239817  0.749271  1
  P  P1  1  0.239817  0.749271  0.239817  1
  P  P2  1  0.749271  0.239817  0.239817  1
  P  P3  1  0.000000  0.760183  0.509454  1
  P  P4  1  0.760183  0.509454  0.000000  1
  P  P5  1  0.509454  0.760183  0.000000  1
  P  P6  1  0.490546  0.490546  0.250729  1
  P  P7  1  0.000000  0.509454  0.760183  1
  P  P8  1  0.760183  0.000000  0.509454  1
  P  P9  1  0.250729  0.490546  0.490546  1
  P  P10  1  0.490546  0.250729  0.490546  1
  P  P11  1  0.509454  0.000000  0.760183  1
  Ge  Ge12  1  0.250000  0.750000  0.500000  1
  Ge  Ge13  1  0.750000  0.250000  0.500000  1
  Ge  Ge14  1  0.500000  0.750000  0.250000  1
  Ge  Ge15  1  0.750000  0.500000  0.250000  1
  Ge  Ge16  1  0.500000  0.250000  0.750000  1
  Ge  Ge17  1  0.250000  0.500000  0.750000  1
  Ag  Ag18  1  0.803873  0.803873  0.000000  1
  Ag  Ag19  1  0.196127  0.196127  0.000000  1
  Ag  Ag20  1  0.196127  0.000000  0.196127  1
  Ag  Ag21  1  0.803873  0.000000  0.803873  1
  Ag  Ag22  1  0.000000  0.803873  0.803873  1
  Ag  Ag23  1  0.000000  0.196127  0.196127  1
  Sn  Sn24  1  0.000000  0.000000  0.411549  1
  Sn  Sn25  1  0.411549  0.000000  0.000000  1
  Sn  Sn26  1  0.588451  0.588451  0.588451  1
  Sn  Sn27  1  0.000000  0.411549  0.000000  1
