# generated using pymatgen
data_Li3PrSb2
_symmetry_space_group_name_H-M   'P 1'
_cell_length_a   4.62231966
_cell_length_b   4.62242099
_cell_length_c   7.36633605
_cell_angle_alpha   89.99999996
_cell_angle_beta   89.99977725
_cell_angle_gamma   120.00072270
_symmetry_Int_Tables_number   1
_chemical_formula_structural   Li3PrSb2
_chemical_formula_sum   'Li3 Pr1 Sb2'
_cell_volume   136.30395854
_cell_formula_units_Z   1
loop_
 _symmetry_equiv_pos_site_id
 _symmetry_equiv_pos_as_xyz
  1  'x, y, z'
loop_
 _atom_site_type_symbol
 _atom_site_label
 _atom_site_symmetry_multiplicity
 _atom_site_fract_x
 _atom_site_fract_y
 _atom_site_fract_z
 _atom_site_occupancy
  Li  Li0  1  0.666640  0.333320  0.352589  1
  Li  Li1  1  0.333360  0.666680  0.647411  1
  Li  Li2  1  0.000000  0.000000  0.500000  1
  Pr  Pr3  1  -0.000000  -0.000000  -0.000000  1
  Sb  Sb4  1  0.666663  0.333332  0.744033  1
  Sb  Sb5  1  0.333337  0.666668  0.255967  1
