# generated using pymatgen
data_Cs2P3
_symmetry_space_group_name_H-M   'P 1'
_cell_length_a   6.98115919
_cell_length_b   6.98115919
_cell_length_c   9.03955681
_cell_angle_alpha   111.29535617
_cell_angle_beta   111.29535612
_cell_angle_gamma   93.41016967
_symmetry_Int_Tables_number   1
_chemical_formula_structural   Cs2P3
_chemical_formula_sum   'Cs4 P6'
_cell_volume   373.03954975
_cell_formula_units_Z   2
loop_
 _symmetry_equiv_pos_site_id
 _symmetry_equiv_pos_as_xyz
  1  'x, y, z'
loop_
 _atom_site_type_symbol
 _atom_site_label
 _atom_site_symmetry_multiplicity
 _atom_site_fract_x
 _atom_site_fract_y
 _atom_site_fract_z
 _atom_site_occupancy
  P  P0  1  0.733566  0.733566  0.858656  1
  P  P1  1  0.874910  0.874910  0.141344  1
  P  P2  1  0.266434  0.266434  0.141344  1
  P  P3  1  0.125090  0.125090  0.858656  1
  P  P4  1  0.857941  0.857941  0.715883  1
  P  P5  1  0.142059  0.142059  0.284117  1
  Cs  Cs6  1  0.750000  0.250000  0.500000  1
  Cs  Cs7  1  0.250000  0.750000  0.500000  1
  Cs  Cs8  1  0.718228  0.281772  0.000000  1
  Cs  Cs9  1  0.281772  0.718228  0.000000  1
