# generated using pymatgen
data_Rb2CdSi5O12
_symmetry_space_group_name_H-M   'P 1'
_cell_length_a   13.62208369
_cell_length_b   13.89255924
_cell_length_c   14.12549552
_cell_angle_alpha   90.00000000
_cell_angle_beta   90.00000000
_cell_angle_gamma   90.00000000
_symmetry_Int_Tables_number   1
_chemical_formula_structural   Rb2CdSi5O12
_chemical_formula_sum   'Rb16 Cd8 Si40 O96'
_cell_volume   2673.18794046
_cell_formula_units_Z   8
loop_
 _symmetry_equiv_pos_site_id
 _symmetry_equiv_pos_as_xyz
  1  'x, y, z'
loop_
 _atom_site_type_symbol
 _atom_site_label
 _atom_site_symmetry_multiplicity
 _atom_site_fract_x
 _atom_site_fract_y
 _atom_site_fract_z
 _atom_site_occupancy
  O  O0  1  0.372955  0.159327  0.299971  1
  O  O1  1  0.872955  0.340673  0.700029  1
  O  O2  1  0.627045  0.659327  0.200029  1
  O  O3  1  0.127045  0.840673  0.799971  1
  O  O4  1  0.627045  0.840673  0.700029  1
  O  O5  1  0.127045  0.659327  0.299971  1
  O  O6  1  0.372955  0.340673  0.799971  1
  O  O7  1  0.872955  0.159327  0.200029  1
  O  O8  1  0.628486  0.180134  0.551060  1
  O  O9  1  0.128486  0.319866  0.448940  1
  O  O10  1  0.371514  0.680134  0.948940  1
  O  O11  1  0.871514  0.819866  0.051060  1
  O  O12  1  0.371514  0.819866  0.448940  1
  O  O13  1  0.871514  0.680134  0.551060  1
  O  O14  1  0.628486  0.319866  0.051060  1
  O  O15  1  0.128486  0.180134  0.948940  1
  O  O16  1  0.726636  0.885489  0.361751  1
  O  O17  1  0.226636  0.614511  0.638249  1
  O  O18  1  0.273364  0.385489  0.138249  1
  O  O19  1  0.773364  0.114511  0.861751  1
  O  O20  1  0.273364  0.114511  0.638249  1
  O  O21  1  0.773364  0.385489  0.361751  1
  O  O22  1  0.726636  0.614511  0.861751  1
  O  O23  1  0.226636  0.885489  0.138249  1
  O  O24  1  0.420322  0.632621  0.588607  1
  O  O25  1  0.920322  0.867379  0.411393  1
  O  O26  1  0.579678  0.132621  0.911393  1
  O  O27  1  0.079678  0.367379  0.088607  1
  O  O28  1  0.579678  0.367379  0.411393  1
  O  O29  1  0.079678  0.132621  0.588607  1
  O  O30  1  0.420322  0.867379  0.088607  1
  O  O31  1  0.920322  0.632621  0.911393  1
  O  O32  1  0.161783  0.968465  0.662786  1
  O  O33  1  0.661783  0.531535  0.337214  1
  O  O34  1  0.838217  0.468465  0.837214  1
  O  O35  1  0.338217  0.031535  0.162786  1
  O  O36  1  0.838217  0.031535  0.337214  1
  O  O37  1  0.338217  0.468465  0.662786  1
  O  O38  1  0.161783  0.531535  0.162786  1
  O  O39  1  0.229707  0.437921  0.896408  1
  O  O40  1  0.661783  0.968465  0.837214  1
  O  O41  1  0.982211  0.617638  0.177406  1
  O  O42  1  0.517789  0.382362  0.677406  1
  O  O43  1  0.017789  0.117638  0.322594  1
  O  O44  1  0.517789  0.117638  0.177406  1
  O  O45  1  0.017789  0.382362  0.822594  1
  O  O46  1  0.482211  0.617638  0.322594  1
  O  O47  1  0.982211  0.882362  0.677406  1
  O  O48  1  0.861407  0.626610  0.731343  1
  O  O49  1  0.361407  0.873390  0.268657  1
  O  O50  1  0.138593  0.126610  0.768657  1
  O  O51  1  0.638593  0.373390  0.231343  1
  O  O52  1  0.138593  0.373390  0.268657  1
  O  O53  1  0.638593  0.126610  0.731343  1
  O  O54  1  0.861407  0.873390  0.231343  1
  O  O55  1  0.361407  0.626610  0.768657  1
  O  O56  1  0.149874  0.709947  0.120293  1
  O  O57  1  0.649874  0.790053  0.879707  1
  O  O58  1  0.850126  0.209947  0.379707  1
  O  O59  1  0.350126  0.290053  0.620293  1
  O  O60  1  0.850126  0.290053  0.879707  1
  O  O61  1  0.350126  0.209947  0.120293  1
  O  O62  1  0.149874  0.790053  0.620293  1
  O  O63  1  0.649874  0.709947  0.379707  1
  O  O64  1  0.462354  0.365128  0.151074  1
  O  O65  1  0.962354  0.134872  0.848926  1
  O  O66  1  0.537646  0.865128  0.348926  1
  O  O67  1  0.037646  0.634872  0.651074  1
  O  O68  1  0.537646  0.634872  0.848926  1
  O  O69  1  0.037646  0.865128  0.151074  1
  O  O70  1  0.462354  0.134872  0.651074  1
  O  O71  1  0.962354  0.365128  0.348926  1
  O  O72  1  0.081084  0.502513  0.398766  1
  O  O73  1  0.581084  0.997487  0.601234  1
  O  O74  1  0.918916  0.002513  0.101234  1
  O  O75  1  0.418916  0.497487  0.898766  1
  O  O76  1  0.918916  0.497487  0.601234  1
  O  O77  1  0.418916  0.002513  0.398766  1
  O  O78  1  0.081084  0.997487  0.898766  1
  O  O79  1  0.581084  0.502513  0.101234  1
  O  O80  1  0.373360  0.167310  0.482083  1
  O  O81  1  0.873360  0.332690  0.517917  1
  O  O82  1  0.626640  0.667310  0.017917  1
  O  O83  1  0.126640  0.832690  0.982083  1
  O  O84  1  0.626640  0.832690  0.517917  1
  O  O85  1  0.126640  0.667310  0.482083  1
  O  O86  1  0.373360  0.332690  0.982083  1
  O  O87  1  0.873360  0.167310  0.017917  1
  O  O88  1  0.729707  0.437921  0.603592  1
  O  O89  1  0.229707  0.062079  0.396408  1
  O  O90  1  0.270293  0.937921  0.896408  1
  O  O91  1  0.770293  0.562079  0.103592  1
  O  O92  1  0.270293  0.562079  0.396408  1
  O  O93  1  0.770293  0.937921  0.603592  1
  O  O94  1  0.729707  0.062079  0.103592  1
  O  O95  1  0.482211  0.882362  0.822594  1
  Si  Si96  1  0.342525  0.913100  0.160385  1
  Si  Si97  1  0.842525  0.586900  0.839615  1
  Si  Si98  1  0.657475  0.413100  0.339615  1
  Si  Si99  1  0.157475  0.086900  0.660385  1
  Si  Si100  1  0.657475  0.086900  0.839615  1
  Si  Si101  1  0.157475  0.413100  0.160385  1
  Si  Si102  1  0.342525  0.586900  0.660385  1
  Si  Si103  1  0.842525  0.913100  0.339615  1
  Si  Si104  1  0.402108  0.371866  0.689947  1
  Si  Si105  1  0.902108  0.128134  0.310053  1
  Si  Si106  1  0.597892  0.871866  0.810053  1
  Si  Si107  1  0.097892  0.628134  0.189947  1
  Si  Si108  1  0.597892  0.628134  0.310053  1
  Si  Si109  1  0.097892  0.871866  0.689947  1
  Si  Si110  1  0.402108  0.128134  0.189947  1
  Si  Si111  1  0.902108  0.371866  0.810053  1
  Si  Si112  1  0.157989  0.594167  0.393945  1
  Si  Si113  1  0.657989  0.905833  0.606055  1
  Si  Si114  1  0.842011  0.094167  0.106055  1
  Si  Si115  1  0.342011  0.405833  0.893945  1
  Si  Si116  1  0.842011  0.405833  0.606055  1
  Si  Si117  1  0.342011  0.094167  0.393945  1
  Si  Si118  1  0.157989  0.905833  0.893945  1
  Si  Si119  1  0.657989  0.594167  0.106055  1
  Si  Si120  1  0.080414  0.112748  0.869637  1
  Si  Si121  1  0.580414  0.387252  0.130363  1
  Si  Si122  1  0.919586  0.612748  0.630363  1
  Si  Si123  1  0.419586  0.887252  0.369637  1
  Si  Si124  1  0.919586  0.887252  0.130363  1
  Si  Si125  1  0.419586  0.612748  0.869637  1
  Si  Si126  1  0.080414  0.387252  0.369637  1
  Si  Si127  1  0.580414  0.112748  0.630363  1
  Si  Si128  1  0.635000  0.675790  0.902996  1
  Si  Si129  1  0.135000  0.824210  0.097004  1
  Si  Si130  1  0.365000  0.175790  0.597004  1
  Si  Si131  1  0.865000  0.324210  0.402996  1
  Si  Si132  1  0.365000  0.324210  0.097004  1
  Si  Si133  1  0.865000  0.175790  0.902996  1
  Si  Si134  1  0.635000  0.824210  0.402996  1
  Si  Si135  1  0.135000  0.675790  0.597004  1
  Rb  Rb136  1  0.124940  0.127878  0.145191  1
  Rb  Rb137  1  0.624940  0.372122  0.854809  1
  Rb  Rb138  1  0.875060  0.627878  0.354809  1
  Rb  Rb139  1  0.375060  0.872122  0.645191  1
  Rb  Rb140  1  0.875060  0.872122  0.854809  1
  Rb  Rb141  1  0.375060  0.627878  0.145191  1
  Rb  Rb142  1  0.124940  0.372122  0.645191  1
  Rb  Rb143  1  0.624940  0.127878  0.354809  1
  Rb  Rb144  1  0.866201  0.377479  0.121430  1
  Rb  Rb145  1  0.366201  0.122521  0.878570  1
  Rb  Rb146  1  0.133799  0.877479  0.378570  1
  Rb  Rb147  1  0.633799  0.622521  0.621430  1
  Rb  Rb148  1  0.133799  0.622521  0.878570  1
  Rb  Rb149  1  0.633799  0.877479  0.121430  1
  Rb  Rb150  1  0.866201  0.122521  0.621430  1
  Rb  Rb151  1  0.366201  0.377479  0.378570  1
  Cd  Cd152  1  0.387067  0.837948  0.939297  1
  Cd  Cd153  1  0.887067  0.662052  0.060703  1
  Cd  Cd154  1  0.612933  0.337948  0.560703  1
  Cd  Cd155  1  0.112933  0.162052  0.439297  1
  Cd  Cd156  1  0.612933  0.162052  0.060703  1
  Cd  Cd157  1  0.112933  0.337948  0.939297  1
  Cd  Cd158  1  0.387067  0.662052  0.439297  1
  Cd  Cd159  1  0.887067  0.837948  0.560703  1
