# generated using pymatgen
data_RbY(PO3)4
_symmetry_space_group_name_H-M   'P 1'
_cell_length_a   10.46548931
_cell_length_b   8.98021241
_cell_length_c   11.11310470
_cell_angle_alpha   90.00000000
_cell_angle_beta   106.58838412
_cell_angle_gamma   90.00000000
_symmetry_Int_Tables_number   1
_chemical_formula_structural   RbY(PO3)4
_chemical_formula_sum   'Rb4 Y4 P16 O48'
_cell_volume   1000.96642444
_cell_formula_units_Z   4
loop_
 _symmetry_equiv_pos_site_id
 _symmetry_equiv_pos_as_xyz
  1  'x, y, z'
loop_
 _atom_site_type_symbol
 _atom_site_label
 _atom_site_symmetry_multiplicity
 _atom_site_fract_x
 _atom_site_fract_y
 _atom_site_fract_z
 _atom_site_occupancy
  Rb  Rb0  1  0.307010  0.566309  0.041800  1
  Rb  Rb1  1  0.807010  0.933691  0.541800  1
  Rb  Rb2  1  0.692990  0.433691  0.958200  1
  Rb  Rb3  1  0.192990  0.066309  0.458200  1
  Y  Y4  1  0.498474  0.726998  0.683013  1
  Y  Y5  1  0.998474  0.773002  0.183013  1
  Y  Y6  1  0.501526  0.273002  0.316987  1
  Y  Y7  1  0.001526  0.226998  0.816987  1
  P  P8  1  0.147228  0.408449  0.258533  1
  P  P9  1  0.647228  0.091551  0.758533  1
  P  P10  1  0.852772  0.591551  0.741467  1
  P  P11  1  0.352772  0.908449  0.241467  1
  P  P12  1  0.540275  0.671483  0.364821  1
  P  P13  1  0.040275  0.828517  0.864821  1
  P  P14  1  0.459725  0.328517  0.635179  1
  P  P15  1  0.959725  0.171483  0.135179  1
  P  P16  1  0.247729  0.474257  0.721179  1
  P  P17  1  0.747729  0.025743  0.221179  1
  P  P18  1  0.752271  0.525743  0.278821  1
  P  P19  1  0.252271  0.974257  0.778821  1
  P  P20  1  0.324114  0.109857  0.023289  1
  P  P21  1  0.824114  0.390143  0.523289  1
  P  P22  1  0.675886  0.890143  0.976711  1
  P  P23  1  0.175886  0.609857  0.476711  1
  O  O24  1  0.139752  0.547057  0.599835  1
  O  O25  1  0.639752  0.952943  0.099835  1
  O  O26  1  0.860248  0.452943  0.400165  1
  O  O27  1  0.360248  0.047057  0.900165  1
  O  O28  1  0.354457  0.585086  0.782658  1
  O  O29  1  0.854457  0.914914  0.282658  1
  O  O30  1  0.645543  0.414914  0.217342  1
  O  O31  1  0.145543  0.085086  0.717342  1
  O  O32  1  0.474339  0.791161  0.254560  1
  O  O33  1  0.974339  0.708839  0.754560  1
  O  O34  1  0.525661  0.208839  0.745440  1
  O  O35  1  0.025661  0.291161  0.245440  1
  O  O36  1  0.099481  0.540990  0.175584  1
  O  O37  1  0.599481  0.959010  0.675584  1
  O  O38  1  0.900519  0.459010  0.824416  1
  O  O39  1  0.400519  0.040990  0.324416  1
  O  O40  1  0.562227  0.741587  0.491223  1
  O  O41  1  0.062227  0.758413  0.991223  1
  O  O42  1  0.437773  0.258413  0.508777  1
  O  O43  1  0.937773  0.241587  0.008777  1
  O  O44  1  0.169833  0.406280  0.801150  1
  O  O45  1  0.669833  0.093720  0.301150  1
  O  O46  1  0.830167  0.593720  0.198850  1
  O  O47  1  0.330167  0.906280  0.698850  1
  O  O48  1  0.266146  0.324879  0.245338  1
  O  O49  1  0.766146  0.175121  0.745338  1
  O  O50  1  0.733854  0.675121  0.754662  1
  O  O51  1  0.233854  0.824879  0.254662  1
  O  O52  1  0.431901  0.212351  0.096284  1
  O  O53  1  0.931901  0.287649  0.596284  1
  O  O54  1  0.568099  0.787649  0.903716  1
  O  O55  1  0.068099  0.712351  0.403716  1
  O  O56  1  0.183996  0.167233  0.981943  1
  O  O57  1  0.683996  0.332767  0.481943  1
  O  O58  1  0.816004  0.832767  0.018057  1
  O  O59  1  0.316004  0.667233  0.518057  1
  O  O60  1  0.464558  0.528594  0.331167  1
  O  O61  1  0.964558  0.971406  0.831167  1
  O  O62  1  0.535442  0.471406  0.668833  1
  O  O63  1  0.035442  0.028594  0.168833  1
  O  O64  1  0.186399  0.841878  0.841619  1
  O  O65  1  0.686399  0.658122  0.341619  1
  O  O66  1  0.813601  0.158122  0.158381  1
  O  O67  1  0.313601  0.341878  0.658381  1
  O  O68  1  0.329666  0.952704  0.096574  1
  O  O69  1  0.829666  0.547296  0.596574  1
  O  O70  1  0.670334  0.047296  0.903426  1
  O  O71  1  0.170334  0.452704  0.403426  1
