# generated using pymatgen
data_SrCu9Ge4
_symmetry_space_group_name_H-M   'P 1'
_cell_length_a   8.31319057
_cell_length_b   8.31319057
_cell_length_c   8.38639361
_cell_angle_alpha   119.71167164
_cell_angle_beta   119.71167166
_cell_angle_gamma   90.00000001
_symmetry_Int_Tables_number   1
_chemical_formula_structural   SrCu9Ge4
_chemical_formula_sum   'Sr2 Cu18 Ge8'
_cell_volume   413.36871977
_cell_formula_units_Z   2
loop_
 _symmetry_equiv_pos_site_id
 _symmetry_equiv_pos_as_xyz
  1  'x, y, z'
loop_
 _atom_site_type_symbol
 _atom_site_label
 _atom_site_symmetry_multiplicity
 _atom_site_fract_x
 _atom_site_fract_y
 _atom_site_fract_z
 _atom_site_occupancy
  Cu  Cu0  1  0.060695  0.560695  0.356716  1
  Cu  Cu1  1  0.703979  0.203979  0.643284  1
  Cu  Cu2  1  0.939305  0.439305  0.643284  1
  Cu  Cu3  1  0.203979  0.939305  0.643284  1
  Cu  Cu4  1  0.439305  0.703979  0.643284  1
  Cu  Cu5  1  0.796021  0.060695  0.356716  1
  Cu  Cu6  1  0.560695  0.296021  0.356716  1
  Cu  Cu7  1  0.296021  0.796021  0.356716  1
  Cu  Cu8  1  0.797229  0.937946  0.000000  1
  Cu  Cu9  1  0.437946  0.297229  0.000000  1
  Cu  Cu10  1  0.000000  0.500000  0.000000  1
  Cu  Cu11  1  0.500000  0.000000  0.000000  1
  Cu  Cu12  1  0.202771  0.062054  0.000000  1
  Cu  Cu13  1  0.937946  0.202771  0.000000  1
  Cu  Cu14  1  0.062054  0.797229  0.000000  1
  Cu  Cu15  1  0.702771  0.437946  0.000000  1
  Cu  Cu16  1  0.297229  0.562054  0.000000  1
  Cu  Cu17  1  0.562054  0.702771  0.000000  1
  Ge  Ge18  1  0.800838  0.300838  0.243503  1
  Ge  Ge19  1  0.557334  0.057334  0.756497  1
  Ge  Ge20  1  0.199162  0.699162  0.756497  1
  Ge  Ge21  1  0.057334  0.199162  0.756497  1
  Ge  Ge22  1  0.699162  0.557334  0.756497  1
  Ge  Ge23  1  0.942666  0.800838  0.243503  1
  Ge  Ge24  1  0.300838  0.442666  0.243503  1
  Ge  Ge25  1  0.442666  0.942666  0.243503  1
  Sr  Sr26  1  0.750000  0.750000  0.500000  1
  Sr  Sr27  1  0.250000  0.250000  0.500000  1
