# generated using pymatgen
data_K2VCuSe4
_symmetry_space_group_name_H-M   'P 1'
_cell_length_a   5.64723816
_cell_length_b   7.34485203
_cell_length_c   12.26960009
_cell_angle_alpha   84.92437461
_cell_angle_beta   76.69519770
_cell_angle_gamma   67.39132364
_symmetry_Int_Tables_number   1
_chemical_formula_structural   K2VCuSe4
_chemical_formula_sum   'K4 V2 Cu2 Se8'
_cell_volume   457.20065950
_cell_formula_units_Z   2
loop_
 _symmetry_equiv_pos_site_id
 _symmetry_equiv_pos_as_xyz
  1  'x, y, z'
loop_
 _atom_site_type_symbol
 _atom_site_label
 _atom_site_symmetry_multiplicity
 _atom_site_fract_x
 _atom_site_fract_y
 _atom_site_fract_z
 _atom_site_occupancy
  K  K0  1  0.944966  0.750000  0.110068  1
  K  K1  1  0.305034  0.750000  0.389932  1
  K  K2  1  0.055034  0.250000  0.889932  1
  K  K3  1  0.694966  0.250000  0.610068  1
  V  V4  1  0.125000  0.750000  0.750000  1
  V  V5  1  0.875000  0.250000  0.250000  1
  Cu  Cu6  1  0.625000  0.750000  0.750000  1
  Cu  Cu7  1  0.375000  0.250000  0.250000  1
  Se  Se8  1  0.264230  0.050614  0.137499  1
  Se  Se9  1  0.952343  0.449386  0.362501  1
  Se  Se10  1  0.685156  0.050614  0.362501  1
  Se  Se11  1  0.598271  0.449386  0.137499  1
  Se  Se12  1  0.735770  0.949386  0.862501  1
  Se  Se13  1  0.047657  0.550614  0.637499  1
  Se  Se14  1  0.314844  0.949386  0.637499  1
  Se  Se15  1  0.401729  0.550614  0.862501  1
