# generated using pymatgen
data_Te2Mo(WSe2)3
_symmetry_space_group_name_H-M   'P 1'
_cell_length_a   3.38230312
_cell_length_b   3.38229468
_cell_length_c   38.49632002
_cell_angle_alpha   90.00074856
_cell_angle_beta   90.00000000
_cell_angle_gamma   120.00008254
_symmetry_Int_Tables_number   1
_chemical_formula_structural   Te2Mo(WSe2)3
_chemical_formula_sum   'Te2 Mo1 W3 Se6'
_cell_volume   381.39364753
_cell_formula_units_Z   1
loop_
 _symmetry_equiv_pos_site_id
 _symmetry_equiv_pos_as_xyz
  1  'x, y, z'
loop_
 _atom_site_type_symbol
 _atom_site_label
 _atom_site_symmetry_multiplicity
 _atom_site_fract_x
 _atom_site_fract_y
 _atom_site_fract_z
 _atom_site_occupancy
  Te  Te0  1  0.333351  0.666704  0.706638  1
  Te  Te1  1  0.333352  0.666705  0.608443  1
  Mo  Mo2  1  0.333309  0.666618  0.469675  1
  W  W3  1  0.333309  0.666617  0.093915  1
  W  W4  1  0.666692  0.333384  0.281821  1
  W  W5  1  0.666689  0.333379  0.657560  1
  Se  Se6  1  0.333370  0.666741  0.324934  1
  Se  Se7  1  0.666646  0.333291  0.050784  1
  Se  Se8  1  0.666645  0.333288  0.426689  1
  Se  Se9  1  0.666647  0.333294  0.137044  1
  Se  Se10  1  0.666641  0.333280  0.512612  1
  Se  Se11  1  0.333349  0.666700  0.238634  1
