# generated using pymatgen
data_CeGa
_symmetry_space_group_name_H-M   'P 1'
_cell_length_a   4.13726247
_cell_length_b   4.43507852
_cell_length_c   5.96786594
_cell_angle_alpha   111.81308923
_cell_angle_beta   90.00000000
_cell_angle_gamma   90.00000000
_symmetry_Int_Tables_number   1
_chemical_formula_structural   CeGa
_chemical_formula_sum   'Ce2 Ga2'
_cell_volume   101.66442954
_cell_formula_units_Z   2
loop_
 _symmetry_equiv_pos_site_id
 _symmetry_equiv_pos_as_xyz
  1  'x, y, z'
loop_
 _atom_site_type_symbol
 _atom_site_label
 _atom_site_symmetry_multiplicity
 _atom_site_fract_x
 _atom_site_fract_y
 _atom_site_fract_z
 _atom_site_occupancy
  Ce  Ce0  1  0.750000  0.141117  0.282235  1
  Ce  Ce1  1  0.250000  0.858883  0.717765  1
  Ga  Ga2  1  0.750000  0.427001  0.854002  1
  Ga  Ga3  1  0.250000  0.572999  0.145998  1
