# generated using pymatgen
data_Te4MoW3Se4
_symmetry_space_group_name_H-M   'P 1'
_cell_length_a   3.43735734
_cell_length_b   3.43733324
_cell_length_c   39.20869662
_cell_angle_alpha   90.00001458
_cell_angle_beta   90.00000000
_cell_angle_gamma   120.00023193
_symmetry_Int_Tables_number   1
_chemical_formula_structural   Te4MoW3Se4
_chemical_formula_sum   'Te4 Mo1 W3 Se4'
_cell_volume   401.19761535
_cell_formula_units_Z   1
loop_
 _symmetry_equiv_pos_site_id
 _symmetry_equiv_pos_as_xyz
  1  'x, y, z'
loop_
 _atom_site_type_symbol
 _atom_site_label
 _atom_site_symmetry_multiplicity
 _atom_site_fract_x
 _atom_site_fract_y
 _atom_site_fract_z
 _atom_site_occupancy
  Te  Te0  1  0.333354  0.666709  0.329102  1
  Te  Te1  1  0.666640  0.333278  0.422070  1
  Te  Te2  1  0.666642  0.333283  0.517330  1
  Te  Te3  1  0.333356  0.666714  0.234413  1
  Mo  Mo4  1  0.666690  0.333381  0.281774  1
  W  W5  1  0.333310  0.666619  0.093922  1
  W  W6  1  0.333307  0.666613  0.469687  1
  W  W7  1  0.666697  0.333394  0.657530  1
  Se  Se8  1  0.333355  0.666712  0.699447  1
  Se  Se9  1  0.666642  0.333284  0.052031  1
  Se  Se10  1  0.666648  0.333295  0.135810  1
  Se  Se11  1  0.333359  0.666719  0.615631  1
