# generated using pymatgen
data_CaMo5O8
_symmetry_space_group_name_H-M   'P 1'
_cell_length_a   8.45788308
_cell_length_b   9.49058503
_cell_length_c   10.74275081
_cell_angle_alpha   90.00000000
_cell_angle_beta   108.82081344
_cell_angle_gamma   90.00000000
_symmetry_Int_Tables_number   1
_chemical_formula_structural   CaMo5O8
_chemical_formula_sum   'Ca4 Mo20 O32'
_cell_volume   816.21679024
_cell_formula_units_Z   4
loop_
 _symmetry_equiv_pos_site_id
 _symmetry_equiv_pos_as_xyz
  1  'x, y, z'
loop_
 _atom_site_type_symbol
 _atom_site_label
 _atom_site_symmetry_multiplicity
 _atom_site_fract_x
 _atom_site_fract_y
 _atom_site_fract_z
 _atom_site_occupancy
  O  O0  1  0.418182  0.502703  0.865438  1
  O  O1  1  0.581817  1.002702  0.634561  1
  O  O2  1  0.581818  0.497298  0.134561  1
  O  O3  1  0.418182  -0.002703  0.365439  1
  O  O4  1  0.624874  0.720959  0.332566  1
  O  O5  1  0.375127  0.220959  0.167435  1
  O  O6  1  0.375127  0.279041  0.667434  1
  O  O7  1  0.624874  0.779041  0.832565  1
  O  O8  1  0.204652  0.730983  0.706367  1
  O  O9  1  0.795347  0.230984  0.793633  1
  O  O10  1  0.795347  0.269016  0.293633  1
  O  O11  1  0.204652  0.769017  0.206367  1
  O  O12  1  0.813146  0.730632  0.608743  1
  O  O13  1  0.186855  0.230633  0.891257  1
  O  O14  1  0.186855  0.269368  0.391257  1
  O  O15  1  0.813145  0.769368  0.108743  1
  O  O16  1  0.397898  0.753795  0.517285  1
  O  O17  1  0.602102  0.253795  0.982715  1
  O  O18  1  0.602102  0.246205  0.482715  1
  O  O19  1  0.397898  0.746205  0.017285  1
  O  O20  1  0.993018  0.494358  0.779750  1
  O  O21  1  0.006983  -0.005642  0.720250  1
  O  O22  1  0.006981  0.505641  0.220250  1
  O  O23  1  0.993018  1.005642  0.279751  1
  O  O24  1  0.396449  0.007088  0.847369  1
  O  O25  1  0.603551  0.507087  0.652630  1
  O  O26  1  0.603551  0.992913  0.152631  1
  O  O27  1  0.396449  0.492913  0.347370  1
  O  O28  1  0.009102  0.765352  0.423861  1
  O  O29  1  0.990899  0.234648  0.576140  1
  O  O30  1  0.990898  0.265352  0.076139  1
  O  O31  1  0.009102  0.734648  0.923860  1
  Ca  Ca32  1  0.323281  0.517585  0.536829  1
  Ca  Ca33  1  0.676718  1.017585  0.963170  1
  Ca  Ca34  1  0.676718  0.482414  0.463171  1
  Ca  Ca35  1  0.323282  -0.017585  0.036830  1
  Mo  Mo36  1  0.408331  0.634426  0.197208  1
  Mo  Mo37  1  0.207423  0.137677  0.719880  1
  Mo  Mo38  1  0.207423  0.362322  0.219880  1
  Mo  Mo39  1  0.792577  0.862323  0.280120  1
  Mo  Mo40  1  0.204924  0.624822  0.878794  1
  Mo  Mo41  1  0.795075  0.124823  0.621207  1
  Mo  Mo42  1  0.795076  0.375178  0.121206  1
  Mo  Mo43  1  0.204924  0.875177  0.378793  1
  Mo  Mo44  1  0.792577  0.637677  0.780120  1
  Mo  Mo45  1  0.591669  0.134425  0.302792  1
  Mo  Mo46  1  0.591670  0.365574  0.802792  1
  Mo  Mo47  1  0.408331  0.865574  0.697208  1
  Mo  Mo48  1  0.606972  0.646901  0.986365  1
  Mo  Mo49  1  0.393028  0.146900  0.513635  1
  Mo  Mo50  1  0.393028  0.353100  0.013635  1
  Mo  Mo51  1  0.606972  0.853099  0.486365  1
  Mo  Mo52  1  1.009471  0.847648  0.592834  1
  Mo  Mo53  1  -0.009471  0.347648  0.907167  1
  Mo  Mo54  1  -0.009471  0.152352  0.407166  1
  Mo  Mo55  1  1.009471  0.652352  0.092833  1
