# generated using pymatgen
data_Te4MoW3S4
_symmetry_space_group_name_H-M   'P 1'
_cell_length_a   3.36248934
_cell_length_b   3.36253863
_cell_length_c   40.30637550
_cell_angle_alpha   90.00163285
_cell_angle_beta   90.00000000
_cell_angle_gamma   119.99951513
_symmetry_Int_Tables_number   1
_chemical_formula_structural   Te4MoW3S4
_chemical_formula_sum   'Te4 Mo1 W3 S4'
_cell_volume   394.67052923
_cell_formula_units_Z   1
loop_
 _symmetry_equiv_pos_site_id
 _symmetry_equiv_pos_as_xyz
  1  'x, y, z'
loop_
 _atom_site_type_symbol
 _atom_site_label
 _atom_site_symmetry_multiplicity
 _atom_site_fract_x
 _atom_site_fract_y
 _atom_site_fract_z
 _atom_site_occupancy
  Te  Te0  1  0.333349  0.666698  0.327142  1
  Te  Te1  1  0.666646  0.333292  0.424228  1
  Te  Te2  1  0.666703  0.333404  0.518521  1
  Te  Te3  1  0.333326  0.666653  0.232877  1
  Mo  Mo4  1  0.333143  0.666287  0.093799  1
  W  W5  1  0.333278  0.666555  0.471354  1
  W  W6  1  0.666743  0.333485  0.279958  1
  W  W7  1  0.666697  0.333394  0.657728  1
  S  S8  1  0.333352  0.666705  0.695412  1
  S  S9  1  0.666727  0.333453  0.056332  1
  S  S10  1  0.666718  0.333435  0.131326  1
  S  S11  1  0.333319  0.666638  0.620070  1
