# generated using pymatgen
data_Sm3Se4
_symmetry_space_group_name_H-M   'P 1'
_cell_length_a   7.66521047
_cell_length_b   7.66521048
_cell_length_c   7.66521048
_cell_angle_alpha   109.47122064
_cell_angle_beta   109.47122065
_cell_angle_gamma   109.47122061
_symmetry_Int_Tables_number   1
_chemical_formula_structural   Sm3Se4
_chemical_formula_sum   'Sm6 Se8'
_cell_volume   346.69722302
_cell_formula_units_Z   2
loop_
 _symmetry_equiv_pos_site_id
 _symmetry_equiv_pos_as_xyz
  1  'x, y, z'
loop_
 _atom_site_type_symbol
 _atom_site_label
 _atom_site_symmetry_multiplicity
 _atom_site_fract_x
 _atom_site_fract_y
 _atom_site_fract_z
 _atom_site_occupancy
  Se  Se0  1  0.647410  0.647410  0.647410  1
  Se  Se1  1  0.352590  0.500000  0.000000  1
  Se  Se2  1  0.500000  0.000000  0.352590  1
  Se  Se3  1  0.000000  0.352590  0.500000  1
  Se  Se4  1  0.500000  0.000000  0.852590  1
  Se  Se5  1  0.000000  0.852590  0.500000  1
  Se  Se6  1  0.147410  0.147410  0.147410  1
  Se  Se7  1  0.852590  0.500000  0.000000  1
  Sm  Sm8  1  0.750000  0.875000  0.125000  1
  Sm  Sm9  1  0.625000  0.375000  0.250000  1
  Sm  Sm10  1  0.875000  0.125000  0.750000  1
  Sm  Sm11  1  0.125000  0.750000  0.875000  1
  Sm  Sm12  1  0.375000  0.250000  0.625000  1
  Sm  Sm13  1  0.250000  0.625000  0.375000  1
