# generated using pymatgen
data_TeMoWSe3
_symmetry_space_group_name_H-M   'P 1'
_cell_length_a   3.37928841
_cell_length_b   3.37922983
_cell_length_c   38.46220281
_cell_angle_alpha   90.00019663
_cell_angle_beta   90.00000000
_cell_angle_gamma   120.00057335
_symmetry_Int_Tables_number   1
_chemical_formula_structural   TeMoWSe3
_chemical_formula_sum   'Te2 Mo2 W2 Se6'
_cell_volume   380.36913169
_cell_formula_units_Z   2
loop_
 _symmetry_equiv_pos_site_id
 _symmetry_equiv_pos_as_xyz
  1  'x, y, z'
loop_
 _atom_site_type_symbol
 _atom_site_label
 _atom_site_symmetry_multiplicity
 _atom_site_fract_x
 _atom_site_fract_y
 _atom_site_fract_z
 _atom_site_occupancy
  Te  Te0  1  0.666646  0.333291  0.045037  1
  Te  Te1  1  0.666647  0.333294  0.142809  1
  Mo  Mo2  1  0.333306  0.666611  0.093903  1
  Mo  Mo3  1  0.666688  0.333376  0.281801  1
  W  W4  1  0.333310  0.666620  0.469656  1
  W  W5  1  0.666693  0.333385  0.657538  1
  Se  Se6  1  0.333351  0.666704  0.324879  1
  Se  Se7  1  0.333361  0.666722  0.700734  1
  Se  Se8  1  0.666647  0.333292  0.426465  1
  Se  Se9  1  0.666648  0.333295  0.512861  1
  Se  Se10  1  0.333350  0.666702  0.238739  1
  Se  Se11  1  0.333353  0.666708  0.614326  1
