# generated using pymatgen
data_Nb3SiO10
_symmetry_space_group_name_H-M   'P 1'
_cell_length_a   4.82175539
_cell_length_b   5.43223890
_cell_length_c   6.88232172
_cell_angle_alpha   102.69355092
_cell_angle_beta   111.28554509
_cell_angle_gamma   89.35605577
_symmetry_Int_Tables_number   1
_chemical_formula_structural   Nb3SiO10
_chemical_formula_sum   'Nb3 Si1 O10'
_cell_volume   163.39911847
_cell_formula_units_Z   1
loop_
 _symmetry_equiv_pos_site_id
 _symmetry_equiv_pos_as_xyz
  1  'x, y, z'
loop_
 _atom_site_type_symbol
 _atom_site_label
 _atom_site_symmetry_multiplicity
 _atom_site_fract_x
 _atom_site_fract_y
 _atom_site_fract_z
 _atom_site_occupancy
  Nb  Nb0  1  0.610155  0.725992  0.708853  1
  Nb  Nb1  1  0.098883  0.239818  0.751954  1
  Nb  Nb2  1  0.866855  0.768840  0.268780  1
  Si  Si3  1  0.404700  0.291724  0.297855  1
  O  O4  1  0.270281  0.592446  0.395580  1
  O  O5  1  0.643698  0.473947  0.224980  1
  O  O6  1  0.443007  0.031942  0.766032  1
  O  O7  1  0.876590  0.870717  0.590333  1
  O  O8  1  0.320747  0.532621  0.785727  1
  O  O9  1  0.701493  0.357965  0.572707  1
  O  O10  1  0.132300  0.248651  0.032640  1
  O  O11  1  0.897844  0.729336  0.987703  1
  O  O12  1  0.566837  0.010207  0.228560  1
  O  O13  1  0.166612  0.125793  0.388296  1
