# generated using pymatgen
data_Te2MoWSe2
_symmetry_space_group_name_H-M   'P 1'
_cell_length_a   3.44284156
_cell_length_b   3.44282001
_cell_length_c   39.12330779
_cell_angle_alpha   90.00064977
_cell_angle_beta   90.00000000
_cell_angle_gamma   120.00020705
_symmetry_Int_Tables_number   1
_chemical_formula_structural   Te2MoWSe2
_chemical_formula_sum   'Te4 Mo2 W2 Se4'
_cell_volume   401.60272172
_cell_formula_units_Z   2
loop_
 _symmetry_equiv_pos_site_id
 _symmetry_equiv_pos_as_xyz
  1  'x, y, z'
loop_
 _atom_site_type_symbol
 _atom_site_label
 _atom_site_symmetry_multiplicity
 _atom_site_fract_x
 _atom_site_fract_y
 _atom_site_fract_z
 _atom_site_occupancy
  Te  Te0  1  0.333361  0.666722  0.705174  1
  Te  Te1  1  0.666640  0.333278  0.046284  1
  Te  Te2  1  0.666644  0.333288  0.141577  1
  Te  Te3  1  0.333356  0.666712  0.609881  1
  Mo  Mo4  1  0.333313  0.666625  0.469650  1
  Mo  Mo5  1  0.666687  0.333375  0.281808  1
  W  W6  1  0.333309  0.666619  0.093929  1
  W  W7  1  0.666691  0.333381  0.657529  1
  Se  Se8  1  0.333354  0.666709  0.323581  1
  Se  Se9  1  0.666646  0.333291  0.427877  1
  Se  Se10  1  0.666649  0.333296  0.511454  1
  Se  Se11  1  0.333351  0.666704  0.240004  1
