# generated using pymatgen
data_V2Cd(P2O7)2
_symmetry_space_group_name_H-M   'P 1'
_cell_length_a   4.88694969
_cell_length_b   7.07469411
_cell_length_c   7.95583309
_cell_angle_alpha   89.45774452
_cell_angle_beta   87.08069359
_cell_angle_gamma   73.47793857
_symmetry_Int_Tables_number   1
_chemical_formula_structural   V2Cd(P2O7)2
_chemical_formula_sum   'V2 Cd1 P4 O14'
_cell_volume   263.35929773
_cell_formula_units_Z   1
loop_
 _symmetry_equiv_pos_site_id
 _symmetry_equiv_pos_as_xyz
  1  'x, y, z'
loop_
 _atom_site_type_symbol
 _atom_site_label
 _atom_site_symmetry_multiplicity
 _atom_site_fract_x
 _atom_site_fract_y
 _atom_site_fract_z
 _atom_site_occupancy
  O  O0  1  0.208984  0.431099  0.667572  1
  O  O1  1  0.791014  0.568901  0.332428  1
  O  O2  1  0.115574  0.672902  0.909883  1
  O  O3  1  0.884426  0.327098  0.090117  1
  O  O4  1  0.501666  0.226719  0.896062  1
  O  O5  1  0.498334  0.773281  0.103938  1
  O  O6  1  0.707581  0.555884  0.796675  1
  O  O7  1  0.387571  0.844638  0.420713  1
  O  O8  1  0.612430  0.155362  0.579287  1
  O  O9  1  0.177529  0.081705  0.730427  1
  O  O10  1  0.292420  0.444115  0.203325  1
  O  O11  1  0.073599  0.224134  0.377746  1
  O  O12  1  0.926401  0.775866  0.622254  1
  O  O13  1  0.822471  0.918295  0.269573  1
  P  P14  1  0.977299  0.615755  0.752014  1
  P  P15  1  0.022702  0.384244  0.247985  1
  P  P16  1  0.386121  0.211384  0.720027  1
  P  P17  1  0.613880  0.788616  0.279973  1
  V  V18  1  0.500000  0.500000  1.000000  1
  V  V19  1  1.000000  0.000000  0.500000  1
  Cd  Cd20  1  0.000000  0.000000  0.000000  1
