# generated using pymatgen
data_Hf2TaN3
_symmetry_space_group_name_H-M   'P 1'
_cell_length_a   5.34913485
_cell_length_b   5.34913470
_cell_length_c   3.03304323
_cell_angle_alpha   90.00000000
_cell_angle_beta   90.00000000
_cell_angle_gamma   119.99739157
_symmetry_Int_Tables_number   1
_chemical_formula_structural   Hf2TaN3
_chemical_formula_sum   'Hf2 Ta1 N3'
_cell_volume   75.16016539
_cell_formula_units_Z   1
loop_
 _symmetry_equiv_pos_site_id
 _symmetry_equiv_pos_as_xyz
  1  'x, y, z'
loop_
 _atom_site_type_symbol
 _atom_site_label
 _atom_site_symmetry_multiplicity
 _atom_site_fract_x
 _atom_site_fract_y
 _atom_site_fract_z
 _atom_site_occupancy
  Hf  Hf0  1  0.666686  0.333360  0.500000  1
  Hf  Hf1  1  0.333360  0.666686  0.500000  1
  Ta  Ta2  1  0.000009  0.000009  0.000000  1
  N  N3  1  0.500007  0.500007  0.000000  1
  N  N4  1  0.500015  0.000024  0.000000  1
  N  N5  1  0.000024  0.500015  0.000000  1
