# generated using pymatgen
data_Nb2V4Si5
_symmetry_space_group_name_H-M   'P 1'
_cell_length_a   5.13391238
_cell_length_b   7.57450448
_cell_length_c   9.39071441
_cell_angle_alpha   113.78686837
_cell_angle_beta   105.86373697
_cell_angle_gamma   90.00000003
_symmetry_Int_Tables_number   1
_chemical_formula_structural   Nb2V4Si5
_chemical_formula_sum   'Nb4 V8 Si10'
_cell_volume   318.89645521
_cell_formula_units_Z   2
loop_
 _symmetry_equiv_pos_site_id
 _symmetry_equiv_pos_as_xyz
  1  'x, y, z'
loop_
 _atom_site_type_symbol
 _atom_site_label
 _atom_site_symmetry_multiplicity
 _atom_site_fract_x
 _atom_site_fract_y
 _atom_site_fract_z
 _atom_site_occupancy
  Si  Si0  1  0.560131  0.653069  0.120263  1
  Si  Si1  1  0.439869  0.346931  0.879737  1
  Si  Si2  1  0.939868  0.532812  0.879736  1
  Si  Si3  1  0.060132  0.467188  0.120264  1
  Si  Si4  1  0.707916  0.402581  0.415833  1
  Si  Si5  1  0.292084  0.597419  0.584167  1
  Si  Si6  1  0.250010  0.000000  0.000000  1
  Si  Si7  1  0.749990  0.000000  0.000000  1
  Si  Si8  1  0.207926  0.013274  0.415852  1
  Si  Si9  1  0.792074  0.986726  0.584148  1
  V  V10  1  0.358938  0.974679  0.717875  1
  V  V11  1  0.641062  0.025321  0.282125  1
  V  V12  1  0.936235  0.187384  0.872470  1
  V  V13  1  0.063765  0.812616  0.127530  1
  V  V14  1  0.563754  0.314898  0.127508  1
  V  V15  1  0.436246  0.685102  0.872492  1
  V  V16  1  0.141071  0.256857  0.282143  1
  V  V17  1  0.858929  0.743143  0.717857  1
  Nb  Nb18  1  0.560929  0.310933  0.621855  1
  Nb  Nb19  1  0.939075  0.689067  0.378145  1
  Nb  Nb20  1  0.439071  0.689067  0.378145  1
  Nb  Nb21  1  0.060925  0.310933  0.621855  1
