# generated using pymatgen
data_Rb2Mn2(SO4)3
_symmetry_space_group_name_H-M   'P 1'
_cell_length_a   10.38532474
_cell_length_b   10.38532474
_cell_length_c   10.38532474
_cell_angle_alpha   90.00000000
_cell_angle_beta   90.00000000
_cell_angle_gamma   90.00000000
_symmetry_Int_Tables_number   1
_chemical_formula_structural   Rb2Mn2(SO4)3
_chemical_formula_sum   'Rb8 Mn8 S12 O48'
_cell_volume   1120.10888781
_cell_formula_units_Z   4
loop_
 _symmetry_equiv_pos_site_id
 _symmetry_equiv_pos_as_xyz
  1  'x, y, z'
loop_
 _atom_site_type_symbol
 _atom_site_label
 _atom_site_symmetry_multiplicity
 _atom_site_fract_x
 _atom_site_fract_y
 _atom_site_fract_z
 _atom_site_occupancy
  O  O0  1  0.651590  0.002083  0.595493  1
  O  O1  1  0.151590  0.497916  0.404507  1
  O  O2  1  0.348411  0.502084  0.904507  1
  O  O3  1  0.497916  0.404507  0.151590  1
  O  O4  1  0.904507  0.348411  0.502084  1
  O  O5  1  0.404507  0.151590  0.497916  1
  O  O6  1  0.002083  0.595493  0.651590  1
  O  O7  1  0.595493  0.651590  0.002083  1
  O  O8  1  0.502084  0.904507  0.348411  1
  O  O9  1  0.997916  0.095494  0.848411  1
  O  O10  1  0.095494  0.848411  0.997916  1
  O  O11  1  0.848411  0.997916  0.095494  1
  O  O12  1  0.581929  0.831612  0.742570  1
  O  O13  1  0.081929  0.668388  0.257429  1
  O  O14  1  0.418072  0.331611  0.757430  1
  O  O15  1  0.668388  0.257429  0.081929  1
  O  O16  1  0.757430  0.418072  0.331611  1
  O  O17  1  0.257429  0.081929  0.668388  1
  O  O18  1  0.711570  0.474423  0.553216  1
  O  O19  1  0.742570  0.581929  0.831612  1
  O  O20  1  0.331611  0.757430  0.418072  1
  O  O21  1  0.168388  0.242571  0.918071  1
  O  O22  1  0.242571  0.918071  0.168388  1
  O  O23  1  0.918071  0.168388  0.242571  1
  O  O24  1  0.525576  0.053216  0.788431  1
  O  O25  1  0.025576  0.446785  0.211570  1
  O  O26  1  0.474423  0.553216  0.711570  1
  O  O27  1  0.446785  0.211570  0.025576  1
  O  O28  1  0.753001  0.011978  0.306795  1
  O  O29  1  0.306795  0.753001  0.011978  1
  O  O30  1  0.011978  0.306795  0.753001  1
  O  O31  1  0.488022  0.693205  0.253002  1
  O  O32  1  0.806795  0.746999  0.988022  1
  O  O33  1  0.988022  0.806795  0.746999  1
  O  O34  1  0.193205  0.246998  0.511978  1
  O  O35  1  0.693205  0.253002  0.488022  1
  O  O36  1  0.511978  0.193205  0.246998  1
  O  O37  1  0.253002  0.488022  0.693205  1
  O  O38  1  0.246998  0.511978  0.193205  1
  O  O39  1  0.746999  0.988022  0.806795  1
  O  O40  1  0.974424  0.946785  0.288430  1
  O  O41  1  0.288430  0.974424  0.946785  1
  O  O42  1  0.946785  0.288430  0.974424  1
  O  O43  1  0.553216  0.711570  0.474423  1
  O  O44  1  0.788431  0.525576  0.053216  1
  O  O45  1  0.053216  0.788431  0.525576  1
  O  O46  1  0.211570  0.025576  0.446785  1
  O  O47  1  0.831612  0.742570  0.581929  1
  S  S48  1  0.625995  0.968096  0.731778  1
  S  S49  1  0.125995  0.531904  0.268222  1
  S  S50  1  0.374005  0.468096  0.768222  1
  S  S51  1  0.531904  0.268222  0.125995  1
  S  S52  1  0.768222  0.374005  0.468096  1
  S  S53  1  0.268222  0.125995  0.531904  1
  S  S54  1  0.968096  0.731778  0.625995  1
  S  S55  1  0.731778  0.625995  0.968096  1
  S  S56  1  0.468096  0.768222  0.374005  1
  S  S57  1  0.031905  0.231779  0.874005  1
  S  S58  1  0.231779  0.874005  0.031905  1
  S  S59  1  0.874005  0.031905  0.231779  1
  Mn  Mn60  1  0.914711  0.914711  0.914711  1
  Mn  Mn61  1  0.585289  0.085289  0.414711  1
  Mn  Mn62  1  0.085289  0.414711  0.585289  1
  Mn  Mn63  1  0.414711  0.585289  0.085289  1
  Mn  Mn64  1  0.654047  0.654047  0.654047  1
  Mn  Mn65  1  0.154046  0.845954  0.345954  1
  Mn  Mn66  1  0.845954  0.345954  0.154046  1
  Mn  Mn67  1  0.345954  0.154046  0.845954  1
  Rb  Rb68  1  0.799138  0.700863  0.299138  1
  Rb  Rb69  1  0.700863  0.299138  0.799138  1
  Rb  Rb70  1  0.299138  0.799138  0.700863  1
  Rb  Rb71  1  0.200863  0.200863  0.200863  1
  Rb  Rb72  1  0.433908  0.433908  0.433908  1
  Rb  Rb73  1  0.933908  0.066092  0.566092  1
  Rb  Rb74  1  0.066092  0.566092  0.933908  1
  Rb  Rb75  1  0.566092  0.933908  0.066092  1
