# generated using pymatgen
data_Te4Mo3WSe4
_symmetry_space_group_name_H-M   'P 1'
_cell_length_a   3.43968018
_cell_length_b   3.43965861
_cell_length_c   39.08904733
_cell_angle_alpha   90.00006162
_cell_angle_beta   90.00000000
_cell_angle_gamma   120.00020744
_symmetry_Int_Tables_number   1
_chemical_formula_structural   Te4Mo3WSe4
_chemical_formula_sum   'Te4 Mo3 W1 Se4'
_cell_volume   400.51447297
_cell_formula_units_Z   1
loop_
 _symmetry_equiv_pos_site_id
 _symmetry_equiv_pos_as_xyz
  1  'x, y, z'
loop_
 _atom_site_type_symbol
 _atom_site_label
 _atom_site_symmetry_multiplicity
 _atom_site_fract_x
 _atom_site_fract_y
 _atom_site_fract_z
 _atom_site_occupancy
  Te  Te0  1  0.333370  0.666741  0.705271  1
  Te  Te1  1  0.666650  0.333299  0.422193  1
  Te  Te2  1  0.666646  0.333291  0.517039  1
  Te  Te3  1  0.333352  0.666704  0.609839  1
  Mo  Mo4  1  0.333312  0.666623  0.093927  1
  Mo  Mo5  1  0.333312  0.666624  0.469625  1
  Mo  Mo6  1  0.666689  0.333378  0.281796  1
  W  W7  1  0.666692  0.333383  0.657595  1
  Se  Se8  1  0.333352  0.666705  0.323641  1
  Se  Se9  1  0.666628  0.333254  0.052106  1
  Se  Se10  1  0.666650  0.333298  0.135759  1
  Se  Se11  1  0.333349  0.666700  0.239957  1
