# generated using pymatgen
data_Rb5GaO4
_symmetry_space_group_name_H-M   'P 1'
_cell_length_a   7.07078706
_cell_length_b   21.62031485
_cell_length_c   12.10172013
_cell_angle_alpha   90.00000000
_cell_angle_beta   90.00000000
_cell_angle_gamma   90.00000000
_symmetry_Int_Tables_number   1
_chemical_formula_structural   Rb5GaO4
_chemical_formula_sum   'Rb40 Ga8 O32'
_cell_volume   1850.02193476
_cell_formula_units_Z   8
loop_
 _symmetry_equiv_pos_site_id
 _symmetry_equiv_pos_as_xyz
  1  'x, y, z'
loop_
 _atom_site_type_symbol
 _atom_site_label
 _atom_site_symmetry_multiplicity
 _atom_site_fract_x
 _atom_site_fract_y
 _atom_site_fract_z
 _atom_site_occupancy
  Rb  Rb0  1  0.566959  0.368026  0.295927  1
  Rb  Rb1  1  0.066959  0.131974  0.704073  1
  Rb  Rb2  1  0.433041  0.868026  0.204073  1
  Rb  Rb3  1  0.933041  0.631974  0.795927  1
  Rb  Rb4  1  0.433041  0.631974  0.704073  1
  Rb  Rb5  1  0.933041  0.868026  0.295927  1
  Rb  Rb6  1  0.566959  0.131974  0.795927  1
  Rb  Rb7  1  0.066959  0.368026  0.204073  1
  Rb  Rb8  1  0.571849  0.002888  0.364086  1
  Rb  Rb9  1  0.071849  0.497112  0.635914  1
  Rb  Rb10  1  0.428151  0.502888  0.135914  1
  Rb  Rb11  1  0.928151  0.997112  0.864086  1
  Rb  Rb12  1  0.428151  0.997112  0.635914  1
  Rb  Rb13  1  0.928151  0.502888  0.364086  1
  Rb  Rb14  1  0.571849  0.497112  0.864086  1
  Rb  Rb15  1  0.071849  0.002888  0.135914  1
  Rb  Rb16  1  0.579220  0.066161  0.068437  1
  Rb  Rb17  1  0.079220  0.433839  0.931563  1
  Rb  Rb18  1  0.420780  0.566161  0.431563  1
  Rb  Rb19  1  0.920780  0.933839  0.568437  1
  Rb  Rb20  1  0.420780  0.933839  0.931563  1
  Rb  Rb21  1  0.920780  0.566161  0.068437  1
  Rb  Rb22  1  0.579220  0.433839  0.568437  1
  Rb  Rb23  1  0.079220  0.066161  0.431563  1
  Rb  Rb24  1  0.886166  0.253661  0.417001  1
  Rb  Rb25  1  0.386166  0.246339  0.582999  1
  Rb  Rb26  1  0.113834  0.753661  0.082999  1
  Rb  Rb27  1  0.613834  0.746339  0.917001  1
  Rb  Rb28  1  0.113834  0.746339  0.582999  1
  Rb  Rb29  1  0.613834  0.753661  0.417001  1
  Rb  Rb30  1  0.886166  0.246339  0.917001  1
  Rb  Rb31  1  0.386166  0.253661  0.082999  1
  Rb  Rb32  1  0.891933  0.176081  0.172216  1
  Rb  Rb33  1  0.391933  0.323919  0.827784  1
  Rb  Rb34  1  0.108067  0.676081  0.327784  1
  Rb  Rb35  1  0.608067  0.823919  0.672216  1
  Rb  Rb36  1  0.108067  0.823919  0.827784  1
  Rb  Rb37  1  0.608067  0.676081  0.172216  1
  Rb  Rb38  1  0.891933  0.323919  0.672216  1
  Rb  Rb39  1  0.391933  0.176081  0.327784  1
  Ga  Ga40  1  0.676268  0.124960  0.530897  1
  Ga  Ga41  1  0.176268  0.375040  0.469103  1
  Ga  Ga42  1  0.323732  0.624960  0.969103  1
  Ga  Ga43  1  0.823732  0.875040  0.030897  1
  Ga  Ga44  1  0.323732  0.875040  0.469103  1
  Ga  Ga45  1  0.823732  0.624960  0.530897  1
  Ga  Ga46  1  0.676268  0.375040  0.030897  1
  Ga  Ga47  1  0.176268  0.124960  0.969103  1
  O  O48  1  0.747319  0.130744  0.377407  1
  O  O49  1  0.247319  0.369256  0.622593  1
  O  O50  1  0.252681  0.630744  0.122593  1
  O  O51  1  0.752681  0.869256  0.877407  1
  O  O52  1  0.252681  0.869256  0.622593  1
  O  O53  1  0.752681  0.630744  0.377407  1
  O  O54  1  0.747319  0.369256  0.877407  1
  O  O55  1  0.247319  0.130744  0.122593  1
  O  O56  1  0.755280  0.301571  0.108959  1
  O  O57  1  0.255280  0.198429  0.891041  1
  O  O58  1  0.244720  0.801571  0.391041  1
  O  O59  1  0.744720  0.698429  0.608959  1
  O  O60  1  0.244720  0.698429  0.891041  1
  O  O61  1  0.744720  0.801571  0.108959  1
  O  O62  1  0.755280  0.198429  0.608959  1
  O  O63  1  0.255280  0.301571  0.391041  1
  O  O64  1  0.789397  0.446319  0.097236  1
  O  O65  1  0.289397  0.053681  0.902764  1
  O  O66  1  0.210603  0.946319  0.402764  1
  O  O67  1  0.710603  0.553681  0.597236  1
  O  O68  1  0.210603  0.553681  0.902764  1
  O  O69  1  0.710603  0.946319  0.097236  1
  O  O70  1  0.789397  0.053681  0.597236  1
  O  O71  1  0.289397  0.446319  0.402764  1
  O  O72  1  0.905956  0.384125  0.461628  1
  O  O73  1  0.405956  0.115875  0.538372  1
  O  O74  1  0.094044  0.884125  0.038372  1
  O  O75  1  0.594044  0.615875  0.961628  1
  O  O76  1  0.094044  0.615875  0.538372  1
  O  O77  1  0.594044  0.884125  0.461628  1
  O  O78  1  0.905956  0.115875  0.961628  1
  O  O79  1  0.405956  0.384125  0.038372  1
