# generated using pymatgen
data_Mo3W(SeS)4
_symmetry_space_group_name_H-M   'P 1'
_cell_length_a   3.25648455
_cell_length_b   3.25650004
_cell_length_c   36.85964721
_cell_angle_alpha   89.99955437
_cell_angle_beta   90.00000564
_cell_angle_gamma   119.99983238
_symmetry_Int_Tables_number   1
_chemical_formula_structural   Mo3W(SeS)4
_chemical_formula_sum   'Mo3 W1 Se4 S4'
_cell_volume   338.51868819
_cell_formula_units_Z   1
loop_
 _symmetry_equiv_pos_site_id
 _symmetry_equiv_pos_as_xyz
  1  'x, y, z'
loop_
 _atom_site_type_symbol
 _atom_site_label
 _atom_site_symmetry_multiplicity
 _atom_site_fract_x
 _atom_site_fract_y
 _atom_site_fract_z
 _atom_site_occupancy
  Mo  Mo0  1  0.333310  0.666619  0.093913  1
  Mo  Mo1  1  0.333311  0.666620  0.469655  1
  Mo  Mo2  1  0.666698  0.333397  0.657549  1
  W  W3  1  0.666691  0.333384  0.281772  1
  Se  Se4  1  0.333350  0.666702  0.328110  1
  Se  Se5  1  0.333352  0.666705  0.703606  1
  Se  Se6  1  0.333348  0.666696  0.235461  1
  Se  Se7  1  0.333356  0.666713  0.611505  1
  S  S8  1  0.666634  0.333269  0.052052  1
  S  S9  1  0.666649  0.333297  0.427815  1
  S  S10  1  0.666649  0.333297  0.135790  1
  S  S11  1  0.666651  0.333301  0.511520  1
