# generated using pymatgen
data_Ba2VO4
_symmetry_space_group_name_H-M   'P 1'
_cell_length_a   6.26029933
_cell_length_b   7.79491651
_cell_length_c   10.49023479
_cell_angle_alpha   90.00000000
_cell_angle_beta   94.48578615
_cell_angle_gamma   90.00000000
_symmetry_Int_Tables_number   1
_chemical_formula_structural   Ba2VO4
_chemical_formula_sum   'Ba8 V4 O16'
_cell_volume   510.33974093
_cell_formula_units_Z   4
loop_
 _symmetry_equiv_pos_site_id
 _symmetry_equiv_pos_as_xyz
  1  'x, y, z'
loop_
 _atom_site_type_symbol
 _atom_site_label
 _atom_site_symmetry_multiplicity
 _atom_site_fract_x
 _atom_site_fract_y
 _atom_site_fract_z
 _atom_site_occupancy
  O  O0  1  0.507809  0.753395  0.173807  1
  O  O1  1  0.992191  0.253395  0.326193  1
  O  O2  1  0.492191  0.246605  0.826193  1
  O  O3  1  0.007809  0.746605  0.673807  1
  O  O4  1  0.992317  0.826797  0.133426  1
  O  O5  1  0.507683  0.326797  0.366574  1
  O  O6  1  0.007683  0.173203  0.866574  1
  O  O7  1  0.492317  0.673203  0.633426  1
  O  O8  1  0.669925  0.825158  0.926766  1
  O  O9  1  0.830075  0.325158  0.573234  1
  O  O10  1  0.330075  0.174842  0.073234  1
  O  O11  1  0.169925  0.674842  0.426766  1
  O  O12  1  0.297494  0.007112  0.578359  1
  O  O13  1  0.202506  0.507112  0.921641  1
  O  O14  1  0.702506  0.992888  0.421641  1
  O  O15  1  0.797494  0.492888  0.078359  1
  V  V16  1  0.740358  0.719847  0.081936  1
  V  V17  1  0.759642  0.219847  0.418064  1
  V  V18  1  0.259642  0.280153  0.918064  1
  V  V19  1  0.240358  0.780153  0.581936  1
  Ba  Ba20  1  0.779354  0.504862  0.801801  1
  Ba  Ba21  1  0.720646  0.004862  0.698199  1
  Ba  Ba22  1  0.220646  0.495138  0.198199  1
  Ba  Ba23  1  0.279354  0.995138  0.301801  1
  Ba  Ba24  1  0.761629  0.158574  0.072882  1
  Ba  Ba25  1  0.738371  0.658574  0.427118  1
  Ba  Ba26  1  0.238371  0.841426  0.927118  1
  Ba  Ba27  1  0.261629  0.341426  0.572882  1
