# generated using pymatgen
data_Ba2CaWO6
_symmetry_space_group_name_H-M   'P 1'
_cell_length_a   6.04663668
_cell_length_b   6.02740769
_cell_length_c   6.02740769
_cell_angle_alpha   59.90926933
_cell_angle_beta   59.82073319
_cell_angle_gamma   59.82073317
_symmetry_Int_Tables_number   1
_chemical_formula_structural   Ba2CaWO6
_chemical_formula_sum   'Ba2 Ca1 W1 O6'
_cell_volume   154.80352770
_cell_formula_units_Z   1
loop_
 _symmetry_equiv_pos_site_id
 _symmetry_equiv_pos_as_xyz
  1  'x, y, z'
loop_
 _atom_site_type_symbol
 _atom_site_label
 _atom_site_symmetry_multiplicity
 _atom_site_fract_x
 _atom_site_fract_y
 _atom_site_fract_z
 _atom_site_occupancy
  O  O0  1  0.749774  0.752107  0.291931  1
  O  O1  1  0.250226  0.708069  0.247893  1
  O  O2  1  0.250226  0.247894  0.708069  1
  O  O3  1  0.749773  0.291930  0.752107  1
  O  O4  1  0.185960  0.271282  0.271283  1
  O  O5  1  0.814041  0.728717  0.728719  1
  Ca  Ca6  1  0.499999  0.999999  0.000001  1
  Ba  Ba7  1  0.251515  0.750264  0.750264  1
  Ba  Ba8  1  0.748484  0.249737  0.249736  1
  W  W9  1  1.000000  0.499999  0.500001  1
