# generated using pymatgen
data_Ba2SrWO6
_symmetry_space_group_name_H-M   'P 1'
_cell_length_a   6.12866301
_cell_length_b   6.11989834
_cell_length_c   6.18653348
_cell_angle_alpha   60.64143506
_cell_angle_beta   60.30895706
_cell_angle_gamma   59.95261328
_symmetry_Int_Tables_number   1
_chemical_formula_structural   Ba2SrWO6
_chemical_formula_sum   'Ba2 Sr1 W1 O6'
_cell_volume   165.18071117
_cell_formula_units_Z   1
loop_
 _symmetry_equiv_pos_site_id
 _symmetry_equiv_pos_as_xyz
  1  'x, y, z'
loop_
 _atom_site_type_symbol
 _atom_site_label
 _atom_site_symmetry_multiplicity
 _atom_site_fract_x
 _atom_site_fract_y
 _atom_site_fract_z
 _atom_site_occupancy
  O  O0  1  0.232991  0.259513  0.822749  1
  O  O1  1  0.315252  0.740488  0.177252  1
  O  O2  1  0.767008  0.740488  0.177250  1
  O  O3  1  0.684747  0.259513  0.822748  1
  O  O4  1  0.719360  0.855121  0.706158  1
  O  O5  1  0.280639  0.144880  0.293841  1
  Sr  Sr6  1  1.000000  0.500000  0.500000  1
  Ba  Ba7  1  0.247729  0.744148  0.760394  1
  Ba  Ba8  1  0.752271  0.255851  0.239606  1
  W  W9  1  0.500000  0.000000  0.000000  1
