# generated using pymatgen
data_BaAl2(SiO4)2
_symmetry_space_group_name_H-M   'P 1'
_cell_length_a   8.74930211
_cell_length_b   9.43422975
_cell_length_c   9.43422975
_cell_angle_alpha   88.92679617
_cell_angle_beta   82.19742129
_cell_angle_gamma   82.19742130
_symmetry_Int_Tables_number   1
_chemical_formula_structural   BaAl2(SiO4)2
_chemical_formula_sum   'Ba4 Al8 Si8 O32'
_cell_volume   764.37628089
_cell_formula_units_Z   4
loop_
 _symmetry_equiv_pos_site_id
 _symmetry_equiv_pos_as_xyz
  1  'x, y, z'
loop_
 _atom_site_type_symbol
 _atom_site_label
 _atom_site_symmetry_multiplicity
 _atom_site_fract_x
 _atom_site_fract_y
 _atom_site_fract_z
 _atom_site_occupancy
  O  O0  1  0.989088  0.082333  0.823719  1
  O  O1  1  0.510912  0.176281  0.917667  1
  O  O2  1  0.010912  0.917667  0.176281  1
  O  O3  1  0.489088  0.823719  0.082333  1
  O  O4  1  0.489147  0.565008  0.323225  1
  O  O5  1  0.010853  0.676775  0.434992  1
  O  O6  1  0.510853  0.434992  0.676775  1
  O  O7  1  0.989147  0.323225  0.565008  1
  O  O8  1  0.898464  0.818566  0.946989  1
  O  O9  1  0.601536  0.053011  0.181434  1
  O  O10  1  0.101536  0.181434  0.053011  1
  O  O11  1  0.398464  0.946989  0.818566  1
  O  O12  1  0.403500  0.316989  0.424131  1
  O  O13  1  0.096500  0.575869  0.683011  1
  O  O14  1  0.596500  0.683011  0.575869  1
  O  O15  1  0.903500  0.424131  0.316989  1
  O  O16  1  0.704467  0.979149  0.751289  1
  O  O17  1  0.795533  0.248711  0.020851  1
  O  O18  1  0.295533  0.020851  0.248711  1
  O  O19  1  0.204467  0.751289  0.979149  1
  O  O20  1  0.003176  0.138415  0.362544  1
  O  O21  1  0.496824  0.637456  0.861585  1
  O  O22  1  0.996824  0.861585  0.637456  1
  O  O23  1  0.503176  0.362544  0.138415  1
  O  O24  1  0.476821  0.142952  0.643132  1
  O  O25  1  0.023179  0.356868  0.857048  1
  O  O26  1  0.523179  0.857048  0.356868  1
  O  O27  1  0.976821  0.643132  0.142952  1
  O  O28  1  0.728055  0.246799  0.473626  1
  O  O29  1  0.771945  0.526374  0.753201  1
  O  O30  1  0.271945  0.753201  0.526374  1
  O  O31  1  0.228055  0.473626  0.246799  1
  Al  Al32  1  0.108562  0.066192  0.199885  1
  Al  Al33  1  0.391438  0.800115  0.933808  1
  Al  Al34  1  0.608562  0.199885  0.066192  1
  Al  Al35  1  0.891438  0.933808  0.800115  1
  Al  Al36  1  0.035157  0.551220  0.295989  1
  Al  Al37  1  0.464843  0.704011  0.448780  1
  Al  Al38  1  0.964843  0.448780  0.704011  1
  Al  Al39  1  0.535157  0.295989  0.551220  1
  Si  Si40  1  0.526210  0.059335  0.788751  1
  Si  Si41  1  0.473790  0.940665  0.211249  1
  Si  Si42  1  0.597586  0.572214  0.710268  1
  Si  Si43  1  0.973790  0.211249  0.940665  1
  Si  Si44  1  0.402414  0.427786  0.289732  1
  Si  Si45  1  0.097586  0.710268  0.572214  1
  Si  Si46  1  0.902414  0.289732  0.427786  1
  Si  Si47  1  0.026210  0.788751  0.059335  1
  Ba  Ba48  1  0.717006  0.564863  0.064076  1
  Ba  Ba49  1  0.782994  0.935924  0.435137  1
  Ba  Ba50  1  0.282994  0.435137  0.935924  1
  Ba  Ba51  1  0.217006  0.064076  0.564863  1
