# generated using pymatgen
data_TeMoWSe2S
_symmetry_space_group_name_H-M   'P 1'
_cell_length_a   3.34263069
_cell_length_b   3.34275489
_cell_length_c   38.08723058
_cell_angle_alpha   90.00008790
_cell_angle_beta   90.00000000
_cell_angle_gamma   119.99877082
_symmetry_Int_Tables_number   1
_chemical_formula_structural   TeMoWSe2S
_chemical_formula_sum   'Te2 Mo2 W2 Se4 S2'
_cell_volume   368.56011529
_cell_formula_units_Z   2
loop_
 _symmetry_equiv_pos_site_id
 _symmetry_equiv_pos_as_xyz
  1  'x, y, z'
loop_
 _atom_site_type_symbol
 _atom_site_label
 _atom_site_symmetry_multiplicity
 _atom_site_fract_x
 _atom_site_fract_y
 _atom_site_fract_z
 _atom_site_occupancy
  Te  Te0  1  0.333359  0.666720  0.331570  1
  Te  Te1  1  0.333354  0.666710  0.231942  1
  Mo  Mo2  1  0.333295  0.666590  0.093923  1
  Mo  Mo3  1  0.666694  0.333388  0.281767  1
  W  W4  1  0.333310  0.666620  0.469700  1
  W  W5  1  0.666689  0.333379  0.657532  1
  Se  Se6  1  0.333350  0.666702  0.701488  1
  Se  Se7  1  0.666649  0.333297  0.425747  1
  Se  Se8  1  0.666633  0.333265  0.513649  1
  Se  Se9  1  0.333351  0.666702  0.613585  1
  S  S10  1  0.666656  0.333311  0.054045  1
  S  S11  1  0.666659  0.333316  0.133802  1
