# generated using pymatgen
data_YSnF7
_symmetry_space_group_name_H-M   'P 1'
_cell_length_a   5.67851676
_cell_length_b   9.00543598
_cell_length_c   11.28391561
_cell_angle_alpha   107.56596797
_cell_angle_beta   90.00000000
_cell_angle_gamma   90.00000000
_symmetry_Int_Tables_number   1
_chemical_formula_structural   YSnF7
_chemical_formula_sum   'Y4 Sn4 F28'
_cell_volume   550.12453095
_cell_formula_units_Z   4
loop_
 _symmetry_equiv_pos_site_id
 _symmetry_equiv_pos_as_xyz
  1  'x, y, z'
loop_
 _atom_site_type_symbol
 _atom_site_label
 _atom_site_symmetry_multiplicity
 _atom_site_fract_x
 _atom_site_fract_y
 _atom_site_fract_z
 _atom_site_occupancy
  F  F0  1  0.545314  0.373432  0.080552  1
  F  F1  1  0.045314  0.126568  0.419448  1
  F  F2  1  0.454686  0.626568  0.919448  1
  F  F3  1  0.954686  0.873432  0.580552  1
  F  F4  1  0.550345  0.172765  0.453691  1
  F  F5  1  0.050345  0.327235  0.046309  1
  F  F6  1  0.449655  0.827235  0.546309  1
  F  F7  1  0.949655  0.672765  0.953691  1
  F  F8  1  0.228165  0.620173  0.141205  1
  F  F9  1  0.728165  0.879827  0.358795  1
  F  F10  1  0.771835  0.379827  0.858795  1
  F  F11  1  0.271835  0.120173  0.641205  1
  F  F12  1  0.241422  0.922774  0.946411  1
  F  F13  1  0.741422  0.577226  0.553589  1
  F  F14  1  0.758578  0.077226  0.053589  1
  F  F15  1  0.258578  0.422774  0.446411  1
  F  F16  1  0.020151  0.625559  0.355379  1
  F  F17  1  0.520151  0.874441  0.144621  1
  F  F18  1  0.979849  0.374441  0.644621  1
  F  F19  1  0.479849  0.125559  0.855379  1
  F  F20  1  0.959337  0.082139  0.827121  1
  F  F21  1  0.459337  0.417861  0.672879  1
  F  F22  1  0.040663  0.917861  0.172879  1
  F  F23  1  0.540663  0.582139  0.327121  1
  F  F24  1  0.576172  0.793999  0.765700  1
  F  F25  1  0.076172  0.706001  0.734300  1
  F  F26  1  0.423828  0.206001  0.234300  1
  F  F27  1  0.923828  0.293999  0.265700  1
  Y  Y28  1  0.242212  0.420780  0.234430  1
  Y  Y29  1  0.742212  0.079220  0.265570  1
  Y  Y30  1  0.757788  0.579220  0.765570  1
  Y  Y31  1  0.257788  0.920780  0.734430  1
  Sn  Sn32  1  0.243212  0.770832  0.043412  1
  Sn  Sn33  1  0.743212  0.729168  0.456588  1
  Sn  Sn34  1  0.756788  0.229168  0.956588  1
  Sn  Sn35  1  0.256788  0.270832  0.543412  1
