# generated using pymatgen
data_Er2Cu(GeO3)4
_symmetry_space_group_name_H-M   'P 1'
_cell_length_a   4.99252482
_cell_length_b   7.23443376
_cell_length_c   7.95850728
_cell_angle_alpha   66.44426908
_cell_angle_beta   87.00150585
_cell_angle_gamma   76.91083114
_symmetry_Int_Tables_number   1
_chemical_formula_structural   Er2Cu(GeO3)4
_chemical_formula_sum   'Er2 Cu1 Ge4 O12'
_cell_volume   256.41287917
_cell_formula_units_Z   1
loop_
 _symmetry_equiv_pos_site_id
 _symmetry_equiv_pos_as_xyz
  1  'x, y, z'
loop_
 _atom_site_type_symbol
 _atom_site_label
 _atom_site_symmetry_multiplicity
 _atom_site_fract_x
 _atom_site_fract_y
 _atom_site_fract_z
 _atom_site_occupancy
  O  O0  1  0.776185  0.933379  0.610064  1
  O  O1  1  0.223815  0.066621  0.389936  1
  O  O2  1  0.794982  0.574652  0.390590  1
  O  O3  1  0.205018  0.425348  0.609410  1
  O  O4  1  0.413855  0.658737  0.704677  1
  O  O5  1  0.586145  0.341263  0.295323  1
  O  O6  1  0.731682  0.688461  0.987735  1
  O  O7  1  0.742746  0.223239  0.804717  1
  O  O8  1  0.257254  0.776761  0.195283  1
  O  O9  1  0.752294  0.990616  0.204358  1
  O  O10  1  0.247706  0.009384  0.795642  1
  O  O11  1  0.268318  0.311539  0.012265  1
  Cu  Cu12  1  0.000000  0.000000  0.000000  1
  Ge  Ge13  1  0.539617  0.833295  0.773762  1
  Ge  Ge14  1  0.460383  0.166705  0.226238  1
  Ge  Ge15  1  0.582682  0.616569  0.205423  1
  Ge  Ge16  1  0.417318  0.383431  0.794577  1
  Er  Er17  1  0.045606  0.769709  0.451063  1
  Er  Er18  1  0.954394  0.230291  0.548937  1
