# generated using pymatgen
data_Te2Mo3W(Se2S)2
_symmetry_space_group_name_H-M   'P 1'
_cell_length_a   3.34698010
_cell_length_b   3.34701716
_cell_length_c   38.08762516
_cell_angle_alpha   89.99969595
_cell_angle_beta   90.00000000
_cell_angle_gamma   119.99963377
_symmetry_Int_Tables_number   1
_chemical_formula_structural   Te2Mo3W(Se2S)2
_chemical_formula_sum   'Te2 Mo3 W1 Se4 S2'
_cell_volume   369.51085180
_cell_formula_units_Z   1
loop_
 _symmetry_equiv_pos_site_id
 _symmetry_equiv_pos_as_xyz
  1  'x, y, z'
loop_
 _atom_site_type_symbol
 _atom_site_label
 _atom_site_symmetry_multiplicity
 _atom_site_fract_x
 _atom_site_fract_y
 _atom_site_fract_z
 _atom_site_occupancy
  Te  Te0  1  0.333352  0.666706  0.331852  1
  Te  Te1  1  0.333352  0.666705  0.231652  1
  Mo  Mo2  1  0.333302  0.666605  0.093912  1
  Mo  Mo3  1  0.333313  0.666625  0.469707  1
  Mo  Mo4  1  0.666689  0.333378  0.657536  1
  W  W5  1  0.666687  0.333375  0.281772  1
  Se  Se6  1  0.333358  0.666718  0.701328  1
  Se  Se7  1  0.666654  0.333307  0.425919  1
  Se  Se8  1  0.666638  0.333275  0.513478  1
  Se  Se9  1  0.333351  0.666704  0.613743  1
  S  S10  1  0.666652  0.333304  0.054079  1
  S  S11  1  0.666650  0.333299  0.133768  1
