# generated using pymatgen
data_C3N
_symmetry_space_group_name_H-M   'P 1'
_cell_length_a   4.32507127
_cell_length_b   9.12560413
_cell_length_c   4.77556746
_cell_angle_alpha   90.00000000
_cell_angle_beta   90.00000000
_cell_angle_gamma   90.00000000
_symmetry_Int_Tables_number   1
_chemical_formula_structural   C3N
_chemical_formula_sum   'C12 N4'
_cell_volume   188.48633838
_cell_formula_units_Z   4
loop_
 _symmetry_equiv_pos_site_id
 _symmetry_equiv_pos_as_xyz
  1  'x, y, z'
loop_
 _atom_site_type_symbol
 _atom_site_label
 _atom_site_symmetry_multiplicity
 _atom_site_fract_x
 _atom_site_fract_y
 _atom_site_fract_z
 _atom_site_occupancy
  C  C0  1  0.862016  0.566269  0.683286  1
  C  C1  1  0.637984  0.066269  0.316714  1
  C  C2  1  0.362016  0.433731  0.816714  1
  C  C3  1  0.137984  0.933731  0.183286  1
  C  C4  1  0.344458  0.063468  0.165191  1
  C  C5  1  0.155542  0.563468  0.834809  1
  C  C6  1  0.844458  0.936532  0.334809  1
  C  C7  1  0.655542  0.436532  0.665191  1
  C  C8  1  0.287457  0.307157  0.946994  1
  C  C9  1  0.212543  0.807157  0.053006  1
  C  C10  1  0.787457  0.692843  0.553006  1
  C  C11  1  0.712543  0.192843  0.446994  1
  N  N12  1  0.259571  0.179263  0.014812  1
  N  N13  1  0.240429  0.679263  0.985188  1
  N  N14  1  0.759571  0.820737  0.485188  1
  N  N15  1  0.740429  0.320737  0.514812  1
