# generated using pymatgen
data_Pu2C3
_symmetry_space_group_name_H-M   'P 1'
_cell_length_a   7.06058400
_cell_length_b   7.06058400
_cell_length_c   7.06058400
_cell_angle_alpha   109.47122064
_cell_angle_beta   109.47122065
_cell_angle_gamma   109.47122066
_symmetry_Int_Tables_number   1
_chemical_formula_structural   Pu2C3
_chemical_formula_sum   'Pu8 C12'
_cell_volume   270.95675418
_cell_formula_units_Z   4
loop_
 _symmetry_equiv_pos_site_id
 _symmetry_equiv_pos_as_xyz
  1  'x, y, z'
loop_
 _atom_site_type_symbol
 _atom_site_label
 _atom_site_symmetry_multiplicity
 _atom_site_fract_x
 _atom_site_fract_y
 _atom_site_fract_z
 _atom_site_occupancy
  C  C0  1  0.750000  0.789962  0.039962  1
  C  C1  1  0.750000  0.960038  0.210038  1
  C  C2  1  0.289962  0.250000  0.539962  1
  C  C3  1  0.539962  0.289962  0.250000  1
  C  C4  1  0.210038  0.750000  0.960038  1
  C  C5  1  0.960038  0.210038  0.750000  1
  C  C6  1  0.250000  0.710038  0.460038  1
  C  C7  1  0.710038  0.460038  0.250000  1
  C  C8  1  0.250000  0.539962  0.289962  1
  C  C9  1  0.460038  0.250000  0.710038  1
  C  C10  1  0.039962  0.750000  0.789962  1
  C  C11  1  0.789962  0.039962  0.750000  1
  Pu  Pu12  1  0.598633  0.598633  0.598633  1
  Pu  Pu13  1  0.401367  0.500000  0.000000  1
  Pu  Pu14  1  0.500000  0.000000  0.401367  1
  Pu  Pu15  1  0.000000  0.401367  0.500000  1
  Pu  Pu16  1  0.500000  0.000000  0.901367  1
  Pu  Pu17  1  0.000000  0.901367  0.500000  1
  Pu  Pu18  1  0.901367  0.500000  0.000000  1
  Pu  Pu19  1  0.098633  0.098633  0.098633  1
