# generated using pymatgen
data_TmAu2F9
_symmetry_space_group_name_H-M   'P 1'
_cell_length_a   9.18500664
_cell_length_b   11.21885270
_cell_length_c   21.87257418
_cell_angle_alpha   90.00000000
_cell_angle_beta   90.00000000
_cell_angle_gamma   90.00000000
_symmetry_Int_Tables_number   1
_chemical_formula_structural   TmAu2F9
_chemical_formula_sum   'Tm12 Au24 F108'
_cell_volume   2253.86458018
_cell_formula_units_Z   12
loop_
 _symmetry_equiv_pos_site_id
 _symmetry_equiv_pos_as_xyz
  1  'x, y, z'
loop_
 _atom_site_type_symbol
 _atom_site_label
 _atom_site_symmetry_multiplicity
 _atom_site_fract_x
 _atom_site_fract_y
 _atom_site_fract_z
 _atom_site_occupancy
  F  F0  1  0.500000  0.000000  0.000000  1
  F  F1  1  0.500000  0.000000  0.500000  1
  F  F2  1  0.000000  0.500000  0.000000  1
  F  F3  1  0.000000  0.500000  0.500000  1
  F  F4  1  0.365465  0.476725  0.321403  1
  F  F5  1  0.365465  0.523275  0.178597  1
  F  F6  1  0.134535  0.976725  0.678597  1
  F  F7  1  0.134535  0.023275  0.821403  1
  F  F8  1  0.634535  0.523275  0.678597  1
  F  F9  1  0.634535  0.476725  0.821403  1
  F  F10  1  0.865465  0.023275  0.321403  1
  F  F11  1  0.865465  0.976725  0.178597  1
  F  F12  1  0.298596  0.321501  0.238280  1
  F  F13  1  0.298596  0.678499  0.261720  1
  F  F14  1  0.201404  0.821501  0.761720  1
  F  F15  1  0.201404  0.178499  0.738280  1
  F  F16  1  0.701404  0.678499  0.761720  1
  F  F17  1  0.701404  0.321501  0.738280  1
  F  F18  1  0.798596  0.178499  0.238280  1
  F  F19  1  0.798596  0.821501  0.261720  1
  F  F20  1  0.733873  0.547839  0.035351  1
  F  F21  1  0.733873  0.452161  0.464649  1
  F  F22  1  0.766127  0.047839  0.964649  1
  F  F23  1  0.766127  0.952161  0.535351  1
  F  F24  1  0.266127  0.452161  0.964649  1
  F  F25  1  0.266127  0.547839  0.535351  1
  F  F26  1  0.233873  0.952161  0.035351  1
  F  F27  1  0.233873  0.047839  0.464649  1
  F  F28  1  0.911652  0.603650  0.396091  1
  F  F29  1  0.911652  0.396350  0.103909  1
  F  F30  1  0.588348  0.103650  0.603909  1
  F  F31  1  0.588348  0.896350  0.896091  1
  F  F32  1  0.088348  0.396350  0.603909  1
  F  F33  1  0.088348  0.603650  0.896091  1
  F  F34  1  0.411652  0.896350  0.396091  1
  F  F35  1  0.411652  0.103650  0.103909  1
  F  F36  1  0.004139  0.640218  0.270818  1
  F  F37  1  0.004139  0.359782  0.229182  1
  F  F38  1  0.495861  0.140218  0.729182  1
  F  F39  1  0.495861  0.859782  0.770818  1
  F  F40  1  0.995861  0.359782  0.729182  1
  F  F41  1  0.995861  0.640218  0.770818  1
  F  F42  1  0.504139  0.859782  0.270818  1
  F  F43  1  0.504139  0.140218  0.229182  1
  F  F44  1  0.308654  0.138247  0.944499  1
  F  F45  1  0.308654  0.861753  0.555501  1
  F  F46  1  0.191346  0.638247  0.055502  1
  F  F47  1  0.191346  0.361753  0.444499  1
  F  F48  1  0.691346  0.861753  0.055502  1
  F  F49  1  0.691346  0.138247  0.444499  1
  F  F50  1  0.808654  0.361753  0.944499  1
  F  F51  1  0.808654  0.638247  0.555501  1
  F  F52  1  0.085057  0.551246  0.163771  1
  F  F53  1  0.085057  0.448754  0.336229  1
  F  F54  1  0.414943  0.051246  0.836229  1
  F  F55  1  0.414943  0.948754  0.663771  1
  F  F56  1  0.914943  0.448754  0.836229  1
  F  F57  1  0.914943  0.551246  0.663771  1
  F  F58  1  0.585057  0.948754  0.163771  1
  F  F59  1  0.585057  0.051246  0.336229  1
  F  F60  1  0.220351  0.288056  0.118040  1
  F  F61  1  0.220351  0.711944  0.381960  1
  F  F62  1  0.279649  0.788056  0.881960  1
  F  F63  1  0.279649  0.211944  0.618040  1
  F  F64  1  0.779649  0.711944  0.881960  1
  F  F65  1  0.779649  0.288056  0.618040  1
  F  F66  1  0.720351  0.211944  0.118040  1
  F  F67  1  0.720351  0.788056  0.381960  1
  F  F68  1  0.503385  0.414939  0.067282  1
  F  F69  1  0.503385  0.585061  0.432718  1
  F  F70  1  0.996615  0.914939  0.932718  1
  F  F71  1  0.996615  0.085061  0.567282  1
  F  F72  1  0.496615  0.585061  0.932718  1
  F  F73  1  0.496615  0.414939  0.567282  1
  F  F74  1  0.003385  0.085061  0.067282  1
  F  F75  1  0.003385  0.914939  0.432718  1
  F  F76  1  0.630771  0.424435  0.200140  1
  F  F77  1  0.630771  0.575565  0.299860  1
  F  F78  1  0.869229  0.924435  0.799860  1
  F  F79  1  0.869229  0.075565  0.700140  1
  F  F80  1  0.369229  0.575565  0.799860  1
  F  F81  1  0.369229  0.424435  0.700140  1
  F  F82  1  0.130771  0.075565  0.200140  1
  F  F83  1  0.130771  0.924435  0.299860  1
  F  F84  1  0.496605  0.724846  0.127054  1
  F  F85  1  0.496605  0.275154  0.372946  1
  F  F86  1  0.003395  0.224846  0.872946  1
  F  F87  1  0.003395  0.775154  0.627054  1
  F  F88  1  0.503395  0.275154  0.872946  1
  F  F89  1  0.503395  0.724846  0.627054  1
  F  F90  1  0.996605  0.775154  0.127054  1
  F  F91  1  0.996605  0.224846  0.372946  1
  F  F92  1  0.773809  0.621915  0.151276  1
  F  F93  1  0.773809  0.378085  0.348724  1
  F  F94  1  0.726191  0.121915  0.848724  1
  F  F95  1  0.726191  0.878085  0.651276  1
  F  F96  1  0.226191  0.378085  0.848724  1
  F  F97  1  0.226191  0.621915  0.651276  1
  F  F98  1  0.273809  0.878085  0.151276  1
  F  F99  1  0.273809  0.121915  0.348724  1
  F  F100  1  0.579093  0.232899  0.988353  1
  F  F101  1  0.579093  0.767101  0.511647  1
  F  F102  1  0.920907  0.732899  0.011647  1
  F  F103  1  0.920907  0.267101  0.488353  1
  F  F104  1  0.420907  0.767101  0.011647  1
  F  F105  1  0.420907  0.232899  0.488353  1
  F  F106  1  0.079093  0.267101  0.988353  1
  F  F107  1  0.079093  0.732899  0.511647  1
  Tm  Tm108  1  0.677180  0.000000  0.250000  1
  Tm  Tm109  1  0.822820  0.500000  0.750000  1
  Tm  Tm110  1  0.322820  0.000000  0.750000  1
  Tm  Tm111  1  0.177180  0.500000  0.250000  1
  Tm  Tm112  1  0.460785  0.093203  0.416378  1
  Tm  Tm113  1  0.460785  0.906797  0.083622  1
  Tm  Tm114  1  0.039215  0.593203  0.583622  1
  Tm  Tm115  1  0.039215  0.406797  0.916378  1
  Tm  Tm116  1  0.539215  0.906797  0.583622  1
  Tm  Tm117  1  0.539215  0.093203  0.916378  1
  Tm  Tm118  1  0.960785  0.406797  0.416378  1
  Tm  Tm119  1  0.960785  0.593203  0.083622  1
  Au  Au120  1  0.840234  0.890499  0.990976  1
  Au  Au121  1  0.840234  0.109501  0.509024  1
  Au  Au122  1  0.659766  0.390499  0.009024  1
  Au  Au123  1  0.659766  0.609501  0.490976  1
  Au  Au124  1  0.159766  0.109501  0.009024  1
  Au  Au125  1  0.159766  0.890499  0.490976  1
  Au  Au126  1  0.340234  0.609501  0.990976  1
  Au  Au127  1  0.340234  0.390499  0.509024  1
  Au  Au128  1  0.567628  0.574712  0.164808  1
  Au  Au129  1  0.567628  0.425288  0.335192  1
  Au  Au130  1  0.932372  0.074712  0.835192  1
  Au  Au131  1  0.932372  0.925288  0.664808  1
  Au  Au132  1  0.432372  0.425288  0.835192  1
  Au  Au133  1  0.432372  0.574712  0.664808  1
  Au  Au134  1  0.067628  0.925288  0.164808  1
  Au  Au135  1  0.067628  0.074712  0.335192  1
  Au  Au136  1  0.861494  0.714065  0.328497  1
  Au  Au137  1  0.861494  0.285935  0.171503  1
  Au  Au138  1  0.638506  0.214065  0.671503  1
  Au  Au139  1  0.638506  0.785935  0.828497  1
  Au  Au140  1  0.138506  0.285935  0.671503  1
  Au  Au141  1  0.138506  0.714065  0.828497  1
  Au  Au142  1  0.361494  0.785935  0.328497  1
  Au  Au143  1  0.361494  0.214065  0.171503  1
