# generated using pymatgen
data_Pr3Co29(Si2B5)2
_symmetry_space_group_name_H-M   'P 1'
_cell_length_a   7.86430622
_cell_length_b   11.19757522
_cell_length_c   11.19757522
_cell_angle_alpha   90.00000000
_cell_angle_beta   90.00000000
_cell_angle_gamma   90.00000000
_symmetry_Int_Tables_number   1
_chemical_formula_structural   Pr3Co29(Si2B5)2
_chemical_formula_sum   'Pr6 Co58 Si8 B20'
_cell_volume   986.07146812
_cell_formula_units_Z   2
loop_
 _symmetry_equiv_pos_site_id
 _symmetry_equiv_pos_as_xyz
  1  'x, y, z'
loop_
 _atom_site_type_symbol
 _atom_site_label
 _atom_site_symmetry_multiplicity
 _atom_site_fract_x
 _atom_site_fract_y
 _atom_site_fract_z
 _atom_site_occupancy
  B  B0  1  0.517490  0.936082  0.936082  1
  B  B1  1  0.517490  0.563918  0.563918  1
  B  B2  1  0.517490  0.936082  0.563918  1
  B  B3  1  0.517490  0.563918  0.936082  1
  B  B4  1  0.482510  0.436082  0.436082  1
  B  B5  1  0.482510  0.063918  0.436082  1
  B  B6  1  0.261592  0.005881  0.750000  1
  B  B7  1  0.261592  0.494119  0.750000  1
  B  B8  1  0.261592  0.750000  0.494119  1
  B  B9  1  0.261592  0.750000  0.005881  1
  B  B10  1  0.738408  0.250000  0.505881  1
  B  B11  1  0.738408  0.994119  0.250000  1
  B  B12  1  0.738408  0.505881  0.250000  1
  B  B13  1  0.738408  0.250000  0.994119  1
  B  B14  1  0.147691  0.750000  0.750000  1
  B  B15  1  0.852309  0.250000  0.250000  1
  B  B16  1  0.893407  0.750000  0.750000  1
  B  B17  1  0.106593  0.250000  0.250000  1
  B  B18  1  0.482510  0.436082  0.063918  1
  B  B19  1  0.482510  0.063918  0.063918  1
  Si  Si20  1  0.824372  0.431223  0.750000  1
  Si  Si21  1  0.175628  0.250000  0.568777  1
  Si  Si22  1  0.175628  0.931223  0.250000  1
  Si  Si23  1  0.175628  0.568777  0.250000  1
  Si  Si24  1  0.175628  0.250000  0.931223  1
  Si  Si25  1  0.824372  0.750000  0.431223  1
  Si  Si26  1  0.824372  0.750000  0.068777  1
  Si  Si27  1  0.824372  0.068777  0.750000  1
  Co  Co28  1  0.337468  0.424979  0.588141  1
  Co  Co29  1  0.525145  0.750000  0.524725  1
  Co  Co30  1  0.525145  0.524725  0.750000  1
  Co  Co31  1  0.525145  0.975275  0.750000  1
  Co  Co32  1  0.971537  0.250000  0.086162  1
  Co  Co33  1  0.971537  0.413838  0.250000  1
  Co  Co34  1  0.971537  0.086162  0.250000  1
  Co  Co35  1  0.971537  0.250000  0.413838  1
  Co  Co36  1  0.028463  0.750000  0.913838  1
  Co  Co37  1  0.028463  0.750000  0.586162  1
  Co  Co38  1  0.028463  0.586162  0.750000  1
  Co  Co39  1  0.028463  0.913838  0.750000  1
  Co  Co40  1  0.253182  0.136442  0.136442  1
  Co  Co41  1  0.253182  0.363558  0.136442  1
  Co  Co42  1  0.253182  0.136442  0.363558  1
  Co  Co43  1  0.253182  0.363558  0.363558  1
  Co  Co44  1  0.746818  0.636442  0.863558  1
  Co  Co45  1  0.746818  0.863558  0.636442  1
  Co  Co46  1  0.746818  0.636442  0.636442  1
  Co  Co47  1  0.746818  0.863558  0.863558  1
  Co  Co48  1  0.697950  0.140672  0.140672  1
  Co  Co49  1  0.697950  0.359328  0.140672  1
  Co  Co50  1  0.697950  0.140672  0.359328  1
  Co  Co51  1  0.697950  0.359328  0.359328  1
  Co  Co52  1  0.302050  0.640672  0.859328  1
  Co  Co53  1  0.302050  0.859328  0.640672  1
  Co  Co54  1  0.302050  0.640672  0.640672  1
  Co  Co55  1  0.302050  0.859328  0.859328  1
  Co  Co56  1  0.337468  0.075021  0.588141  1
  Co  Co57  1  0.337468  0.911859  0.075021  1
  Co  Co58  1  0.337468  0.588141  0.424979  1
  Co  Co59  1  0.337468  0.424979  0.911859  1
  Co  Co60  1  0.662532  0.575021  0.411859  1
  Co  Co61  1  0.662532  0.924979  0.088141  1
  Co  Co62  1  0.662532  0.088141  0.575021  1
  Co  Co63  1  0.888791  0.250000  0.860082  1
  Co  Co64  1  0.662532  0.924979  0.411859  1
  Co  Co65  1  0.662532  0.088141  0.924979  1
  Co  Co66  1  0.662532  0.411859  0.575021  1
  Co  Co67  1  0.662532  0.575021  0.088141  1
  Co  Co68  1  0.525145  0.750000  0.975275  1
  Co  Co69  1  0.888791  0.639918  0.250000  1
  Co  Co70  1  0.337468  0.911859  0.424979  1
  Co  Co71  1  0.337468  0.588141  0.075021  1
  Co  Co72  1  0.888791  0.860082  0.250000  1
  Co  Co73  1  0.888791  0.250000  0.639918  1
  Co  Co74  1  0.530899  0.750000  0.750000  1
  Co  Co75  1  0.469101  0.250000  0.250000  1
  Co  Co76  1  0.111209  0.750000  0.360082  1
  Co  Co77  1  0.474855  0.250000  0.475275  1
  Co  Co78  1  0.474855  0.024725  0.250000  1
  Co  Co79  1  0.474855  0.475275  0.250000  1
  Co  Co80  1  0.474855  0.250000  0.024725  1
  Co  Co81  1  0.111209  0.360082  0.750000  1
  Co  Co82  1  0.111209  0.139918  0.750000  1
  Co  Co83  1  0.111209  0.750000  0.139918  1
  Co  Co84  1  0.662532  0.411859  0.924979  1
  Co  Co85  1  0.337468  0.075021  0.911859  1
  Pr  Pr86  1  0.000000  0.500000  0.500000  1
  Pr  Pr87  1  0.000000  0.000000  0.500000  1
  Pr  Pr88  1  0.000000  0.500000  0.000000  1
  Pr  Pr89  1  0.000000  0.000000  0.000000  1
  Pr  Pr90  1  0.500000  0.750000  0.250000  1
  Pr  Pr91  1  0.500000  0.250000  0.750000  1
