# generated using pymatgen
data_AgRuF7
_symmetry_space_group_name_H-M   'P 1'
_cell_length_a   5.66735865
_cell_length_b   8.61592916
_cell_length_c   12.51127788
_cell_angle_alpha   108.48785443
_cell_angle_beta   90.00000000
_cell_angle_gamma   90.00000000
_symmetry_Int_Tables_number   1
_chemical_formula_structural   AgRuF7
_chemical_formula_sum   'Ag4 Ru4 F28'
_cell_volume   579.39115768
_cell_formula_units_Z   4
loop_
 _symmetry_equiv_pos_site_id
 _symmetry_equiv_pos_as_xyz
  1  'x, y, z'
loop_
 _atom_site_type_symbol
 _atom_site_label
 _atom_site_symmetry_multiplicity
 _atom_site_fract_x
 _atom_site_fract_y
 _atom_site_fract_z
 _atom_site_occupancy
  F  F0  1  0.418857  0.278947  0.260150  1
  F  F1  1  0.918857  0.221053  0.239850  1
  F  F2  1  0.581143  0.721053  0.739850  1
  F  F3  1  0.081143  0.778947  0.760150  1
  F  F4  1  0.617194  0.132828  0.447315  1
  F  F5  1  0.117194  0.367172  0.052685  1
  F  F6  1  0.382806  0.867172  0.552685  1
  F  F7  1  0.882806  0.632828  0.947315  1
  F  F8  1  0.537187  0.927354  0.189157  1
  F  F9  1  0.037187  0.572646  0.310843  1
  F  F10  1  0.462813  0.072646  0.810844  1
  F  F11  1  0.962813  0.427354  0.689156  1
  F  F12  1  -0.001054  0.846582  0.150017  1
  F  F13  1  0.498946  0.653418  0.349983  1
  F  F14  1  1.001054  0.153418  0.849983  1
  F  F15  1  0.501054  0.346582  0.650017  1
  F  F16  1  0.750514  0.945252  0.998956  1
  F  F17  1  0.250514  0.554748  0.501044  1
  F  F18  1  0.249486  0.054748  0.001044  1
  F  F19  1  0.749486  0.445252  0.498956  1
  F  F20  1  0.675213  0.614338  0.134951  1
  F  F21  1  0.175213  0.885662  0.365049  1
  F  F22  1  0.324787  0.385662  0.865049  1
  F  F23  1  0.824787  0.114338  0.634951  1
  F  F24  1  0.425957  0.714517  0.986094  1
  F  F25  1  0.925957  0.785483  0.513906  1
  F  F26  1  0.574043  0.285483  0.013906  1
  F  F27  1  0.074043  0.214517  0.486094  1
  Ru  Ru28  1  0.790841  0.275136  0.563815  1
  Ru  Ru29  1  0.290841  0.224864  0.936185  1
  Ru  Ru30  1  0.209159  0.724864  0.436185  1
  Ru  Ru31  1  0.709159  0.775136  0.063815  1
  Ag  Ag32  1  0.710278  0.429303  0.289802  1
  Ag  Ag33  1  0.210278  0.070697  0.210198  1
  Ag  Ag34  1  0.289722  0.570697  0.710198  1
  Ag  Ag35  1  0.789722  0.929303  0.789802  1
