# generated using pymatgen
data_Te2W2SeS
_symmetry_space_group_name_H-M   'P 1'
_cell_length_a   3.39817431
_cell_length_b   3.39815955
_cell_length_c   38.84726069
_cell_angle_alpha   90.00044629
_cell_angle_beta   90.00000000
_cell_angle_gamma   120.00014380
_symmetry_Int_Tables_number   1
_chemical_formula_structural   Te2W2SeS
_chemical_formula_sum   'Te4 W4 Se2 S2'
_cell_volume   388.48997863
_cell_formula_units_Z   2
loop_
 _symmetry_equiv_pos_site_id
 _symmetry_equiv_pos_as_xyz
  1  'x, y, z'
loop_
 _atom_site_type_symbol
 _atom_site_label
 _atom_site_symmetry_multiplicity
 _atom_site_fract_x
 _atom_site_fract_y
 _atom_site_fract_z
 _atom_site_occupancy
  Te  Te0  1  0.333364  0.666730  0.330263  1
  Te  Te1  1  0.333360  0.666721  0.706019  1
  Te  Te2  1  0.333351  0.666702  0.233302  1
  Te  Te3  1  0.333356  0.666714  0.609059  1
  W  W4  1  0.333311  0.666621  0.093936  1
  W  W5  1  0.333311  0.666622  0.469660  1
  W  W6  1  0.666696  0.333391  0.281794  1
  W  W7  1  0.666690  0.333381  0.657552  1
  Se  Se8  1  0.666621  0.333241  0.427054  1
  Se  Se9  1  0.666648  0.333296  0.512252  1
  S  S10  1  0.666645  0.333288  0.055122  1
  S  S11  1  0.666647  0.333293  0.132736  1
