# generated using pymatgen
data_Li2SiSnS4
_symmetry_space_group_name_H-M   'P 1'
_cell_length_a   5.98892389
_cell_length_b   5.98892448
_cell_length_c   5.98892409
_cell_angle_alpha   99.62946843
_cell_angle_beta   114.60512407
_cell_angle_gamma   114.60512514
_symmetry_Int_Tables_number   1
_chemical_formula_structural   Li2SiSnS4
_chemical_formula_sum   'Li2 Si1 Sn1 S4'
_cell_volume   161.79142323
_cell_formula_units_Z   1
loop_
 _symmetry_equiv_pos_site_id
 _symmetry_equiv_pos_as_xyz
  1  'x, y, z'
loop_
 _atom_site_type_symbol
 _atom_site_label
 _atom_site_symmetry_multiplicity
 _atom_site_fract_x
 _atom_site_fract_y
 _atom_site_fract_z
 _atom_site_occupancy
  Li  Li0  1  0.500000  0.250000  0.750000  1
  Li  Li1  1  0.500000  0.750000  0.250000  1
  Si  Si2  1  0.000000  0.500000  0.500000  1
  Sn  Sn3  1  0.000000  0.000000  0.000000  1
  S  S4  1  0.616017  0.466311  0.466311  1
  S  S5  1  0.000000  0.533689  0.149706  1
  S  S6  1  1.000000  0.149706  0.533689  1
  S  S7  1  0.383983  0.850294  0.850294  1
