# generated using pymatgen
data_Li3V2(PO4)3
_symmetry_space_group_name_H-M   'P 1'
_cell_length_a   8.76016456
_cell_length_b   8.77445856
_cell_length_c   12.23000539
_cell_angle_alpha   90.54918948
_cell_angle_beta   90.00000000
_cell_angle_gamma   90.00000000
_symmetry_Int_Tables_number   1
_chemical_formula_structural   Li3V2(PO4)3
_chemical_formula_sum   'Li12 V8 P12 O48'
_cell_volume   940.02475272
_cell_formula_units_Z   4
loop_
 _symmetry_equiv_pos_site_id
 _symmetry_equiv_pos_as_xyz
  1  'x, y, z'
loop_
 _atom_site_type_symbol
 _atom_site_label
 _atom_site_symmetry_multiplicity
 _atom_site_fract_x
 _atom_site_fract_y
 _atom_site_fract_z
 _atom_site_occupancy
  Li  Li0  1  0.197134  0.431650  0.742571  1
  Li  Li1  1  0.697135  0.068350  0.757429  1
  Li  Li2  1  0.802866  0.568350  0.257429  1
  Li  Li3  1  0.302866  0.931650  0.242571  1
  Li  Li4  1  0.083958  0.079781  0.698428  1
  Li  Li5  1  0.583958  0.420219  0.801573  1
  Li  Li6  1  0.916043  0.920219  0.301573  1
  Li  Li7  1  0.416042  0.579781  0.198427  1
  Li  Li8  1  0.227911  0.792579  0.821764  1
  Li  Li9  1  0.727911  0.707421  0.678236  1
  Li  Li10  1  0.772089  0.207421  0.178235  1
  Li  Li11  1  0.272089  0.292579  0.321765  1
  O  O12  1  0.219636  0.143001  0.817716  1
  O  O13  1  0.719637  0.356999  0.682284  1
  O  O14  1  0.780364  0.856999  0.182284  1
  O  O15  1  0.280364  0.643001  0.317716  1
  O  O16  1  0.238650  0.657537  0.687177  1
  O  O17  1  0.738650  0.842462  0.812823  1
  O  O18  1  0.761350  0.342462  0.312823  1
  O  O19  1  0.261350  0.157537  0.187177  1
  O  O20  1  0.364403  0.114148  0.570561  1
  O  O21  1  0.864403  0.385853  0.929439  1
  O  O22  1  0.635598  0.885853  0.429439  1
  O  O23  1  0.135597  0.614148  0.070561  1
  O  O24  1  0.333813  0.664993  0.928996  1
  O  O25  1  0.833814  0.835007  0.571004  1
  O  O26  1  0.666187  0.335007  0.071003  1
  O  O27  1  0.166187  0.164993  0.428996  1
  O  O28  1  0.179660  0.430629  0.906127  1
  O  O29  1  0.679661  0.069371  0.593873  1
  O  O30  1  0.820340  0.569371  0.093874  1
  O  O31  1  0.320340  0.930629  0.406126  1
  O  O32  1  0.135883  0.952439  0.568989  1
  O  O33  1  0.635883  0.547560  0.931011  1
  O  O34  1  0.864118  0.047560  0.431012  1
  O  O35  1  0.364118  0.452439  0.068989  1
  O  O36  1  0.414662  0.151709  0.970887  1
  O  O37  1  0.914663  0.348290  0.529113  1
  O  O38  1  0.585338  0.848290  0.029113  1
  O  O39  1  0.085338  0.651709  0.470887  1
  O  O40  1  0.445533  0.663570  0.538366  1
  O  O41  1  0.945532  0.836430  0.961634  1
  O  O42  1  0.554467  0.336430  0.461634  1
  O  O43  1  0.054467  0.163570  0.038367  1
  O  O44  1  0.006493  0.310487  0.720218  1
  O  O45  1  0.506493  0.189514  0.779782  1
  O  O46  1  0.993508  0.689514  0.279782  1
  O  O47  1  0.493507  0.810487  0.220218  1
  O  O48  1  0.023428  0.845448  0.764657  1
  O  O49  1  0.523428  0.654553  0.735343  1
  O  O50  1  0.976572  0.154553  0.235344  1
  O  O51  1  0.476572  0.345448  0.264657  1
  O  O52  1  0.394216  0.427121  0.657152  1
  O  O53  1  0.894216  0.072879  0.842848  1
  O  O54  1  0.605785  0.572879  0.342848  1
  O  O55  1  0.105784  0.927121  0.157152  1
  O  O56  1  0.407369  0.930068  0.835229  1
  O  O57  1  0.907370  0.569933  0.664771  1
  O  O58  1  0.592631  0.069932  0.164771  1
  O  O59  1  0.092631  0.430068  0.335229  1
  P  P60  1  0.251632  0.538030  0.993485  1
  P  P61  1  0.751632  0.961971  0.506515  1
  P  P62  1  0.748368  0.461971  0.006514  1
  P  P63  1  0.248368  0.038030  0.493485  1
  P  P64  1  0.386716  0.104115  0.852141  1
  P  P65  1  0.886716  0.395884  0.647859  1
  P  P66  1  0.613284  0.895884  0.147859  1
  P  P67  1  0.113284  0.604115  0.352140  1
  P  P68  1  0.400211  0.604555  0.649169  1
  P  P69  1  0.900211  0.895445  0.850831  1
  P  P70  1  0.599789  0.395445  0.350831  1
  P  P71  1  0.099790  0.104555  0.149168  1
  V  V72  1  0.032735  0.252377  0.889795  1
  V  V73  1  0.532735  0.247623  0.610204  1
  V  V74  1  0.967264  0.747623  0.110204  1
  V  V75  1  0.467264  0.752377  0.389796  1
  V  V76  1  0.041597  0.748352  0.610915  1
  V  V77  1  0.541597  0.751648  0.889085  1
  V  V78  1  0.958402  0.251648  0.389086  1
  V  V79  1  0.458402  0.248352  0.110914  1
