# generated using pymatgen
data_SmNbO4
_symmetry_space_group_name_H-M   'P 1'
_cell_length_a   5.19860197
_cell_length_b   5.47732102
_cell_length_c   6.71234220
_cell_angle_alpha   112.01509008
_cell_angle_beta   110.62839481
_cell_angle_gamma   94.91425619
_symmetry_Int_Tables_number   1
_chemical_formula_structural   SmNbO4
_chemical_formula_sum   'Sm2 Nb2 O8'
_cell_volume   160.52679829
_cell_formula_units_Z   2
loop_
 _symmetry_equiv_pos_site_id
 _symmetry_equiv_pos_as_xyz
  1  'x, y, z'
loop_
 _atom_site_type_symbol
 _atom_site_label
 _atom_site_symmetry_multiplicity
 _atom_site_fract_x
 _atom_site_fract_y
 _atom_site_fract_z
 _atom_site_occupancy
  O  O0  1  0.991358  0.787652  0.563663  1
  O  O1  1  0.572270  0.275976  0.563639  1
  O  O2  1  0.008642  0.212349  0.436337  1
  O  O3  1  0.427730  0.724026  0.436362  1
  O  O4  1  0.204498  0.363189  0.916799  1
  O  O5  1  0.712234  0.053619  0.916796  1
  O  O6  1  0.287766  0.946380  0.083204  1
  O  O7  1  0.795501  0.636809  0.083200  1
  Nb  Nb8  1  0.853226  0.103250  0.706552  1
  Nb  Nb9  1  0.146772  0.896750  0.293448  1
  Sm  Sm10  1  0.379687  0.629689  0.759430  1
  Sm  Sm11  1  0.620314  0.370312  0.240571  1
