# generated using pymatgen
data_GdAlGe
_symmetry_space_group_name_H-M   'P 1'
_cell_length_a   4.19531206
_cell_length_b   4.19531206
_cell_length_c   7.92431422
_cell_angle_alpha   105.34980273
_cell_angle_beta   105.34980273
_cell_angle_gamma   90.00000000
_symmetry_Int_Tables_number   1
_chemical_formula_structural   GdAlGe
_chemical_formula_sum   'Gd2 Al2 Ge2'
_cell_volume   129.33112004
_cell_formula_units_Z   2
loop_
 _symmetry_equiv_pos_site_id
 _symmetry_equiv_pos_as_xyz
  1  'x, y, z'
loop_
 _atom_site_type_symbol
 _atom_site_label
 _atom_site_symmetry_multiplicity
 _atom_site_fract_x
 _atom_site_fract_y
 _atom_site_fract_z
 _atom_site_occupancy
  Gd  Gd0  1  0.581398  0.581398  0.162796  1
  Gd  Gd1  1  0.831398  0.331398  0.662796  1
  Al  Al2  1  0.165308  0.165308  0.330616  1
  Al  Al3  1  0.415308  0.915308  0.830616  1
  Ge  Ge4  1  0.000294  0.000294  0.000588  1
  Ge  Ge5  1  0.250294  0.750294  0.500588  1
