# generated using pymatgen
data_H4PbI3N
_symmetry_space_group_name_H-M   'P 1'
_cell_length_a   6.36680010
_cell_length_b   6.36649279
_cell_length_c   6.37402789
_cell_angle_alpha   90.72042294
_cell_angle_beta   90.66753136
_cell_angle_gamma   90.53109637
_symmetry_Int_Tables_number   1
_chemical_formula_structural   H4PbI3N
_chemical_formula_sum   'H4 Pb1 I3 N1'
_cell_volume   258.31662652
_cell_formula_units_Z   1
loop_
 _symmetry_equiv_pos_site_id
 _symmetry_equiv_pos_as_xyz
  1  'x, y, z'
loop_
 _atom_site_type_symbol
 _atom_site_label
 _atom_site_symmetry_multiplicity
 _atom_site_fract_x
 _atom_site_fract_y
 _atom_site_fract_z
 _atom_site_occupancy
  H  H0  1  0.897596  0.894892  0.057881  1
  H  H1  1  0.967454  0.150600  0.048129  1
  H  H2  1  0.996702  0.993916  0.835440  1
  H  H3  1  0.153453  0.964085  0.047775  1
  Pb  Pb4  1  0.496958  0.496258  0.506517  1
  I  I5  1  0.491096  0.490501  0.006181  1
  I  I6  1  0.508601  0.996634  0.502653  1
  I  I7  1  0.997340  0.508217  0.503206  1
  N  N8  1  0.003802  0.000897  0.997219  1
