# generated using pymatgen
data_MoW2(SeS2)2
_symmetry_space_group_name_H-M   'P 1'
_cell_length_a   3.23112214
_cell_length_b   3.23113140
_cell_length_c   29.67212274
_cell_angle_alpha   89.99966142
_cell_angle_beta   89.99998966
_cell_angle_gamma   119.99987652
_symmetry_Int_Tables_number   1
_chemical_formula_structural   MoW2(SeS2)2
_chemical_formula_sum   'Mo1 W2 Se2 S4'
_cell_volume   268.27968235
_cell_formula_units_Z   1
loop_
 _symmetry_equiv_pos_site_id
 _symmetry_equiv_pos_as_xyz
  1  'x, y, z'
loop_
 _atom_site_type_symbol
 _atom_site_label
 _atom_site_symmetry_multiplicity
 _atom_site_fract_x
 _atom_site_fract_y
 _atom_site_fract_z
 _atom_site_occupancy
  Mo  Mo0  1  0.333307  0.666614  0.115617  1
  W  W1  1  0.333307  0.666614  0.578334  1
  W  W2  1  0.666692  0.333384  0.346998  1
  Se  Se3  1  0.666651  0.333301  0.058130  1
  Se  Se4  1  0.666643  0.333286  0.173084  1
  S  S5  1  0.333355  0.666709  0.399464  1
  S  S6  1  0.666647  0.333293  0.525865  1
  S  S7  1  0.666644  0.333287  0.630810  1
  S  S8  1  0.333355  0.666711  0.294539  1
