# generated using pymatgen
data_BaCo2(PO4)2
_symmetry_space_group_name_H-M   'P 1'
_cell_length_a   8.48259804
_cell_length_b   8.48228379
_cell_length_c   8.44835758
_cell_angle_alpha   33.47382452
_cell_angle_beta   33.66735865
_cell_angle_gamma   33.60821066
_symmetry_Int_Tables_number   1
_chemical_formula_structural   BaCo2(PO4)2
_chemical_formula_sum   'Ba1 Co2 P2 O8'
_cell_volume   165.67141927
_cell_formula_units_Z   1
loop_
 _symmetry_equiv_pos_site_id
 _symmetry_equiv_pos_as_xyz
  1  'x, y, z'
loop_
 _atom_site_type_symbol
 _atom_site_label
 _atom_site_symmetry_multiplicity
 _atom_site_fract_x
 _atom_site_fract_y
 _atom_site_fract_z
 _atom_site_occupancy
  Ba  Ba0  1  1.000014  0.999932  0.999997  1
  Co  Co1  1  0.170610  0.167932  0.169021  1
  Co  Co2  1  0.829037  0.832189  0.831242  1
  P  P3  1  0.571987  0.574291  0.572524  1
  P  P4  1  0.427964  0.425744  0.427479  1
  O  O5  1  0.150512  0.437319  0.757730  1
  O  O6  1  0.637055  0.636703  0.636674  1
  O  O7  1  0.362922  0.363093  0.363543  1
  O  O8  1  0.440359  0.754519  0.150006  1
  O  O9  1  0.849603  0.562929  0.242043  1
  O  O10  1  0.242010  0.853628  0.560894  1
  O  O11  1  0.758054  0.146319  0.439112  1
  O  O12  1  0.559873  0.245402  0.849735  1
