# generated using pymatgen
data_NaMo3P3O13
_symmetry_space_group_name_H-M   'P 1'
_cell_length_a   6.68194426
_cell_length_b   7.63028694
_cell_length_c   10.90770123
_cell_angle_alpha   99.02003624
_cell_angle_beta   90.00000000
_cell_angle_gamma   90.00000000
_symmetry_Int_Tables_number   1
_chemical_formula_structural   NaMo3P3O13
_chemical_formula_sum   'Na2 Mo6 P6 O26'
_cell_volume   549.25345569
_cell_formula_units_Z   2
loop_
 _symmetry_equiv_pos_site_id
 _symmetry_equiv_pos_as_xyz
  1  'x, y, z'
loop_
 _atom_site_type_symbol
 _atom_site_label
 _atom_site_symmetry_multiplicity
 _atom_site_fract_x
 _atom_site_fract_y
 _atom_site_fract_z
 _atom_site_occupancy
  Na  Na0  1  0.750000  0.654478  0.190160  1
  Na  Na1  1  0.250000  0.345522  0.809840  1
  Mo  Mo2  1  0.250000  0.353903  0.206029  1
  Mo  Mo3  1  0.750000  0.646097  0.793971  1
  Mo  Mo4  1  0.250000  0.766490  0.448167  1
  Mo  Mo5  1  0.500000  0.000000  0.000000  1
  Mo  Mo6  1  0.750000  0.233510  0.551833  1
  Mo  Mo7  1  0.000000  -0.000000  -0.000000  1
  P  P8  1  0.250000  0.216197  0.487458  1
  P  P9  1  0.750000  0.783803  0.512542  1
  P  P10  1  0.250000  0.747781  0.768870  1
  P  P11  1  0.750000  0.252219  0.231130  1
  P  P12  1  0.750000  0.315141  0.880634  1
  P  P13  1  0.250000  0.684859  0.119366  1
  O  O14  1  0.750000  0.355822  0.742902  1
  O  O15  1  0.565433  0.744187  0.428273  1
  O  O16  1  0.250000  0.815263  0.644968  1
  O  O17  1  0.556677  0.216453  0.902802  1
  O  O18  1  0.750000  0.649799  0.609263  1
  O  O19  1  0.750000  0.871055  0.901269  1
  O  O20  1  0.250000  0.350201  0.390737  1
  O  O21  1  0.056677  0.783547  0.097198  1
  O  O22  1  0.250000  0.027148  0.411728  1
  O  O23  1  0.750000  0.972852  0.588272  1
  O  O24  1  0.066420  0.634288  0.790801  1
  O  O25  1  0.250000  0.128945  0.098731  1
  O  O26  1  0.566420  0.365712  0.209199  1
  O  O27  1  0.750000  0.510192  0.949238  1
  O  O28  1  0.750000  0.184737  0.355032  1
  O  O29  1  0.443323  0.783547  0.097198  1
  O  O30  1  0.934567  0.744187  0.428273  1
  O  O31  1  0.434567  0.255813  0.571727  1
  O  O32  1  0.433580  0.634288  0.790801  1
  O  O33  1  0.250000  0.644178  0.257098  1
  O  O34  1  0.750000  0.081954  0.124862  1
  O  O35  1  0.250000  0.918046  0.875138  1
  O  O36  1  0.933580  0.365712  0.209199  1
  O  O37  1  0.943323  0.216453  0.902802  1
  O  O38  1  0.065433  0.255813  0.571727  1
  O  O39  1  0.250000  0.489808  0.050762  1
