# generated using pymatgen
data_Sr2CoWO6
_symmetry_space_group_name_H-M   'P 1'
_cell_length_a   5.67910320
_cell_length_b   5.71113765
_cell_length_c   7.87021562
_cell_angle_alpha   89.87226523
_cell_angle_beta   89.87150646
_cell_angle_gamma   87.81688519
_symmetry_Int_Tables_number   1
_chemical_formula_structural   Sr2CoWO6
_chemical_formula_sum   'Sr4 Co2 W2 O12'
_cell_volume   255.07717324
_cell_formula_units_Z   2
loop_
 _symmetry_equiv_pos_site_id
 _symmetry_equiv_pos_as_xyz
  1  'x, y, z'
loop_
 _atom_site_type_symbol
 _atom_site_label
 _atom_site_symmetry_multiplicity
 _atom_site_fract_x
 _atom_site_fract_y
 _atom_site_fract_z
 _atom_site_occupancy
  Sr  Sr0  1  0.510364  0.998264  0.750830  1
  Sr  Sr1  1  0.986088  0.498982  0.250298  1
  Sr  Sr2  1  0.013912  0.501018  0.749702  1
  Sr  Sr3  1  0.489636  0.001736  0.249170  1
  Co  Co4  1  0.500000  0.500000  0.500000  1
  Co  Co5  1  0.000000  0.000000  0.000000  1
  W  W6  1  0.500000  0.500000  0.000000  1
  W  W7  1  0.000000  0.000000  0.500000  1
  O  O8  1  0.753549  0.718411  0.973362  1
  O  O9  1  0.263716  0.773974  0.527437  1
  O  O10  1  0.729494  0.238736  0.026198  1
  O  O11  1  0.495440  0.449530  0.754520  1
  O  O12  1  0.994566  0.052146  0.745030  1
  O  O13  1  0.005434  0.947854  0.254970  1
  O  O14  1  0.270506  0.761264  0.973802  1
  O  O15  1  0.219136  0.252601  0.473441  1
  O  O16  1  0.736284  0.226026  0.472563  1
  O  O17  1  0.504560  0.550470  0.245480  1
  O  O18  1  0.246451  0.281589  0.026638  1
  O  O19  1  0.780864  0.747399  0.526559  1
