# generated using pymatgen
data_TeMoWSeS2
_symmetry_space_group_name_H-M   'P 1'
_cell_length_a   3.30649325
_cell_length_b   3.30665742
_cell_length_c   37.60560073
_cell_angle_alpha   89.99996247
_cell_angle_beta   90.00000000
_cell_angle_gamma   119.99835756
_symmetry_Int_Tables_number   1
_chemical_formula_structural   TeMoWSeS2
_chemical_formula_sum   'Te2 Mo2 W2 Se2 S4'
_cell_volume   356.07968185
_cell_formula_units_Z   2
loop_
 _symmetry_equiv_pos_site_id
 _symmetry_equiv_pos_as_xyz
  1  'x, y, z'
loop_
 _atom_site_type_symbol
 _atom_site_label
 _atom_site_symmetry_multiplicity
 _atom_site_fract_x
 _atom_site_fract_y
 _atom_site_fract_z
 _atom_site_occupancy
  Te  Te0  1  0.666646  0.333290  0.043106  1
  Te  Te1  1  0.666643  0.333285  0.144730  1
  Mo  Mo2  1  0.333308  0.666617  0.093906  1
  Mo  Mo3  1  0.666702  0.333405  0.281797  1
  W  W4  1  0.333309  0.666618  0.469634  1
  W  W5  1  0.666694  0.333389  0.657544  1
  Se  Se6  1  0.666649  0.333297  0.424809  1
  Se  Se7  1  0.666646  0.333292  0.514515  1
  S  S8  1  0.333343  0.666687  0.322454  1
  S  S9  1  0.333355  0.666711  0.698307  1
  S  S10  1  0.333344  0.666689  0.241164  1
  S  S11  1  0.333360  0.666721  0.616782  1
