# generated using pymatgen
data_Te2Mo3W(SeS2)2
_symmetry_space_group_name_H-M   'P 1'
_cell_length_a   3.31169569
_cell_length_b   3.31173395
_cell_length_c   39.12188104
_cell_angle_alpha   89.99882243
_cell_angle_beta   90.00000000
_cell_angle_gamma   119.99961772
_symmetry_Int_Tables_number   1
_chemical_formula_structural   Te2Mo3W(SeS2)2
_chemical_formula_sum   'Te2 Mo3 W1 Se2 S4'
_cell_volume   371.58476187
_cell_formula_units_Z   1
loop_
 _symmetry_equiv_pos_site_id
 _symmetry_equiv_pos_as_xyz
  1  'x, y, z'
loop_
 _atom_site_type_symbol
 _atom_site_label
 _atom_site_symmetry_multiplicity
 _atom_site_fract_x
 _atom_site_fract_y
 _atom_site_fract_z
 _atom_site_occupancy
  Te  Te0  1  0.333309  0.666618  0.708493  1
  Te  Te1  1  0.333342  0.666686  0.610250  1
  Mo  Mo2  1  0.333273  0.666547  0.093711  1
  Mo  Mo3  1  0.333397  0.666795  0.468167  1
  Mo  Mo4  1  0.666652  0.333305  0.281657  1
  W  W5  1  0.666656  0.333311  0.659388  1
  Se  Se6  1  0.666733  0.333464  0.425274  1
  Se  Se7  1  0.666779  0.333558  0.511079  1
  S  S8  1  0.333338  0.666676  0.320717  1
  S  S9  1  0.666580  0.333160  0.054660  1
  S  S10  1  0.666615  0.333229  0.132760  1
  S  S11  1  0.333325  0.666651  0.242593  1
