# generated using pymatgen
data_CsIn(PO3)4
_symmetry_space_group_name_H-M   'P 1'
_cell_length_a   15.19213536
_cell_length_b   15.19213536
_cell_length_c   15.19213536
_cell_angle_alpha   90.00000000
_cell_angle_beta   90.00000000
_cell_angle_gamma   90.00000000
_symmetry_Int_Tables_number   1
_chemical_formula_structural   CsIn(PO3)4
_chemical_formula_sum   'Cs12 In12 P48 O144'
_cell_volume   3506.35968071
_cell_formula_units_Z   12
loop_
 _symmetry_equiv_pos_site_id
 _symmetry_equiv_pos_as_xyz
  1  'x, y, z'
loop_
 _atom_site_type_symbol
 _atom_site_label
 _atom_site_symmetry_multiplicity
 _atom_site_fract_x
 _atom_site_fract_y
 _atom_site_fract_z
 _atom_site_occupancy
  O  O0  1  0.004961  0.323874  0.320805  1
  O  O1  1  0.320805  0.004961  0.323874  1
  O  O2  1  0.323874  0.320805  0.004961  1
  O  O3  1  0.176126  0.679195  0.504961  1
  O  O4  1  0.820805  0.495039  0.676126  1
  O  O5  1  0.676126  0.820805  0.495039  1
  O  O6  1  0.179195  0.995039  0.823874  1
  O  O7  1  0.679195  0.504961  0.176126  1
  O  O8  1  0.823874  0.179195  0.995039  1
  O  O9  1  0.504961  0.176126  0.679195  1
  O  O10  1  0.995039  0.823874  0.179195  1
  O  O11  1  0.495039  0.676126  0.820805  1
  O  O12  1  0.995039  0.676126  0.679195  1
  O  O13  1  0.679195  0.995039  0.676126  1
  O  O14  1  0.676126  0.679195  0.995039  1
  O  O15  1  0.823874  0.320805  0.495039  1
  O  O16  1  0.179195  0.504961  0.323874  1
  O  O17  1  0.323874  0.179195  0.504961  1
  O  O18  1  0.820805  0.004961  0.176126  1
  O  O19  1  0.320805  0.495039  0.823874  1
  O  O20  1  0.176126  0.820805  0.004961  1
  O  O21  1  0.495039  0.823874  0.320805  1
  O  O22  1  0.004961  0.176126  0.820805  1
  O  O23  1  0.504961  0.323874  0.179195  1
  O  O24  1  0.943143  0.222127  0.438753  1
  O  O25  1  0.438753  0.943143  0.222127  1
  O  O26  1  0.222127  0.438753  0.943143  1
  O  O27  1  0.277873  0.561247  0.443143  1
  O  O28  1  0.938753  0.556857  0.777873  1
  O  O29  1  0.777873  0.938753  0.556857  1
  O  O30  1  0.061247  0.056857  0.722127  1
  O  O31  1  0.561247  0.443143  0.277873  1
  O  O32  1  0.722127  0.061247  0.056857  1
  O  O33  1  0.443143  0.277873  0.561247  1
  O  O34  1  0.056857  0.722127  0.061247  1
  O  O35  1  0.556857  0.777873  0.938753  1
  O  O36  1  0.056857  0.777873  0.561247  1
  O  O37  1  0.561247  0.056857  0.777873  1
  O  O38  1  0.777873  0.561247  0.056857  1
  O  O39  1  0.722127  0.438753  0.556857  1
  O  O40  1  0.061247  0.443143  0.222127  1
  O  O41  1  0.222127  0.061247  0.443143  1
  O  O42  1  0.938753  0.943143  0.277873  1
  O  O43  1  0.438753  0.556857  0.722127  1
  O  O44  1  0.277873  0.938753  0.943143  1
  O  O45  1  0.556857  0.722127  0.438753  1
  O  O46  1  0.943143  0.277873  0.938753  1
  O  O47  1  0.443143  0.222127  0.061247  1
  O  O48  1  0.011587  0.157004  0.303520  1
  O  O49  1  0.303520  0.011587  0.157004  1
  O  O50  1  0.157004  0.303520  0.011587  1
  O  O51  1  0.342996  0.696480  0.511587  1
  O  O52  1  0.803520  0.488413  0.842996  1
  O  O53  1  0.842996  0.803520  0.488413  1
  O  O54  1  0.196480  0.988413  0.657004  1
  O  O55  1  0.696480  0.511587  0.342996  1
  O  O56  1  0.657004  0.196480  0.988413  1
  O  O57  1  0.511587  0.342996  0.696480  1
  O  O58  1  0.988413  0.657004  0.196480  1
  O  O59  1  0.488413  0.842996  0.803520  1
  O  O60  1  0.988413  0.842996  0.696480  1
  O  O61  1  0.696480  0.988413  0.842996  1
  O  O62  1  0.842996  0.696480  0.988413  1
  O  O63  1  0.657004  0.303520  0.488413  1
  O  O64  1  0.196480  0.511587  0.157004  1
  O  O65  1  0.157004  0.196480  0.511587  1
  O  O66  1  0.803520  0.011587  0.342996  1
  O  O67  1  0.303520  0.488413  0.657004  1
  O  O68  1  0.342996  0.803520  0.011587  1
  O  O69  1  0.488413  0.657004  0.303520  1
  O  O70  1  0.011587  0.342996  0.803520  1
  O  O71  1  0.511587  0.157004  0.196480  1
  O  O72  1  0.861091  0.240494  0.296212  1
  O  O73  1  0.296212  0.861091  0.240494  1
  O  O74  1  0.240494  0.296212  0.861091  1
  O  O75  1  0.259506  0.703788  0.361091  1
  O  O76  1  0.796212  0.638909  0.759506  1
  O  O77  1  0.759506  0.796212  0.638909  1
  O  O78  1  0.203788  0.138909  0.740494  1
  O  O79  1  0.703788  0.361091  0.259506  1
  O  O80  1  0.740494  0.203788  0.138909  1
  O  O81  1  0.361091  0.259506  0.703788  1
  O  O82  1  0.138909  0.740494  0.203788  1
  O  O83  1  0.638909  0.759506  0.796212  1
  O  O84  1  0.138909  0.759506  0.703788  1
  O  O85  1  0.703788  0.138909  0.759506  1
  O  O86  1  0.759506  0.703788  0.138909  1
  O  O87  1  0.740494  0.296212  0.638909  1
  O  O88  1  0.203788  0.361091  0.240494  1
  O  O89  1  0.240494  0.203788  0.361091  1
  O  O90  1  0.796212  0.861091  0.259506  1
  O  O91  1  0.296212  0.638909  0.740494  1
  O  O92  1  0.259506  0.796212  0.861091  1
  O  O93  1  0.638909  0.740494  0.296212  1
  O  O94  1  0.861091  0.259506  0.796212  1
  O  O95  1  0.361091  0.240494  0.203788  1
  O  O96  1  0.978230  0.484392  0.361352  1
  O  O97  1  0.361352  0.978230  0.484392  1
  O  O98  1  0.484392  0.361352  0.978230  1
  O  O99  1  0.015608  0.638648  0.478230  1
  O  O100  1  0.861352  0.521770  0.515608  1
  O  O101  1  0.515608  0.861352  0.521770  1
  O  O102  1  0.138648  0.021770  0.984392  1
  O  O103  1  0.638648  0.478230  0.015608  1
  O  O104  1  0.984392  0.138648  0.021770  1
  O  O105  1  0.478230  0.015608  0.638648  1
  O  O106  1  0.021770  0.984392  0.138648  1
  O  O107  1  0.521770  0.515608  0.861352  1
  O  O108  1  0.021770  0.515608  0.638648  1
  O  O109  1  0.638648  0.021770  0.515608  1
  O  O110  1  0.515608  0.638648  0.021770  1
  O  O111  1  0.984392  0.361352  0.521770  1
  O  O112  1  0.138648  0.478230  0.484392  1
  O  O113  1  0.484392  0.138648  0.478230  1
  O  O114  1  0.861352  0.978230  0.015608  1
  O  O115  1  0.361352  0.521770  0.984392  1
  O  O116  1  0.015608  0.861352  0.978230  1
  O  O117  1  0.521770  0.984392  0.361352  1
  O  O118  1  0.978230  0.015608  0.861352  1
  O  O119  1  0.478230  0.484392  0.138648  1
  O  O120  1  0.899903  0.420678  0.228121  1
  O  O121  1  0.228121  0.899903  0.420678  1
  O  O122  1  0.420678  0.228121  0.899903  1
  O  O123  1  0.079322  0.771879  0.399903  1
  O  O124  1  0.728121  0.600097  0.579322  1
  O  O125  1  0.579322  0.728121  0.600097  1
  O  O126  1  0.271879  0.100097  0.920678  1
  O  O127  1  0.771879  0.399903  0.079322  1
  O  O128  1  0.920678  0.271879  0.100097  1
  O  O129  1  0.399903  0.079322  0.771879  1
  O  O130  1  0.100097  0.920678  0.271879  1
  O  O131  1  0.600097  0.579322  0.728121  1
  O  O132  1  0.100097  0.579322  0.771879  1
  O  O133  1  0.771879  0.100097  0.579322  1
  O  O134  1  0.579322  0.771879  0.100097  1
  O  O135  1  0.920678  0.228121  0.600097  1
  O  O136  1  0.271879  0.399903  0.420678  1
  O  O137  1  0.420678  0.271879  0.399903  1
  O  O138  1  0.728121  0.899903  0.079322  1
  O  O139  1  0.228121  0.600097  0.920678  1
  O  O140  1  0.079322  0.728121  0.899903  1
  O  O141  1  0.600097  0.920678  0.228121  1
  O  O142  1  0.899903  0.079322  0.728121  1
  O  O143  1  0.399903  0.420678  0.271879  1
  P  P144  1  0.953849  0.229481  0.332247  1
  P  P145  1  0.332247  0.953849  0.229481  1
  P  P146  1  0.229481  0.332247  0.953849  1
  P  P147  1  0.270519  0.667753  0.453849  1
  P  P148  1  0.832247  0.546151  0.770519  1
  P  P149  1  0.770519  0.832247  0.546151  1
  P  P150  1  0.167753  0.046151  0.729481  1
  P  P151  1  0.667753  0.453849  0.270519  1
  P  P152  1  0.729481  0.167753  0.046151  1
  P  P153  1  0.453849  0.270519  0.667753  1
  P  P154  1  0.046151  0.729481  0.167753  1
  P  P155  1  0.546151  0.770519  0.832247  1
  P  P156  1  0.046151  0.770519  0.667753  1
  P  P157  1  0.667753  0.046151  0.770519  1
  P  P158  1  0.770519  0.667753  0.046151  1
  P  P159  1  0.729481  0.332247  0.546151  1
  P  P160  1  0.167753  0.453849  0.229481  1
  P  P161  1  0.229481  0.167753  0.453849  1
  P  P162  1  0.832247  0.953849  0.270519  1
  P  P163  1  0.332247  0.546151  0.729481  1
  P  P164  1  0.270519  0.832247  0.953849  1
  P  P165  1  0.546151  0.729481  0.332247  1
  P  P166  1  0.953849  0.270519  0.832247  1
  P  P167  1  0.453849  0.229481  0.167753  1
  P  P168  1  0.980702  0.420478  0.285713  1
  P  P169  1  0.285713  0.980702  0.420478  1
  P  P170  1  0.420478  0.285713  0.980702  1
  P  P171  1  0.079522  0.714287  0.480702  1
  P  P172  1  0.785713  0.519298  0.579522  1
  P  P173  1  0.579522  0.785713  0.519298  1
  P  P174  1  0.214287  0.019298  0.920478  1
  P  P175  1  0.714287  0.480702  0.079522  1
  P  P176  1  0.920478  0.214287  0.019298  1
  P  P177  1  0.480702  0.079522  0.714287  1
  P  P178  1  0.019298  0.920478  0.214287  1
  P  P179  1  0.519298  0.579522  0.785713  1
  P  P180  1  0.019298  0.579522  0.714287  1
  P  P181  1  0.714287  0.019298  0.579522  1
  P  P182  1  0.579522  0.714287  0.019298  1
  P  P183  1  0.920478  0.285713  0.519298  1
  P  P184  1  0.214287  0.480702  0.420478  1
  P  P185  1  0.420478  0.214287  0.480702  1
  P  P186  1  0.785713  0.980702  0.079522  1
  P  P187  1  0.285713  0.519298  0.920478  1
  P  P188  1  0.079522  0.785713  0.980702  1
  P  P189  1  0.519298  0.920478  0.285713  1
  P  P190  1  0.980702  0.079522  0.785713  1
  P  P191  1  0.480702  0.420478  0.214287  1
  In  In192  1  0.814575  0.314575  0.185425  1
  In  In193  1  0.185425  0.814575  0.314575  1
  In  In194  1  0.314575  0.185425  0.814575  1
  In  In195  1  0.685425  0.685425  0.685425  1
  In  In196  1  0.185425  0.685425  0.814575  1
  In  In197  1  0.814575  0.185425  0.685425  1
  In  In198  1  0.685425  0.814575  0.185425  1
  In  In199  1  0.314575  0.314575  0.314575  1
  In  In200  1  0.000000  0.000000  0.000000  1
  In  In201  1  0.500000  0.000000  0.500000  1
  In  In202  1  0.500000  0.500000  0.000000  1
  In  In203  1  0.000000  0.500000  0.500000  1
  Cs  Cs204  1  0.159088  0.159088  0.159088  1
  Cs  Cs205  1  0.340912  0.840912  0.659088  1
  Cs  Cs206  1  0.659088  0.340912  0.840912  1
  Cs  Cs207  1  0.840912  0.659088  0.340912  1
  Cs  Cs208  1  0.840912  0.840912  0.840912  1
  Cs  Cs209  1  0.659088  0.159088  0.340912  1
  Cs  Cs210  1  0.340912  0.659088  0.159088  1
  Cs  Cs211  1  0.159088  0.340912  0.659088  1
  Cs  Cs212  1  0.000000  0.500000  0.000000  1
  Cs  Cs213  1  0.000000  0.000000  0.500000  1
  Cs  Cs214  1  0.500000  0.000000  0.000000  1
  Cs  Cs215  1  0.500000  0.500000  0.500000  1
