# generated using pymatgen
data_RbCr4O8
_symmetry_space_group_name_H-M   'P 1'
_cell_length_a   3.02097377
_cell_length_b   7.23149923
_cell_length_c   7.25085842
_cell_angle_alpha   87.22054552
_cell_angle_beta   78.03435622
_cell_angle_gamma   77.44969836
_symmetry_Int_Tables_number   1
_chemical_formula_structural   RbCr4O8
_chemical_formula_sum   'Rb1 Cr4 O8'
_cell_volume   151.25800909
_cell_formula_units_Z   1
loop_
 _symmetry_equiv_pos_site_id
 _symmetry_equiv_pos_as_xyz
  1  'x, y, z'
loop_
 _atom_site_type_symbol
 _atom_site_label
 _atom_site_symmetry_multiplicity
 _atom_site_fract_x
 _atom_site_fract_y
 _atom_site_fract_z
 _atom_site_occupancy
  O  O0  1  0.463205  0.699844  0.373486  1
  O  O1  1  0.548393  0.295618  0.623052  1
  O  O2  1  0.838824  0.625028  0.698934  1
  O  O3  1  0.166503  0.372935  0.296174  1
  O  O4  1  0.846663  0.363596  0.953133  1
  O  O5  1  0.204235  0.949736  0.637999  1
  O  O6  1  0.155869  0.642524  0.051819  1
  O  O7  1  0.784975  0.048736  0.361883  1
  Cr  Cr8  1  0.146891  0.183714  0.490790  1
  Cr  Cr9  1  0.659635  0.510708  0.183994  1
  Cr  Cr10  1  0.837358  0.814381  0.509852  1
  Cr  Cr11  1  0.348669  0.491755  0.817756  1
  Rb  Rb12  1  0.498782  1.001425  0.001125  1
