# generated using pymatgen
data_Ca3Zn3(TeO6)2
_symmetry_space_group_name_H-M   'P 1'
_cell_length_a   11.04611328
_cell_length_b   11.04611404
_cell_length_c   11.04611397
_cell_angle_alpha   109.47122051
_cell_angle_beta   109.47122191
_cell_angle_gamma   109.47122068
_symmetry_Int_Tables_number   1
_chemical_formula_structural   Ca3Zn3(TeO6)2
_chemical_formula_sum   'Ca12 Zn12 Te8 O48'
_cell_volume   1037.54427369
_cell_formula_units_Z   4
loop_
 _symmetry_equiv_pos_site_id
 _symmetry_equiv_pos_as_xyz
  1  'x, y, z'
loop_
 _atom_site_type_symbol
 _atom_site_label
 _atom_site_symmetry_multiplicity
 _atom_site_fract_x
 _atom_site_fract_y
 _atom_site_fract_z
 _atom_site_occupancy
  Ca  Ca0  1  0.875000  0.750000  0.625000  1
  Ca  Ca1  1  0.875000  0.625000  0.250000  1
  Ca  Ca2  1  0.750000  0.625000  0.875000  1
  Ca  Ca3  1  0.375000  0.750000  0.125000  1
  Ca  Ca4  1  0.250000  0.375000  0.125000  1
  Ca  Ca5  1  0.625000  0.250000  0.875000  1
  Ca  Ca6  1  0.125000  0.375000  0.750000  1
  Ca  Ca7  1  0.125000  0.250000  0.375000  1
  Ca  Ca8  1  0.250000  0.875000  0.625000  1
  Ca  Ca9  1  0.625000  0.875000  0.750000  1
  Ca  Ca10  1  0.750000  0.125000  0.375000  1
  Ca  Ca11  1  0.375000  0.125000  0.250000  1
  Zn  Zn12  1  0.250000  0.124845  0.874845  1
  Zn  Zn13  1  0.375155  0.625155  0.750000  1
  Zn  Zn14  1  0.124845  0.750000  0.874845  1
  Zn  Zn15  1  0.625155  0.750000  0.375155  1
  Zn  Zn16  1  0.375155  0.250000  0.625155  1
  Zn  Zn17  1  0.874845  0.250000  0.124845  1
  Zn  Zn18  1  0.750000  0.874845  0.124845  1
  Zn  Zn19  1  0.124845  0.874845  0.250000  1
  Zn  Zn20  1  0.625155  0.375155  0.250000  1
  Zn  Zn21  1  0.750000  0.375155  0.625155  1
  Zn  Zn22  1  0.874845  0.124845  0.750000  1
  Zn  Zn23  1  0.250000  0.625155  0.375155  1
  Te  Te24  1  0.999725  0.500000  0.000000  1
  Te  Te25  1  0.000000  0.500275  0.500000  1
  Te  Te26  1  0.500000  0.000000  0.500275  1
  Te  Te27  1  1.000000  0.999725  0.500000  1
  Te  Te28  1  0.999725  0.999725  0.999725  1
  Te  Te29  1  0.500275  0.500000  1.000000  1
  Te  Te30  1  0.500000  0.000000  0.999725  1
  Te  Te31  1  0.500275  0.500275  0.500275  1
  O  O32  1  0.575106  0.169091  0.192371  1
  O  O33  1  0.093788  0.617781  0.424724  1
  O  O34  1  0.023280  0.192371  0.117265  1
  O  O35  1  0.075276  0.882219  0.406212  1
  O  O36  1  0.382735  0.307629  0.476720  1
  O  O37  1  0.117265  0.023280  0.192371  1
  O  O38  1  0.330910  0.906015  0.023280  1
  O  O39  1  0.976008  0.669065  0.093788  1
  O  O40  1  0.307629  0.330910  0.924894  1
  O  O41  1  0.669065  0.093788  0.976008  1
  O  O42  1  0.830935  0.806943  0.424724  1
  O  O43  1  0.924894  0.117265  0.593985  1
  O  O44  1  0.693057  0.669065  0.075276  1
  O  O45  1  0.882219  0.406212  0.075276  1
  O  O46  1  0.476720  0.593985  0.169091  1
  O  O47  1  0.192371  0.575106  0.169091  1
  O  O48  1  0.617781  0.424724  0.093788  1
  O  O49  1  0.424724  0.830935  0.806943  1
  O  O50  1  0.882219  0.976008  0.806943  1
  O  O51  1  0.806943  0.882219  0.976008  1
  O  O52  1  0.523992  0.617781  0.693057  1
  O  O53  1  0.307629  0.476720  0.382735  1
  O  O54  1  0.117265  0.593985  0.924894  1
  O  O55  1  0.523992  0.406212  0.830935  1
  O  O56  1  0.382735  0.575106  0.906015  1
  O  O57  1  0.593985  0.169091  0.476720  1
  O  O58  1  0.406212  0.075276  0.882219  1
  O  O59  1  0.617781  0.693057  0.523992  1
  O  O60  1  0.169091  0.476720  0.593985  1
  O  O61  1  0.693057  0.523992  0.617781  1
  O  O62  1  0.476720  0.382735  0.307629  1
  O  O63  1  0.830935  0.523992  0.406212  1
  O  O64  1  0.906015  0.023280  0.330910  1
  O  O65  1  0.669065  0.075276  0.693057  1
  O  O66  1  0.192371  0.117265  0.023280  1
  O  O67  1  0.330910  0.924894  0.307629  1
  O  O68  1  0.906015  0.382735  0.575106  1
  O  O69  1  0.406212  0.830935  0.523992  1
  O  O70  1  0.575106  0.906015  0.382735  1
  O  O71  1  0.924894  0.307629  0.330910  1
  O  O72  1  0.093788  0.976008  0.669065  1
  O  O73  1  0.976008  0.806943  0.882219  1
  O  O74  1  0.169091  0.192371  0.575106  1
  O  O75  1  0.593985  0.924894  0.117265  1
  O  O76  1  0.806943  0.424724  0.830935  1
  O  O77  1  0.075276  0.693057  0.669065  1
  O  O78  1  0.023280  0.330910  0.906015  1
  O  O79  1  0.424724  0.093788  0.617781  1
