# generated using pymatgen
data_KInP2O7
_symmetry_space_group_name_H-M   'P 1'
_cell_length_a   7.55635955
_cell_length_b   8.58323761
_cell_length_c   10.61027155
_cell_angle_alpha   90.00000000
_cell_angle_beta   90.00000000
_cell_angle_gamma   107.00832321
_symmetry_Int_Tables_number   1
_chemical_formula_structural   KInP2O7
_chemical_formula_sum   'K4 In4 P8 O28'
_cell_volume   658.06269389
_cell_formula_units_Z   4
loop_
 _symmetry_equiv_pos_site_id
 _symmetry_equiv_pos_as_xyz
  1  'x, y, z'
loop_
 _atom_site_type_symbol
 _atom_site_label
 _atom_site_symmetry_multiplicity
 _atom_site_fract_x
 _atom_site_fract_y
 _atom_site_fract_z
 _atom_site_occupancy
  O  O0  1  0.131233  0.498160  0.096480  1
  O  O1  1  0.868767  0.001840  0.596480  1
  O  O2  1  0.868767  0.501840  0.903520  1
  O  O3  1  0.131233  0.998160  0.403520  1
  O  O4  1  0.636575  0.240443  0.081249  1
  O  O5  1  0.363425  0.259557  0.581249  1
  O  O6  1  0.363425  0.759557  0.918751  1
  O  O7  1  0.636575  0.740443  0.418751  1
  O  O8  1  0.323083  0.022293  0.106437  1
  O  O9  1  0.676917  0.477707  0.606437  1
  O  O10  1  0.676917  0.977707  0.893563  1
  O  O11  1  0.323083  0.522293  0.393563  1
  O  O12  1  0.338168  0.315633  0.071887  1
  O  O13  1  0.661832  0.184367  0.571887  1
  O  O14  1  0.661832  0.684367  0.928113  1
  O  O15  1  0.338168  0.815633  0.428113  1
  O  O16  1  0.461636  0.737869  0.220700  1
  O  O17  1  0.538364  0.762131  0.720700  1
  O  O18  1  0.538364  0.262131  0.779300  1
  O  O19  1  0.461636  0.237869  0.279300  1
  O  O20  1  0.008038  0.717155  0.503658  1
  O  O21  1  0.991962  0.782845  0.003658  1
  O  O22  1  0.991962  0.282845  0.496342  1
  O  O23  1  0.008038  0.217155  0.996342  1
  O  O24  1  0.068380  0.743390  0.270130  1
  O  O25  1  0.931620  0.756610  0.770130  1
  O  O26  1  0.931620  0.256610  0.729870  1
  O  O27  1  0.068380  0.243390  0.229870  1
  P  P28  1  0.441839  0.194056  0.138097  1
  P  P29  1  0.558161  0.305944  0.638097  1
  P  P30  1  0.558161  0.805944  0.861903  1
  P  P31  1  0.441839  0.694056  0.361903  1
  P  P32  1  0.128259  0.822028  0.400007  1
  P  P33  1  0.128259  0.322028  0.099993  1
  P  P34  1  0.871741  0.177972  0.599993  1
  P  P35  1  0.871741  0.677972  0.900007  1
  K  K36  1  0.826890  0.436445  0.320835  1
  K  K37  1  0.173110  0.563555  0.679165  1
  K  K38  1  0.173110  0.063555  0.820835  1
  K  K39  1  0.826890  0.936445  0.179165  1
  In  In40  1  0.236493  0.257003  0.399597  1
  In  In41  1  0.763507  0.242997  0.899597  1
  In  In42  1  0.763507  0.742997  0.600403  1
  In  In43  1  0.236493  0.757003  0.100403  1
