# generated using pymatgen
data_Nd3Sb4Pt7
_symmetry_space_group_name_H-M   'P 1'
_cell_length_a   4.33632817
_cell_length_b   8.64846958
_cell_length_c   8.68280511
_cell_angle_alpha   74.93380373
_cell_angle_beta   75.53977852
_cell_angle_gamma   75.48111108
_symmetry_Int_Tables_number   1
_chemical_formula_structural   Nd3Sb4Pt7
_chemical_formula_sum   'Nd3 Sb4 Pt7'
_cell_volume   298.40272786
_cell_formula_units_Z   1
loop_
 _symmetry_equiv_pos_site_id
 _symmetry_equiv_pos_as_xyz
  1  'x, y, z'
loop_
 _atom_site_type_symbol
 _atom_site_label
 _atom_site_symmetry_multiplicity
 _atom_site_fract_x
 _atom_site_fract_y
 _atom_site_fract_z
 _atom_site_occupancy
  Sb  Sb0  1  0.360740  0.870290  0.408231  1
  Sb  Sb1  1  0.827982  0.318682  0.025354  1
  Sb  Sb2  1  0.172018  0.681318  0.974646  1
  Sb  Sb3  1  0.639260  0.129710  0.591769  1
  Nd  Nd4  1  0.500000  0.000000  0.000000  1
  Nd  Nd5  1  0.171870  0.340728  0.315531  1
  Nd  Nd6  1  0.828130  0.659272  0.684469  1
  Pt  Pt7  1  0.170301  0.931048  0.728350  1
  Pt  Pt8  1  0.377135  0.399907  0.845823  1
  Pt  Pt9  1  0.500000  0.500000  0.500000  1
  Pt  Pt10  1  0.829699  0.068952  0.271650  1
  Pt  Pt11  1  0.015741  0.290958  0.677561  1
  Pt  Pt12  1  0.984259  0.709042  0.322439  1
  Pt  Pt13  1  0.622865  0.600093  0.154177  1
