# generated using pymatgen
data_KGaP2O7
_symmetry_space_group_name_H-M   'P 1'
_cell_length_a   7.44513783
_cell_length_b   8.29662137
_cell_length_c   9.98509435
_cell_angle_alpha   90.00000000
_cell_angle_beta   90.00000000
_cell_angle_gamma   106.90537738
_symmetry_Int_Tables_number   1
_chemical_formula_structural   KGaP2O7
_chemical_formula_sum   'K4 Ga4 P8 O28'
_cell_volume   590.12108557
_cell_formula_units_Z   4
loop_
 _symmetry_equiv_pos_site_id
 _symmetry_equiv_pos_as_xyz
  1  'x, y, z'
loop_
 _atom_site_type_symbol
 _atom_site_label
 _atom_site_symmetry_multiplicity
 _atom_site_fract_x
 _atom_site_fract_y
 _atom_site_fract_z
 _atom_site_occupancy
  O  O0  1  0.666274  0.688911  0.555781  1
  O  O1  1  0.333726  0.811089  0.055781  1
  O  O2  1  0.333726  0.311089  0.444219  1
  O  O3  1  0.666274  0.188911  0.944219  1
  O  O4  1  0.920163  0.247505  0.763107  1
  O  O5  1  0.079837  0.252495  0.263107  1
  O  O6  1  0.079837  0.752495  0.236893  1
  O  O7  1  0.920163  0.747505  0.736893  1
  O  O8  1  0.008440  0.277927  0.004616  1
  O  O9  1  0.991560  0.222073  0.504616  1
  O  O10  1  0.991560  0.722073  0.995384  1
  O  O11  1  0.008440  0.777927  0.495384  1
  O  O12  1  0.856446  0.985259  0.907831  1
  O  O13  1  0.143554  0.514741  0.407831  1
  O  O14  1  0.143554  0.014741  0.092169  1
  O  O15  1  0.856446  0.485259  0.592169  1
  O  O16  1  0.679824  0.988647  0.604122  1
  O  O17  1  0.320176  0.511353  0.104122  1
  O  O18  1  0.320176  0.011353  0.395878  1
  O  O19  1  0.679824  0.488647  0.895878  1
  O  O20  1  0.362617  0.763235  0.576089  1
  O  O21  1  0.637383  0.736765  0.076089  1
  O  O22  1  0.637383  0.236765  0.423911  1
  O  O23  1  0.362617  0.263235  0.923911  1
  O  O24  1  0.548022  0.756726  0.782677  1
  O  O25  1  0.451978  0.743274  0.282677  1
  O  O26  1  0.451978  0.243274  0.217323  1
  O  O27  1  0.548022  0.256726  0.717323  1
  P  P28  1  0.870593  0.669480  0.596917  1
  P  P29  1  0.129407  0.830520  0.096917  1
  P  P30  1  0.129407  0.330520  0.403083  1
  P  P31  1  0.870593  0.169480  0.903083  1
  P  P32  1  0.561636  0.309503  0.865935  1
  P  P33  1  0.438364  0.190497  0.365935  1
  P  P34  1  0.438364  0.690497  0.134065  1
  P  P35  1  0.561636  0.809503  0.634065  1
  K  K36  1  0.822977  0.943575  0.320989  1
  K  K37  1  0.177023  0.556425  0.820989  1
  K  K38  1  0.177023  0.056425  0.679011  1
  K  K39  1  0.822977  0.443575  0.179011  1
  Ga  Ga40  1  0.761979  0.240636  0.600782  1
  Ga  Ga41  1  0.238021  0.259364  0.100782  1
  Ga  Ga42  1  0.238021  0.759364  0.399218  1
  Ga  Ga43  1  0.761979  0.740636  0.899218  1
