# generated using pymatgen
data_Y2SiP4O15
_symmetry_space_group_name_H-M   'P 1'
_cell_length_a   5.59810774
_cell_length_b   7.09201792
_cell_length_c   16.57000868
_cell_angle_alpha   90.00000000
_cell_angle_beta   90.00000000
_cell_angle_gamma   90.00000000
_symmetry_Int_Tables_number   1
_chemical_formula_structural   Y2SiP4O15
_chemical_formula_sum   'Y4 Si2 P8 O30'
_cell_volume   657.86050301
_cell_formula_units_Z   2
loop_
 _symmetry_equiv_pos_site_id
 _symmetry_equiv_pos_as_xyz
  1  'x, y, z'
loop_
 _atom_site_type_symbol
 _atom_site_label
 _atom_site_symmetry_multiplicity
 _atom_site_fract_x
 _atom_site_fract_y
 _atom_site_fract_z
 _atom_site_occupancy
  Y  Y0  1  0.864689  0.406138  0.782426  1
  Y  Y1  1  0.864689  0.593862  0.217574  1
  Y  Y2  1  0.135311  0.093862  0.282426  1
  Y  Y3  1  0.135311  0.906138  0.717574  1
  Si  Si4  1  0.458856  0.500000  0.500000  1
  Si  Si5  1  0.541144  -0.000000  -0.000000  1
  P  P6  1  0.692366  0.910930  0.830698  1
  P  P7  1  0.692366  0.089070  0.169302  1
  P  P8  1  0.307634  0.589070  0.330698  1
  P  P9  1  0.307634  0.410930  0.669302  1
  P  P10  1  0.642710  0.137177  0.425823  1
  P  P11  1  0.642710  0.862823  0.574177  1
  P  P12  1  0.357290  0.362823  0.925823  1
  P  P13  1  0.357290  0.637177  0.074177  1
  O  O14  1  0.642582  0.336854  0.468774  1
  O  O15  1  0.642582  0.663146  0.531226  1
  O  O16  1  0.357418  0.163146  0.968774  1
  O  O17  1  0.357418  0.836854  0.031226  1
  O  O18  1  0.716460  0.073491  0.072651  1
  O  O19  1  0.716460  0.926509  0.927349  1
  O  O20  1  0.283540  0.426509  0.572651  1
  O  O21  1  0.283540  0.573491  0.427349  1
  O  O22  1  0.835078  0.076859  0.793562  1
  O  O23  1  0.835078  0.923141  0.206438  1
  O  O24  1  0.164922  0.423141  0.293562  1
  O  O25  1  0.164922  0.576859  0.706438  1
  O  O26  1  0.427584  0.909787  0.811213  1
  O  O27  1  0.427584  0.090213  0.188787  1
  O  O28  1  0.572416  0.590213  0.311213  1
  O  O29  1  0.572416  0.409787  0.688787  1
  O  O30  1  0.834043  0.735695  0.803160  1
  O  O31  1  0.834043  0.264305  0.196840  1
  O  O32  1  0.165957  0.764305  0.303160  1
  O  O33  1  0.165957  0.235695  0.696840  1
  O  O34  1  0.425022  0.114143  0.374148  1
  O  O35  1  0.425022  0.885857  0.625852  1
  O  O36  1  0.574978  0.385857  0.874148  1
  O  O37  1  0.574978  0.614143  0.125852  1
  O  O38  1  0.881279  0.107804  0.386875  1
  O  O39  1  0.881279  0.892196  0.613125  1
  O  O40  1  0.118721  0.392196  0.886875  1
  O  O41  1  0.118721  0.607804  0.113125  1
  O  O42  1  0.611368  -0.000000  0.500000  1
  O  O43  1  0.388632  0.500000  -0.000000  1
