# generated using pymatgen
data_HoAl4Ni
_symmetry_space_group_name_H-M   'P 1'
_cell_length_a   4.04763479
_cell_length_b   6.62939909
_cell_length_c   7.94316031
_cell_angle_alpha   90.00000000
_cell_angle_beta   104.76098964
_cell_angle_gamma   90.00000000
_symmetry_Int_Tables_number   1
_chemical_formula_structural   HoAl4Ni
_chemical_formula_sum   'Ho2 Al8 Ni2'
_cell_volume   206.10758648
_cell_formula_units_Z   2
loop_
 _symmetry_equiv_pos_site_id
 _symmetry_equiv_pos_as_xyz
  1  'x, y, z'
loop_
 _atom_site_type_symbol
 _atom_site_label
 _atom_site_symmetry_multiplicity
 _atom_site_fract_x
 _atom_site_fract_y
 _atom_site_fract_z
 _atom_site_occupancy
  Al  Al0  1  0.500000  0.000000  0.000000  1
  Al  Al1  1  0.500000  0.500000  0.000000  1
  Al  Al2  1  0.076011  0.250000  0.152023  1
  Al  Al3  1  0.923989  0.750000  0.847977  1
  Al  Al4  1  0.688247  0.052986  0.376495  1
  Al  Al5  1  0.311753  0.947014  0.623505  1
  Al  Al6  1  0.311753  0.552986  0.623505  1
  Al  Al7  1  0.688247  0.447014  0.376495  1
  Ni  Ni8  1  0.773013  0.750000  0.546025  1
  Ni  Ni9  1  0.226987  0.250000  0.453975  1
  Ho  Ho10  1  0.118000  0.750000  0.236000  1
  Ho  Ho11  1  0.882000  0.250000  0.764000  1
