# generated using pymatgen
data_Te4Mo(WSe)2
_symmetry_space_group_name_H-M   'P 1'
_cell_length_a   3.47989515
_cell_length_b   3.47989682
_cell_length_c   32.05690792
_cell_angle_alpha   90.00025387
_cell_angle_beta   90.00000000
_cell_angle_gamma   119.99998420
_symmetry_Int_Tables_number   1
_chemical_formula_structural   Te4Mo(WSe)2
_chemical_formula_sum   'Te4 Mo1 W2 Se2'
_cell_volume   336.19005075
_cell_formula_units_Z   1
loop_
 _symmetry_equiv_pos_site_id
 _symmetry_equiv_pos_as_xyz
  1  'x, y, z'
loop_
 _atom_site_type_symbol
 _atom_site_label
 _atom_site_symmetry_multiplicity
 _atom_site_fract_x
 _atom_site_fract_y
 _atom_site_fract_z
 _atom_site_occupancy
  Te  Te0  1  0.333354  0.666708  0.404541  1
  Te  Te1  1  0.666643  0.333285  0.520743  1
  Te  Te2  1  0.666647  0.333294  0.635919  1
  Te  Te3  1  0.333351  0.666704  0.289335  1
  Mo  Mo4  1  0.333312  0.666623  0.115665  1
  W  W5  1  0.333309  0.666619  0.578380  1
  W  W6  1  0.666687  0.333374  0.346960  1
  Se  Se7  1  0.666649  0.333296  0.065058  1
  Se  Se8  1  0.666649  0.333297  0.166241  1
