# generated using pymatgen
data_SiO2
_symmetry_space_group_name_H-M   'P 1'
_cell_length_a   7.57120238
_cell_length_b   14.34696844
_cell_length_c   19.13503007
_cell_angle_alpha   90.00000000
_cell_angle_beta   90.00000000
_cell_angle_gamma   90.00000000
_symmetry_Int_Tables_number   1
_chemical_formula_structural   SiO2
_chemical_formula_sum   'Si36 O72'
_cell_volume   2078.51970991
_cell_formula_units_Z   36
loop_
 _symmetry_equiv_pos_site_id
 _symmetry_equiv_pos_as_xyz
  1  'x, y, z'
loop_
 _atom_site_type_symbol
 _atom_site_label
 _atom_site_symmetry_multiplicity
 _atom_site_fract_x
 _atom_site_fract_y
 _atom_site_fract_z
 _atom_site_occupancy
  O  O0  1  0.676372  0.999287  0.702414  1
  O  O1  1  0.176372  0.500713  0.797586  1
  O  O2  1  0.823628  0.499287  0.797586  1
  O  O3  1  0.323628  0.000713  0.702414  1
  O  O4  1  0.323628  0.000713  0.297586  1
  O  O5  1  0.823628  0.499287  0.202414  1
  O  O6  1  0.176372  0.500713  0.202414  1
  O  O7  1  0.676372  0.999287  0.297586  1
  O  O8  1  0.251585  0.749833  0.749569  1
  O  O9  1  0.751585  0.750167  0.750431  1
  O  O10  1  0.248415  0.249833  0.750431  1
  O  O11  1  0.748415  0.250167  0.749569  1
  O  O12  1  0.748415  0.250167  0.250431  1
  O  O13  1  0.248415  0.249833  0.249569  1
  O  O14  1  0.751585  0.750167  0.249569  1
  O  O15  1  0.251585  0.749833  0.250431  1
  O  O16  1  0.000338  0.717483  0.655776  1
  O  O17  1  0.500338  0.782517  0.844224  1
  O  O18  1  0.499662  0.217483  0.844224  1
  O  O19  1  0.999662  0.282517  0.655776  1
  O  O20  1  0.999662  0.282517  0.344224  1
  O  O21  1  0.499662  0.217483  0.155776  1
  O  O22  1  0.500338  0.782517  0.155776  1
  O  O23  1  0.000338  0.717483  0.344224  1
  O  O24  1  0.323511  0.250432  0.614673  1
  O  O25  1  0.823511  0.249568  0.885327  1
  O  O26  1  0.676425  0.251236  0.386435  1
  O  O27  1  0.176489  0.750432  0.885327  1
  O  O28  1  0.676489  0.749568  0.385327  1
  O  O29  1  0.176489  0.750432  0.114673  1
  O  O30  1  0.823511  0.249568  0.114673  1
  O  O31  1  0.323511  0.250432  0.385327  1
  O  O32  1  0.323575  0.748764  0.613565  1
  O  O33  1  0.823575  0.751236  0.886435  1
  O  O34  1  0.176425  0.248764  0.886435  1
  O  O35  1  0.676425  0.251236  0.613565  1
  O  O36  1  0.502179  0.788839  0.500000  1
  O  O37  1  0.002179  0.711161  0.000000  1
  O  O38  1  0.997821  0.288839  0.000000  1
  O  O39  1  0.497821  0.211161  0.500000  1
  O  O40  1  0.500000  0.500000  0.250020  1
  O  O41  1  0.000000  0.000000  0.249980  1
  O  O42  1  0.500000  0.500000  0.749980  1
  O  O43  1  0.000000  0.000000  0.750020  1
  O  O44  1  0.249675  0.408734  0.320526  1
  O  O45  1  0.749675  0.091267  0.179474  1
  O  O46  1  0.250325  0.908733  0.179474  1
  O  O47  1  0.750325  0.591267  0.320526  1
  O  O48  1  0.750325  0.591267  0.679474  1
  O  O49  1  0.250325  0.908733  0.820526  1
  O  O50  1  0.749675  0.091267  0.820526  1
  O  O51  1  0.249675  0.408734  0.679474  1
  O  O52  1  0.498841  0.908804  0.395694  1
  O  O53  1  0.998841  0.591196  0.104306  1
  O  O54  1  0.001159  0.408804  0.104306  1
  O  O55  1  0.501159  0.091196  0.395694  1
  O  O56  1  0.501159  0.091196  0.604306  1
  O  O57  1  0.001159  0.408804  0.895694  1
  O  O58  1  0.998841  0.591196  0.895694  1
  O  O59  1  0.498841  0.908804  0.604306  1
  O  O60  1  0.250116  0.590779  0.321208  1
  O  O61  1  0.750116  0.909221  0.178792  1
  O  O62  1  0.249884  0.090779  0.178792  1
  O  O63  1  0.749884  0.409221  0.321208  1
  O  O64  1  0.749884  0.409221  0.678792  1
  O  O65  1  0.249884  0.090779  0.821208  1
  O  O66  1  0.750116  0.909221  0.821208  1
  O  O67  1  0.250116  0.590779  0.678792  1
  O  O68  1  0.323575  0.748764  0.386435  1
  O  O69  1  0.823575  0.751236  0.113565  1
  O  O70  1  0.176425  0.248764  0.113565  1
  O  O71  1  0.676489  0.749568  0.614673  1
  Si  Si72  1  0.293631  0.500032  0.726552  1
  Si  Si73  1  0.793631  0.999968  0.773448  1
  Si  Si74  1  0.206369  0.000032  0.773448  1
  Si  Si75  1  0.706369  0.499968  0.726552  1
  Si  Si76  1  0.706369  0.499968  0.273448  1
  Si  Si77  1  0.206369  0.000032  0.226552  1
  Si  Si78  1  0.793631  0.999968  0.226552  1
  Si  Si79  1  0.293631  0.500032  0.273448  1
  Si  Si80  1  0.000000  0.500000  0.846114  1
  Si  Si81  1  0.500000  0.000000  0.653886  1
  Si  Si82  1  0.000000  0.500000  0.153886  1
  Si  Si83  1  0.500000  0.000000  0.346114  1
  Si  Si84  1  0.500256  0.799139  0.583716  1
  Si  Si85  1  0.000256  0.700861  0.916284  1
  Si  Si86  1  0.999744  0.299139  0.916284  1
  Si  Si87  1  0.499744  0.200861  0.583716  1
  Si  Si88  1  0.499744  0.200861  0.416284  1
  Si  Si89  1  0.999744  0.299139  0.083716  1
  Si  Si90  1  0.000256  0.700861  0.083716  1
  Si  Si91  1  0.500256  0.799139  0.416284  1
  Si  Si92  1  0.205902  0.297906  0.675488  1
  Si  Si93  1  0.705902  0.202094  0.824512  1
  Si  Si94  1  0.294098  0.797906  0.824512  1
  Si  Si95  1  0.794098  0.702094  0.675488  1
  Si  Si96  1  0.794098  0.702094  0.324512  1
  Si  Si97  1  0.294098  0.797906  0.175488  1
  Si  Si98  1  0.705902  0.202094  0.175488  1
  Si  Si99  1  0.205902  0.297906  0.324512  1
  Si  Si100  1  0.206851  0.701680  0.674847  1
  Si  Si101  1  0.706851  0.798320  0.825153  1
  Si  Si102  1  0.293149  0.201680  0.825153  1
  Si  Si103  1  0.793149  0.298320  0.674847  1
  Si  Si104  1  0.793149  0.298320  0.325153  1
  Si  Si105  1  0.293149  0.201680  0.174847  1
  Si  Si106  1  0.706851  0.798320  0.174847  1
  Si  Si107  1  0.206851  0.701680  0.325153  1
