# generated using pymatgen
data_Sm2AlGe6
_symmetry_space_group_name_H-M   'P 1'
_cell_length_a   6.03243061
_cell_length_b   6.03243061
_cell_length_c   10.61940467
_cell_angle_alpha   81.80229830
_cell_angle_beta   98.19770170
_cell_angle_gamma   87.84399711
_symmetry_Int_Tables_number   1
_chemical_formula_structural   Sm2AlGe6
_chemical_formula_sum   'Sm4 Al2 Ge12'
_cell_volume   377.92246192
_cell_formula_units_Z   2
loop_
 _symmetry_equiv_pos_site_id
 _symmetry_equiv_pos_as_xyz
  1  'x, y, z'
loop_
 _atom_site_type_symbol
 _atom_site_label
 _atom_site_symmetry_multiplicity
 _atom_site_fract_x
 _atom_site_fract_y
 _atom_site_fract_z
 _atom_site_occupancy
  Sm  Sm0  1  0.334736  0.159787  0.338826  1
  Sm  Sm1  1  0.159787  0.334737  0.661174  1
  Sm  Sm2  1  0.665264  0.840213  0.661174  1
  Sm  Sm3  1  0.840213  0.665264  0.338826  1
  Al  Al4  1  0.801284  0.198717  0.198964  1
  Al  Al5  1  0.198716  0.801285  0.801036  1
  Ge  Ge6  1  0.495225  0.933509  0.116734  1
  Ge  Ge7  1  0.933509  0.495225  0.883267  1
  Ge  Ge8  1  0.504775  0.066492  0.883267  1
  Ge  Ge9  1  0.066492  0.504775  0.116734  1
  Ge  Ge10  1  0.363860  0.636141  0.411747  1
  Ge  Ge11  1  0.636141  0.363860  0.588252  1
  Ge  Ge12  1  0.148055  0.851945  0.559669  1
  Ge  Ge13  1  0.851944  0.148057  0.440330  1
  Ge  Ge14  1  0.490855  0.509146  0.116981  1
  Ge  Ge15  1  0.509145  0.490856  0.883019  1
  Ge  Ge16  1  0.069904  0.930097  0.116663  1
  Ge  Ge17  1  0.930097  0.069903  0.883338  1
