# generated using pymatgen
data_Te4Mo3WS4
_symmetry_space_group_name_H-M   'P 1'
_cell_length_a   3.36341042
_cell_length_b   3.36386315
_cell_length_c   39.78598134
_cell_angle_alpha   89.98434602
_cell_angle_beta   90.00000000
_cell_angle_gamma   119.99554805
_symmetry_Int_Tables_number   1
_chemical_formula_structural   Te4Mo3WS4
_chemical_formula_sum   'Te4 Mo3 W1 S4'
_cell_volume   389.85072835
_cell_formula_units_Z   1
loop_
 _symmetry_equiv_pos_site_id
 _symmetry_equiv_pos_as_xyz
  1  'x, y, z'
loop_
 _atom_site_type_symbol
 _atom_site_label
 _atom_site_symmetry_multiplicity
 _atom_site_fract_x
 _atom_site_fract_y
 _atom_site_fract_z
 _atom_site_occupancy
  Te  Te0  1  0.333243  0.666486  0.327868  1
  Te  Te1  1  0.666812  0.333623  0.423418  1
  Te  Te2  1  0.666460  0.332919  0.518858  1
  Te  Te3  1  0.333869  0.667740  0.232982  1
  Mo  Mo4  1  0.333176  0.666353  0.093861  1
  Mo  Mo5  1  0.666835  0.333670  0.280412  1
  Mo  Mo6  1  0.666566  0.333133  0.657495  1
  W  W7  1  0.333335  0.666670  0.471147  1
  S  S8  1  0.333314  0.666629  0.695528  1
  S  S9  1  0.666416  0.332831  0.055853  1
  S  S10  1  0.666717  0.333433  0.131879  1
  S  S11  1  0.333256  0.666514  0.619448  1
