# generated using pymatgen
data_Mo3W(Se3S)2
_symmetry_space_group_name_H-M   'P 1'
_cell_length_a   3.28741057
_cell_length_b   3.28737590
_cell_length_c   37.32825872
_cell_angle_alpha   89.99922586
_cell_angle_beta   90.00004218
_cell_angle_gamma   120.00032855
_symmetry_Int_Tables_number   1
_chemical_formula_structural   Mo3W(Se3S)2
_chemical_formula_sum   'Mo3 W1 Se6 S2'
_cell_volume   349.35763603
_cell_formula_units_Z   1
loop_
 _symmetry_equiv_pos_site_id
 _symmetry_equiv_pos_as_xyz
  1  'x, y, z'
loop_
 _atom_site_type_symbol
 _atom_site_label
 _atom_site_symmetry_multiplicity
 _atom_site_fract_x
 _atom_site_fract_y
 _atom_site_fract_z
 _atom_site_occupancy
  Mo  Mo0  1  0.333310  0.666620  0.093907  1
  Mo  Mo1  1  0.333310  0.666620  0.469655  1
  Mo  Mo2  1  0.666686  0.333372  0.281802  1
  W  W3  1  0.666687  0.333374  0.657540  1
  Se  Se4  1  0.333365  0.666732  0.326959  1
  Se  Se5  1  0.333352  0.666704  0.702971  1
  Se  Se6  1  0.666646  0.333290  0.048769  1
  Se  Se7  1  0.666646  0.333292  0.139068  1
  Se  Se8  1  0.333350  0.666700  0.236660  1
  Se  Se9  1  0.333363  0.666727  0.612099  1
  S  S10  1  0.666645  0.333289  0.428545  1
  S  S11  1  0.666640  0.333279  0.510771  1
