# generated using pymatgen
data_KHo2CuSe4
_symmetry_space_group_name_H-M   'P 1'
_cell_length_a   4.10036806
_cell_length_b   7.30742678
_cell_length_c   14.33595802
_cell_angle_alpha   90.00000000
_cell_angle_beta   90.00000000
_cell_angle_gamma   106.29373116
_symmetry_Int_Tables_number   1
_chemical_formula_structural   KHo2CuSe4
_chemical_formula_sum   'K2 Ho4 Cu2 Se8'
_cell_volume   412.29784717
_cell_formula_units_Z   2
loop_
 _symmetry_equiv_pos_site_id
 _symmetry_equiv_pos_as_xyz
  1  'x, y, z'
loop_
 _atom_site_type_symbol
 _atom_site_label
 _atom_site_symmetry_multiplicity
 _atom_site_fract_x
 _atom_site_fract_y
 _atom_site_fract_z
 _atom_site_occupancy
  K  K0  1  0.887380  0.774761  0.250000  1
  K  K1  1  0.112620  0.225239  0.750000  1
  Cu  Cu2  1  0.160240  0.320479  0.250000  1
  Cu  Cu3  1  0.839760  0.679521  0.750000  1
  Se  Se4  1  0.436116  0.872233  0.750000  1
  Se  Se5  1  0.563884  0.127767  0.250000  1
  Se  Se6  1  0.735103  0.470205  0.888830  1
  Se  Se7  1  0.264897  0.529795  0.111170  1
  Se  Se8  1  0.264897  0.529795  0.388830  1
  Se  Se9  1  0.735103  0.470205  0.611170  1
  Se  Se10  1  0.000000  0.000000  0.000000  1
  Se  Se11  1  0.000000  0.000000  0.500000  1
  Ho  Ho12  1  0.634208  0.268415  0.434946  1
  Ho  Ho13  1  0.365792  0.731585  0.565054  1
  Ho  Ho14  1  0.365792  0.731585  0.934946  1
  Ho  Ho15  1  0.634208  0.268415  0.065054  1
