# generated using pymatgen
data_NdPIr
_symmetry_space_group_name_H-M   'P 1'
_cell_length_a   4.11381235
_cell_length_b   4.11381235
_cell_length_c   7.70717159
_cell_angle_alpha   105.47881784
_cell_angle_beta   105.47881786
_cell_angle_gamma   90.00000003
_symmetry_Int_Tables_number   1
_chemical_formula_structural   NdPIr
_chemical_formula_sum   'Nd2 P2 Ir2'
_cell_volume   120.78504733
_cell_formula_units_Z   2
loop_
 _symmetry_equiv_pos_site_id
 _symmetry_equiv_pos_as_xyz
  1  'x, y, z'
loop_
 _atom_site_type_symbol
 _atom_site_label
 _atom_site_symmetry_multiplicity
 _atom_site_fract_x
 _atom_site_fract_y
 _atom_site_fract_z
 _atom_site_occupancy
  P  P0  1  0.329266  0.829266  0.658533  1
  P  P1  1  0.579266  0.579266  0.158533  1
  Nd  Nd2  1  0.751176  0.251176  0.502351  1
  Nd  Nd3  1  0.001176  0.001176  0.002351  1
  Ir  Ir4  1  0.412258  0.412258  0.824516  1
  Ir  Ir5  1  0.162258  0.662258  0.324516  1
