# generated using pymatgen
data_KGd2CuS4
_symmetry_space_group_name_H-M   'P 1'
_cell_length_a   3.99918545
_cell_length_b   7.12085028
_cell_length_c   13.81212681
_cell_angle_alpha   90.00000000
_cell_angle_beta   90.00000000
_cell_angle_gamma   106.30844293
_symmetry_Int_Tables_number   1
_chemical_formula_structural   KGd2CuS4
_chemical_formula_sum   'K2 Gd4 Cu2 S8'
_cell_volume   377.50992694
_cell_formula_units_Z   2
loop_
 _symmetry_equiv_pos_site_id
 _symmetry_equiv_pos_as_xyz
  1  'x, y, z'
loop_
 _atom_site_type_symbol
 _atom_site_label
 _atom_site_symmetry_multiplicity
 _atom_site_fract_x
 _atom_site_fract_y
 _atom_site_fract_z
 _atom_site_occupancy
  S  S0  1  0.237877  0.475753  0.387986  1
  S  S1  1  0.762123  0.524247  0.612014  1
  S  S2  1  0.500000  0.000000  0.000000  1
  S  S3  1  0.500000  0.000000  0.500000  1
  S  S4  1  0.237877  0.475753  0.112014  1
  S  S5  1  0.762123  0.524247  0.887986  1
  S  S6  1  0.070552  0.141105  0.750000  1
  S  S7  1  0.929448  0.858895  0.250000  1
  K  K8  1  0.608435  0.216871  0.250000  1
  K  K9  1  0.391565  0.783129  0.750000  1
  Cu  Cu10  1  0.337055  0.674110  0.250000  1
  Cu  Cu11  1  0.662945  0.325890  0.750000  1
  Gd  Gd12  1  0.134134  0.268269  0.937802  1
  Gd  Gd13  1  0.865866  0.731731  0.062198  1
  Gd  Gd14  1  0.865866  0.731731  0.437802  1
  Gd  Gd15  1  0.134134  0.268269  0.562198  1
