# generated using pymatgen
data_CsTbCdTe3
_symmetry_space_group_name_H-M   'P 1'
_cell_length_a   4.56043230
_cell_length_b   8.98476246
_cell_length_c   11.91725844
_cell_angle_alpha   90.00000000
_cell_angle_beta   90.00000000
_cell_angle_gamma   104.70172267
_symmetry_Int_Tables_number   1
_chemical_formula_structural   CsTbCdTe3
_chemical_formula_sum   'Cs2 Tb2 Cd2 Te6'
_cell_volume   472.31556058
_cell_formula_units_Z   2
loop_
 _symmetry_equiv_pos_site_id
 _symmetry_equiv_pos_as_xyz
  1  'x, y, z'
loop_
 _atom_site_type_symbol
 _atom_site_label
 _atom_site_symmetry_multiplicity
 _atom_site_fract_x
 _atom_site_fract_y
 _atom_site_fract_z
 _atom_site_occupancy
  Cd  Cd0  1  0.463251  0.926502  0.250000  1
  Cd  Cd1  1  0.536749  0.073498  0.750000  1
  Te  Te2  1  0.379791  0.759583  0.047190  1
  Te  Te3  1  0.620209  0.240417  0.952810  1
  Te  Te4  1  0.934635  0.869270  0.750000  1
  Te  Te5  1  0.065365  0.130730  0.250000  1
  Te  Te6  1  0.379791  0.759583  0.452810  1
  Te  Te7  1  0.620209  0.240417  0.547190  1
  Cs  Cs8  1  0.750779  0.501558  0.250000  1
  Cs  Cs9  1  0.249221  0.498442  0.750000  1
  Tb  Tb10  1  0.000000  0.000000  0.500000  1
  Tb  Tb11  1  0.000000  0.000000  0.000000  1
