# generated using pymatgen
data_Te4Mo3W(SeS)2
_symmetry_space_group_name_H-M   'P 1'
_cell_length_a   3.39978417
_cell_length_b   3.39980600
_cell_length_c   38.66554562
_cell_angle_alpha   90.00001448
_cell_angle_beta   90.00000000
_cell_angle_gamma   119.99978749
_symmetry_Int_Tables_number   1
_chemical_formula_structural   Te4Mo3W(SeS)2
_chemical_formula_sum   'Te4 Mo3 W1 Se2 S2'
_cell_volume   387.04475655
_cell_formula_units_Z   1
loop_
 _symmetry_equiv_pos_site_id
 _symmetry_equiv_pos_as_xyz
  1  'x, y, z'
loop_
 _atom_site_type_symbol
 _atom_site_label
 _atom_site_symmetry_multiplicity
 _atom_site_fract_x
 _atom_site_fract_y
 _atom_site_fract_z
 _atom_site_occupancy
  Te  Te0  1  0.333357  0.666716  0.706226  1
  Te  Te1  1  0.666640  0.333279  0.045503  1
  Te  Te2  1  0.666648  0.333296  0.142371  1
  Te  Te3  1  0.333350  0.666701  0.608843  1
  Mo  Mo4  1  0.333310  0.666621  0.093901  1
  Mo  Mo5  1  0.333309  0.666618  0.469657  1
  Mo  Mo6  1  0.666703  0.333405  0.281786  1
  W  W7  1  0.666691  0.333382  0.657578  1
  Se  Se8  1  0.666648  0.333294  0.427014  1
  Se  Se9  1  0.666649  0.333297  0.512282  1
  S  S10  1  0.333347  0.666696  0.320654  1
  S  S11  1  0.333347  0.666696  0.242933  1
