# generated using pymatgen
data_LaMg2Pd
_symmetry_space_group_name_H-M   'P 1'
_cell_length_a   4.33861355
_cell_length_b   5.69299177
_cell_length_c   8.40615810
_cell_angle_alpha   90.00000000
_cell_angle_beta   90.00000000
_cell_angle_gamma   112.39865305
_symmetry_Int_Tables_number   1
_chemical_formula_structural   LaMg2Pd
_chemical_formula_sum   'La2 Mg4 Pd2'
_cell_volume   191.96489951
_cell_formula_units_Z   2
loop_
 _symmetry_equiv_pos_site_id
 _symmetry_equiv_pos_as_xyz
  1  'x, y, z'
loop_
 _atom_site_type_symbol
 _atom_site_label
 _atom_site_symmetry_multiplicity
 _atom_site_fract_x
 _atom_site_fract_y
 _atom_site_fract_z
 _atom_site_occupancy
  Mg  Mg0  1  0.847108  0.694217  0.446084  1
  Mg  Mg1  1  0.152892  0.305783  0.553916  1
  Mg  Mg2  1  0.152892  0.305783  0.946084  1
  Mg  Mg3  1  0.847108  0.694217  0.053916  1
  Pd  Pd4  1  0.276322  0.552645  0.250000  1
  Pd  Pd5  1  0.723678  0.447355  0.750000  1
  La  La6  1  0.560824  0.121647  0.250000  1
  La  La7  1  0.439176  0.878353  0.750000  1
