# generated using pymatgen
data_CrN2
_symmetry_space_group_name_H-M   'P 1'
_cell_length_a   15.13329228
_cell_length_b   15.13329228
_cell_length_c   15.13329228
_cell_angle_alpha   60.00000000
_cell_angle_beta   60.00000000
_cell_angle_gamma   60.00000000
_symmetry_Int_Tables_number   1
_chemical_formula_structural   CrN2
_chemical_formula_sum   'Cr34 N68'
_cell_volume   2450.67241189
_cell_formula_units_Z   34
loop_
 _symmetry_equiv_pos_site_id
 _symmetry_equiv_pos_as_xyz
  1  'x, y, z'
loop_
 _atom_site_type_symbol
 _atom_site_label
 _atom_site_symmetry_multiplicity
 _atom_site_fract_x
 _atom_site_fract_y
 _atom_site_fract_z
 _atom_site_occupancy
  Cr  Cr0  1  0.264819  0.994017  0.370594  1
  Cr  Cr1  1  0.870594  0.370570  0.764819  1
  Cr  Cr2  1  0.870570  0.370594  0.994017  1
  Cr  Cr3  1  0.494017  0.764819  0.370570  1
  Cr  Cr4  1  0.264819  0.370570  0.994017  1
  Cr  Cr5  1  0.870594  0.994017  0.370570  1
  Cr  Cr6  1  0.870570  0.764819  0.370594  1
  Cr  Cr7  1  0.494017  0.370594  0.764819  1
  Cr  Cr8  1  0.264819  0.370594  0.370570  1
  Cr  Cr9  1  0.870594  0.764819  0.994017  1
  Cr  Cr10  1  0.870570  0.994017  0.764819  1
  Cr  Cr11  1  0.494017  0.370570  0.370594  1
  Cr  Cr12  1  0.735181  0.005983  0.629406  1
  Cr  Cr13  1  0.129406  0.629430  0.235181  1
  Cr  Cr14  1  0.129430  0.629406  0.005983  1
  Cr  Cr15  1  0.505983  0.235181  0.629430  1
  Cr  Cr16  1  0.735181  0.629430  0.005983  1
  Cr  Cr17  1  0.129406  0.005983  0.629430  1
  Cr  Cr18  1  0.129430  0.235181  0.629406  1
  Cr  Cr19  1  0.505983  0.629406  0.235181  1
  Cr  Cr20  1  0.735181  0.629406  0.629430  1
  Cr  Cr21  1  0.129406  0.235181  0.005983  1
  Cr  Cr22  1  0.129430  0.005983  0.235181  1
  Cr  Cr23  1  0.505983  0.629430  0.629406  1
  Cr  Cr24  1  0.717454  0.847638  0.217454  1
  Cr  Cr25  1  0.717454  0.217454  0.217454  1
  Cr  Cr26  1  0.717454  0.217454  0.847638  1
  Cr  Cr27  1  0.347638  0.217454  0.217454  1
  Cr  Cr28  1  0.282546  0.152362  0.782546  1
  Cr  Cr29  1  0.282546  0.782546  0.782546  1
  Cr  Cr30  1  0.282546  0.782546  0.152362  1
  Cr  Cr31  1  0.652362  0.782546  0.782546  1
  Cr  Cr32  1  0.625000  0.125000  0.125000  1
  Cr  Cr33  1  0.375000  0.875000  0.875000  1
  N  N34  1  0.999951  0.000049  0.689560  1
  N  N35  1  0.189560  0.310439  0.499951  1
  N  N36  1  0.810439  0.689560  0.000049  1
  N  N37  1  0.500049  0.499951  0.310439  1
  N  N38  1  0.999951  0.310439  0.000049  1
  N  N39  1  0.189560  0.000049  0.310439  1
  N  N40  1  0.810439  0.499951  0.689560  1
  N  N41  1  0.500049  0.689560  0.499951  1
  N  N42  1  0.999951  0.689560  0.310439  1
  N  N43  1  0.189560  0.499951  0.000049  1
  N  N44  1  0.810439  0.000049  0.499951  1
  N  N45  1  0.500049  0.310439  0.689560  1
  N  N46  1  0.000049  0.999951  0.310440  1
  N  N47  1  0.810440  0.689561  0.500049  1
  N  N48  1  0.189561  0.310440  0.999951  1
  N  N49  1  0.499951  0.500049  0.689561  1
  N  N50  1  0.000049  0.689561  0.999951  1
  N  N51  1  0.810440  0.999951  0.689561  1
  N  N52  1  0.189561  0.500049  0.310440  1
  N  N53  1  0.499951  0.310440  0.500049  1
  N  N54  1  0.000049  0.310440  0.689561  1
  N  N55  1  0.810440  0.500049  0.999951  1
  N  N56  1  0.189561  0.999951  0.500049  1
  N  N57  1  0.499951  0.689561  0.310440  1
  N  N58  1  0.394022  0.705626  0.194572  1
  N  N59  1  0.694572  0.705781  0.894022  1
  N  N60  1  0.205781  0.194572  0.705626  1
  N  N61  1  0.205626  0.894022  0.705781  1
  N  N62  1  0.394022  0.705781  0.705626  1
  N  N63  1  0.694572  0.705626  0.705781  1
  N  N64  1  0.205781  0.894022  0.194572  1
  N  N65  1  0.205626  0.194572  0.894022  1
  N  N66  1  0.394022  0.194572  0.705781  1
  N  N67  1  0.694572  0.894022  0.705626  1
  N  N68  1  0.205781  0.705626  0.894022  1
  N  N69  1  0.205626  0.705781  0.194572  1
  N  N70  1  0.605978  0.294374  0.805428  1
  N  N71  1  0.305428  0.294219  0.105978  1
  N  N72  1  0.794219  0.805428  0.294374  1
  N  N73  1  0.794374  0.105978  0.294219  1
  N  N74  1  0.605978  0.294219  0.294374  1
  N  N75  1  0.305428  0.294374  0.294219  1
  N  N76  1  0.794219  0.105978  0.805428  1
  N  N77  1  0.794374  0.805428  0.105978  1
  N  N78  1  0.605978  0.805428  0.294219  1
  N  N79  1  0.305428  0.105978  0.294374  1
  N  N80  1  0.794219  0.294374  0.105978  1
  N  N81  1  0.794374  0.294219  0.805428  1
  N  N82  1  0.871988  0.878012  0.878012  1
  N  N83  1  0.378012  0.371988  0.371988  1
  N  N84  1  0.871988  0.371988  0.878012  1
  N  N85  1  0.378012  0.878012  0.371988  1
  N  N86  1  0.871988  0.878012  0.371988  1
  N  N87  1  0.378012  0.371988  0.878012  1
  N  N88  1  0.128012  0.121988  0.121988  1
  N  N89  1  0.621988  0.628012  0.628012  1
  N  N90  1  0.128012  0.628012  0.121988  1
  N  N91  1  0.621988  0.121988  0.628012  1
  N  N92  1  0.128012  0.121988  0.628012  1
  N  N93  1  0.621988  0.628012  0.121988  1
  N  N94  1  0.671315  0.986055  0.171315  1
  N  N95  1  0.671315  0.171315  0.171315  1
  N  N96  1  0.671315  0.171315  0.986055  1
  N  N97  1  0.486055  0.171315  0.171315  1
  N  N98  1  0.328685  0.013945  0.828685  1
  N  N99  1  0.328685  0.828685  0.828685  1
  N  N100  1  0.328685  0.828685  0.013945  1
  N  N101  1  0.513945  0.828685  0.828685  1
