# generated using pymatgen
data_Ca3MnZnO6
_symmetry_space_group_name_H-M   'P 1'
_cell_length_a   6.41934961
_cell_length_b   6.41934961
_cell_length_c   6.41934961
_cell_angle_alpha   91.89409341
_cell_angle_beta   91.89409332
_cell_angle_gamma   91.89409345
_symmetry_Int_Tables_number   1
_chemical_formula_structural   Ca3MnZnO6
_chemical_formula_sum   'Ca6 Mn2 Zn2 O12'
_cell_volume   264.08547814
_cell_formula_units_Z   2
loop_
 _symmetry_equiv_pos_site_id
 _symmetry_equiv_pos_as_xyz
  1  'x, y, z'
loop_
 _atom_site_type_symbol
 _atom_site_label
 _atom_site_symmetry_multiplicity
 _atom_site_fract_x
 _atom_site_fract_y
 _atom_site_fract_z
 _atom_site_occupancy
  O  O0  1  0.212674  0.417968  0.546910  1
  O  O1  1  0.787325  0.582032  0.453090  1
  O  O2  1  0.582032  0.453090  0.787326  1
  O  O3  1  0.453089  0.787326  0.582032  1
  O  O4  1  0.046910  0.917968  0.712674  1
  O  O5  1  0.917969  0.712674  0.046910  1
  O  O6  1  0.287326  0.953089  0.082031  1
  O  O7  1  0.082032  0.287326  0.953090  1
  O  O8  1  0.953090  0.082032  0.287325  1
  O  O9  1  0.546910  0.212674  0.417968  1
  O  O10  1  0.417967  0.546910  0.212674  1
  O  O11  1  0.712675  0.046911  0.917968  1
  Ca  Ca12  1  0.611755  0.888245  0.250000  1
  Ca  Ca13  1  0.111755  0.749999  0.388245  1
  Ca  Ca14  1  0.750000  0.388245  0.111754  1
  Ca  Ca15  1  0.388246  0.111755  0.750000  1
  Ca  Ca16  1  0.888246  0.250001  0.611755  1
  Ca  Ca17  1  0.250001  0.611755  0.888246  1
  Mn  Mn18  1  0.500000  0.500001  0.500000  1
  Mn  Mn19  1  0.000000  0.000000  0.000000  1
  Zn  Zn20  1  0.749999  0.750000  0.750001  1
  Zn  Zn21  1  0.250000  0.250000  0.250001  1
