# generated using pymatgen
data_Mn2AlO4
_symmetry_space_group_name_H-M   'P 1'
_cell_length_a   6.03112880
_cell_length_b   6.03112848
_cell_length_c   6.03112902
_cell_angle_alpha   59.44213231
_cell_angle_beta   59.44213411
_cell_angle_gamma   59.44213439
_symmetry_Int_Tables_number   1
_chemical_formula_structural   Mn2AlO4
_chemical_formula_sum   'Mn4 Al2 O8'
_cell_volume   153.15583177
_cell_formula_units_Z   2
loop_
 _symmetry_equiv_pos_site_id
 _symmetry_equiv_pos_as_xyz
  1  'x, y, z'
loop_
 _atom_site_type_symbol
 _atom_site_label
 _atom_site_symmetry_multiplicity
 _atom_site_fract_x
 _atom_site_fract_y
 _atom_site_fract_z
 _atom_site_occupancy
  Mn  Mn0  1  0.000000  0.500000  0.000000  1
  Mn  Mn1  1  0.000000  0.000000  0.000000  1
  Mn  Mn2  1  0.500000  0.000000  0.000000  1
  Mn  Mn3  1  0.000000  0.000000  0.500000  1
  Al  Al4  1  0.620497  0.620497  0.620497  1
  Al  Al5  1  0.379503  0.379503  0.379503  1
  O  O6  1  0.244213  0.744057  0.744057  1
  O  O7  1  0.255943  0.255943  0.755787  1
  O  O8  1  0.255943  0.755787  0.255943  1
  O  O9  1  0.258728  0.258728  0.258728  1
  O  O10  1  0.744057  0.744057  0.244213  1
  O  O11  1  0.755787  0.255943  0.255943  1
  O  O12  1  0.744057  0.244213  0.744057  1
  O  O13  1  0.741272  0.741272  0.741272  1
