# generated using pymatgen
data_CeZrO4
_symmetry_space_group_name_H-M   'P 1'
_cell_length_a   5.31118777
_cell_length_b   5.36888340
_cell_length_c   5.38568195
_cell_angle_alpha   90.00000000
_cell_angle_beta   90.00000000
_cell_angle_gamma   90.00000000
_symmetry_Int_Tables_number   1
_chemical_formula_structural   CeZrO4
_chemical_formula_sum   'Ce2 Zr2 O8'
_cell_volume   153.57351718
_cell_formula_units_Z   2
loop_
 _symmetry_equiv_pos_site_id
 _symmetry_equiv_pos_as_xyz
  1  'x, y, z'
loop_
 _atom_site_type_symbol
 _atom_site_label
 _atom_site_symmetry_multiplicity
 _atom_site_fract_x
 _atom_site_fract_y
 _atom_site_fract_z
 _atom_site_occupancy
  Ce  Ce0  1  -0.000000  0.000000  0.000000  1
  Ce  Ce1  1  -0.000000  0.500000  0.500000  1
  Zr  Zr2  1  0.500000  0.000000  0.500000  1
  Zr  Zr3  1  0.500000  0.500000  0.000000  1
  O  O4  1  0.744260  0.785132  0.713852  1
  O  O5  1  0.744152  0.285095  0.786131  1
  O  O6  1  0.744260  0.214868  0.286148  1
  O  O7  1  0.744152  0.714905  0.213869  1
  O  O8  1  0.255740  0.214868  0.713852  1
  O  O9  1  0.255847  0.714905  0.786131  1
  O  O10  1  0.255740  0.785132  0.286148  1
  O  O11  1  0.255848  0.285096  0.213869  1
