# generated using pymatgen
data_Te2MoW2(SeS)2
_symmetry_space_group_name_H-M   'P 1'
_cell_length_a   3.34871367
_cell_length_b   3.34871229
_cell_length_c   31.06646250
_cell_angle_alpha   90.00010701
_cell_angle_beta   90.00000077
_cell_angle_gamma   120.00000122
_symmetry_Int_Tables_number   1
_chemical_formula_structural   Te2MoW2(SeS)2
_chemical_formula_sum   'Te2 Mo1 W2 Se2 S2'
_cell_volume   301.70206400
_cell_formula_units_Z   1
loop_
 _symmetry_equiv_pos_site_id
 _symmetry_equiv_pos_as_xyz
  1  'x, y, z'
loop_
 _atom_site_type_symbol
 _atom_site_label
 _atom_site_symmetry_multiplicity
 _atom_site_fract_x
 _atom_site_fract_y
 _atom_site_fract_z
 _atom_site_occupancy
  Te  Te0  1  0.333357  0.666714  0.408316  1
  Te  Te1  1  0.333349  0.666698  0.285694  1
  Mo  Mo2  1  0.333313  0.666626  0.115578  1
  W  W3  1  0.333312  0.666624  0.578353  1
  W  W4  1  0.666686  0.333373  0.347011  1
  Se  Se5  1  0.666646  0.333291  0.062009  1
  Se  Se6  1  0.666649  0.333297  0.169198  1
  S  S7  1  0.666641  0.333282  0.529396  1
  S  S8  1  0.666649  0.333296  0.627287  1
