# generated using pymatgen
data_Cs2Li2B2P4O15
_symmetry_space_group_name_H-M   'P 1'
_cell_length_a   7.19836843
_cell_length_b   7.90887487
_cell_length_c   14.17765595
_cell_angle_alpha   86.29005790
_cell_angle_beta   75.89724360
_cell_angle_gamma   66.30476615
_symmetry_Int_Tables_number   1
_chemical_formula_structural   Cs2Li2B2P4O15
_chemical_formula_sum   'Cs4 Li4 B4 P8 O30'
_cell_volume   716.32442742
_cell_formula_units_Z   2
loop_
 _symmetry_equiv_pos_site_id
 _symmetry_equiv_pos_as_xyz
  1  'x, y, z'
loop_
 _atom_site_type_symbol
 _atom_site_label
 _atom_site_symmetry_multiplicity
 _atom_site_fract_x
 _atom_site_fract_y
 _atom_site_fract_z
 _atom_site_occupancy
  Cs  Cs0  1  0.281640  0.812572  0.865006  1
  Cs  Cs1  1  0.718360  0.187428  0.134994  1
  Cs  Cs2  1  0.901289  0.759830  0.649843  1
  Cs  Cs3  1  0.098711  0.240170  0.350157  1
  Li  Li4  1  0.778367  0.775873  0.990755  1
  Li  Li5  1  0.221633  0.224127  0.009245  1
  Li  Li6  1  0.283651  0.255836  0.778457  1
  Li  Li7  1  0.716349  0.744164  0.221543  1
  B  B8  1  0.862911  0.283865  0.714856  1
  B  B9  1  0.137089  0.716135  0.285144  1
  B  B10  1  0.539505  0.243584  0.491132  1
  B  B11  1  0.460495  0.756416  0.508868  1
  P  P12  1  0.263133  0.111087  0.596538  1
  P  P13  1  0.736867  0.888913  0.403462  1
  P  P14  1  0.512795  0.474111  0.642812  1
  P  P15  1  0.487205  0.525889  0.357188  1
  P  P16  1  0.658219  0.156403  0.871663  1
  P  P17  1  0.341781  0.843597  0.128337  1
  P  P18  1  0.833650  0.421104  0.891566  1
  P  P19  1  0.166350  0.578896  0.108434  1
  O  O20  1  0.321681  0.261979  0.532320  1
  O  O21  1  0.678319  0.738021  0.467680  1
  O  O22  1  0.364420  0.053795  0.680756  1
  O  O23  1  0.635580  0.946205  0.319244  1
  O  O24  1  0.311150  0.952054  0.521712  1
  O  O25  1  0.688850  0.047946  0.478288  1
  O  O26  1  0.019400  0.199490  0.624856  1
  O  O27  1  0.980600  0.800510  0.375144  1
  O  O28  1  0.611979  0.331359  0.555067  1
  O  O29  1  0.388021  0.668641  0.444933  1
  O  O30  1  0.444489  0.675222  0.604976  1
  O  O31  1  0.555511  0.324778  0.395024  1
  O  O32  1  0.329428  0.461533  0.715770  1
  O  O33  1  0.670572  0.538467  0.284230  1
  O  O34  1  0.437645  0.172974  0.880711  1
  O  O35  1  0.562355  0.827026  0.119289  1
  O  O36  1  0.775777  0.148092  0.759914  1
  O  O37  1  0.224223  0.851908  0.240086  1
  O  O38  1  0.790177  0.002082  0.925113  1
  O  O39  1  0.209823  0.997918  0.074887  1
  O  O40  1  0.638454  0.355461  0.910436  1
  O  O41  1  0.361546  0.644539  0.089564  1
  O  O42  1  0.698440  0.454151  0.688662  1
  O  O43  1  0.301560  0.545849  0.311338  1
  O  O44  1  0.973275  0.322295  0.958225  1
  O  O45  1  0.026725  0.677705  0.041775  1
  O  O46  1  0.957888  0.339955  0.782493  1
  O  O47  1  0.042112  0.660045  0.217507  1
  O  O48  1  0.741107  0.629010  0.894319  1
  O  O49  1  0.258893  0.370990  0.105681  1
