# generated using pymatgen
data_K2La2B2O7
_symmetry_space_group_name_H-M   'P 1'
_cell_length_a   11.50475418
_cell_length_b   6.73283582
_cell_length_c   10.91604484
_cell_angle_alpha   90.00000000
_cell_angle_beta   117.11524476
_cell_angle_gamma   90.00000000
_symmetry_Int_Tables_number   1
_chemical_formula_structural   K2La2B2O7
_chemical_formula_sum   'K8 La8 B8 O28'
_cell_volume   752.61932339
_cell_formula_units_Z   4
loop_
 _symmetry_equiv_pos_site_id
 _symmetry_equiv_pos_as_xyz
  1  'x, y, z'
loop_
 _atom_site_type_symbol
 _atom_site_label
 _atom_site_symmetry_multiplicity
 _atom_site_fract_x
 _atom_site_fract_y
 _atom_site_fract_z
 _atom_site_occupancy
  K  K0  1  0.967692  0.938258  0.735207  1
  K  K1  1  0.032308  0.438258  0.764793  1
  K  K2  1  0.032308  0.061742  0.264793  1
  K  K3  1  0.967692  0.561742  0.235207  1
  K  K4  1  0.117634  0.755245  0.554952  1
  K  K5  1  0.882366  0.255245  0.945048  1
  K  K6  1  0.882366  0.244755  0.445048  1
  K  K7  1  0.117634  0.744755  0.054952  1
  La  La8  1  0.518746  0.453883  0.819659  1
  La  La9  1  0.481254  0.953883  0.680341  1
  La  La10  1  0.481254  0.546117  0.180341  1
  La  La11  1  0.518746  0.046117  0.319659  1
  La  La12  1  0.322209  0.082322  0.915126  1
  La  La13  1  0.677791  0.582322  0.584874  1
  La  La14  1  0.677791  0.917678  0.084874  1
  La  La15  1  0.322209  0.417678  0.415126  1
  B  B16  1  0.194915  0.252829  0.588358  1
  B  B17  1  0.805085  0.752829  0.911642  1
  B  B18  1  0.805085  0.747171  0.411642  1
  B  B19  1  0.194915  0.247171  0.088358  1
  B  B20  1  0.303701  0.654103  0.854461  1
  B  B21  1  0.696299  0.154103  0.645539  1
  B  B22  1  0.696299  0.345897  0.145539  1
  B  B23  1  0.303701  0.845897  0.354461  1
  O  O24  1  0.122179  0.349741  0.464426  1
  O  O25  1  0.877821  0.849741  0.035574  1
  O  O26  1  0.877821  0.650259  0.535574  1
  O  O27  1  0.122179  0.150259  0.964426  1
  O  O28  1  0.141576  0.152964  0.661501  1
  O  O29  1  0.858424  0.652964  0.838499  1
  O  O30  1  0.858424  0.847036  0.338499  1
  O  O31  1  0.141576  0.347036  0.161501  1
  O  O32  1  0.350736  0.467371  0.912214  1
  O  O33  1  0.649264  0.967371  0.587786  1
  O  O34  1  0.649264  0.532629  0.087786  1
  O  O35  1  0.350736  0.032629  0.412214  1
  O  O36  1  0.199385  0.745902  0.859392  1
  O  O37  1  0.800615  0.245902  0.640608  1
  O  O38  1  0.800615  0.254098  0.140608  1
  O  O39  1  0.199385  0.754098  0.359392  1
  O  O40  1  0.633684  0.252065  0.712864  1
  O  O41  1  0.366316  0.752065  0.787136  1
  O  O42  1  0.366316  0.747935  0.287136  1
  O  O43  1  0.633684  0.247935  0.212864  1
  O  O44  1  0.526926  0.119835  0.902326  1
  O  O45  1  0.473074  0.619835  0.597674  1
  O  O46  1  0.473074  0.880165  0.097674  1
  O  O47  1  0.526926  0.380165  0.402326  1
  O  O48  1  0.332893  0.257368  0.638801  1
  O  O49  1  0.667107  0.757368  0.861199  1
  O  O50  1  0.667107  0.742632  0.361199  1
  O  O51  1  0.332893  0.242632  0.138801  1
