# generated using pymatgen
data_Te2Mo3W(Se2S)2
_symmetry_space_group_name_H-M   'P 1'
_cell_length_a   3.34440660
_cell_length_b   3.34448566
_cell_length_c   38.05210030
_cell_angle_alpha   90.00041255
_cell_angle_beta   90.00000000
_cell_angle_gamma   119.99921800
_symmetry_Int_Tables_number   1
_chemical_formula_structural   Te2Mo3W(Se2S)2
_chemical_formula_sum   'Te2 Mo3 W1 Se4 S2'
_cell_volume   368.60489397
_cell_formula_units_Z   1
loop_
 _symmetry_equiv_pos_site_id
 _symmetry_equiv_pos_as_xyz
  1  'x, y, z'
loop_
 _atom_site_type_symbol
 _atom_site_label
 _atom_site_symmetry_multiplicity
 _atom_site_fract_x
 _atom_site_fract_y
 _atom_site_fract_z
 _atom_site_occupancy
  Te  Te0  1  0.666649  0.333296  0.419768  1
  Te  Te1  1  0.666644  0.333286  0.519454  1
  Mo  Mo2  1  0.333307  0.666614  0.093919  1
  Mo  Mo3  1  0.333314  0.666628  0.469633  1
  Mo  Mo4  1  0.666725  0.333451  0.281791  1
  W  W5  1  0.666688  0.333377  0.657601  1
  Se  Se6  1  0.333352  0.666705  0.701596  1
  Se  Se7  1  0.666644  0.333287  0.050109  1
  Se  Se8  1  0.666650  0.333300  0.137743  1
  Se  Se9  1  0.333348  0.666698  0.613553  1
  S  S10  1  0.333339  0.666679  0.321630  1
  S  S11  1  0.333339  0.666679  0.241951  1
