# generated using pymatgen
data_Cs3TaS4
_symmetry_space_group_name_H-M   'P 1'
_cell_length_a   10.07824696
_cell_length_b   10.19941917
_cell_length_c   11.83322306
_cell_angle_alpha   90.00000000
_cell_angle_beta   90.00000000
_cell_angle_gamma   90.00000000
_symmetry_Int_Tables_number   1
_chemical_formula_structural   Cs3TaS4
_chemical_formula_sum   'Cs12 Ta4 S16'
_cell_volume   1216.36380347
_cell_formula_units_Z   4
loop_
 _symmetry_equiv_pos_site_id
 _symmetry_equiv_pos_as_xyz
  1  'x, y, z'
loop_
 _atom_site_type_symbol
 _atom_site_label
 _atom_site_symmetry_multiplicity
 _atom_site_fract_x
 _atom_site_fract_y
 _atom_site_fract_z
 _atom_site_occupancy
  S  S0  1  0.204270  0.738857  0.250000  1
  S  S1  1  0.704270  0.761143  0.250000  1
  S  S2  1  0.295730  0.238857  0.750000  1
  S  S3  1  0.795730  0.261143  0.750000  1
  S  S4  1  0.012314  0.425915  0.250000  1
  S  S5  1  0.512314  0.074085  0.250000  1
  S  S6  1  0.487686  0.925915  0.750000  1
  S  S7  1  0.987686  0.574085  0.750000  1
  S  S8  1  0.667818  0.548501  0.590344  1
  S  S9  1  0.167818  0.951499  0.909656  1
  S  S10  1  0.832182  0.048501  0.409656  1
  S  S11  1  0.332182  0.451499  0.090344  1
  S  S12  1  0.332182  0.451499  0.409656  1
  S  S13  1  0.667818  0.548501  0.909656  1
  S  S14  1  0.167818  0.951499  0.590344  1
  S  S15  1  0.832182  0.048501  0.090344  1
  Cs  Cs16  1  0.949557  0.710660  0.041835  1
  Cs  Cs17  1  0.449557  0.789340  0.041835  1
  Cs  Cs18  1  0.550443  0.210660  0.541835  1
  Cs  Cs19  1  0.050443  0.289340  0.958165  1
  Cs  Cs20  1  0.145375  0.079577  0.250000  1
  Cs  Cs21  1  0.645375  0.420423  0.250000  1
  Cs  Cs22  1  0.354625  0.579577  0.750000  1
  Cs  Cs23  1  0.854625  0.920423  0.750000  1
  Cs  Cs24  1  0.050443  0.289340  0.541835  1
  Cs  Cs25  1  0.449557  0.789340  0.458165  1
  Cs  Cs26  1  0.550443  0.210660  0.958165  1
  Cs  Cs27  1  0.949557  0.710660  0.458165  1
  Ta  Ta28  1  0.778648  0.485256  0.750000  1
  Ta  Ta29  1  0.278648  0.014744  0.750000  1
  Ta  Ta30  1  0.721352  0.985256  0.250000  1
  Ta  Ta31  1  0.221352  0.514744  0.250000  1
