# generated using pymatgen
data_Te4MoW3Se4
_symmetry_space_group_name_H-M   'P 1'
_cell_length_a   3.43781947
_cell_length_b   3.43775841
_cell_length_c   39.16656312
_cell_angle_alpha   90.00025197
_cell_angle_beta   90.00000000
_cell_angle_gamma   120.00058769
_symmetry_Int_Tables_number   1
_chemical_formula_structural   Te4MoW3Se4
_chemical_formula_sum   'Te4 Mo1 W3 Se4'
_cell_volume   400.86851104
_cell_formula_units_Z   1
loop_
 _symmetry_equiv_pos_site_id
 _symmetry_equiv_pos_as_xyz
  1  'x, y, z'
loop_
 _atom_site_type_symbol
 _atom_site_label
 _atom_site_symmetry_multiplicity
 _atom_site_fract_x
 _atom_site_fract_y
 _atom_site_fract_z
 _atom_site_occupancy
  Te  Te0  1  0.666646  0.333291  0.046575  1
  Te  Te1  1  0.666648  0.333294  0.421944  1
  Te  Te2  1  0.666649  0.333296  0.141268  1
  Te  Te3  1  0.666636  0.333272  0.517373  1
  Mo  Mo4  1  0.333310  0.666619  0.093918  1
  W  W5  1  0.333308  0.666615  0.469661  1
  W  W6  1  0.666687  0.333373  0.281800  1
  W  W7  1  0.666689  0.333379  0.657545  1
  Se  Se8  1  0.333360  0.666721  0.323761  1
  Se  Se9  1  0.333360  0.666721  0.699483  1
  Se  Se10  1  0.333350  0.666701  0.239841  1
  Se  Se11  1  0.333359  0.666719  0.615577  1
