# generated using pymatgen
data_PrZnPO
_symmetry_space_group_name_H-M   'P 1'
_cell_length_a   10.72355245
_cell_length_b   10.72355245
_cell_length_c   10.72355245
_cell_angle_alpha   21.63215147
_cell_angle_beta   21.63215147
_cell_angle_gamma   21.63215150
_symmetry_Int_Tables_number   1
_chemical_formula_structural   PrZnPO
_chemical_formula_sum   'Pr2 Zn2 P2 O2'
_cell_volume   146.85638814
_cell_formula_units_Z   2
loop_
 _symmetry_equiv_pos_site_id
 _symmetry_equiv_pos_as_xyz
  1  'x, y, z'
loop_
 _atom_site_type_symbol
 _atom_site_label
 _atom_site_symmetry_multiplicity
 _atom_site_fract_x
 _atom_site_fract_y
 _atom_site_fract_z
 _atom_site_occupancy
  O  O0  1  0.695007  0.695007  0.695007  1
  O  O1  1  0.304993  0.304993  0.304993  1
  P  P2  1  0.114704  0.114704  0.114704  1
  P  P3  1  0.885296  0.885296  0.885296  1
  Zn  Zn4  1  0.196040  0.196040  0.196040  1
  Zn  Zn5  1  0.803960  0.803960  0.803960  1
  Pr  Pr6  1  0.618362  0.618362  0.618362  1
  Pr  Pr7  1  0.381638  0.381638  0.381638  1
