# generated using pymatgen
data_Dy4Si2S3O7
_symmetry_space_group_name_H-M   'P 1'
_cell_length_a   10.75819767
_cell_length_b   10.75819767
_cell_length_c   10.75819768
_cell_angle_alpha   100.94438843
_cell_angle_beta   113.89563492
_cell_angle_gamma   113.89563494
_symmetry_Int_Tables_number   1
_chemical_formula_structural   Dy4Si2S3O7
_chemical_formula_sum   'Dy16 Si8 S12 O28'
_cell_volume   942.92920970
_cell_formula_units_Z   4
loop_
 _symmetry_equiv_pos_site_id
 _symmetry_equiv_pos_as_xyz
  1  'x, y, z'
loop_
 _atom_site_type_symbol
 _atom_site_label
 _atom_site_symmetry_multiplicity
 _atom_site_fract_x
 _atom_site_fract_y
 _atom_site_fract_z
 _atom_site_occupancy
  O  O0  1  0.250000  0.399300  0.149300  1
  O  O1  1  0.750000  0.149300  0.399300  1
  O  O2  1  0.750000  0.600700  0.850700  1
  O  O3  1  0.250000  0.850700  0.600700  1
  O  O4  1  0.017443  0.825824  0.343267  1
  O  O5  1  0.482557  0.825824  0.808382  1
  O  O6  1  0.482557  0.656733  0.174176  1
  O  O7  1  0.982557  0.808382  0.825824  1
  O  O8  1  0.517443  0.343267  0.825824  1
  O  O9  1  0.517443  0.174176  0.191618  1
  O  O10  1  0.982557  0.174176  0.656733  1
  O  O11  1  0.017443  0.191618  0.174176  1
  O  O12  1  0.767920  0.918282  0.432935  1
  O  O13  1  0.732080  0.165015  0.150362  1
  O  O14  1  0.732080  0.567065  0.081718  1
  O  O15  1  0.985347  0.150362  0.918282  1
  O  O16  1  0.514653  0.432935  0.165015  1
  O  O17  1  0.514653  0.081718  0.849638  1
  O  O18  1  0.985347  0.834985  0.567065  1
  O  O19  1  0.767920  0.849638  0.834985  1
  O  O20  1  0.232080  0.081718  0.567065  1
  O  O21  1  0.267920  0.834985  0.849638  1
  O  O22  1  0.267920  0.432935  0.918282  1
  O  O23  1  0.014653  0.849638  0.081718  1
  O  O24  1  0.485347  0.567065  0.834985  1
  O  O25  1  0.485347  0.918282  0.150362  1
  O  O26  1  0.014653  0.165015  0.432935  1
  O  O27  1  0.232080  0.150362  0.165015  1
  Si  Si28  1  0.375055  0.903952  0.779008  1
  Si  Si29  1  0.124945  0.903952  0.528897  1
  Si  Si30  1  0.124945  0.220992  0.096048  1
  Si  Si31  1  0.624945  0.528897  0.903952  1
  Si  Si32  1  0.875055  0.779008  0.903952  1
  Si  Si33  1  0.875055  0.096048  0.471103  1
  Si  Si34  1  0.624945  0.096048  0.220992  1
  Si  Si35  1  0.375055  0.471103  0.096048  1
  S  S36  1  0.250000  0.125000  0.875000  1
  S  S37  1  0.750000  0.875000  0.125000  1
  S  S38  1  0.750000  0.375000  0.625000  1
  S  S39  1  0.250000  0.625000  0.375000  1
  S  S40  1  0.853733  0.500000  0.353733  1
  S  S41  1  0.853733  0.353733  0.000000  1
  S  S42  1  0.646267  0.646267  0.500000  1
  S  S43  1  0.646267  0.000000  0.646267  1
  S  S44  1  0.146267  0.500000  0.646267  1
  S  S45  1  0.146267  0.646267  0.000000  1
  S  S46  1  0.353733  0.353733  0.500000  1
  S  S47  1  0.353733  0.000000  0.353733  1
  Dy  Dy48  1  0.094395  0.047198  0.297198  1
  Dy  Dy49  1  0.250000  0.297198  0.702802  1
  Dy  Dy50  1  0.250000  0.952802  0.047198  1
  Dy  Dy51  1  0.405605  0.702802  0.952802  1
  Dy  Dy52  1  0.905605  0.952802  0.702802  1
  Dy  Dy53  1  0.750000  0.702802  0.297198  1
  Dy  Dy54  1  0.750000  0.047198  0.952802  1
  Dy  Dy55  1  0.594395  0.297198  0.047198  1
  Dy  Dy56  1  0.014278  0.658384  0.172662  1
  Dy  Dy57  1  0.485722  0.658384  0.644106  1
  Dy  Dy58  1  0.485722  0.827338  0.341616  1
  Dy  Dy59  1  0.985722  0.644106  0.658384  1
  Dy  Dy60  1  0.514278  0.172662  0.658384  1
  Dy  Dy61  1  0.514278  0.341616  0.355894  1
  Dy  Dy62  1  0.985722  0.341616  0.827338  1
  Dy  Dy63  1  0.014278  0.355894  0.341616  1
