# generated using pymatgen
data_Co2Mo3O8
_symmetry_space_group_name_H-M   'P 1'
_cell_length_a   5.86555761
_cell_length_b   5.86555761
_cell_length_c   9.99687722
_cell_angle_alpha   90.00000000
_cell_angle_beta   90.00000000
_cell_angle_gamma   119.99999995
_symmetry_Int_Tables_number   1
_chemical_formula_structural   Co2Mo3O8
_chemical_formula_sum   'Co4 Mo6 O16'
_cell_volume   297.86096999
_cell_formula_units_Z   2
loop_
 _symmetry_equiv_pos_site_id
 _symmetry_equiv_pos_as_xyz
  1  'x, y, z'
loop_
 _atom_site_type_symbol
 _atom_site_label
 _atom_site_symmetry_multiplicity
 _atom_site_fract_x
 _atom_site_fract_y
 _atom_site_fract_z
 _atom_site_occupancy
  O  O0  1  0.830867  0.169133  0.132477  1
  O  O1  1  0.661735  0.830867  0.632477  1
  O  O2  1  0.169133  0.338265  0.632477  1
  O  O3  1  0.830867  0.661735  0.132477  1
  O  O4  1  0.338265  0.169133  0.132477  1
  O  O5  1  0.169133  0.830867  0.632477  1
  O  O6  1  0.512305  0.487695  0.866060  1
  O  O7  1  0.024610  0.512305  0.366060  1
  O  O8  1  0.487695  0.975390  0.366060  1
  O  O9  1  0.512305  0.024610  0.866060  1
  O  O10  1  0.000000  0.000000  0.392531  1
  O  O11  1  0.000000  0.000000  0.892531  1
  O  O12  1  0.333333  0.666667  0.143926  1
  O  O13  1  0.666667  0.333333  0.643926  1
  O  O14  1  0.487695  0.512305  0.366060  1
  O  O15  1  0.975390  0.487695  0.866060  1
  Co  Co16  1  0.333333  0.666667  0.946744  1
  Co  Co17  1  0.666667  0.333333  0.446744  1
  Co  Co18  1  0.333333  0.666667  0.513057  1
  Co  Co19  1  0.666667  0.333333  0.013057  1
  Mo  Mo20  1  0.292120  0.146060  0.749044  1
  Mo  Mo21  1  0.146060  0.853940  0.249044  1
  Mo  Mo22  1  0.853940  0.707880  0.749044  1
  Mo  Mo23  1  0.146060  0.292120  0.249044  1
  Mo  Mo24  1  0.707880  0.853940  0.249044  1
  Mo  Mo25  1  0.853940  0.146060  0.749044  1
