# generated using pymatgen
data_K2MnSO4F3
_symmetry_space_group_name_H-M   'P 1'
_cell_length_a   7.45956955
_cell_length_b   8.53063279
_cell_length_c   10.98786476
_cell_angle_alpha   90.00000000
_cell_angle_beta   90.00000000
_cell_angle_gamma   90.00000000
_symmetry_Int_Tables_number   1
_chemical_formula_structural   K2MnSO4F3
_chemical_formula_sum   'K8 Mn4 S4 O16 F12'
_cell_volume   699.21111047
_cell_formula_units_Z   4
loop_
 _symmetry_equiv_pos_site_id
 _symmetry_equiv_pos_as_xyz
  1  'x, y, z'
loop_
 _atom_site_type_symbol
 _atom_site_label
 _atom_site_symmetry_multiplicity
 _atom_site_fract_x
 _atom_site_fract_y
 _atom_site_fract_z
 _atom_site_occupancy
  O  O0  1  0.333558  0.098562  0.403591  1
  O  O1  1  0.833558  0.401438  0.096409  1
  O  O2  1  0.166442  0.098562  0.596409  1
  O  O3  1  0.666442  0.401438  0.903591  1
  O  O4  1  0.666442  0.901438  0.596409  1
  O  O5  1  0.166442  0.598562  0.903591  1
  O  O6  1  0.833558  0.901438  0.403591  1
  O  O7  1  0.333558  0.598562  0.096409  1
  O  O8  1  0.388641  0.297376  0.560856  1
  O  O9  1  0.888641  0.202624  0.939144  1
  O  O10  1  0.111359  0.297376  0.439144  1
  O  O11  1  0.611359  0.202624  0.060856  1
  O  O12  1  0.111359  0.797376  0.060856  1
  O  O13  1  0.888641  0.702624  0.560856  1
  O  O14  1  0.611359  0.702624  0.439144  1
  O  O15  1  0.388641  0.797376  0.939144  1
  F  F16  1  0.475273  0.941878  0.162938  1
  F  F17  1  0.975273  0.558122  0.337062  1
  F  F18  1  0.024727  0.941878  0.837062  1
  F  F19  1  0.524727  0.558122  0.662938  1
  F  F20  1  0.750000  0.882154  0.000000  1
  F  F21  1  0.250000  0.617846  0.500000  1
  F  F22  1  0.250000  0.117846  0.000000  1
  F  F23  1  0.750000  0.382154  0.500000  1
  F  F24  1  0.975273  0.058122  0.162938  1
  F  F25  1  0.524727  0.058122  0.837062  1
  F  F26  1  0.024727  0.441878  0.662938  1
  F  F27  1  0.475273  0.441878  0.337062  1
  S  S28  1  0.250000  0.192394  0.500000  1
  S  S29  1  0.750000  0.307606  0.000000  1
  S  S30  1  0.750000  0.807606  0.500000  1
  S  S31  1  0.250000  0.692394  0.000000  1
  K  K32  1  0.811773  0.669725  0.808974  1
  K  K33  1  0.811773  0.169725  0.691026  1
  K  K34  1  0.311773  0.830275  0.691026  1
  K  K35  1  0.688227  0.669725  0.191026  1
  K  K36  1  0.688227  0.169725  0.308974  1
  K  K37  1  0.311773  0.330275  0.808974  1
  K  K38  1  0.188227  0.330275  0.191026  1
  K  K39  1  0.188227  0.830275  0.308974  1
  Mn  Mn40  1  0.500000  0.500000  0.500000  1
  Mn  Mn41  1  0.500000  0.000000  0.000000  1
  Mn  Mn42  1  0.000000  0.500000  0.500000  1
  Mn  Mn43  1  0.000000  0.000000  0.000000  1
