# generated using pymatgen
data_LuAl3(PbO4)2
_symmetry_space_group_name_H-M   'P 1'
_cell_length_a   9.48430377
_cell_length_b   9.48430377
_cell_length_c   9.48430377
_cell_angle_alpha   90.00000000
_cell_angle_beta   90.00000000
_cell_angle_gamma   90.00000000
_symmetry_Int_Tables_number   1
_chemical_formula_structural   LuAl3(PbO4)2
_chemical_formula_sum   'Lu4 Al12 Pb8 O32'
_cell_volume   853.13226345
_cell_formula_units_Z   4
loop_
 _symmetry_equiv_pos_site_id
 _symmetry_equiv_pos_as_xyz
  1  'x, y, z'
loop_
 _atom_site_type_symbol
 _atom_site_label
 _atom_site_symmetry_multiplicity
 _atom_site_fract_x
 _atom_site_fract_y
 _atom_site_fract_z
 _atom_site_occupancy
  O  O0  1  0.765901  0.410201  0.410201  1
  O  O1  1  0.765901  0.089799  0.089799  1
  O  O2  1  0.410201  0.410201  0.765901  1
  O  O3  1  0.089799  0.410201  0.734099  1
  O  O4  1  0.410201  0.765901  0.410201  1
  O  O5  1  0.089799  0.734099  0.410201  1
  O  O6  1  0.265901  0.910201  0.589799  1
  O  O7  1  0.265901  0.589799  0.910201  1
  O  O8  1  0.234099  0.910201  0.910201  1
  O  O9  1  0.589799  0.910201  0.265901  1
  O  O10  1  0.910201  0.234099  0.910201  1
  O  O11  1  0.910201  0.265901  0.589799  1
  O  O12  1  0.910201  0.589799  0.265901  1
  O  O13  1  0.589799  0.265901  0.910201  1
  O  O14  1  0.910201  0.910201  0.234099  1
  O  O15  1  0.589799  0.589799  0.234099  1
  O  O16  1  0.589799  0.234099  0.589799  1
  O  O17  1  0.089799  0.765901  0.089799  1
  O  O18  1  0.410201  0.734099  0.089799  1
  O  O19  1  0.410201  0.089799  0.734099  1
  O  O20  1  0.089799  0.089799  0.765901  1
  O  O21  1  0.734099  0.089799  0.410201  1
  O  O22  1  0.734099  0.410201  0.089799  1
  O  O23  1  0.234099  0.589799  0.589799  1
  O  O24  1  0.865122  0.865122  0.865122  1
  O  O25  1  0.365122  0.134878  0.365122  1
  O  O26  1  0.365122  0.365122  0.134878  1
  O  O27  1  0.134878  0.365122  0.365122  1
  O  O28  1  0.634878  0.634878  0.865122  1
  O  O29  1  0.865122  0.634878  0.634878  1
  O  O30  1  0.634878  0.865122  0.634878  1
  O  O31  1  0.134878  0.134878  0.134878  1
  Al  Al32  1  0.750000  0.250000  0.500000  1
  Al  Al33  1  0.000000  0.750000  0.250000  1
  Al  Al34  1  0.500000  0.750000  0.250000  1
  Al  Al35  1  0.250000  0.500000  0.750000  1
  Al  Al36  1  0.250000  0.000000  0.750000  1
  Al  Al37  1  0.750000  0.250000  0.000000  1
  Al  Al38  1  0.250000  0.750000  0.500000  1
  Al  Al39  1  0.000000  0.250000  0.750000  1
  Al  Al40  1  0.500000  0.250000  0.750000  1
  Al  Al41  1  0.750000  0.500000  0.250000  1
  Al  Al42  1  0.750000  0.000000  0.250000  1
  Al  Al43  1  0.250000  0.750000  0.000000  1
  Lu  Lu44  1  0.500000  0.000000  0.500000  1
  Lu  Lu45  1  0.000000  0.500000  0.500000  1
  Lu  Lu46  1  0.000000  0.000000  0.000000  1
  Lu  Lu47  1  0.500000  0.500000  0.000000  1
  Pb  Pb48  1  0.615534  0.615534  0.615534  1
  Pb  Pb49  1  0.115534  0.384466  0.115534  1
  Pb  Pb50  1  0.384466  0.115534  0.115534  1
  Pb  Pb51  1  0.115534  0.115534  0.384466  1
  Pb  Pb52  1  0.615534  0.884466  0.884466  1
  Pb  Pb53  1  0.884466  0.884466  0.615534  1
  Pb  Pb54  1  0.884466  0.615534  0.884466  1
  Pb  Pb55  1  0.384466  0.384466  0.384466  1
