# generated using pymatgen
data_Li2CaHfF8
_symmetry_space_group_name_H-M   'P 1'
_cell_length_a   5.17664399
_cell_length_b   5.17659953
_cell_length_c   6.44545748
_cell_angle_alpha   113.67469003
_cell_angle_beta   113.67526830
_cell_angle_gamma   90.00282090
_symmetry_Int_Tables_number   1
_chemical_formula_structural   Li2CaHfF8
_chemical_formula_sum   'Li2 Ca1 Hf1 F8'
_cell_volume   142.16809369
_cell_formula_units_Z   1
loop_
 _symmetry_equiv_pos_site_id
 _symmetry_equiv_pos_as_xyz
  1  'x, y, z'
loop_
 _atom_site_type_symbol
 _atom_site_label
 _atom_site_symmetry_multiplicity
 _atom_site_fract_x
 _atom_site_fract_y
 _atom_site_fract_z
 _atom_site_occupancy
  Li  Li0  1  0.249969  0.749979  0.499986  1
  Li  Li1  1  0.499974  0.499985  0.000009  1
  F  F2  1  0.606897  0.009029  0.639646  1
  F  F3  1  0.119888  0.262832  0.821197  1
  F  F4  1  0.990998  0.967334  0.360393  1
  F  F5  1  0.369483  0.393132  0.360291  1
  F  F6  1  0.032720  0.630595  0.639690  1
  F  F7  1  0.737290  0.298760  0.178800  1
  F  F8  1  0.701173  0.558311  0.821118  1
  F  F9  1  0.441627  0.880079  0.178879  1
  Ca  Ca10  1  0.999991  0.999977  -0.000010  1
  Hf  Hf11  1  0.749990  0.249987  0.500001  1
