# generated using pymatgen
data_BaHo2O4
_symmetry_space_group_name_H-M   'P 1'
_cell_length_a   3.46456586
_cell_length_b   10.47774618
_cell_length_c   12.16223734
_cell_angle_alpha   90.00000000
_cell_angle_beta   90.00000000
_cell_angle_gamma   90.00000000
_symmetry_Int_Tables_number   1
_chemical_formula_structural   BaHo2O4
_chemical_formula_sum   'Ba4 Ho8 O16'
_cell_volume   441.49945246
_cell_formula_units_Z   4
loop_
 _symmetry_equiv_pos_site_id
 _symmetry_equiv_pos_as_xyz
  1  'x, y, z'
loop_
 _atom_site_type_symbol
 _atom_site_label
 _atom_site_symmetry_multiplicity
 _atom_site_fract_x
 _atom_site_fract_y
 _atom_site_fract_z
 _atom_site_occupancy
  O  O0  1  0.250000  0.930129  0.073941  1
  O  O1  1  0.750000  0.069871  0.926059  1
  O  O2  1  0.250000  0.430129  0.426059  1
  O  O3  1  0.750000  0.569871  0.573941  1
  O  O4  1  0.250000  0.018927  0.717227  1
  O  O5  1  0.750000  0.981073  0.282773  1
  O  O6  1  0.250000  0.518927  0.782773  1
  O  O7  1  0.750000  0.481073  0.217227  1
  O  O8  1  0.250000  0.614451  0.018068  1
  O  O9  1  0.750000  0.385549  0.981932  1
  O  O10  1  0.250000  0.114451  0.481932  1
  O  O11  1  0.750000  0.885549  0.518068  1
  O  O12  1  0.750000  0.790596  0.842675  1
  O  O13  1  0.250000  0.209404  0.157325  1
  O  O14  1  0.750000  0.290596  0.657325  1
  O  O15  1  0.250000  0.709404  0.342675  1
  Ba  Ba16  1  0.750000  0.246758  0.350945  1
  Ba  Ba17  1  0.250000  0.753242  0.649055  1
  Ba  Ba18  1  0.750000  0.746758  0.149055  1
  Ba  Ba19  1  0.250000  0.253242  0.850945  1
  Ho  Ho20  1  0.250000  0.922449  0.391129  1
  Ho  Ho21  1  0.750000  0.077551  0.608871  1
  Ho  Ho22  1  0.250000  0.422449  0.108871  1
  Ho  Ho23  1  0.750000  0.577551  0.891129  1
  Ho  Ho24  1  0.750000  0.573347  0.389251  1
  Ho  Ho25  1  0.250000  0.426653  0.610749  1
  Ho  Ho26  1  0.750000  0.073347  0.110749  1
  Ho  Ho27  1  0.250000  0.926653  0.889251  1
