# generated using pymatgen
data_Lu3Co29(Si2B5)2
_symmetry_space_group_name_H-M   'P 1'
_cell_length_a   7.79002834
_cell_length_b   11.08495826
_cell_length_c   11.08495826
_cell_angle_alpha   90.00000000
_cell_angle_beta   90.00000000
_cell_angle_gamma   90.00000000
_symmetry_Int_Tables_number   1
_chemical_formula_structural   Lu3Co29(Si2B5)2
_chemical_formula_sum   'Lu6 Co58 Si8 B20'
_cell_volume   957.20985640
_cell_formula_units_Z   2
loop_
 _symmetry_equiv_pos_site_id
 _symmetry_equiv_pos_as_xyz
  1  'x, y, z'
loop_
 _atom_site_type_symbol
 _atom_site_label
 _atom_site_symmetry_multiplicity
 _atom_site_fract_x
 _atom_site_fract_y
 _atom_site_fract_z
 _atom_site_occupancy
  B  B0  1  0.518820  0.935806  0.935806  1
  B  B1  1  0.518820  0.564194  0.564194  1
  B  B2  1  0.518820  0.935806  0.564194  1
  B  B3  1  0.518820  0.564194  0.935806  1
  B  B4  1  0.481180  0.435806  0.435806  1
  B  B5  1  0.481180  0.064194  0.435806  1
  B  B6  1  0.264483  0.006076  0.750000  1
  B  B7  1  0.264483  0.493924  0.750000  1
  B  B8  1  0.264483  0.750000  0.493924  1
  B  B9  1  0.264483  0.750000  0.006076  1
  B  B10  1  0.735517  0.250000  0.506076  1
  B  B11  1  0.735517  0.993924  0.250000  1
  B  B12  1  0.735517  0.506076  0.250000  1
  B  B13  1  0.735517  0.250000  0.993924  1
  B  B14  1  0.149360  0.750000  0.750000  1
  B  B15  1  0.850640  0.250000  0.250000  1
  B  B16  1  0.892712  0.750000  0.750000  1
  B  B17  1  0.107288  0.250000  0.250000  1
  B  B18  1  0.481180  0.435806  0.064194  1
  B  B19  1  0.481180  0.064194  0.064194  1
  Si  Si20  1  0.825139  0.432743  0.750000  1
  Si  Si21  1  0.174861  0.250000  0.567257  1
  Si  Si22  1  0.174861  0.932743  0.250000  1
  Si  Si23  1  0.174861  0.567257  0.250000  1
  Si  Si24  1  0.174861  0.250000  0.932743  1
  Si  Si25  1  0.825139  0.750000  0.432743  1
  Si  Si26  1  0.825139  0.750000  0.067257  1
  Si  Si27  1  0.825139  0.067257  0.750000  1
  Co  Co28  1  0.335741  0.424075  0.588684  1
  Co  Co29  1  0.527101  0.750000  0.520989  1
  Co  Co30  1  0.527101  0.520989  0.750000  1
  Co  Co31  1  0.527101  0.979011  0.750000  1
  Co  Co32  1  0.969674  0.250000  0.084801  1
  Co  Co33  1  0.969674  0.415199  0.250000  1
  Co  Co34  1  0.969674  0.084801  0.250000  1
  Co  Co35  1  0.969674  0.250000  0.415199  1
  Co  Co36  1  0.030326  0.750000  0.915199  1
  Co  Co37  1  0.030326  0.750000  0.584801  1
  Co  Co38  1  0.030326  0.584801  0.750000  1
  Co  Co39  1  0.030326  0.915199  0.750000  1
  Co  Co40  1  0.246595  0.133264  0.133264  1
  Co  Co41  1  0.246595  0.366736  0.133264  1
  Co  Co42  1  0.246595  0.133264  0.366736  1
  Co  Co43  1  0.246595  0.366736  0.366736  1
  Co  Co44  1  0.753405  0.633264  0.866736  1
  Co  Co45  1  0.753405  0.866736  0.633264  1
  Co  Co46  1  0.753405  0.633264  0.633264  1
  Co  Co47  1  0.753405  0.866736  0.866736  1
  Co  Co48  1  0.698210  0.139751  0.139751  1
  Co  Co49  1  0.698210  0.360249  0.139751  1
  Co  Co50  1  0.698210  0.139751  0.360249  1
  Co  Co51  1  0.698210  0.360249  0.360249  1
  Co  Co52  1  0.301790  0.639751  0.860249  1
  Co  Co53  1  0.301790  0.860249  0.639751  1
  Co  Co54  1  0.301790  0.639751  0.639751  1
  Co  Co55  1  0.301790  0.860249  0.860249  1
  Co  Co56  1  0.335741  0.075925  0.588684  1
  Co  Co57  1  0.335741  0.911316  0.075925  1
  Co  Co58  1  0.335741  0.588684  0.424075  1
  Co  Co59  1  0.335741  0.424075  0.911316  1
  Co  Co60  1  0.664259  0.575925  0.411316  1
  Co  Co61  1  0.664259  0.924075  0.088684  1
  Co  Co62  1  0.664259  0.088684  0.575925  1
  Co  Co63  1  0.888417  0.250000  0.860134  1
  Co  Co64  1  0.664259  0.924075  0.411316  1
  Co  Co65  1  0.664259  0.088684  0.924075  1
  Co  Co66  1  0.664259  0.411316  0.575925  1
  Co  Co67  1  0.664259  0.575925  0.088684  1
  Co  Co68  1  0.527101  0.750000  0.979011  1
  Co  Co69  1  0.888417  0.639866  0.250000  1
  Co  Co70  1  0.335741  0.911316  0.424075  1
  Co  Co71  1  0.335741  0.588684  0.075925  1
  Co  Co72  1  0.888417  0.860134  0.250000  1
  Co  Co73  1  0.888417  0.250000  0.639866  1
  Co  Co74  1  0.535852  0.750000  0.750000  1
  Co  Co75  1  0.464148  0.250000  0.250000  1
  Co  Co76  1  0.111583  0.750000  0.360134  1
  Co  Co77  1  0.472899  0.250000  0.479011  1
  Co  Co78  1  0.472899  0.020989  0.250000  1
  Co  Co79  1  0.472899  0.479011  0.250000  1
  Co  Co80  1  0.472899  0.250000  0.020989  1
  Co  Co81  1  0.111583  0.360134  0.750000  1
  Co  Co82  1  0.111583  0.139866  0.750000  1
  Co  Co83  1  0.111583  0.750000  0.139866  1
  Co  Co84  1  0.664259  0.411316  0.924075  1
  Co  Co85  1  0.335741  0.075925  0.911316  1
  Lu  Lu86  1  0.000000  0.500000  0.500000  1
  Lu  Lu87  1  0.000000  0.000000  0.500000  1
  Lu  Lu88  1  0.000000  0.500000  0.000000  1
  Lu  Lu89  1  0.000000  0.000000  0.000000  1
  Lu  Lu90  1  0.500000  0.750000  0.250000  1
  Lu  Lu91  1  0.500000  0.250000  0.750000  1
