# generated using pymatgen
data_MoWSeS3
_symmetry_space_group_name_H-M   'P 1'
_cell_length_a   3.22219095
_cell_length_b   3.22215615
_cell_length_c   36.39090688
_cell_angle_alpha   90.00009885
_cell_angle_beta   90.00000000
_cell_angle_gamma   120.00035715
_symmetry_Int_Tables_number   1
_chemical_formula_structural   MoWSeS3
_chemical_formula_sum   'Mo2 W2 Se2 S6'
_cell_volume   327.20490408
_cell_formula_units_Z   2
loop_
 _symmetry_equiv_pos_site_id
 _symmetry_equiv_pos_as_xyz
  1  'x, y, z'
loop_
 _atom_site_type_symbol
 _atom_site_label
 _atom_site_symmetry_multiplicity
 _atom_site_fract_x
 _atom_site_fract_y
 _atom_site_fract_z
 _atom_site_occupancy
  Mo  Mo0  1  0.333310  0.666619  0.093923  1
  Mo  Mo1  1  0.666687  0.333374  0.281787  1
  W  W2  1  0.333311  0.666623  0.469656  1
  W  W3  1  0.666691  0.333382  0.657551  1
  Se  Se4  1  0.666646  0.333292  0.422391  1
  Se  Se5  1  0.666648  0.333294  0.516925  1
  S  S6  1  0.333352  0.666706  0.324519  1
  S  S7  1  0.333359  0.666718  0.700449  1
  S  S8  1  0.666644  0.333286  0.051167  1
  S  S9  1  0.666646  0.333290  0.136674  1
  S  S10  1  0.333353  0.666707  0.239050  1
  S  S11  1  0.333354  0.666708  0.614656  1
