# generated using pymatgen
data_Mo3W(SeS)4
_symmetry_space_group_name_H-M   'P 1'
_cell_length_a   3.25235020
_cell_length_b   3.25229429
_cell_length_c   36.85370683
_cell_angle_alpha   90.00013025
_cell_angle_beta   90.00000000
_cell_angle_gamma   120.00056872
_symmetry_Int_Tables_number   1
_chemical_formula_structural   Mo3W(SeS)4
_chemical_formula_sum   'Mo3 W1 Se4 S4'
_cell_volume   337.59535153
_cell_formula_units_Z   1
loop_
 _symmetry_equiv_pos_site_id
 _symmetry_equiv_pos_as_xyz
  1  'x, y, z'
loop_
 _atom_site_type_symbol
 _atom_site_label
 _atom_site_symmetry_multiplicity
 _atom_site_fract_x
 _atom_site_fract_y
 _atom_site_fract_z
 _atom_site_occupancy
  Mo  Mo0  1  0.333308  0.666615  0.093898  1
  Mo  Mo1  1  0.666689  0.333379  0.281816  1
  Mo  Mo2  1  0.666690  0.333381  0.657544  1
  W  W3  1  0.333311  0.666622  0.469661  1
  Se  Se4  1  0.333352  0.666704  0.703649  1
  Se  Se5  1  0.666643  0.333285  0.047797  1
  Se  Se6  1  0.666647  0.333293  0.140031  1
  Se  Se7  1  0.333360  0.666722  0.611443  1
  S  S8  1  0.333353  0.666708  0.323752  1
  S  S9  1  0.666642  0.333284  0.427614  1
  S  S10  1  0.666646  0.333291  0.511690  1
  S  S11  1  0.333358  0.666717  0.239854  1
