# generated using pymatgen
data_CrN2
_symmetry_space_group_name_H-M   'P 1'
_cell_length_a   5.68877059
_cell_length_b   15.04612831
_cell_length_c   16.23257056
_cell_angle_alpha   117.61027018
_cell_angle_beta   100.09186936
_cell_angle_gamma   90.00000285
_symmetry_Int_Tables_number   1
_chemical_formula_structural   CrN2
_chemical_formula_sum   'Cr16 N32'
_cell_volume   1206.87296675
_cell_formula_units_Z   16
loop_
 _symmetry_equiv_pos_site_id
 _symmetry_equiv_pos_as_xyz
  1  'x, y, z'
loop_
 _atom_site_type_symbol
 _atom_site_label
 _atom_site_symmetry_multiplicity
 _atom_site_fract_x
 _atom_site_fract_y
 _atom_site_fract_z
 _atom_site_occupancy
  Cr  Cr0  1  0.283225  0.922240  0.066450  1
  Cr  Cr1  1  0.716775  0.855790  0.933550  1
  Cr  Cr2  1  0.716775  0.077760  0.933550  1
  Cr  Cr3  1  0.283225  0.144210  0.066450  1
  Cr  Cr4  1  0.025666  0.275666  0.551332  1
  Cr  Cr5  1  0.974334  0.724334  0.448668  1
  Cr  Cr6  1  0.942172  0.903101  0.384343  1
  Cr  Cr7  1  0.057828  0.518757  0.615657  1
  Cr  Cr8  1  0.057828  0.096899  0.615657  1
  Cr  Cr9  1  0.942172  0.481243  0.384343  1
  Cr  Cr10  1  0.456509  0.206509  0.413018  1
  Cr  Cr11  1  0.543491  0.793491  0.586982  1
  Cr  Cr12  1  0.394976  0.948713  0.289951  1
  Cr  Cr13  1  0.605024  0.658762  0.710049  1
  Cr  Cr14  1  0.605024  0.051287  0.710049  1
  Cr  Cr15  1  0.394976  0.341238  0.289951  1
  N  N16  1  0.299036  0.049036  0.098072  1
  N  N17  1  0.700964  0.950964  0.901928  1
  N  N18  1  0.420573  0.076834  0.341146  1
  N  N19  1  0.579427  0.735687  0.658854  1
  N  N20  1  0.579427  0.923166  0.658854  1
  N  N21  1  0.420573  0.264313  0.341146  1
  N  N22  1  0.239552  0.240156  0.480311  1
  N  N23  1  0.760448  0.759844  0.519689  1
  N  N24  1  0.259241  0.759844  0.519689  1
  N  N25  1  0.740759  0.240156  0.480311  1
  N  N26  1  0.500000  0.869408  -0.000000  1
  N  N27  1  0.000000  0.869408  -0.000000  1
  N  N28  1  0.500000  0.130592  -0.000000  1
  N  N29  1  1.000000  0.130592  -0.000000  1
  N  N30  1  0.334737  0.912343  0.169475  1
  N  N31  1  0.665263  0.742869  0.830525  1
  N  N32  1  0.665263  0.087657  0.830525  1
  N  N33  1  0.334737  0.257131  0.169475  1
  N  N34  1  -0.000000  -0.000000  0.500000  1
  N  N35  1  -0.000000  0.500000  0.500000  1
  N  N36  1  0.059214  0.213675  0.618429  1
  N  N37  1  0.940786  0.595247  0.381571  1
  N  N38  1  0.940786  0.786325  0.381571  1
  N  N39  1  0.059214  0.404753  0.618429  1
  N  N40  1  0.163597  0.911611  0.327354  1
  N  N41  1  0.836403  0.584257  0.672646  1
  N  N42  1  0.336243  0.584257  0.672646  1
  N  N43  1  0.663757  0.911611  0.327354  1
  N  N44  1  0.836403  0.088389  0.672646  1
  N  N45  1  0.163597  0.415743  0.327354  1
  N  N46  1  0.663757  0.415743  0.327354  1
  N  N47  1  0.336243  0.088389  0.672646  1
