# generated using pymatgen
data_Te2MoW3(SeS2)2
_symmetry_space_group_name_H-M   'P 1'
_cell_length_a   3.30462985
_cell_length_b   3.30463387
_cell_length_c   38.44863108
_cell_angle_alpha   90.00580407
_cell_angle_beta   90.00000000
_cell_angle_gamma   119.99995990
_symmetry_Int_Tables_number   1
_chemical_formula_structural   Te2MoW3(SeS2)2
_chemical_formula_sum   'Te2 Mo1 W3 Se2 S4'
_cell_volume   363.62845174
_cell_formula_units_Z   1
loop_
 _symmetry_equiv_pos_site_id
 _symmetry_equiv_pos_as_xyz
  1  'x, y, z'
loop_
 _atom_site_type_symbol
 _atom_site_label
 _atom_site_symmetry_multiplicity
 _atom_site_fract_x
 _atom_site_fract_y
 _atom_site_fract_z
 _atom_site_occupancy
  Te  Te0  1  0.666605  0.333209  0.042995  1
  Te  Te1  1  0.666672  0.333343  0.142461  1
  Mo  Mo2  1  0.333300  0.666599  0.092720  1
  W  W3  1  0.333285  0.666570  0.469802  1
  W  W4  1  0.666724  0.333449  0.282747  1
  W  W5  1  0.666691  0.333383  0.657655  1
  Se  Se6  1  0.333426  0.666853  0.326652  1
  Se  Se7  1  0.333352  0.666706  0.238809  1
  S  S8  1  0.333378  0.666756  0.697549  1
  S  S9  1  0.666585  0.333169  0.429895  1
  S  S10  1  0.666642  0.333283  0.509703  1
  S  S11  1  0.333340  0.666681  0.617759  1
