# generated using pymatgen
data_Na3SrLaZnSi6O17
_symmetry_space_group_name_H-M   'P 1'
_cell_length_a   5.27239864
_cell_length_b   14.60938119
_cell_length_c   19.98516618
_cell_angle_alpha   90.00000000
_cell_angle_beta   90.00000000
_cell_angle_gamma   90.00000000
_symmetry_Int_Tables_number   1
_chemical_formula_structural   Na3SrLaZnSi6O17
_chemical_formula_sum   'Na12 Sr4 La4 Zn4 Si24 O68'
_cell_volume   1539.38703339
_cell_formula_units_Z   4
loop_
 _symmetry_equiv_pos_site_id
 _symmetry_equiv_pos_as_xyz
  1  'x, y, z'
loop_
 _atom_site_type_symbol
 _atom_site_label
 _atom_site_symmetry_multiplicity
 _atom_site_fract_x
 _atom_site_fract_y
 _atom_site_fract_z
 _atom_site_occupancy
  O  O0  1  0.776230  0.315979  0.417395  1
  O  O1  1  0.776230  0.684021  0.082605  1
  O  O2  1  0.223770  0.815979  0.082605  1
  O  O3  1  0.223770  0.184021  0.417395  1
  O  O4  1  0.223770  0.684021  0.582605  1
  O  O5  1  0.223770  0.315979  0.917395  1
  O  O6  1  0.776230  0.184021  0.917395  1
  O  O7  1  0.776230  0.815979  0.582605  1
  O  O8  1  0.765501  0.382940  0.271350  1
  O  O9  1  0.765501  0.617060  0.228650  1
  O  O10  1  0.234499  0.882940  0.228650  1
  O  O11  1  0.234499  0.117060  0.271350  1
  O  O12  1  0.234499  0.617060  0.728650  1
  O  O13  1  0.234499  0.382940  0.771350  1
  O  O14  1  0.765501  0.117060  0.771350  1
  O  O15  1  0.765501  0.882940  0.728650  1
  O  O16  1  0.355356  0.381544  0.352846  1
  O  O17  1  0.355356  0.618456  0.147154  1
  O  O18  1  0.644644  0.881544  0.147154  1
  O  O19  1  0.644644  0.118456  0.352846  1
  O  O20  1  0.644644  0.618456  0.647154  1
  O  O21  1  0.644644  0.381544  0.852846  1
  O  O22  1  0.355356  0.118456  0.852846  1
  O  O23  1  0.355356  0.881544  0.647154  1
  O  O24  1  0.289625  0.323613  0.232718  1
  O  O25  1  0.289625  0.676387  0.267282  1
  O  O26  1  0.710375  0.823613  0.267282  1
  O  O27  1  0.710375  0.176387  0.232718  1
  O  O28  1  0.360746  0.618620  0.014653  1
  O  O29  1  0.710375  0.676387  0.767282  1
  O  O30  1  0.289625  0.176387  0.732718  1
  O  O31  1  0.289625  0.823613  0.767282  1
  O  O32  1  0.365475  0.500000  0.250000  1
  O  O33  1  0.634525  0.000000  0.250000  1
  O  O34  1  0.634525  0.500000  0.750000  1
  O  O35  1  0.365475  0.000000  0.750000  1
  O  O36  1  0.231569  0.397876  0.067793  1
  O  O37  1  0.231569  0.602124  0.432207  1
  O  O38  1  0.768431  0.897876  0.432207  1
  O  O39  1  0.768431  0.102124  0.067793  1
  O  O40  1  0.768431  0.602124  0.932207  1
  O  O41  1  0.768431  0.397876  0.567793  1
  O  O42  1  0.231569  0.102124  0.567793  1
  O  O43  1  0.231569  0.897876  0.932207  1
  O  O44  1  0.639254  0.381380  0.985347  1
  O  O45  1  0.639254  0.618620  0.514653  1
  O  O46  1  0.360746  0.881380  0.514653  1
  O  O47  1  0.360746  0.118620  0.985347  1
  O  O48  1  0.661882  0.004247  0.917990  1
  O  O49  1  0.661882  0.995753  0.582010  1
  O  O50  1  0.338118  0.504247  0.582010  1
  O  O51  1  0.338118  0.495753  0.917990  1
  O  O52  1  0.338118  0.995753  0.082010  1
  O  O53  1  0.338118  0.004247  0.417990  1
  O  O54  1  0.661882  0.495753  0.417990  1
  O  O55  1  0.661882  0.504247  0.082010  1
  O  O56  1  0.697503  0.829028  0.890771  1
  O  O57  1  0.697503  0.170972  0.609229  1
  O  O58  1  0.302497  0.329028  0.609229  1
  O  O59  1  0.302497  0.670972  0.890771  1
  O  O60  1  0.302497  0.170972  0.109229  1
  O  O61  1  0.302497  0.829028  0.390771  1
  O  O62  1  0.697503  0.670972  0.390771  1
  O  O63  1  0.697503  0.329028  0.109229  1
  O  O64  1  0.639254  0.881380  0.014653  1
  O  O65  1  0.639254  0.118620  0.485347  1
  O  O66  1  0.360746  0.381380  0.485347  1
  O  O67  1  0.710375  0.323613  0.732718  1
  Na  Na68  1  0.995121  0.423726  0.171036  1
  Na  Na69  1  0.995121  0.576274  0.328964  1
  Na  Na70  1  0.004879  0.923726  0.328964  1
  Na  Na71  1  0.004879  0.076274  0.171036  1
  Na  Na72  1  0.004879  0.576274  0.828964  1
  Na  Na73  1  0.004879  0.423726  0.671036  1
  Na  Na74  1  0.995121  0.076274  0.671036  1
  Na  Na75  1  0.995121  0.923726  0.828964  1
  Na  Na76  1  0.000000  0.500000  0.000000  1
  Na  Na77  1  0.000000  0.500000  0.500000  1
  Na  Na78  1  0.000000  0.000000  0.500000  1
  Na  Na79  1  0.000000  0.000000  0.000000  1
  Si  Si80  1  0.450655  0.389054  0.918514  1
  Si  Si81  1  0.450655  0.610946  0.581486  1
  Si  Si82  1  0.549345  0.889054  0.581486  1
  Si  Si83  1  0.549345  0.110946  0.918514  1
  Si  Si84  1  0.549345  0.610946  0.081486  1
  Si  Si85  1  0.549345  0.389054  0.418514  1
  Si  Si86  1  0.450655  0.110946  0.418514  1
  Si  Si87  1  0.450655  0.889054  0.081486  1
  Si  Si88  1  0.464527  0.397220  0.273925  1
  Si  Si89  1  0.464527  0.602780  0.226075  1
  Si  Si90  1  0.535473  0.897220  0.226075  1
  Si  Si91  1  0.535473  0.102780  0.273925  1
  Si  Si92  1  0.535473  0.602780  0.726075  1
  Si  Si93  1  0.535473  0.397220  0.773925  1
  Si  Si94  1  0.464527  0.102780  0.773925  1
  Si  Si95  1  0.464527  0.897220  0.726075  1
  Si  Si96  1  0.534300  0.401223  0.064685  1
  Si  Si97  1  0.534300  0.598777  0.435315  1
  Si  Si98  1  0.465700  0.901223  0.435315  1
  Si  Si99  1  0.465700  0.098777  0.064685  1
  Si  Si100  1  0.465700  0.598777  0.935315  1
  Si  Si101  1  0.465700  0.401223  0.564685  1
  Si  Si102  1  0.534300  0.098777  0.564685  1
  Si  Si103  1  0.534300  0.901223  0.935315  1
  Zn  Zn104  1  0.500000  0.750000  0.330413  1
  Zn  Zn105  1  0.500000  0.250000  0.169587  1
  Zn  Zn106  1  0.500000  0.250000  0.669587  1
  Zn  Zn107  1  0.500000  0.750000  0.830413  1
  Sr  Sr108  1  0.000000  0.750000  0.477253  1
  Sr  Sr109  1  0.000000  0.250000  0.022747  1
  Sr  Sr110  1  0.000000  0.250000  0.522747  1
  Sr  Sr111  1  0.000000  0.750000  0.977253  1
  La  La112  1  0.000000  0.750000  0.180779  1
  La  La113  1  0.000000  0.250000  0.319221  1
  La  La114  1  0.000000  0.250000  0.819221  1
  La  La115  1  0.000000  0.750000  0.680779  1
