# generated using pymatgen
data_CrPO4
_symmetry_space_group_name_H-M   'P 1'
_cell_length_a   6.40456865
_cell_length_b   9.03524903
_cell_length_c   9.03524903
_cell_angle_alpha   71.72729485
_cell_angle_beta   69.24202125
_cell_angle_gamma   69.24202127
_symmetry_Int_Tables_number   1
_chemical_formula_structural   CrPO4
_chemical_formula_sum   'Cr6 P6 O24'
_cell_volume   446.48164749
_cell_formula_units_Z   6
loop_
 _symmetry_equiv_pos_site_id
 _symmetry_equiv_pos_as_xyz
  1  'x, y, z'
loop_
 _atom_site_type_symbol
 _atom_site_label
 _atom_site_symmetry_multiplicity
 _atom_site_fract_x
 _atom_site_fract_y
 _atom_site_fract_z
 _atom_site_occupancy
  O  O0  1  0.111114  0.348630  0.348630  1
  O  O1  1  0.308372  0.151370  0.151371  1
  O  O2  1  0.888885  0.651371  0.651370  1
  O  O3  1  0.691627  0.848629  0.848630  1
  O  O4  1  0.078839  0.640161  0.087933  1
  O  O5  1  0.306934  0.859839  0.412066  1
  O  O6  1  0.921161  0.912067  0.359840  1
  O  O7  1  0.693066  0.587934  0.140161  1
  O  O8  1  0.921160  0.359840  0.912066  1
  O  O9  1  0.693067  0.140160  0.587933  1
  O  O10  1  0.078840  0.087934  0.640161  1
  O  O11  1  0.306933  0.412066  0.859839  1
  O  O12  1  0.522239  0.872472  0.627528  1
  O  O13  1  0.522239  0.627528  0.872472  1
  O  O14  1  0.477760  0.372473  0.127527  1
  O  O15  1  0.477762  0.127527  0.372472  1
  O  O16  1  0.292718  0.130640  0.852311  1
  O  O17  1  0.775671  0.369360  0.647689  1
  O  O18  1  0.775671  0.647689  0.369359  1
  O  O19  1  0.224329  0.352312  0.630640  1
  O  O20  1  0.707281  0.869359  0.147689  1
  O  O21  1  0.224328  0.630641  0.352312  1
  O  O22  1  0.292720  0.852311  0.130640  1
  O  O23  1  0.707281  0.147688  0.869360  1
  P  P24  1  0.176432  0.823568  0.323567  1
  P  P25  1  0.823568  0.676432  0.176432  1
  P  P26  1  0.823569  0.176432  0.676432  1
  P  P27  1  0.176433  0.323568  0.823567  1
  P  P28  1  0.334355  0.250000  0.249999  1
  P  P29  1  0.665646  0.750000  0.750000  1
  Cr  Cr30  1  0.383345  0.616654  0.116654  1
  Cr  Cr31  1  0.616655  0.883346  0.383346  1
  Cr  Cr32  1  0.616654  0.383346  0.883346  1
  Cr  Cr33  1  0.383346  0.116654  0.616654  1
  Cr  Cr34  1  0.000000  0.500000  0.500001  1
  Cr  Cr35  1  0.499999  0.000000  0.000000  1
