# generated using pymatgen
data_Sm2Si2O7
_symmetry_space_group_name_H-M   'P 1'
_cell_length_a   6.66276306
_cell_length_b   6.77073925
_cell_length_c   12.42446823
_cell_angle_alpha   90.00000000
_cell_angle_beta   102.26709167
_cell_angle_gamma   90.00000000
_symmetry_Int_Tables_number   1
_chemical_formula_structural   Sm2Si2O7
_chemical_formula_sum   'Sm8 Si8 O28'
_cell_volume   547.69326675
_cell_formula_units_Z   4
loop_
 _symmetry_equiv_pos_site_id
 _symmetry_equiv_pos_as_xyz
  1  'x, y, z'
loop_
 _atom_site_type_symbol
 _atom_site_label
 _atom_site_symmetry_multiplicity
 _atom_site_fract_x
 _atom_site_fract_y
 _atom_site_fract_z
 _atom_site_occupancy
  O  O0  1  0.296393  0.105670  0.959419  1
  O  O1  1  0.203607  0.605670  0.540581  1
  O  O2  1  0.703607  0.894330  0.040581  1
  O  O3  1  0.796393  0.394330  0.459419  1
  O  O4  1  0.359398  0.829441  0.149811  1
  O  O5  1  0.140602  0.329441  0.350189  1
  O  O6  1  0.640602  0.170559  0.850189  1
  O  O7  1  0.859398  0.670559  0.649811  1
  O  O8  1  0.034089  0.591441  0.159795  1
  O  O9  1  0.465911  0.091441  0.340205  1
  O  O10  1  0.965911  0.408559  0.840205  1
  O  O11  1  0.534089  0.908559  0.659795  1
  O  O12  1  0.992586  0.985555  0.789161  1
  O  O13  1  0.507414  0.485555  0.710839  1
  O  O14  1  0.007414  0.014445  0.210839  1
  O  O15  1  0.492586  0.514445  0.289161  1
  O  O16  1  0.563911  0.719841  0.469089  1
  O  O17  1  0.936089  0.219841  0.030911  1
  O  O18  1  0.436089  0.280159  0.530911  1
  O  O19  1  0.063911  0.780159  0.969089  1
  O  O20  1  0.825230  0.012563  0.549767  1
  O  O21  1  0.674770  0.512563  0.950233  1
  O  O22  1  0.174770  0.987437  0.450233  1
  O  O23  1  0.325230  0.487437  0.049767  1
  O  O24  1  0.831452  0.721731  0.332906  1
  O  O25  1  0.668548  0.221731  0.167094  1
  O  O26  1  0.168548  0.278269  0.667094  1
  O  O27  1  0.331452  0.778269  0.832906  1
  Si  Si28  1  0.181192  0.920681  0.890060  1
  Si  Si29  1  0.318808  0.420681  0.609940  1
  Si  Si30  1  0.818808  0.079319  0.109940  1
  Si  Si31  1  0.681192  0.579319  0.390060  1
  Si  Si32  1  0.189269  0.672470  0.085422  1
  Si  Si33  1  0.310731  0.172470  0.414578  1
  Si  Si34  1  0.810731  0.327530  0.914578  1
  Si  Si35  1  0.689269  0.827530  0.585422  1
  Sm  Sm36  1  0.696166  0.824657  0.846635  1
  Sm  Sm37  1  0.803834  0.324657  0.653365  1
  Sm  Sm38  1  0.303834  0.175343  0.153365  1
  Sm  Sm39  1  0.196166  0.675343  0.346635  1
  Sm  Sm40  1  0.666082  0.609403  0.137915  1
  Sm  Sm41  1  0.833918  0.109403  0.362085  1
  Sm  Sm42  1  0.333918  0.390597  0.862085  1
  Sm  Sm43  1  0.166082  0.890597  0.637915  1
