# generated using pymatgen
data_Rb2LiAsO4
_symmetry_space_group_name_H-M   'P 1'
_cell_length_a   5.91096507
_cell_length_b   6.69776374
_cell_length_c   8.00859434
_cell_angle_alpha   90.00000000
_cell_angle_beta   90.00000000
_cell_angle_gamma   116.18456201
_symmetry_Int_Tables_number   1
_chemical_formula_structural   Rb2LiAsO4
_chemical_formula_sum   'Rb4 Li2 As2 O8'
_cell_volume   284.52444931
_cell_formula_units_Z   2
loop_
 _symmetry_equiv_pos_site_id
 _symmetry_equiv_pos_as_xyz
  1  'x, y, z'
loop_
 _atom_site_type_symbol
 _atom_site_label
 _atom_site_symmetry_multiplicity
 _atom_site_fract_x
 _atom_site_fract_y
 _atom_site_fract_z
 _atom_site_occupancy
  Li  Li0  1  0.795984  0.591967  0.769428  1
  Li  Li1  1  0.204016  0.408033  0.269428  1
  O  O2  1  0.406927  0.288533  0.160352  1
  O  O3  1  0.593073  0.711467  0.660352  1
  O  O4  1  0.634014  0.268029  0.855204  1
  O  O5  1  0.365986  0.731971  0.355204  1
  O  O6  1  0.881605  0.288533  0.160352  1
  O  O7  1  0.118395  0.711467  0.660352  1
  O  O8  1  0.167632  0.335264  0.523871  1
  O  O9  1  0.832368  0.664736  0.023871  1
  As  As10  1  0.689339  0.378677  0.055365  1
  As  As11  1  0.310661  0.621323  0.555365  1
  Rb  Rb12  1  0.060768  0.121535  0.849377  1
  Rb  Rb13  1  0.939232  0.878465  0.349377  1
  Rb  Rb14  1  0.603002  0.206004  0.496951  1
  Rb  Rb15  1  0.396998  0.793996  0.996951  1
