# generated using pymatgen
data_Ba9Y2(SiO4)6
_symmetry_space_group_name_H-M   'P 1'
_cell_length_a   9.52047306
_cell_length_b   9.52044465
_cell_length_c   9.52048241
_cell_angle_alpha   64.49540611
_cell_angle_beta   64.49557028
_cell_angle_gamma   64.49530445
_symmetry_Int_Tables_number   1
_chemical_formula_structural   Ba9Y2(SiO4)6
_chemical_formula_sum   'Ba9 Y2 Si6 O24'
_cell_volume   670.34384862
_cell_formula_units_Z   1
loop_
 _symmetry_equiv_pos_site_id
 _symmetry_equiv_pos_as_xyz
  1  'x, y, z'
loop_
 _atom_site_type_symbol
 _atom_site_label
 _atom_site_symmetry_multiplicity
 _atom_site_fract_x
 _atom_site_fract_y
 _atom_site_fract_z
 _atom_site_occupancy
  Ba  Ba0  1  -0.000000  -0.000000  0.000000  1
  Ba  Ba1  1  0.662191  0.662209  0.662209  1
  Ba  Ba2  1  0.337809  0.337791  0.337791  1
  Ba  Ba3  1  0.251706  0.561840  0.859933  1
  Ba  Ba4  1  0.561842  0.859926  0.251712  1
  Ba  Ba5  1  0.859929  0.251715  0.561842  1
  Ba  Ba6  1  0.748294  0.438160  0.140067  1
  Ba  Ba7  1  0.438158  0.140074  0.748288  1
  Ba  Ba8  1  0.140071  0.748285  0.438158  1
  Y  Y9  1  0.835870  0.835872  0.835869  1
  Y  Y10  1  0.164130  0.164128  0.164131  1
  Si  Si11  1  0.244085  0.947629  0.587387  1
  Si  Si12  1  0.947630  0.587387  0.244084  1
  Si  Si13  1  0.587386  0.244086  0.947631  1
  Si  Si14  1  0.755915  0.052371  0.412613  1
  Si  Si15  1  0.052370  0.412613  0.755916  1
  Si  Si16  1  0.412614  0.755914  0.052369  1
  O  O17  1  0.291356  0.061742  0.635624  1
  O  O18  1  0.061751  0.635626  0.291343  1
  O  O19  1  0.635625  0.291353  0.061746  1
  O  O20  1  0.708644  0.938258  0.364376  1
  O  O21  1  0.938249  0.364374  0.708657  1
  O  O22  1  0.364375  0.708647  0.938254  1
  O  O23  1  0.213519  0.047782  0.403868  1
  O  O24  1  0.047778  0.403868  0.213517  1
  O  O25  1  0.403867  0.213519  0.047785  1
  O  O26  1  0.786481  0.952218  0.596132  1
  O  O27  1  0.952222  0.596132  0.786483  1
  O  O28  1  0.596133  0.786481  0.952215  1
  O  O29  1  0.719045  0.070288  0.907455  1
  O  O30  1  0.070286  0.907457  0.719046  1
  O  O31  1  0.907453  0.719046  0.070287  1
  O  O32  1  0.280955  0.929712  0.092545  1
  O  O33  1  0.929714  0.092543  0.280954  1
  O  O34  1  0.092547  0.280954  0.929713  1
  O  O35  1  0.570465  0.380455  0.770655  1
  O  O36  1  0.380450  0.770651  0.570469  1
  O  O37  1  0.770655  0.570471  0.380454  1
  O  O38  1  0.429535  0.619545  0.229345  1
  O  O39  1  0.619550  0.229349  0.429531  1
  O  O40  1  0.229345  0.429529  0.619546  1
