# generated using pymatgen
data_EuGePt
_symmetry_space_group_name_H-M   'P 1'
_cell_length_a   6.58927752
_cell_length_b   6.58927752
_cell_length_c   6.58927752
_cell_angle_alpha   90.00000000
_cell_angle_beta   90.00000000
_cell_angle_gamma   90.00000000
_symmetry_Int_Tables_number   1
_chemical_formula_structural   EuGePt
_chemical_formula_sum   'Eu4 Ge4 Pt4'
_cell_volume   286.09706152
_cell_formula_units_Z   4
loop_
 _symmetry_equiv_pos_site_id
 _symmetry_equiv_pos_as_xyz
  1  'x, y, z'
loop_
 _atom_site_type_symbol
 _atom_site_label
 _atom_site_symmetry_multiplicity
 _atom_site_fract_x
 _atom_site_fract_y
 _atom_site_fract_z
 _atom_site_occupancy
  Ge  Ge0  1  0.326026  0.673974  0.173974  1
  Ge  Ge1  1  0.173974  0.326026  0.673974  1
  Ge  Ge2  1  0.673974  0.173974  0.326026  1
  Ge  Ge3  1  0.826026  0.826026  0.826026  1
  Eu  Eu4  1  0.128485  0.128485  0.128485  1
  Eu  Eu5  1  0.628485  0.371515  0.871515  1
  Eu  Eu6  1  0.371515  0.871515  0.628485  1
  Eu  Eu7  1  0.871515  0.628485  0.371515  1
  Pt  Pt8  1  0.423778  0.423778  0.423778  1
  Pt  Pt9  1  0.076222  0.576222  0.923778  1
  Pt  Pt10  1  0.923778  0.076222  0.576222  1
  Pt  Pt11  1  0.576222  0.923778  0.076222  1
