# generated using pymatgen
data_Ba(Ni5P3)2
_symmetry_space_group_name_H-M   'P 1'
_cell_length_a   6.43033906
_cell_length_b   8.72396840
_cell_length_c   8.77426385
_cell_angle_alpha   90.00000000
_cell_angle_beta   90.00000000
_cell_angle_gamma   111.62587345
_symmetry_Int_Tables_number   1
_chemical_formula_structural   Ba(Ni5P3)2
_chemical_formula_sum   'Ba2 Ni20 P12'
_cell_volume   457.57206816
_cell_formula_units_Z   2
loop_
 _symmetry_equiv_pos_site_id
 _symmetry_equiv_pos_as_xyz
  1  'x, y, z'
loop_
 _atom_site_type_symbol
 _atom_site_label
 _atom_site_symmetry_multiplicity
 _atom_site_fract_x
 _atom_site_fract_y
 _atom_site_fract_z
 _atom_site_occupancy
  P  P0  1  0.359519  0.219038  0.750000  1
  P  P1  1  0.140481  0.780962  0.250000  1
  P  P2  1  0.589916  0.179833  0.372713  1
  P  P3  1  0.410084  0.820167  0.627287  1
  P  P4  1  0.910084  0.820167  0.872713  1
  P  P5  1  0.089916  0.179833  0.127287  1
  P  P6  1  0.708617  0.417233  0.074714  1
  P  P7  1  0.291383  0.582767  0.925286  1
  P  P8  1  0.791383  0.582767  0.574714  1
  P  P9  1  0.208617  0.417233  0.425286  1
  P  P10  1  0.640481  0.780962  0.250000  1
  P  P11  1  0.859519  0.219038  0.750000  1
  Ni  Ni12  1  0.790866  0.581732  0.293566  1
  Ni  Ni13  1  0.709134  0.418268  0.793566  1
  Ni  Ni14  1  0.588245  0.676490  0.750000  1
  Ni  Ni15  1  0.290866  0.581732  0.206434  1
  Ni  Ni16  1  0.411755  0.323510  0.250000  1
  Ni  Ni17  1  0.088245  0.676490  0.750000  1
  Ni  Ni18  1  0.045321  0.090642  0.881482  1
  Ni  Ni19  1  0.954679  0.909358  0.118518  1
  Ni  Ni20  1  0.454679  0.909358  0.381482  1
  Ni  Ni21  1  0.545321  0.090642  0.618518  1
  Ni  Ni22  1  0.126413  0.650221  0.471089  1
  Ni  Ni23  1  0.476193  0.349779  0.528911  1
  Ni  Ni24  1  0.373587  0.349779  0.971089  1
  Ni  Ni25  1  0.023807  0.650221  0.028911  1
  Ni  Ni26  1  0.873587  0.349779  0.528911  1
  Ni  Ni27  1  0.523807  0.650221  0.471089  1
  Ni  Ni28  1  0.626413  0.650221  0.028911  1
  Ni  Ni29  1  0.976193  0.349779  0.971089  1
  Ni  Ni30  1  0.911755  0.323510  0.250000  1
  Ni  Ni31  1  0.209134  0.418268  0.706434  1
  Ba  Ba32  1  0.000000  0.000000  0.500000  1
  Ba  Ba33  1  0.500000  0.000000  0.000000  1
