# generated using pymatgen
data_Na4ReN3
_symmetry_space_group_name_H-M   'P 1'
_cell_length_a   6.09725076
_cell_length_b   6.28895422
_cell_length_c   8.81608448
_cell_angle_alpha   70.21979017
_cell_angle_beta   69.76919977
_cell_angle_gamma   61.00333465
_symmetry_Int_Tables_number   1
_chemical_formula_structural   Na4ReN3
_chemical_formula_sum   'Na8 Re2 N6'
_cell_volume   271.36483224
_cell_formula_units_Z   2
loop_
 _symmetry_equiv_pos_site_id
 _symmetry_equiv_pos_as_xyz
  1  'x, y, z'
loop_
 _atom_site_type_symbol
 _atom_site_label
 _atom_site_symmetry_multiplicity
 _atom_site_fract_x
 _atom_site_fract_y
 _atom_site_fract_z
 _atom_site_occupancy
  N  N0  1  0.375912  0.390422  0.688507  1
  N  N1  1  0.545159  0.890422  0.188507  1
  N  N2  1  0.169080  0.045750  0.645805  1
  N  N3  1  0.139364  0.545750  0.145805  1
  N  N4  1  0.826638  0.453815  0.866932  1
  N  N5  1  0.852615  0.953815  0.366932  1
  Na  Na6  1  0.996938  0.241730  0.135373  1
  Na  Na7  1  0.794412  0.242527  0.527045  1
  Na  Na8  1  0.257357  0.752745  0.456935  1
  Na  Na9  1  0.532963  0.252745  0.956935  1
  Na  Na10  1  0.040122  0.729533  0.861491  1
  Na  Na11  1  0.368853  0.229533  0.361491  1
  Na  Na12  1  0.436016  0.742527  0.027045  1
  Na  Na13  1  0.625959  0.741730  0.635373  1
  Re  Re14  1  0.135823  0.269776  0.750013  1
  Re  Re15  1  0.844387  0.769776  0.250013  1
