# generated using pymatgen
data_Rb6Ge2O7
_symmetry_space_group_name_H-M   'P 1'
_cell_length_a   6.93705539
_cell_length_b   9.56561477
_cell_length_c   9.67638154
_cell_angle_alpha   90.00000000
_cell_angle_beta   91.57842131
_cell_angle_gamma   90.00000000
_symmetry_Int_Tables_number   1
_chemical_formula_structural   Rb6Ge2O7
_chemical_formula_sum   'Rb12 Ge4 O14'
_cell_volume   641.85394324
_cell_formula_units_Z   2
loop_
 _symmetry_equiv_pos_site_id
 _symmetry_equiv_pos_as_xyz
  1  'x, y, z'
loop_
 _atom_site_type_symbol
 _atom_site_label
 _atom_site_symmetry_multiplicity
 _atom_site_fract_x
 _atom_site_fract_y
 _atom_site_fract_z
 _atom_site_occupancy
  O  O0  1  0.071779  0.287906  0.564913  1
  O  O1  1  0.000000  0.000000  0.500000  1
  O  O2  1  0.500000  0.500000  0.000000  1
  O  O3  1  0.045426  0.083820  0.790590  1
  O  O4  1  0.428221  0.787906  0.935087  1
  O  O5  1  0.928221  0.712094  0.435087  1
  O  O6  1  0.571779  0.212094  0.064913  1
  O  O7  1  0.194642  0.339450  0.126832  1
  O  O8  1  0.305358  0.839450  0.373168  1
  O  O9  1  0.805358  0.660550  0.873168  1
  O  O10  1  0.694642  0.160550  0.626832  1
  O  O11  1  0.545426  0.416180  0.290590  1
  O  O12  1  0.954574  0.916180  0.209410  1
  O  O13  1  0.454574  0.583820  0.709410  1
  Ge  Ge14  1  0.449307  0.361298  0.127914  1
  Ge  Ge15  1  0.949307  0.138702  0.627914  1
  Ge  Ge16  1  0.550693  0.638702  0.872086  1
  Ge  Ge17  1  0.050693  0.861298  0.372086  1
  Rb  Rb18  1  0.120297  0.786395  0.721401  1
  Rb  Rb19  1  0.620297  0.713605  0.221401  1
  Rb  Rb20  1  0.879703  0.213605  0.278599  1
  Rb  Rb21  1  0.879728  0.353076  0.918624  1
  Rb  Rb22  1  0.620272  0.853076  0.581376  1
  Rb  Rb23  1  0.120272  0.646924  0.081376  1
  Rb  Rb24  1  0.379728  0.146924  0.418625  1
  Rb  Rb25  1  0.751782  0.473080  0.543036  1
  Rb  Rb26  1  0.748218  0.973080  0.956964  1
  Rb  Rb27  1  0.248218  0.526920  0.456964  1
  Rb  Rb28  1  0.251782  0.026920  0.043036  1
  Rb  Rb29  1  0.379703  0.286395  0.778599  1
