# generated using pymatgen
data_Tb3S3N
_symmetry_space_group_name_H-M   'P 1'
_cell_length_a   3.85133704
_cell_length_b   12.01223243
_cell_length_c   12.97669816
_cell_angle_alpha   90.00000000
_cell_angle_beta   90.00000000
_cell_angle_gamma   90.00000000
_symmetry_Int_Tables_number   1
_chemical_formula_structural   Tb3S3N
_chemical_formula_sum   'Tb12 S12 N4'
_cell_volume   600.34300733
_cell_formula_units_Z   4
loop_
 _symmetry_equiv_pos_site_id
 _symmetry_equiv_pos_as_xyz
  1  'x, y, z'
loop_
 _atom_site_type_symbol
 _atom_site_label
 _atom_site_symmetry_multiplicity
 _atom_site_fract_x
 _atom_site_fract_y
 _atom_site_fract_z
 _atom_site_occupancy
  N  N0  1  0.750000  0.465765  0.298640  1
  N  N1  1  0.250000  0.034235  0.798640  1
  N  N2  1  0.750000  0.965765  0.201360  1
  N  N3  1  0.250000  0.534235  0.701360  1
  S  S4  1  0.750000  0.223657  0.692137  1
  S  S5  1  0.750000  0.406170  0.900268  1
  S  S6  1  0.250000  0.093830  0.400268  1
  S  S7  1  0.250000  0.593830  0.099732  1
  S  S8  1  0.250000  0.366866  0.490351  1
  S  S9  1  0.750000  0.633134  0.509649  1
  S  S10  1  0.250000  0.866866  0.009649  1
  S  S11  1  0.750000  0.133134  0.990351  1
  S  S12  1  0.250000  0.776343  0.307863  1
  S  S13  1  0.750000  0.723657  0.807863  1
  S  S14  1  0.250000  0.276343  0.192137  1
  S  S15  1  0.750000  0.906170  0.599732  1
  Tb  Tb16  1  0.250000  0.048263  0.142465  1
  Tb  Tb17  1  0.750000  0.951737  0.857535  1
  Tb  Tb18  1  0.250000  0.548263  0.357535  1
  Tb  Tb19  1  0.750000  0.451737  0.642465  1
  Tb  Tb20  1  0.250000  0.211407  0.859638  1
  Tb  Tb21  1  0.750000  0.788593  0.140362  1
  Tb  Tb22  1  0.250000  0.711407  0.640362  1
  Tb  Tb23  1  0.750000  0.288593  0.359638  1
  Tb  Tb24  1  0.250000  0.565384  0.867480  1
  Tb  Tb25  1  0.750000  0.434616  0.132520  1
  Tb  Tb26  1  0.250000  0.065384  0.632520  1
  Tb  Tb27  1  0.750000  0.934616  0.367480  1
