# generated using pymatgen
data_CeVO3
_symmetry_space_group_name_H-M   'P 1'
_cell_length_a   5.43985885
_cell_length_b   5.80571001
_cell_length_c   7.82034529
_cell_angle_alpha   90.00000000
_cell_angle_beta   90.00000000
_cell_angle_gamma   90.00000000
_symmetry_Int_Tables_number   1
_chemical_formula_structural   CeVO3
_chemical_formula_sum   'Ce4 V4 O12'
_cell_volume   246.98404512
_cell_formula_units_Z   4
loop_
 _symmetry_equiv_pos_site_id
 _symmetry_equiv_pos_as_xyz
  1  'x, y, z'
loop_
 _atom_site_type_symbol
 _atom_site_label
 _atom_site_symmetry_multiplicity
 _atom_site_fract_x
 _atom_site_fract_y
 _atom_site_fract_z
 _atom_site_occupancy
  O  O0  1  0.689003  0.307111  0.441013  1
  O  O1  1  0.189004  0.192889  0.558986  1
  O  O2  1  0.810996  0.807111  0.058987  1
  O  O3  1  0.310997  0.692889  0.941013  1
  O  O4  1  0.310997  0.692889  0.558986  1
  O  O5  1  0.810996  0.807111  0.441013  1
  O  O6  1  0.189004  0.192889  0.941013  1
  O  O7  1  0.689003  0.307111  0.058987  1
  O  O8  1  0.116381  0.454828  0.250000  1
  O  O9  1  0.616380  0.045172  0.750000  1
  O  O10  1  0.883619  0.545172  0.750000  1
  O  O11  1  0.383620  0.954828  0.250000  1
  V  V12  1  0.500001  0.000000  0.500000  1
  V  V13  1  0.000000  0.500000  0.500000  1
  V  V14  1  0.000000  0.500000  0.000000  1
  V  V15  1  0.500001  0.000000  0.000000  1
  Ce  Ce16  1  0.018999  0.932894  0.750000  1
  Ce  Ce17  1  0.519000  0.567106  0.250000  1
  Ce  Ce18  1  0.481000  0.432893  0.750000  1
  Ce  Ce19  1  0.981001  0.067106  0.250000  1
