# generated using pymatgen
data_Na4Mg3P4O15
_symmetry_space_group_name_H-M   'P 1'
_cell_length_a   18.20090018
_cell_length_b   6.59298909
_cell_length_c   10.63309796
_cell_angle_alpha   90.00000000
_cell_angle_beta   90.00000000
_cell_angle_gamma   90.00000000
_symmetry_Int_Tables_number   1
_chemical_formula_structural   Na4Mg3P4O15
_chemical_formula_sum   'Na16 Mg12 P16 O60'
_cell_volume   1275.95406507
_cell_formula_units_Z   4
loop_
 _symmetry_equiv_pos_site_id
 _symmetry_equiv_pos_as_xyz
  1  'x, y, z'
loop_
 _atom_site_type_symbol
 _atom_site_label
 _atom_site_symmetry_multiplicity
 _atom_site_fract_x
 _atom_site_fract_y
 _atom_site_fract_z
 _atom_site_occupancy
  Na  Na0  1  0.893184  0.070050  0.235579  1
  Na  Na1  1  0.106816  0.570050  0.764421  1
  Na  Na2  1  0.606816  0.570050  0.735579  1
  Na  Na3  1  0.393184  0.070050  0.264421  1
  Na  Na4  1  0.793778  0.490434  0.751692  1
  Na  Na5  1  0.206222  0.990434  0.248308  1
  Na  Na6  1  0.706222  0.990434  0.251692  1
  Na  Na7  1  0.293778  0.490434  0.748308  1
  Na  Na8  1  0.992260  0.457921  0.524851  1
  Na  Na9  1  0.007740  0.957921  0.475149  1
  Na  Na10  1  0.507740  0.957921  0.024851  1
  Na  Na11  1  0.492260  0.457921  0.975149  1
  Na  Na12  1  0.961301  0.313888  0.958844  1
  Na  Na13  1  0.038699  0.813888  0.041156  1
  Na  Na14  1  0.538699  0.813888  0.458844  1
  Na  Na15  1  0.461301  0.313888  0.541156  1
  Mg  Mg16  1  0.639727  0.239057  0.005846  1
  Mg  Mg17  1  0.360273  0.739057  0.994154  1
  Mg  Mg18  1  0.860273  0.739057  0.505846  1
  Mg  Mg19  1  0.139727  0.239057  0.494154  1
  Mg  Mg20  1  0.739328  0.971253  0.755553  1
  Mg  Mg21  1  0.260672  0.471253  0.244447  1
  Mg  Mg22  1  0.760672  0.471253  0.255553  1
  Mg  Mg23  1  0.239328  0.971253  0.744447  1
  Mg  Mg24  1  0.666665  0.249846  0.494795  1
  Mg  Mg25  1  0.333335  0.749846  0.505205  1
  Mg  Mg26  1  0.833335  0.749846  0.994795  1
  Mg  Mg27  1  0.166665  0.249846  0.005205  1
  P  P28  1  0.819910  0.231949  0.512256  1
  P  P29  1  0.180090  0.731949  0.487744  1
  P  P30  1  0.680090  0.731949  0.012256  1
  P  P31  1  0.319910  0.231949  0.987744  1
  P  P32  1  0.791940  0.242110  0.996918  1
  P  P33  1  0.208060  0.742110  0.003082  1
  P  P34  1  0.708060  0.742110  0.496918  1
  P  P35  1  0.291940  0.242110  0.503082  1
  P  P36  1  0.569199  0.099686  0.736107  1
  P  P37  1  0.430801  0.599686  0.263893  1
  P  P38  1  0.930801  0.599686  0.236107  1
  P  P39  1  0.069199  0.099686  0.763893  1
  P  P40  1  0.448536  0.788974  0.729141  1
  P  P41  1  0.551464  0.288974  0.270859  1
  P  P42  1  0.051464  0.288974  0.229141  1
  P  P43  1  0.948536  0.788974  0.770859  1
  O  O44  1  0.561314  0.212067  0.862302  1
  O  O45  1  0.438686  0.712067  0.137698  1
  O  O46  1  0.938686  0.712067  0.362302  1
  O  O47  1  0.061314  0.212067  0.637698  1
  O  O48  1  0.736596  0.202515  0.885838  1
  O  O49  1  0.263404  0.702515  0.114162  1
  O  O50  1  0.763404  0.702515  0.385838  1
  O  O51  1  0.236596  0.202515  0.614162  1
  O  O52  1  0.842489  0.061311  0.023816  1
  O  O53  1  0.157511  0.561311  0.976184  1
  O  O54  1  0.657511  0.561311  0.523816  1
  O  O55  1  0.342489  0.061311  0.476184  1
  O  O56  1  0.838110  0.432057  0.964053  1
  O  O57  1  0.161890  0.932057  0.035947  1
  O  O58  1  0.661890  0.932057  0.464053  1
  O  O59  1  0.338110  0.432057  0.535947  1
  O  O60  1  0.584070  0.246791  0.627407  1
  O  O61  1  0.415930  0.746791  0.372593  1
  O  O62  1  0.915930  0.746791  0.127407  1
  O  O63  1  0.084070  0.246791  0.872593  1
  O  O64  1  0.768078  0.257448  0.395201  1
  O  O65  1  0.231922  0.757448  0.604799  1
  O  O66  1  0.731922  0.757448  0.895201  1
  O  O67  1  0.268078  0.257448  0.104799  1
  O  O68  1  0.863496  0.426842  0.543556  1
  O  O69  1  0.136504  0.926842  0.456444  1
  O  O70  1  0.636504  0.926842  0.043556  1
  O  O71  1  0.363496  0.426842  0.956444  1
  O  O72  1  0.872093  0.051634  0.487613  1
  O  O73  1  0.127907  0.551634  0.512387  1
  O  O74  1  0.627907  0.551634  0.987613  1
  O  O75  1  0.372093  0.051634  0.012387  1
  O  O76  1  0.760827  0.772196  0.612795  1
  O  O77  1  0.239173  0.272196  0.387205  1
  O  O78  1  0.739173  0.272196  0.112795  1
  O  O79  1  0.260827  0.772196  0.887205  1
  O  O80  1  0.763572  0.196596  0.622940  1
  O  O81  1  0.236428  0.696596  0.377060  1
  O  O82  1  0.736428  0.696596  0.122940  1
  O  O83  1  0.263572  0.196596  0.877060  1
  O  O84  1  0.875728  0.426539  0.241436  1
  O  O85  1  0.124272  0.926539  0.758564  1
  O  O86  1  0.624272  0.926539  0.741436  1
  O  O87  1  0.375728  0.426539  0.258564  1
  O  O88  1  0.486935  0.013564  0.701394  1
  O  O89  1  0.513065  0.513564  0.298606  1
  O  O90  1  0.013065  0.513564  0.201394  1
  O  O91  1  0.986935  0.013564  0.798606  1
  O  O92  1  0.368645  0.812948  0.687487  1
  O  O93  1  0.631355  0.312948  0.312513  1
  O  O94  1  0.131355  0.312948  0.187487  1
  O  O95  1  0.868645  0.812948  0.812513  1
  O  O96  1  0.491503  0.638974  0.648874  1
  O  O97  1  0.508497  0.138974  0.351126  1
  O  O98  1  0.008497  0.138974  0.148874  1
  O  O99  1  0.991503  0.638974  0.851126  1
  O  O100  1  0.454303  0.751649  0.871441  1
  O  O101  1  0.545697  0.251649  0.128558  1
  O  O102  1  0.045697  0.251649  0.371441  1
  O  O103  1  0.954303  0.751649  0.628559  1
