# generated using pymatgen
data_RbAsOF4
_symmetry_space_group_name_H-M   'P 1'
_cell_length_a   5.50286256
_cell_length_b   6.10824859
_cell_length_c   14.18138694
_cell_angle_alpha   90.00000000
_cell_angle_beta   92.04869914
_cell_angle_gamma   90.00000000
_symmetry_Int_Tables_number   1
_chemical_formula_structural   RbAsOF4
_chemical_formula_sum   'Rb4 As4 O4 F16'
_cell_volume   476.37217630
_cell_formula_units_Z   4
loop_
 _symmetry_equiv_pos_site_id
 _symmetry_equiv_pos_as_xyz
  1  'x, y, z'
loop_
 _atom_site_type_symbol
 _atom_site_label
 _atom_site_symmetry_multiplicity
 _atom_site_fract_x
 _atom_site_fract_y
 _atom_site_fract_z
 _atom_site_occupancy
  O  O0  1  0.688647  0.606813  0.509177  1
  O  O1  1  0.811353  0.106813  0.990823  1
  O  O2  1  0.311353  0.393187  0.490823  1
  O  O3  1  0.188647  0.893187  0.009177  1
  F  F4  1  0.725184  0.173256  0.521775  1
  F  F5  1  0.774816  0.673256  0.978225  1
  F  F6  1  0.274816  0.826744  0.478225  1
  F  F7  1  0.225184  0.326744  0.021775  1
  F  F8  1  0.912972  0.922487  0.157902  1
  F  F9  1  0.587028  0.422487  0.342098  1
  F  F10  1  0.087028  0.077513  0.842098  1
  F  F11  1  0.412972  0.577513  0.657902  1
  F  F12  1  0.311657  0.103508  0.164378  1
  F  F13  1  0.188343  0.603508  0.335622  1
  F  F14  1  0.688343  0.896492  0.835622  1
  F  F15  1  0.811657  0.396492  0.664378  1
  F  F16  1  0.921659  0.325885  0.146853  1
  F  F17  1  0.578341  0.825885  0.353147  1
  F  F18  1  0.078341  0.674115  0.853147  1
  F  F19  1  0.421659  0.174115  0.646853  1
  As  As20  1  0.559880  0.386564  0.579830  1
  As  As21  1  0.940120  0.886564  0.920170  1
  As  As22  1  0.440120  0.613436  0.420170  1
  As  As23  1  0.059880  0.113436  0.079830  1
  Rb  Rb24  1  0.998425  0.873224  0.649013  1
  Rb  Rb25  1  0.501575  0.373224  0.850987  1
  Rb  Rb26  1  0.001575  0.126776  0.350987  1
  Rb  Rb27  1  0.498425  0.626776  0.149013  1
