# generated using pymatgen
data_MoW2(SeS2)2
_symmetry_space_group_name_H-M   'P 1'
_cell_length_a   3.23494553
_cell_length_b   3.23498396
_cell_length_c   29.67356728
_cell_angle_alpha   90.00017430
_cell_angle_beta   90.00000000
_cell_angle_gamma   119.99960690
_symmetry_Int_Tables_number   1
_chemical_formula_structural   MoW2(SeS2)2
_chemical_formula_sum   'Mo1 W2 Se2 S4'
_cell_volume   268.93121605
_cell_formula_units_Z   1
loop_
 _symmetry_equiv_pos_site_id
 _symmetry_equiv_pos_as_xyz
  1  'x, y, z'
loop_
 _atom_site_type_symbol
 _atom_site_label
 _atom_site_symmetry_multiplicity
 _atom_site_fract_x
 _atom_site_fract_y
 _atom_site_fract_z
 _atom_site_occupancy
  Mo  Mo0  1  0.333309  0.666618  0.115638  1
  W  W1  1  0.333309  0.666617  0.578344  1
  W  W2  1  0.666691  0.333382  0.346960  1
  Se  Se3  1  0.666650  0.333299  0.520539  1
  Se  Se4  1  0.666651  0.333300  0.636117  1
  S  S5  1  0.333351  0.666702  0.399399  1
  S  S6  1  0.666645  0.333290  0.063423  1
  S  S7  1  0.666646  0.333292  0.167862  1
  S  S8  1  0.333350  0.666700  0.294559  1
