# generated using pymatgen
data_TeW2SeS2
_symmetry_space_group_name_H-M   'P 1'
_cell_length_a   3.30636075
_cell_length_b   3.30637558
_cell_length_c   37.71000030
_cell_angle_alpha   89.99977013
_cell_angle_beta   90.00000000
_cell_angle_gamma   119.99985177
_symmetry_Int_Tables_number   1
_chemical_formula_structural   TeW2SeS2
_chemical_formula_sum   'Te2 W4 Se2 S4'
_cell_volume   357.01810226
_cell_formula_units_Z   2
loop_
 _symmetry_equiv_pos_site_id
 _symmetry_equiv_pos_as_xyz
  1  'x, y, z'
loop_
 _atom_site_type_symbol
 _atom_site_label
 _atom_site_symmetry_multiplicity
 _atom_site_fract_x
 _atom_site_fract_y
 _atom_site_fract_z
 _atom_site_occupancy
  Te  Te0  1  0.333353  0.666707  0.708595  1
  Te  Te1  1  0.333359  0.666720  0.606589  1
  W  W2  1  0.333311  0.666621  0.093928  1
  W  W3  1  0.333310  0.666620  0.469586  1
  W  W4  1  0.666688  0.333376  0.281800  1
  W  W5  1  0.666689  0.333379  0.657600  1
  Se  Se6  1  0.666646  0.333292  0.424825  1
  Se  Se7  1  0.666648  0.333296  0.514383  1
  S  S8  1  0.333353  0.666707  0.322477  1
  S  S9  1  0.666644  0.333288  0.053240  1
  S  S10  1  0.666646  0.333291  0.134605  1
  S  S11  1  0.333351  0.666703  0.241120  1
