# generated using pymatgen
data_Tl3PS4
_symmetry_space_group_name_H-M   'P 1'
_cell_length_a   9.11052482
_cell_length_b   9.23742085
_cell_length_c   11.14442909
_cell_angle_alpha   90.00000000
_cell_angle_beta   90.00000000
_cell_angle_gamma   90.00000000
_symmetry_Int_Tables_number   1
_chemical_formula_structural   Tl3PS4
_chemical_formula_sum   'Tl12 P4 S16'
_cell_volume   937.89009872
_cell_formula_units_Z   4
loop_
 _symmetry_equiv_pos_site_id
 _symmetry_equiv_pos_as_xyz
  1  'x, y, z'
loop_
 _atom_site_type_symbol
 _atom_site_label
 _atom_site_symmetry_multiplicity
 _atom_site_fract_x
 _atom_site_fract_y
 _atom_site_fract_z
 _atom_site_occupancy
  P  P0  1  0.278681  0.027459  0.250000  1
  P  P1  1  0.778681  0.472541  0.250000  1
  P  P2  1  0.221319  0.527459  0.750000  1
  P  P3  1  0.721319  0.972541  0.750000  1
  S  S4  1  0.303575  0.251678  0.250000  1
  S  S5  1  0.803575  0.248322  0.250000  1
  S  S6  1  0.196425  0.751678  0.750000  1
  S  S7  1  0.696425  0.748322  0.750000  1
  S  S8  1  0.485692  0.939476  0.250000  1
  S  S9  1  0.985692  0.560524  0.250000  1
  S  S10  1  0.014308  0.439476  0.750000  1
  S  S11  1  0.514308  0.060524  0.750000  1
  S  S12  1  0.835300  0.032151  0.901458  1
  S  S13  1  0.335300  0.467849  0.598542  1
  S  S14  1  0.664700  0.532151  0.098542  1
  S  S15  1  0.164700  0.967849  0.401458  1
  S  S16  1  0.164700  0.967849  0.098542  1
  S  S17  1  0.664700  0.532151  0.401458  1
  S  S18  1  0.335300  0.467849  0.901458  1
  S  S19  1  0.835300  0.032151  0.598542  1
  Tl  Tl20  1  0.399731  0.609843  0.250000  1
  Tl  Tl21  1  0.899731  0.890157  0.250000  1
  Tl  Tl22  1  0.100269  0.109843  0.750000  1
  Tl  Tl23  1  0.600269  0.390157  0.750000  1
  Tl  Tl24  1  0.433514  0.802573  0.555482  1
  Tl  Tl25  1  0.933514  0.697427  0.944518  1
  Tl  Tl26  1  0.066486  0.302573  0.444518  1
  Tl  Tl27  1  0.566486  0.197427  0.055482  1
  Tl  Tl28  1  0.566486  0.197427  0.444518  1
  Tl  Tl29  1  0.066486  0.302573  0.055482  1
  Tl  Tl30  1  0.933514  0.697427  0.555482  1
  Tl  Tl31  1  0.433514  0.802573  0.944518  1
