# generated using pymatgen
data_ErGa2Ni
_symmetry_space_group_name_H-M   'P 1'
_cell_length_a   4.09643839
_cell_length_b   5.40476541
_cell_length_c   6.66291873
_cell_angle_alpha   90.00000000
_cell_angle_beta   90.00000000
_cell_angle_gamma   112.26961318
_symmetry_Int_Tables_number   1
_chemical_formula_structural   ErGa2Ni
_chemical_formula_sum   'Er2 Ga4 Ni2'
_cell_volume   136.51562795
_cell_formula_units_Z   2
loop_
 _symmetry_equiv_pos_site_id
 _symmetry_equiv_pos_as_xyz
  1  'x, y, z'
loop_
 _atom_site_type_symbol
 _atom_site_label
 _atom_site_symmetry_multiplicity
 _atom_site_fract_x
 _atom_site_fract_y
 _atom_site_fract_z
 _atom_site_occupancy
  Er  Er0  1  0.428880  0.857760  0.250000  1
  Er  Er1  1  0.571120  0.142240  0.750000  1
  Ga  Ga2  1  0.142773  0.285546  0.054467  1
  Ga  Ga3  1  0.857227  0.714454  0.945533  1
  Ga  Ga4  1  0.857227  0.714454  0.554467  1
  Ga  Ga5  1  0.142773  0.285546  0.445533  1
  Ni  Ni6  1  0.713776  0.427552  0.250000  1
  Ni  Ni7  1  0.286224  0.572448  0.750000  1
