# generated using pymatgen
data_CrN2
_symmetry_space_group_name_H-M   'P 1'
_cell_length_a   5.65347931
_cell_length_b   5.62622044
_cell_length_c   9.12371750
_cell_angle_alpha   90.00000000
_cell_angle_beta   90.00000000
_cell_angle_gamma   119.84063127
_symmetry_Int_Tables_number   1
_chemical_formula_structural   CrN2
_chemical_formula_sum   'Cr4 N8'
_cell_volume   251.72723809
_cell_formula_units_Z   4
loop_
 _symmetry_equiv_pos_site_id
 _symmetry_equiv_pos_as_xyz
  1  'x, y, z'
loop_
 _atom_site_type_symbol
 _atom_site_label
 _atom_site_symmetry_multiplicity
 _atom_site_fract_x
 _atom_site_fract_y
 _atom_site_fract_z
 _atom_site_occupancy
  Cr  Cr0  1  0.667922  0.337620  0.561282  1
  Cr  Cr1  1  0.332078  0.669698  0.438718  1
  Cr  Cr2  1  0.667922  0.337620  0.938718  1
  Cr  Cr3  1  0.332078  0.669698  0.061282  1
  N  N4  1  0.329631  0.651756  0.250000  1
  N  N5  1  0.670369  0.322125  0.750000  1
  N  N6  1  1.000000  0.526927  0.500000  1
  N  N7  1  1.000000  0.526927  -0.000000  1
  N  N8  1  0.516328  0.011071  0.491439  1
  N  N9  1  0.483672  0.494744  0.508561  1
  N  N10  1  0.516328  0.011071  0.008561  1
  N  N11  1  0.483672  0.494744  0.991439  1
