# generated using pymatgen
data_CsNd(PO3)4
_symmetry_space_group_name_H-M   'P 1'
_cell_length_a   7.23109625
_cell_length_b   8.91329424
_cell_length_c   9.31676970
_cell_angle_alpha   90.00000000
_cell_angle_beta   90.00000000
_cell_angle_gamma   99.60261307
_symmetry_Int_Tables_number   1
_chemical_formula_structural   CsNd(PO3)4
_chemical_formula_sum   'Cs2 Nd2 P8 O24'
_cell_volume   592.07887329
_cell_formula_units_Z   2
loop_
 _symmetry_equiv_pos_site_id
 _symmetry_equiv_pos_as_xyz
  1  'x, y, z'
loop_
 _atom_site_type_symbol
 _atom_site_label
 _atom_site_symmetry_multiplicity
 _atom_site_fract_x
 _atom_site_fract_y
 _atom_site_fract_z
 _atom_site_occupancy
  O  O0  1  0.343749  0.231584  0.029397  1
  O  O1  1  0.656251  0.768416  0.529397  1
  O  O2  1  0.989672  0.182874  0.963074  1
  O  O3  1  0.010328  0.817126  0.463074  1
  O  O4  1  0.223994  0.109920  0.791373  1
  O  O5  1  0.776006  0.890080  0.291373  1
  O  O6  1  0.575513  0.092548  0.823626  1
  O  O7  1  0.424487  0.907452  0.323626  1
  O  O8  1  0.639155  0.077460  0.144760  1
  O  O9  1  0.360845  0.922540  0.644760  1
  O  O10  1  0.452665  0.200157  0.593474  1
  O  O11  1  0.547335  0.799843  0.093474  1
  O  O12  1  0.224088  0.386413  0.833048  1
  O  O13  1  0.775912  0.613587  0.333048  1
  O  O14  1  0.957012  0.507276  0.936805  1
  O  O15  1  0.042988  0.492724  0.436805  1
  O  O16  1  0.838234  0.367081  0.229271  1
  O  O17  1  0.161766  0.632919  0.729271  1
  O  O18  1  0.287872  0.636686  0.977853  1
  O  O19  1  0.712128  0.363314  0.477853  1
  O  O20  1  0.348126  0.593919  0.245622  1
  O  O21  1  0.651874  0.406081  0.745622  1
  O  O22  1  0.574978  0.527276  0.047852  1
  O  O23  1  0.425022  0.472724  0.547852  1
  P  P24  1  0.191607  0.225981  0.918930  1
  P  P25  1  0.808393  0.774019  0.418930  1
  P  P26  1  0.416627  0.071384  0.717736  1
  P  P27  1  0.583373  0.928616  0.217736  1
  P  P28  1  0.560597  0.376151  0.601929  1
  P  P29  1  0.439403  0.623849  0.101929  1
  P  P30  1  0.855394  0.457869  0.364967  1
  P  P31  1  0.144606  0.542131  0.864967  1
  Cs  Cs32  1  0.830720  0.826591  0.827210  1
  Cs  Cs33  1  0.169280  0.173409  0.327210  1
  Nd  Nd34  1  0.700141  0.302303  0.992474  1
  Nd  Nd35  1  0.299859  0.697697  0.492474  1
