# generated using pymatgen
data_Sr2FeMoO6
_symmetry_space_group_name_H-M   'P 1'
_cell_length_a   5.61510060
_cell_length_b   5.61510060
_cell_length_c   5.66912640
_cell_angle_alpha   119.68525338
_cell_angle_beta   119.68525335
_cell_angle_gamma   90.00000003
_symmetry_Int_Tables_number   1
_chemical_formula_structural   Sr2FeMoO6
_chemical_formula_sum   'Sr2 Fe1 Mo1 O6'
_cell_volume   127.58413580
_cell_formula_units_Z   1
loop_
 _symmetry_equiv_pos_site_id
 _symmetry_equiv_pos_as_xyz
  1  'x, y, z'
loop_
 _atom_site_type_symbol
 _atom_site_label
 _atom_site_symmetry_multiplicity
 _atom_site_fract_x
 _atom_site_fract_y
 _atom_site_fract_z
 _atom_site_occupancy
  O  O0  1  0.709177  0.783586  0.000000  1
  O  O1  1  0.216414  0.709177  0.000000  1
  O  O2  1  0.783586  0.290823  0.000000  1
  O  O3  1  0.290823  0.216414  0.000000  1
  O  O4  1  0.251135  0.251135  0.502270  1
  O  O5  1  0.748865  0.748865  0.497730  1
  Fe  Fe6  1  0.000000  0.000000  0.000000  1
  Sr  Sr7  1  0.750000  0.250000  0.500000  1
  Sr  Sr8  1  0.250000  0.750000  0.500000  1
  Mo  Mo9  1  0.500000  0.500000  0.000000  1
