# generated using pymatgen
data_Cr2Fe3(SiO4)3
_symmetry_space_group_name_H-M   'P 1'
_cell_length_a   10.25938428
_cell_length_b   10.25938428
_cell_length_c   10.25938428
_cell_angle_alpha   109.47122063
_cell_angle_beta   109.47122063
_cell_angle_gamma   109.47122063
_symmetry_Int_Tables_number   1
_chemical_formula_structural   Cr2Fe3(SiO4)3
_chemical_formula_sum   'Cr8 Fe12 Si12 O48'
_cell_volume   831.26979663
_cell_formula_units_Z   4
loop_
 _symmetry_equiv_pos_site_id
 _symmetry_equiv_pos_as_xyz
  1  'x, y, z'
loop_
 _atom_site_type_symbol
 _atom_site_label
 _atom_site_symmetry_multiplicity
 _atom_site_fract_x
 _atom_site_fract_y
 _atom_site_fract_z
 _atom_site_occupancy
  O  O0  1  0.709216  0.691800  0.087264  1
  O  O1  1  0.691800  0.104535  0.982583  1
  O  O2  1  0.621952  0.709216  0.517417  1
  O  O3  1  0.517417  0.621952  0.709216  1
  O  O4  1  0.087264  0.878048  0.395465  1
  O  O5  1  0.395465  0.087264  0.878048  1
  O  O6  1  0.104535  0.982583  0.691800  1
  O  O7  1  0.621952  0.412736  0.104535  1
  O  O8  1  0.517417  0.395465  0.808200  1
  O  O9  1  0.878048  0.982583  0.790784  1
  O  O10  1  0.412736  0.104535  0.621952  1
  O  O11  1  0.808200  0.517417  0.395465  1
  O  O12  1  0.982583  0.790784  0.878048  1
  O  O13  1  0.087264  0.709216  0.691800  1
  O  O14  1  0.691800  0.087264  0.709216  1
  O  O15  1  0.104535  0.621952  0.412736  1
  O  O16  1  0.808200  0.790784  0.412736  1
  O  O17  1  0.395465  0.808200  0.517417  1
  O  O18  1  0.412736  0.808200  0.790784  1
  O  O19  1  0.790784  0.878048  0.982583  1
  O  O20  1  0.790784  0.412736  0.808200  1
  O  O21  1  0.878048  0.395465  0.087264  1
  O  O22  1  0.982583  0.691800  0.104535  1
  O  O23  1  0.709216  0.517417  0.621952  1
  O  O24  1  0.290784  0.308200  0.912736  1
  O  O25  1  0.308200  0.895465  0.017417  1
  O  O26  1  0.378048  0.290784  0.482583  1
  O  O27  1  0.482583  0.378048  0.290784  1
  O  O28  1  0.912736  0.121952  0.604535  1
  O  O29  1  0.604535  0.912736  0.121952  1
  O  O30  1  0.895465  0.017417  0.308200  1
  O  O31  1  0.378048  0.587264  0.895465  1
  O  O32  1  0.482583  0.604535  0.191800  1
  O  O33  1  0.121952  0.017417  0.209216  1
  O  O34  1  0.587264  0.895465  0.378048  1
  O  O35  1  0.191800  0.482583  0.604535  1
  O  O36  1  0.017417  0.209216  0.121952  1
  O  O37  1  0.912736  0.290784  0.308200  1
  O  O38  1  0.308200  0.912736  0.290784  1
  O  O39  1  0.895465  0.378048  0.587264  1
  O  O40  1  0.191800  0.209216  0.587264  1
  O  O41  1  0.604535  0.191800  0.482583  1
  O  O42  1  0.587264  0.191800  0.209216  1
  O  O43  1  0.209216  0.121952  0.017417  1
  O  O44  1  0.209216  0.587264  0.191800  1
  O  O45  1  0.121952  0.604535  0.912736  1
  O  O46  1  0.017417  0.308200  0.895465  1
  O  O47  1  0.290784  0.482583  0.378048  1
  Si  Si48  1  0.250000  0.125000  0.875000  1
  Si  Si49  1  0.750000  0.875000  0.125000  1
  Si  Si50  1  0.375000  0.250000  0.625000  1
  Si  Si51  1  0.625000  0.375000  0.250000  1
  Si  Si52  1  0.125000  0.750000  0.875000  1
  Si  Si53  1  0.875000  0.125000  0.750000  1
  Si  Si54  1  0.750000  0.375000  0.625000  1
  Si  Si55  1  0.375000  0.625000  0.750000  1
  Si  Si56  1  0.125000  0.875000  0.250000  1
  Si  Si57  1  0.875000  0.250000  0.125000  1
  Si  Si58  1  0.625000  0.750000  0.375000  1
  Si  Si59  1  0.250000  0.625000  0.375000  1
  Cr  Cr60  1  0.500000  0.500000  0.500000  1
  Cr  Cr61  1  0.500000  0.500000  0.000000  1
  Cr  Cr62  1  0.500000  0.000000  0.500000  1
  Cr  Cr63  1  0.000000  0.500000  0.500000  1
  Cr  Cr64  1  0.500000  0.000000  0.000000  1
  Cr  Cr65  1  0.000000  0.000000  0.500000  1
  Cr  Cr66  1  0.000000  0.500000  0.000000  1
  Cr  Cr67  1  0.000000  0.000000  0.000000  1
  Fe  Fe68  1  0.250000  0.875000  0.625000  1
  Fe  Fe69  1  0.875000  0.625000  0.250000  1
  Fe  Fe70  1  0.625000  0.875000  0.750000  1
  Fe  Fe71  1  0.875000  0.750000  0.625000  1
  Fe  Fe72  1  0.625000  0.250000  0.875000  1
  Fe  Fe73  1  0.750000  0.625000  0.875000  1
  Fe  Fe74  1  0.750000  0.125000  0.375000  1
  Fe  Fe75  1  0.125000  0.375000  0.750000  1
  Fe  Fe76  1  0.375000  0.125000  0.250000  1
  Fe  Fe77  1  0.125000  0.250000  0.375000  1
  Fe  Fe78  1  0.375000  0.750000  0.125000  1
  Fe  Fe79  1  0.250000  0.375000  0.125000  1
