# generated using pymatgen
data_TeMoWSe3
_symmetry_space_group_name_H-M   'P 1'
_cell_length_a   3.38322252
_cell_length_b   3.38320756
_cell_length_c   38.49897091
_cell_angle_alpha   89.99960570
_cell_angle_beta   89.99998912
_cell_angle_gamma   120.00008948
_symmetry_Int_Tables_number   1
_chemical_formula_structural   TeMoWSe3
_chemical_formula_sum   'Te2 Mo2 W2 Se6'
_cell_volume   381.62653688
_cell_formula_units_Z   2
loop_
 _symmetry_equiv_pos_site_id
 _symmetry_equiv_pos_as_xyz
  1  'x, y, z'
loop_
 _atom_site_type_symbol
 _atom_site_label
 _atom_site_symmetry_multiplicity
 _atom_site_fract_x
 _atom_site_fract_y
 _atom_site_fract_z
 _atom_site_occupancy
  Te  Te0  1  0.666651  0.333302  0.420584  1
  Te  Te1  1  0.666647  0.333294  0.518738  1
  Mo  Mo2  1  0.333303  0.666606  0.093923  1
  Mo  Mo3  1  0.666692  0.333384  0.281759  1
  W  W4  1  0.333315  0.666630  0.469640  1
  W  W5  1  0.666690  0.333381  0.657556  1
  Se  Se6  1  0.333354  0.666708  0.324768  1
  Se  Se7  1  0.333362  0.666724  0.700692  1
  Se  Se8  1  0.666631  0.333261  0.050955  1
  Se  Se9  1  0.666647  0.333294  0.136924  1
  Se  Se10  1  0.333354  0.666709  0.238813  1
  Se  Se11  1  0.333353  0.666706  0.614395  1
