# generated using pymatgen
data_Te2MoW3(SeS2)2
_symmetry_space_group_name_H-M   'P 1'
_cell_length_a   3.30863293
_cell_length_b   3.30871157
_cell_length_c   40.36190118
_cell_angle_alpha   89.99826929
_cell_angle_beta   90.00079205
_cell_angle_gamma   120.00101529
_symmetry_Int_Tables_number   1
_chemical_formula_structural   Te2MoW3(SeS2)2
_chemical_formula_sum   'Te2 Mo1 W3 Se2 S4'
_cell_volume   382.65315753
_cell_formula_units_Z   1
loop_
 _symmetry_equiv_pos_site_id
 _symmetry_equiv_pos_as_xyz
  1  'x, y, z'
loop_
 _atom_site_type_symbol
 _atom_site_label
 _atom_site_symmetry_multiplicity
 _atom_site_fract_x
 _atom_site_fract_y
 _atom_site_fract_z
 _atom_site_occupancy
  Te  Te0  1  0.666675  0.333367  0.423071  1
  Te  Te1  1  0.666601  0.333127  0.518387  1
  Mo  Mo2  1  0.333436  0.666840  0.093726  1
  W  W3  1  0.333338  0.666634  0.470714  1
  W  W4  1  0.666594  0.333214  0.280013  1
  W  W5  1  0.666694  0.333418  0.658462  1
  Se  Se6  1  0.333331  0.666664  0.321788  1
  Se  Se7  1  0.333246  0.666507  0.238218  1
  S  S8  1  0.333360  0.666734  0.696421  1
  S  S9  1  0.666701  0.333413  0.055891  1
  S  S10  1  0.666666  0.333340  0.131581  1
  S  S11  1  0.333360  0.666742  0.620475  1
