# generated using pymatgen
data_Te6MoW3Se2
_symmetry_space_group_name_H-M   'P 1'
_cell_length_a   3.49798130
_cell_length_b   3.49795006
_cell_length_c   39.67822260
_cell_angle_alpha   89.99990322
_cell_angle_beta   90.00000000
_cell_angle_gamma   120.00029539
_symmetry_Int_Tables_number   1
_chemical_formula_structural   Te6MoW3Se2
_chemical_formula_sum   'Te6 Mo1 W3 Se2'
_cell_volume   420.44833531
_cell_formula_units_Z   1
loop_
 _symmetry_equiv_pos_site_id
 _symmetry_equiv_pos_as_xyz
  1  'x, y, z'
loop_
 _atom_site_type_symbol
 _atom_site_label
 _atom_site_symmetry_multiplicity
 _atom_site_fract_x
 _atom_site_fract_y
 _atom_site_fract_z
 _atom_site_occupancy
  Te  Te0  1  0.333354  0.666708  0.327963  1
  Te  Te1  1  0.333368  0.666738  0.703985  1
  Te  Te2  1  0.666646  0.333290  0.423209  1
  Te  Te3  1  0.666639  0.333277  0.516112  1
  Te  Te4  1  0.333357  0.666716  0.235616  1
  Te  Te5  1  0.333354  0.666710  0.611080  1
  Mo  Mo6  1  0.666692  0.333384  0.281776  1
  W  W7  1  0.333309  0.666617  0.093915  1
  W  W8  1  0.333308  0.666616  0.469659  1
  W  W9  1  0.666692  0.333383  0.657550  1
  Se  Se10  1  0.666641  0.333281  0.053029  1
  Se  Se11  1  0.666640  0.333279  0.134853  1
