# generated using pymatgen
data_Li3LaAs2
_symmetry_space_group_name_H-M   'P 1'
_cell_length_a   4.36576327
_cell_length_b   4.36586848
_cell_length_c   7.05234785
_cell_angle_alpha   90.00000002
_cell_angle_beta   89.99671658
_cell_angle_gamma   120.00080361
_symmetry_Int_Tables_number   1
_chemical_formula_structural   Li3LaAs2
_chemical_formula_sum   'Li3 La1 As2'
_cell_volume   116.41037034
_cell_formula_units_Z   1
loop_
 _symmetry_equiv_pos_site_id
 _symmetry_equiv_pos_as_xyz
  1  'x, y, z'
loop_
 _atom_site_type_symbol
 _atom_site_label
 _atom_site_symmetry_multiplicity
 _atom_site_fract_x
 _atom_site_fract_y
 _atom_site_fract_z
 _atom_site_occupancy
  Li  Li0  1  -0.000000  -0.000000  0.500000  1
  Li  Li1  1  0.666689  0.333344  0.644332  1
  Li  Li2  1  0.333311  0.666656  0.355668  1
  La  La3  1  0.000000  0.000000  -0.000000  1
  As  As4  1  0.666663  0.333332  0.259211  1
  As  As5  1  0.333337  0.666668  0.740789  1
