# generated using pymatgen
data_CeCuSe2
_symmetry_space_group_name_H-M   'P 1'
_cell_length_a   6.69560435
_cell_length_b   7.24446494
_cell_length_c   7.51159524
_cell_angle_alpha   90.00000000
_cell_angle_beta   90.00000000
_cell_angle_gamma   96.88179153
_symmetry_Int_Tables_number   1
_chemical_formula_structural   CeCuSe2
_chemical_formula_sum   'Ce4 Cu4 Se8'
_cell_volume   361.73294409
_cell_formula_units_Z   4
loop_
 _symmetry_equiv_pos_site_id
 _symmetry_equiv_pos_as_xyz
  1  'x, y, z'
loop_
 _atom_site_type_symbol
 _atom_site_label
 _atom_site_symmetry_multiplicity
 _atom_site_fract_x
 _atom_site_fract_y
 _atom_site_fract_z
 _atom_site_occupancy
  Cu  Cu0  1  0.061890  0.539088  0.838027  1
  Cu  Cu1  1  0.938110  0.460912  0.161973  1
  Cu  Cu2  1  0.061890  0.039088  0.661973  1
  Cu  Cu3  1  0.938110  0.960912  0.338027  1
  Se  Se4  1  0.412860  0.000221  0.724587  1
  Se  Se5  1  0.412860  0.500221  0.775413  1
  Se  Se6  1  0.587140  0.499779  0.224587  1
  Se  Se7  1  0.587140  0.999779  0.275413  1
  Se  Se8  1  0.900501  0.716064  0.612427  1
  Se  Se9  1  0.099499  0.783936  0.112427  1
  Se  Se10  1  0.099499  0.283936  0.387573  1
  Se  Se11  1  0.900501  0.216064  0.887573  1
  Ce  Ce12  1  0.691049  0.299584  0.547591  1
  Ce  Ce13  1  0.308951  0.200416  0.047591  1
  Ce  Ce14  1  0.308951  0.700416  0.452409  1
  Ce  Ce15  1  0.691049  0.799584  0.952409  1
