# generated using pymatgen
data_CsBS3O11
_symmetry_space_group_name_H-M   'P 1'
_cell_length_a   10.73853848
_cell_length_b   11.75172226
_cell_length_c   8.45582453
_cell_angle_alpha   90.00000000
_cell_angle_beta   103.07682992
_cell_angle_gamma   90.00000000
_symmetry_Int_Tables_number   1
_chemical_formula_structural   CsBS3O11
_chemical_formula_sum   'Cs4 B4 S12 O44'
_cell_volume   1039.42158592
_cell_formula_units_Z   4
loop_
 _symmetry_equiv_pos_site_id
 _symmetry_equiv_pos_as_xyz
  1  'x, y, z'
loop_
 _atom_site_type_symbol
 _atom_site_label
 _atom_site_symmetry_multiplicity
 _atom_site_fract_x
 _atom_site_fract_y
 _atom_site_fract_z
 _atom_site_occupancy
  Cs  Cs0  1  0.241793  0.369144  0.557325  1
  Cs  Cs1  1  0.758207  0.869144  0.942675  1
  Cs  Cs2  1  0.758207  0.630856  0.442675  1
  Cs  Cs3  1  0.241793  0.130856  0.057325  1
  B  B4  1  0.323105  0.778723  0.436433  1
  B  B5  1  0.676895  0.278723  0.063567  1
  B  B6  1  0.676895  0.221277  0.563567  1
  B  B7  1  0.323105  0.721277  0.936433  1
  S  S8  1  0.452924  0.662570  0.703415  1
  S  S9  1  0.547076  0.162570  0.796585  1
  S  S10  1  0.547076  0.337430  0.296585  1
  S  S11  1  0.452924  0.837430  0.203415  1
  S  S12  1  0.764945  0.477723  0.950617  1
  S  S13  1  0.235055  0.977723  0.549383  1
  S  S14  1  0.235055  0.522277  0.049383  1
  S  S15  1  0.764945  0.022277  0.450617  1
  S  S16  1  0.923191  0.340405  0.198784  1
  S  S17  1  0.076809  0.840405  0.301216  1
  S  S18  1  0.076809  0.659595  0.801216  1
  S  S19  1  0.923191  0.159595  0.698784  1
  O  O20  1  0.446503  0.543450  0.737858  1
  O  O21  1  0.553497  0.043450  0.762142  1
  O  O22  1  0.553497  0.456550  0.262142  1
  O  O23  1  0.446503  0.956550  0.237858  1
  O  O24  1  0.430430  0.290367  0.325074  1
  O  O25  1  0.569570  0.790367  0.174926  1
  O  O26  1  0.569570  0.709633  0.674926  1
  O  O27  1  0.430430  0.209633  0.825074  1
  O  O28  1  0.238069  0.514504  0.218447  1
  O  O29  1  0.761931  0.014504  0.281553  1
  O  O30  1  0.761931  0.485496  0.781553  1
  O  O31  1  0.238069  0.985496  0.718447  1
  O  O32  1  0.234357  0.421030  0.955000  1
  O  O33  1  0.765643  0.921029  0.545000  1
  O  O34  1  0.765643  0.578971  0.045000  1
  O  O35  1  0.234357  0.078970  0.455000  1
  O  O36  1  0.919930  0.421665  0.324387  1
  O  O37  1  0.080070  0.921665  0.175613  1
  O  O38  1  0.080070  0.578335  0.675613  1
  O  O39  1  0.919930  0.078335  0.824387  1
  O  O40  1  0.036792  0.275040  0.206750  1
  O  O41  1  0.963208  0.775040  0.293250  1
  O  O42  1  0.963208  0.724960  0.793250  1
  O  O43  1  0.036792  0.224960  0.706750  1
  O  O44  1  0.337476  0.686575  0.556641  1
  O  O45  1  0.662524  0.186575  0.943359  1
  O  O46  1  0.662524  0.313425  0.443359  1
  O  O47  1  0.337476  0.813425  0.056641  1
  O  O48  1  0.578211  0.236221  0.655827  1
  O  O49  1  0.421789  0.736221  0.844173  1
  O  O50  1  0.421789  0.763779  0.344173  1
  O  O51  1  0.578211  0.263779  0.155827  1
  O  O52  1  0.664880  0.393548  0.985626  1
  O  O53  1  0.335120  0.893548  0.514374  1
  O  O54  1  0.335120  0.606452  0.014374  1
  O  O55  1  0.664880  0.106452  0.485626  1
  O  O56  1  0.806713  0.260605  0.170596  1
  O  O57  1  0.193287  0.760605  0.329404  1
  O  O58  1  0.193287  0.739395  0.829404  1
  O  O59  1  0.806713  0.239395  0.670596  1
  O  O60  1  0.900922  0.406125  0.023255  1
  O  O61  1  0.099078  0.906125  0.476745  1
  O  O62  1  0.099078  0.593875  0.976745  1
  O  O63  1  0.900922  0.093875  0.523255  1
