# generated using pymatgen
data_BaCu9Si4
_symmetry_space_group_name_H-M   'P 1'
_cell_length_a   8.22285998
_cell_length_b   8.22285998
_cell_length_c   8.25774232
_cell_angle_alpha   119.86036276
_cell_angle_beta   119.86036281
_cell_angle_gamma   89.99999996
_symmetry_Int_Tables_number   1
_chemical_formula_structural   BaCu9Si4
_chemical_formula_sum   'Ba2 Si8 Cu18'
_cell_volume   396.47436869
_cell_formula_units_Z   2
loop_
 _symmetry_equiv_pos_site_id
 _symmetry_equiv_pos_as_xyz
  1  'x, y, z'
loop_
 _atom_site_type_symbol
 _atom_site_label
 _atom_site_symmetry_multiplicity
 _atom_site_fract_x
 _atom_site_fract_y
 _atom_site_fract_z
 _atom_site_occupancy
  Si  Si0  1  0.790544  0.290544  0.230370  1
  Si  Si1  1  0.560175  0.060175  0.769630  1
  Si  Si2  1  0.709456  0.560175  0.769630  1
  Si  Si3  1  0.939825  0.790544  0.230370  1
  Si  Si4  1  0.290544  0.439825  0.230370  1
  Si  Si5  1  0.439825  0.939825  0.230370  1
  Si  Si6  1  0.209456  0.709456  0.769630  1
  Si  Si7  1  0.060175  0.209456  0.769630  1
  Cu  Cu8  1  0.704847  0.435794  0.000000  1
  Cu  Cu9  1  0.564206  0.704847  0.000000  1
  Cu  Cu10  1  0.435794  0.295153  0.000000  1
  Cu  Cu11  1  0.795153  0.935794  0.000000  1
  Cu  Cu12  1  0.295153  0.564206  0.000000  1
  Cu  Cu13  1  0.559471  0.304514  0.363984  1
  Cu  Cu14  1  0.804514  0.059471  0.363984  1
  Cu  Cu15  1  0.440529  0.695486  0.636016  1
  Cu  Cu16  1  0.195486  0.940529  0.636016  1
  Cu  Cu17  1  0.940529  0.440529  0.636016  1
  Cu  Cu18  1  0.695486  0.195486  0.636016  1
  Cu  Cu19  1  0.059471  0.559471  0.363984  1
  Cu  Cu20  1  0.935794  0.204847  0.000000  1
  Cu  Cu21  1  0.204847  0.064206  0.000000  1
  Cu  Cu22  1  0.500000  0.000000  0.000000  1
  Cu  Cu23  1  0.000000  0.500000  0.000000  1
  Cu  Cu24  1  0.304514  0.804514  0.363984  1
  Cu  Cu25  1  0.064206  0.795153  0.000000  1
  Ba  Ba26  1  0.750000  0.750000  0.500000  1
  Ba  Ba27  1  0.250000  0.250000  0.500000  1
