# generated using pymatgen
data_BaNa(B3O5)3
_symmetry_space_group_name_H-M   'P 1'
_cell_length_a   8.77613563
_cell_length_b   8.77613563
_cell_length_c   8.77613562
_cell_angle_alpha   80.17507740
_cell_angle_beta   80.17507736
_cell_angle_gamma   80.17507738
_symmetry_Int_Tables_number   1
_chemical_formula_structural   BaNa(B3O5)3
_chemical_formula_sum   'Ba2 Na2 B18 O30'
_cell_volume   649.25180422
_cell_formula_units_Z   2
loop_
 _symmetry_equiv_pos_site_id
 _symmetry_equiv_pos_as_xyz
  1  'x, y, z'
loop_
 _atom_site_type_symbol
 _atom_site_label
 _atom_site_symmetry_multiplicity
 _atom_site_fract_x
 _atom_site_fract_y
 _atom_site_fract_z
 _atom_site_occupancy
  B  B0  1  0.839523  0.283308  0.716880  1
  B  B1  1  0.283308  0.716880  0.839523  1
  B  B2  1  0.716880  0.839523  0.283308  1
  B  B3  1  0.216880  0.783308  0.339523  1
  B  B4  1  0.123944  0.272907  0.618453  1
  B  B5  1  0.272907  0.618453  0.123944  1
  B  B6  1  0.618453  0.123944  0.272907  1
  B  B7  1  0.118453  0.772907  0.623944  1
  B  B8  1  0.772907  0.623944  0.118453  1
  B  B9  1  0.623944  0.118453  0.772907  1
  B  B10  1  0.939867  0.293400  0.435614  1
  B  B11  1  0.293400  0.435614  0.939867  1
  B  B12  1  0.435614  0.939867  0.293400  1
  B  B13  1  0.935614  0.793400  0.439867  1
  B  B14  1  0.793400  0.439867  0.935614  1
  B  B15  1  0.439867  0.935614  0.793400  1
  B  B16  1  0.783308  0.339523  0.216880  1
  B  B17  1  0.339523  0.216880  0.783308  1
  O  O18  1  0.640590  0.269718  0.290145  1
  O  O19  1  0.790145  0.769718  0.140590  1
  O  O20  1  0.140590  0.790145  0.769718  1
  O  O21  1  0.769718  0.140590  0.790145  1
  O  O22  1  0.506675  0.238868  0.742885  1
  O  O23  1  0.290145  0.640590  0.269718  1
  O  O24  1  0.238868  0.742885  0.506675  1
  O  O25  1  0.738868  0.006675  0.242885  1
  O  O26  1  0.242885  0.738868  0.006675  1
  O  O27  1  0.006675  0.242885  0.738868  1
  O  O28  1  0.274018  0.287689  0.926104  1
  O  O29  1  0.926104  0.274018  0.287689  1
  O  O30  1  0.287689  0.926104  0.274018  1
  O  O31  1  0.787689  0.774018  0.426104  1
  O  O32  1  0.426104  0.787689  0.774018  1
  O  O33  1  0.774018  0.426104  0.787689  1
  O  O34  1  0.816538  0.318466  0.550998  1
  O  O35  1  0.318466  0.550998  0.816538  1
  O  O36  1  0.550998  0.816538  0.318466  1
  O  O37  1  0.050998  0.818466  0.316538  1
  O  O38  1  0.818466  0.316538  0.050998  1
  O  O39  1  0.316538  0.050998  0.818466  1
  O  O40  1  0.093998  0.285789  0.464719  1
  O  O41  1  0.285789  0.464719  0.093998  1
  O  O42  1  0.464719  0.093998  0.285789  1
  O  O43  1  0.964719  0.785789  0.593998  1
  O  O44  1  0.785789  0.593998  0.964719  1
  O  O45  1  0.593998  0.964719  0.785789  1
  O  O46  1  0.742885  0.506675  0.238868  1
  O  O47  1  0.269718  0.290145  0.640590  1
  Na  Na48  1  0.722115  0.722115  0.722115  1
  Na  Na49  1  0.222115  0.222115  0.222115  1
  Ba  Ba50  1  0.494991  0.494991  0.494991  1
  Ba  Ba51  1  0.994991  0.994991  0.994991  1
