# generated using pymatgen
data_BN
_symmetry_space_group_name_H-M   'P 1'
_cell_length_a   2.55035585
_cell_length_b   4.42422268
_cell_length_c   4.42422268
_cell_angle_alpha   90.00000000
_cell_angle_beta   90.00000000
_cell_angle_gamma   90.00000000
_symmetry_Int_Tables_number   1
_chemical_formula_structural   BN
_chemical_formula_sum   'B4 N4'
_cell_volume   49.92001844
_cell_formula_units_Z   4
loop_
 _symmetry_equiv_pos_site_id
 _symmetry_equiv_pos_as_xyz
  1  'x, y, z'
loop_
 _atom_site_type_symbol
 _atom_site_label
 _atom_site_symmetry_multiplicity
 _atom_site_fract_x
 _atom_site_fract_y
 _atom_site_fract_z
 _atom_site_occupancy
  B  B0  1  0.500000  0.825717  0.174283  1
  B  B1  1  0.000000  0.325717  0.325717  1
  B  B2  1  0.000000  0.674283  0.674283  1
  B  B3  1  0.500000  0.174283  0.825717  1
  N  N4  1  0.500000  0.812601  0.812601  1
  N  N5  1  0.000000  0.687399  0.312601  1
  N  N6  1  0.000000  0.312601  0.687399  1
  N  N7  1  0.500000  0.187399  0.187399  1
