# generated using pymatgen
data_RbGd2CuS4
_symmetry_space_group_name_H-M   'P 1'
_cell_length_a   4.02246560
_cell_length_b   7.24108786
_cell_length_c   13.86110593
_cell_angle_alpha   90.00000000
_cell_angle_beta   90.00000000
_cell_angle_gamma   106.12613353
_symmetry_Int_Tables_number   1
_chemical_formula_structural   RbGd2CuS4
_chemical_formula_sum   'Rb2 Gd4 Cu2 S8'
_cell_volume   387.84695473
_cell_formula_units_Z   2
loop_
 _symmetry_equiv_pos_site_id
 _symmetry_equiv_pos_as_xyz
  1  'x, y, z'
loop_
 _atom_site_type_symbol
 _atom_site_label
 _atom_site_symmetry_multiplicity
 _atom_site_fract_x
 _atom_site_fract_y
 _atom_site_fract_z
 _atom_site_occupancy
  S  S0  1  0.000000  0.000000  0.500000  1
  S  S1  1  0.000000  0.000000  0.000000  1
  S  S2  1  0.259222  0.518444  0.109621  1
  S  S3  1  0.740778  0.481556  0.890379  1
  S  S4  1  0.423397  0.846795  0.750000  1
  S  S5  1  0.259222  0.518444  0.390379  1
  S  S6  1  0.576603  0.153205  0.250000  1
  S  S7  1  0.740778  0.481556  0.609621  1
  Cu  Cu8  1  0.834454  0.668909  0.750000  1
  Cu  Cu9  1  0.165546  0.331091  0.250000  1
  Rb  Rb10  1  0.893367  0.786735  0.250000  1
  Rb  Rb11  1  0.106633  0.213265  0.750000  1
  Gd  Gd12  1  0.634049  0.268099  0.438736  1
  Gd  Gd13  1  0.365951  0.731901  0.561264  1
  Gd  Gd14  1  0.634049  0.268099  0.061264  1
  Gd  Gd15  1  0.365951  0.731901  0.938736  1
