# generated using pymatgen
data_As2O5
_symmetry_space_group_name_H-M   'P 1'
_cell_length_a   4.71591622
_cell_length_b   8.69093263
_cell_length_c   8.81563443
_cell_angle_alpha   90.00000000
_cell_angle_beta   90.00000000
_cell_angle_gamma   90.00000000
_symmetry_Int_Tables_number   1
_chemical_formula_structural   As2O5
_chemical_formula_sum   'As8 O20'
_cell_volume   361.31503760
_cell_formula_units_Z   4
loop_
 _symmetry_equiv_pos_site_id
 _symmetry_equiv_pos_as_xyz
  1  'x, y, z'
loop_
 _atom_site_type_symbol
 _atom_site_label
 _atom_site_symmetry_multiplicity
 _atom_site_fract_x
 _atom_site_fract_y
 _atom_site_fract_z
 _atom_site_occupancy
  O  O0  1  0.300910  0.754487  0.226336  1
  O  O1  1  0.800910  0.245513  0.273664  1
  O  O2  1  0.199090  0.254487  0.773664  1
  O  O3  1  0.699090  0.745513  0.726336  1
  O  O4  1  0.456148  0.974699  0.002226  1
  O  O5  1  0.956148  0.025301  0.497774  1
  O  O6  1  0.043852  0.474699  0.997774  1
  O  O7  1  0.543852  0.525301  0.502226  1
  O  O8  1  0.147571  0.565210  0.703751  1
  O  O9  1  0.647571  0.434790  0.796249  1
  O  O10  1  0.352429  0.065210  0.296249  1
  O  O11  1  0.852429  0.934790  0.203751  1
  O  O12  1  0.378626  0.856530  0.509035  1
  O  O13  1  0.878626  0.143470  0.990965  1
  O  O14  1  0.121374  0.356530  0.490965  1
  O  O15  1  0.621374  0.643470  0.009035  1
  O  O16  1  0.918044  0.730200  0.414910  1
  O  O17  1  0.418044  0.269800  0.085090  1
  O  O18  1  0.581956  0.230200  0.585090  1
  O  O19  1  0.081956  0.769800  0.914910  1
  As  As20  1  0.130964  0.282899  0.965751  1
  As  As21  1  0.630964  0.717101  0.534249  1
  As  As22  1  0.369036  0.782899  0.034249  1
  As  As23  1  0.869036  0.217101  0.465751  1
  As  As24  1  0.126305  0.903205  0.347641  1
  As  As25  1  0.626305  0.096795  0.152359  1
  As  As26  1  0.373695  0.403205  0.652359  1
  As  As27  1  0.873695  0.596795  0.847641  1
