# generated using pymatgen
data_PdN2
_symmetry_space_group_name_H-M   'P 1'
_cell_length_a   2.96597542
_cell_length_b   5.02903568
_cell_length_c   7.48172581
_cell_angle_alpha   90.00000000
_cell_angle_beta   90.00000000
_cell_angle_gamma   90.00000000
_symmetry_Int_Tables_number   1
_chemical_formula_structural   PdN2
_chemical_formula_sum   'Pd2 N4'
_cell_volume   111.59739385
_cell_formula_units_Z   2
loop_
 _symmetry_equiv_pos_site_id
 _symmetry_equiv_pos_as_xyz
  1  'x, y, z'
loop_
 _atom_site_type_symbol
 _atom_site_label
 _atom_site_symmetry_multiplicity
 _atom_site_fract_x
 _atom_site_fract_y
 _atom_site_fract_z
 _atom_site_occupancy
  Pd  Pd0  1  0.500000  0.500000  0.500000  1
  Pd  Pd1  1  -0.000000  -0.000000  0.000000  1
  N  N2  1  0.499985  0.113283  0.500000  1
  N  N3  1  0.500015  0.886717  0.500000  1
  N  N4  1  -0.000015  0.386717  -0.000000  1
  N  N5  1  1.000015  0.613283  0.000000  1
