# generated using pymatgen
data_KAlP2O7
_symmetry_space_group_name_H-M   'P 1'
_cell_length_a   7.45339839
_cell_length_b   8.16213483
_cell_length_c   9.78207664
_cell_angle_alpha   90.00000000
_cell_angle_beta   90.00000000
_cell_angle_gamma   107.11053963
_symmetry_Int_Tables_number   1
_chemical_formula_structural   KAlP2O7
_chemical_formula_sum   'K4 Al4 P8 O28'
_cell_volume   568.75919132
_cell_formula_units_Z   4
loop_
 _symmetry_equiv_pos_site_id
 _symmetry_equiv_pos_as_xyz
  1  'x, y, z'
loop_
 _atom_site_type_symbol
 _atom_site_label
 _atom_site_symmetry_multiplicity
 _atom_site_fract_x
 _atom_site_fract_y
 _atom_site_fract_z
 _atom_site_occupancy
  O  O0  1  0.557172  0.254287  0.280850  1
  O  O1  1  0.442828  0.245713  0.780850  1
  O  O2  1  0.442828  0.745713  0.719150  1
  O  O3  1  0.557172  0.754287  0.219150  1
  O  O4  1  0.022320  0.275554  0.999110  1
  O  O5  1  0.977680  0.224446  0.499110  1
  O  O6  1  0.977680  0.724446  0.000890  1
  O  O7  1  0.022320  0.775554  0.500890  1
  O  O8  1  0.677401  0.496945  0.104237  1
  O  O9  1  0.322599  0.003055  0.604237  1
  O  O10  1  0.322599  0.503055  0.895763  1
  O  O11  1  0.677401  0.996945  0.395763  1
  O  O12  1  0.849830  0.979570  0.091951  1
  O  O13  1  0.150170  0.520430  0.591951  1
  O  O14  1  0.150170  0.020430  0.908049  1
  O  O15  1  0.849830  0.479570  0.408049  1
  O  O16  1  0.676785  0.197313  0.046747  1
  O  O17  1  0.323215  0.302687  0.546747  1
  O  O18  1  0.323215  0.802687  0.953253  1
  O  O19  1  0.676785  0.697313  0.453253  1
  O  O20  1  0.914476  0.745240  0.259049  1
  O  O21  1  0.085524  0.754760  0.759049  1
  O  O22  1  0.085524  0.254760  0.740951  1
  O  O23  1  0.914476  0.245240  0.240951  1
  O  O24  1  0.368772  0.761291  0.430582  1
  O  O25  1  0.631228  0.738709  0.930582  1
  O  O26  1  0.631228  0.238709  0.569418  1
  O  O27  1  0.368772  0.261291  0.069418  1
  Al  Al28  1  0.761474  0.740633  0.100424  1
  Al  Al29  1  0.238526  0.759367  0.600424  1
  Al  Al30  1  0.238526  0.259367  0.899576  1
  Al  Al31  1  0.761474  0.240633  0.399576  1
  P  P32  1  0.873574  0.668648  0.403013  1
  P  P33  1  0.126426  0.831352  0.903013  1
  P  P34  1  0.126426  0.331352  0.596987  1
  P  P35  1  0.873574  0.168648  0.096987  1
  P  P36  1  0.565826  0.311667  0.130783  1
  P  P37  1  0.434174  0.188333  0.630783  1
  P  P38  1  0.434174  0.688333  0.869217  1
  P  P39  1  0.565826  0.811667  0.369217  1
  K  K40  1  0.819084  0.441827  0.817951  1
  K  K41  1  0.180916  0.058173  0.317951  1
  K  K42  1  0.180916  0.558173  0.182049  1
  K  K43  1  0.819084  0.941827  0.682049  1
