# generated using pymatgen
data_Hg3(PO4)2
_symmetry_space_group_name_H-M   'P 1'
_cell_length_a   6.52886273
_cell_length_b   10.12748442
_cell_length_c   11.69084022
_cell_angle_alpha   90.00000000
_cell_angle_beta   90.00000000
_cell_angle_gamma   99.43600509
_symmetry_Int_Tables_number   1
_chemical_formula_structural   Hg3(PO4)2
_chemical_formula_sum   'Hg12 P8 O32'
_cell_volume   762.55019124
_cell_formula_units_Z   4
loop_
 _symmetry_equiv_pos_site_id
 _symmetry_equiv_pos_as_xyz
  1  'x, y, z'
loop_
 _atom_site_type_symbol
 _atom_site_label
 _atom_site_symmetry_multiplicity
 _atom_site_fract_x
 _atom_site_fract_y
 _atom_site_fract_z
 _atom_site_occupancy
  O  O0  1  0.902808  0.862018  0.561220  1
  O  O1  1  0.597192  0.137982  0.061220  1
  O  O2  1  0.097192  0.137982  0.438780  1
  O  O3  1  0.402808  0.862018  0.938780  1
  O  O4  1  0.304472  0.915793  0.560451  1
  O  O5  1  0.195528  0.084207  0.060451  1
  O  O6  1  0.695528  0.084207  0.439549  1
  O  O7  1  0.804472  0.915793  0.939549  1
  O  O8  1  0.133554  0.776844  0.716633  1
  O  O9  1  0.366446  0.223156  0.216633  1
  O  O10  1  0.866446  0.223156  0.283367  1
  O  O11  1  0.633554  0.776844  0.783367  1
  O  O12  1  0.085846  0.023246  0.706032  1
  O  O13  1  0.414154  0.976754  0.206032  1
  O  O14  1  0.914154  0.976754  0.293968  1
  O  O15  1  0.585846  0.023246  0.793968  1
  O  O16  1  0.818294  0.499188  0.186284  1
  O  O17  1  0.681706  0.500812  0.686284  1
  O  O18  1  0.181706  0.500812  0.813716  1
  O  O19  1  0.318294  0.499188  0.313716  1
  O  O20  1  0.259977  0.551248  0.523606  1
  O  O21  1  0.240023  0.448752  0.023606  1
  O  O22  1  0.740023  0.448752  0.476394  1
  O  O23  1  0.759977  0.551248  0.976394  1
  O  O24  1  0.517000  0.716503  0.406712  1
  O  O25  1  0.983000  0.283497  0.906712  1
  O  O26  1  0.483000  0.283497  0.593288  1
  O  O27  1  0.017000  0.716503  0.093288  1
  O  O28  1  0.149251  0.702007  0.363202  1
  O  O29  1  0.350749  0.297993  0.863202  1
  O  O30  1  0.850749  0.297993  0.636798  1
  O  O31  1  0.649251  0.702007  0.136798  1
  P  P32  1  0.099895  0.893636  0.633637  1
  P  P33  1  0.400105  0.106364  0.133637  1
  P  P34  1  0.900105  0.106364  0.366363  1
  P  P35  1  0.599895  0.893636  0.866363  1
  P  P36  1  0.811863  0.611491  0.098745  1
  P  P37  1  0.688137  0.388509  0.598745  1
  P  P38  1  0.188137  0.388509  0.901255  1
  P  P39  1  0.311863  0.611491  0.401255  1
  Hg  Hg40  1  0.920070  0.652916  0.829404  1
  Hg  Hg41  1  0.579930  0.347084  0.329404  1
  Hg  Hg42  1  0.079930  0.347084  0.170596  1
  Hg  Hg43  1  0.420070  0.652916  0.670596  1
  Hg  Hg44  1  0.331421  0.694755  0.099775  1
  Hg  Hg45  1  0.168579  0.305245  0.599775  1
  Hg  Hg46  1  0.668579  0.305245  0.900225  1
  Hg  Hg47  1  0.831421  0.694755  0.400225  1
  Hg  Hg48  1  0.179571  0.039045  0.880662  1
  Hg  Hg49  1  0.320429  0.960955  0.380662  1
  Hg  Hg50  1  0.820429  0.960955  0.119338  1
  Hg  Hg51  1  0.679571  0.039045  0.619338  1
