# generated using pymatgen
data_SrIrO3
_symmetry_space_group_name_H-M   'P 1'
_cell_length_a   5.54589272
_cell_length_b   5.54589273
_cell_length_c   14.48567424
_cell_angle_alpha   90.00009894
_cell_angle_beta   90.00009892
_cell_angle_gamma   118.25803654
_symmetry_Int_Tables_number   1
_chemical_formula_structural   SrIrO3
_chemical_formula_sum   'Sr6 Ir6 O18'
_cell_volume   392.43790715
_cell_formula_units_Z   6
loop_
 _symmetry_equiv_pos_site_id
 _symmetry_equiv_pos_as_xyz
  1  'x, y, z'
loop_
 _atom_site_type_symbol
 _atom_site_label
 _atom_site_symmetry_multiplicity
 _atom_site_fract_x
 _atom_site_fract_y
 _atom_site_fract_z
 _atom_site_occupancy
  O  O0  1  0.200263  0.278893  0.401553  1
  O  O1  1  0.721107  0.799737  0.098447  1
  O  O2  1  0.799737  0.721107  0.598447  1
  O  O3  1  0.278893  0.200263  0.901553  1
  O  O4  1  0.201752  0.798121  0.042886  1
  O  O5  1  0.201879  0.798248  0.457114  1
  O  O6  1  0.798248  0.201879  0.957114  1
  O  O7  1  0.798121  0.201752  0.542886  1
  O  O8  1  0.720382  0.798344  0.401841  1
  O  O9  1  0.201656  0.279618  0.098159  1
  O  O10  1  0.279618  0.201656  0.598159  1
  O  O11  1  0.798344  0.720382  0.901841  1
  O  O12  1  0.512843  0.487157  0.750000  1
  O  O13  1  0.487157  0.512843  0.250000  1
  O  O14  1  0.518645  0.024358  0.749903  1
  O  O15  1  0.975642  0.481355  0.750097  1
  O  O16  1  0.481355  0.975642  0.250097  1
  O  O17  1  0.024358  0.518645  0.249903  1
  Sr  Sr18  1  0.991741  0.008259  0.750000  1
  Sr  Sr19  1  0.008259  0.991741  0.250000  1
  Sr  Sr20  1  0.323122  0.676258  0.891907  1
  Sr  Sr21  1  0.323742  0.676878  0.608093  1
  Sr  Sr22  1  0.676878  0.323742  0.108093  1
  Sr  Sr23  1  0.676258  0.323122  0.391907  1
  Ir  Ir24  1  0.000000  0.000000  0.000000  1
  Ir  Ir25  1  0.000000  0.000000  0.500000  1
  Ir  Ir26  1  0.339224  0.661134  0.151997  1
  Ir  Ir27  1  0.338866  0.660776  0.348003  1
  Ir  Ir28  1  0.660776  0.338866  0.848003  1
  Ir  Ir29  1  0.661134  0.339224  0.651997  1
