# generated using pymatgen
data_BaSm2FeS5
_symmetry_space_group_name_H-M   'P 1'
_cell_length_a   7.82072708
_cell_length_b   7.82072707
_cell_length_c   8.72053833
_cell_angle_alpha   116.64162091
_cell_angle_beta   116.64162086
_cell_angle_gamma   90.00000003
_symmetry_Int_Tables_number   1
_chemical_formula_structural   BaSm2FeS5
_chemical_formula_sum   'Ba2 Sm4 Fe2 S10'
_cell_volume   412.41758077
_cell_formula_units_Z   2
loop_
 _symmetry_equiv_pos_site_id
 _symmetry_equiv_pos_as_xyz
  1  'x, y, z'
loop_
 _atom_site_type_symbol
 _atom_site_label
 _atom_site_symmetry_multiplicity
 _atom_site_fract_x
 _atom_site_fract_y
 _atom_site_fract_z
 _atom_site_occupancy
  S  S0  1  0.486240  0.986240  0.267746  1
  S  S1  1  0.218495  0.718495  0.732254  1
  S  S2  1  0.513760  0.013760  0.732254  1
  S  S3  1  0.718495  0.513760  0.732254  1
  S  S4  1  0.013760  0.218495  0.732254  1
  S  S5  1  0.281505  0.486240  0.267746  1
  S  S6  1  0.986240  0.781505  0.267746  1
  S  S7  1  0.781505  0.281505  0.267746  1
  S  S8  1  0.000000  0.000000  0.000000  1
  S  S9  1  0.500000  0.500000  0.000000  1
  Fe  Fe10  1  0.750000  0.250000  0.500000  1
  Fe  Fe11  1  0.250000  0.750000  0.500000  1
  Ba  Ba12  1  0.750000  0.750000  0.500000  1
  Ba  Ba13  1  0.250000  0.250000  0.500000  1
  Sm  Sm14  1  0.661870  0.838130  0.000000  1
  Sm  Sm15  1  0.161870  0.661870  0.000000  1
  Sm  Sm16  1  0.838130  0.338130  0.000000  1
  Sm  Sm17  1  0.338130  0.161870  0.000000  1
