# generated using pymatgen
data_Ba6Mg7F26
_symmetry_space_group_name_H-M   'P 1'
_cell_length_a   5.92148971
_cell_length_b   10.28876921
_cell_length_c   10.28876921
_cell_angle_alpha   73.51786431
_cell_angle_beta   73.27581929
_cell_angle_gamma   73.27581932
_symmetry_Int_Tables_number   1
_chemical_formula_structural   Ba6Mg7F26
_chemical_formula_sum   'Ba6 Mg7 F26'
_cell_volume   560.97115288
_cell_formula_units_Z   1
loop_
 _symmetry_equiv_pos_site_id
 _symmetry_equiv_pos_as_xyz
  1  'x, y, z'
loop_
 _atom_site_type_symbol
 _atom_site_label
 _atom_site_symmetry_multiplicity
 _atom_site_fract_x
 _atom_site_fract_y
 _atom_site_fract_z
 _atom_site_occupancy
  F  F0  1  0.526058  0.128741  0.355696  1
  F  F1  1  0.010495  0.871259  0.644304  1
  F  F2  1  0.473942  0.644304  0.871259  1
  F  F3  1  0.989505  0.355696  0.128741  1
  F  F4  1  0.473942  0.871259  0.644304  1
  F  F5  1  0.989505  0.128741  0.355696  1
  F  F6  1  0.526058  0.355696  0.128741  1
  F  F7  1  0.010495  0.644304  0.871259  1
  F  F8  1  0.749197  0.611860  0.388140  1
  F  F9  1  0.749197  0.388140  0.611860  1
  F  F10  1  0.250803  0.611860  0.388140  1
  F  F11  1  0.250803  0.388140  0.611860  1
  F  F12  1  0.744263  0.836552  0.163448  1
  F  F13  1  0.744263  0.163448  0.836552  1
  F  F14  1  0.255737  0.836552  0.163448  1
  F  F15  1  0.255737  0.163448  0.836552  1
  F  F16  1  0.089073  0.910927  0.910927  1
  F  F17  1  0.910927  0.089073  0.089073  1
  F  F18  1  0.370549  0.629451  0.629451  1
  F  F19  1  0.587497  0.912503  0.912503  1
  F  F20  1  0.874055  0.843909  0.407981  1
  F  F21  1  0.125945  0.156091  0.592019  1
  F  F22  1  0.125945  0.592019  0.156091  1
  F  F23  1  0.874055  0.407981  0.843909  1
  F  F24  1  0.412503  0.087497  0.087497  1
  F  F25  1  0.629451  0.370549  0.370549  1
  Mg  Mg26  1  0.252643  0.000000  0.000000  1
  Mg  Mg27  1  0.000000  0.268524  0.731476  1
  Mg  Mg28  1  0.747357  0.000000  0.000000  1
  Mg  Mg29  1  0.000000  0.731476  0.268524  1
  Mg  Mg30  1  0.779452  0.220548  0.220548  1
  Mg  Mg31  1  0.220548  0.779452  0.779452  1
  Mg  Mg32  1  0.500000  0.500000  0.500000  1
  Ba  Ba33  1  0.852803  0.647197  0.647197  1
  Ba  Ba34  1  0.147197  0.352803  0.352803  1
  Ba  Ba35  1  0.350917  0.387370  0.910796  1
  Ba  Ba36  1  0.350917  0.910796  0.387370  1
  Ba  Ba37  1  0.649083  0.089204  0.612630  1
  Ba  Ba38  1  0.649083  0.612630  0.089204  1
