# generated using pymatgen
data_Na2CoP2O7
_symmetry_space_group_name_H-M   'P 1'
_cell_length_a   6.24683552
_cell_length_b   8.13630057
_cell_length_c   8.62880536
_cell_angle_alpha   118.12920932
_cell_angle_beta   111.22157948
_cell_angle_gamma   90.00000000
_symmetry_Int_Tables_number   1
_chemical_formula_structural   Na2CoP2O7
_chemical_formula_sum   'Na4 Co2 P4 O14'
_cell_volume   352.68611483
_cell_formula_units_Z   2
loop_
 _symmetry_equiv_pos_site_id
 _symmetry_equiv_pos_as_xyz
  1  'x, y, z'
loop_
 _atom_site_type_symbol
 _atom_site_label
 _atom_site_symmetry_multiplicity
 _atom_site_fract_x
 _atom_site_fract_y
 _atom_site_fract_z
 _atom_site_occupancy
  Na  Na0  1  0.240613  0.740613  0.481227  1
  Na  Na1  1  0.240613  0.240613  0.481227  1
  Na  Na2  1  0.759387  0.259387  0.518773  1
  Na  Na3  1  0.759387  0.759387  0.518773  1
  Co  Co4  1  0.000000  0.500000  -0.000000  1
  Co  Co5  1  0.000000  0.000000  -0.000000  1
  P  P6  1  0.428991  0.352983  0.205966  1
  P  P7  1  0.776975  0.852983  0.205966  1
  P  P8  1  0.571009  0.647017  0.794034  1
  P  P9  1  0.223025  0.147017  0.794034  1
  O  O10  1  0.451636  0.250000  -0.000000  1
  O  O11  1  0.548364  0.750000  -0.000000  1
  O  O12  1  0.324858  0.568858  0.637715  1
  O  O13  1  0.312858  0.068858  0.637715  1
  O  O14  1  0.675142  0.431142  0.362285  1
  O  O15  1  0.687142  0.931142  0.362285  1
  O  O16  1  0.289963  0.511830  0.209302  1
  O  O17  1  0.919339  0.697471  0.209302  1
  O  O18  1  0.919339  0.011830  0.209302  1
  O  O19  1  0.289963  0.197471  0.209302  1
  O  O20  1  0.710037  0.488170  0.790698  1
  O  O21  1  0.080661  0.302529  0.790698  1
  O  O22  1  0.080661  0.988170  0.790698  1
  O  O23  1  0.710037  0.802529  0.790698  1
