# generated using pymatgen
data_Cd4SF6
_symmetry_space_group_name_H-M   'P 1'
_cell_length_a   8.00526860
_cell_length_b   8.00516226
_cell_length_c   5.61136982
_cell_angle_alpha   90.00163268
_cell_angle_beta   90.00097351
_cell_angle_gamma   90.00078157
_symmetry_Int_Tables_number   1
_chemical_formula_structural   Cd4SF6
_chemical_formula_sum   'Cd8 S2 F12'
_cell_volume   359.59607229
_cell_formula_units_Z   2
loop_
 _symmetry_equiv_pos_site_id
 _symmetry_equiv_pos_as_xyz
  1  'x, y, z'
loop_
 _atom_site_type_symbol
 _atom_site_label
 _atom_site_symmetry_multiplicity
 _atom_site_fract_x
 _atom_site_fract_y
 _atom_site_fract_z
 _atom_site_occupancy
  Cd  Cd0  1  0.513717  0.749992  0.483240  1
  Cd  Cd1  1  0.986317  0.749970  0.483198  1
  Cd  Cd2  1  0.749974  0.513708  0.983246  1
  Cd  Cd3  1  0.749984  0.986300  0.983212  1
  Cd  Cd4  1  0.486296  0.250034  0.516795  1
  Cd  Cd5  1  0.013738  0.250030  0.516800  1
  Cd  Cd6  1  0.250040  0.486284  0.016784  1
  Cd  Cd7  1  0.250013  0.013734  0.016792  1
  S  S8  1  0.750015  0.250024  0.749983  1
  S  S9  1  0.250039  0.750001  0.249957  1
  F  F10  1  0.036405  0.536031  0.749790  1
  F  F11  1  0.463766  0.536148  0.749909  1
  F  F12  1  0.036175  0.963762  0.750047  1
  F  F13  1  0.463935  0.963668  0.750200  1
  F  F14  1  0.536054  0.036364  0.249808  1
  F  F15  1  0.963795  0.036203  0.250028  1
  F  F16  1  0.536150  0.463763  0.249928  1
  F  F17  1  0.963596  0.463991  0.250282  1
  F  F18  1  0.749977  0.750026  0.221775  1
  F  F19  1  0.750024  0.749974  0.721774  1
  F  F20  1  0.250022  0.249968  0.778227  1
  F  F21  1  0.249968  0.250025  0.278227  1
