# generated using pymatgen
data_Sc2Mn2O7
_symmetry_space_group_name_H-M   'P 1'
_cell_length_a   6.86934506
_cell_length_b   6.86934506
_cell_length_c   6.86934506
_cell_angle_alpha   59.99999998
_cell_angle_beta   60.00000000
_cell_angle_gamma   59.99999998
_symmetry_Int_Tables_number   1
_chemical_formula_structural   Sc2Mn2O7
_chemical_formula_sum   'Sc4 Mn4 O14'
_cell_volume   229.20864770
_cell_formula_units_Z   2
loop_
 _symmetry_equiv_pos_site_id
 _symmetry_equiv_pos_as_xyz
  1  'x, y, z'
loop_
 _atom_site_type_symbol
 _atom_site_label
 _atom_site_symmetry_multiplicity
 _atom_site_fract_x
 _atom_site_fract_y
 _atom_site_fract_z
 _atom_site_occupancy
  O  O0  1  0.912904  0.912903  0.337096  1
  O  O1  1  0.662903  0.662904  0.087097  1
  O  O2  1  0.337096  0.912903  0.912904  1
  O  O3  1  0.912903  0.337096  0.912904  1
  O  O4  1  0.337096  0.912903  0.337098  1
  O  O5  1  0.912903  0.337096  0.337098  1
  O  O6  1  0.087096  0.087097  0.662904  1
  O  O7  1  0.087097  0.662904  0.087096  1
  O  O8  1  0.374999  0.375000  0.375000  1
  O  O9  1  0.625000  0.625000  0.625000  1
  O  O10  1  0.337097  0.337096  0.912903  1
  O  O11  1  0.662904  0.087097  0.662904  1
  O  O12  1  0.087097  0.662904  0.662904  1
  O  O13  1  0.662904  0.087097  0.087096  1
  Sc  Sc14  1  0.499999  0.500001  0.500000  1
  Sc  Sc15  1  0.499999  0.500001  0.999999  1
  Sc  Sc16  1  0.000000  0.500001  0.500000  1
  Sc  Sc17  1  0.499999  0.000000  0.500000  1
  Mn  Mn18  1  0.000000  0.000000  0.000000  1
  Mn  Mn19  1  0.000000  0.000000  0.500000  1
  Mn  Mn20  1  0.499999  0.000000  0.000001  1
  Mn  Mn21  1  0.000000  0.500001  0.000000  1
