# generated using pymatgen
data_Cd4GeSe6
_symmetry_space_group_name_H-M   'P 1'
_cell_length_a   7.61307760
_cell_length_b   7.60393306
_cell_length_c   13.14014128
_cell_angle_alpha   73.55297454
_cell_angle_beta   73.16073313
_cell_angle_gamma   59.96021007
_symmetry_Int_Tables_number   1
_chemical_formula_structural   Cd4GeSe6
_chemical_formula_sum   'Cd8 Ge2 Se12'
_cell_volume   621.44552932
_cell_formula_units_Z   2
loop_
 _symmetry_equiv_pos_site_id
 _symmetry_equiv_pos_as_xyz
  1  'x, y, z'
loop_
 _atom_site_type_symbol
 _atom_site_label
 _atom_site_symmetry_multiplicity
 _atom_site_fract_x
 _atom_site_fract_y
 _atom_site_fract_z
 _atom_site_occupancy
  Ge  Ge0  1  0.197920  0.702718  0.442990  1
  Ge  Ge1  1  0.656372  0.202718  0.942990  1
  Se  Se2  1  0.928615  0.445030  0.191671  1
  Se  Se3  1  0.434685  0.945030  0.691671  1
  Se  Se4  1  0.994646  0.029751  0.497201  1
  Se  Se5  1  0.478402  0.529751  0.997201  1
  Se  Se6  1  0.079971  0.571982  0.813313  1
  Se  Se7  1  0.534733  0.071982  0.313313  1
  Se  Se8  1  0.775132  0.241752  0.754041  1
  Se  Se9  1  0.229075  0.741752  0.254041  1
  Se  Se10  1  0.480704  0.999890  0.996178  1
  Se  Se11  1  0.523228  0.499890  0.496178  1
  Se  Se12  1  0.956648  0.030049  0.023897  1
  Se  Se13  1  0.989406  0.530049  0.523897  1
  Cd  Cd14  1  0.283957  0.138997  0.506074  1
  Cd  Cd15  1  0.070972  0.638997  0.006074  1
  Cd  Cd16  1  0.806625  0.903993  0.694088  1
  Cd  Cd17  1  0.595294  0.403993  0.194088  1
  Cd  Cd18  1  0.431305  0.584842  0.699325  1
  Cd  Cd19  1  0.284527  0.084842  0.199325  1
  Cd  Cd20  1  0.197921  0.157996  0.856221  1
  Cd  Cd21  1  0.787862  0.657996  0.356221  1
