# generated using pymatgen
data_Te4Mo2WSe2
_symmetry_space_group_name_H-M   'P 1'
_cell_length_a   3.47534217
_cell_length_b   3.47531752
_cell_length_c   32.04541805
_cell_angle_alpha   90.00000000
_cell_angle_beta   90.00000000
_cell_angle_gamma   120.00023450
_symmetry_Int_Tables_number   1
_chemical_formula_structural   Te4Mo2WSe2
_chemical_formula_sum   'Te4 Mo2 W1 Se2'
_cell_volume   335.18734032
_cell_formula_units_Z   1
loop_
 _symmetry_equiv_pos_site_id
 _symmetry_equiv_pos_as_xyz
  1  'x, y, z'
loop_
 _atom_site_type_symbol
 _atom_site_label
 _atom_site_symmetry_multiplicity
 _atom_site_fract_x
 _atom_site_fract_y
 _atom_site_fract_z
 _atom_site_occupancy
  Te  Te0  1  0.666648  0.333294  0.058173  1
  Te  Te1  1  0.666647  0.333293  0.520822  1
  Te  Te2  1  0.666647  0.333293  0.173143  1
  Te  Te3  1  0.666648  0.333294  0.635791  1
  Mo  Mo4  1  0.333308  0.666617  0.115648  1
  Mo  Mo5  1  0.333308  0.666617  0.578317  1
  W  W6  1  0.666687  0.333374  0.346982  1
  Se  Se7  1  0.333354  0.666709  0.397885  1
  Se  Se8  1  0.333354  0.666709  0.296080  1
