# generated using pymatgen
data_Ba5Sm8Mn4O21
_symmetry_space_group_name_H-M   'P 1'
_cell_length_a   5.89146494
_cell_length_b   10.50518043
_cell_length_c   10.50518042
_cell_angle_alpha   85.49026813
_cell_angle_beta   73.71546674
_cell_angle_gamma   73.71546673
_symmetry_Int_Tables_number   1
_chemical_formula_structural   Ba5Sm8Mn4O21
_chemical_formula_sum   'Ba5 Sm8 Mn4 O21'
_cell_volume   599.05285006
_cell_formula_units_Z   1
loop_
 _symmetry_equiv_pos_site_id
 _symmetry_equiv_pos_as_xyz
  1  'x, y, z'
loop_
 _atom_site_type_symbol
 _atom_site_label
 _atom_site_symmetry_multiplicity
 _atom_site_fract_x
 _atom_site_fract_y
 _atom_site_fract_z
 _atom_site_occupancy
  O  O0  1  0.099515  0.890093  0.406509  1
  O  O1  1  0.506025  0.593491  0.890094  1
  O  O2  1  0.989609  0.406509  0.109907  1
  O  O3  1  0.396119  0.109906  0.593492  1
  O  O4  1  0.900484  0.109906  0.593491  1
  O  O5  1  0.493975  0.406509  0.109906  1
  O  O6  1  0.010391  0.593491  0.890093  1
  O  O7  1  0.603883  0.890093  0.406508  1
  O  O8  1  0.929530  0.868792  0.774433  1
  O  O9  1  0.703963  0.225567  0.868792  1
  O  O10  1  0.798322  0.774433  0.131208  1
  O  O11  1  0.572754  0.131208  0.225567  1
  O  O12  1  0.070471  0.131208  0.225567  1
  O  O13  1  0.296038  0.774433  0.131208  1
  O  O14  1  0.201679  0.225567  0.868792  1
  O  O15  1  0.427246  0.868792  0.774433  1
  O  O16  1  0.375900  0.658425  0.589777  1
  O  O17  1  0.500001  0.000000  1.000000  1
  O  O18  1  0.624101  0.341576  0.410223  1
  O  O19  1  0.965677  0.410223  0.658425  1
  O  O20  1  0.034323  0.589777  0.341575  1
  Mn  Mn21  1  0.959883  0.789285  0.290949  1
  Mn  Mn22  1  0.250832  0.709051  0.789286  1
  Mn  Mn23  1  0.749168  0.290949  0.210715  1
  Mn  Mn24  1  0.040117  0.210715  0.709051  1
  Ba  Ba25  1  0.467907  0.395339  0.668848  1
  Ba  Ba26  1  0.136755  0.331152  0.395339  1
  Ba  Ba27  1  0.863245  0.668848  0.604661  1
  Ba  Ba28  1  0.532095  0.604661  0.331152  1
  Ba  Ba29  1  0.000000  0.000000  0.000000  1
  Sm  Sm30  1  0.588990  0.053423  0.768598  1
  Sm  Sm31  1  0.357587  0.231402  0.053423  1
  Sm  Sm32  1  0.642412  0.768598  0.946577  1
  Sm  Sm33  1  0.411011  0.946577  0.231402  1
  Sm  Sm34  1  0.752576  0.078301  0.416545  1
  Sm  Sm35  1  0.169123  0.583454  0.078301  1
  Sm  Sm36  1  0.830878  0.416545  0.921699  1
  Sm  Sm37  1  0.247424  0.921699  0.583455  1
