# generated using pymatgen
data_K3Hf2Se11
_symmetry_space_group_name_H-M   'P 1'
_cell_length_a   11.29526028
_cell_length_b   12.96481645
_cell_length_c   36.66269574
_cell_angle_alpha   112.13254077
_cell_angle_beta   100.20834875
_cell_angle_gamma   102.74533310
_symmetry_Int_Tables_number   1
_chemical_formula_structural   K3Hf2Se11
_chemical_formula_sum   'K24 Hf16 Se88'
_cell_volume   4645.01758095
_cell_formula_units_Z   8
loop_
 _symmetry_equiv_pos_site_id
 _symmetry_equiv_pos_as_xyz
  1  'x, y, z'
loop_
 _atom_site_type_symbol
 _atom_site_label
 _atom_site_symmetry_multiplicity
 _atom_site_fract_x
 _atom_site_fract_y
 _atom_site_fract_z
 _atom_site_occupancy
  K  K0  1  0.214517  0.067673  -0.003516  1
  K  K1  1  0.238431  0.062862  0.295183  1
  K  K2  1  0.384626  0.114438  0.615484  1
  K  K3  1  0.121191  0.457821  0.056681  1
  K  K4  1  0.127156  0.462271  0.430740  1
  K  K5  1  0.923897  0.422069  0.680011  1
  K  K6  1  0.549661  0.215883  0.269763  1
  K  K7  1  0.337894  0.051730  0.868456  1
  K  K8  1  0.263470  0.201680  0.522442  1
  K  K9  1  0.395196  0.638864  0.631746  1
  K  K10  1  0.389699  0.566528  0.286238  1
  K  K11  1  0.401603  0.616892  0.931107  1
  K  K12  1  0.641743  0.451234  0.062419  1
  K  K13  1  0.444018  0.516346  0.726954  1
  K  K14  1  0.602278  0.490922  0.403287  1
  K  K15  1  0.728039  0.823515  0.090172  1
  K  K16  1  0.777007  0.874516  0.826067  1
  K  K17  1  0.649491  0.873691  0.460239  1
  K  K18  1  0.673387  0.477301  0.525093  1
  K  K19  1  0.840034  0.260751  0.144469  1
  K  K20  1  0.665385  0.343643  0.792475  1
  K  K21  1  0.825236  0.053013  0.747071  1
  K  K22  1  0.777971  0.039531  0.380084  1
  K  K23  1  0.470462  0.042391  0.128544  1
  Hf  Hf24  1  0.244485  0.805303  0.161484  1
  Hf  Hf25  1  0.205889  0.703618  0.801970  1
  Hf  Hf26  1  0.311414  0.824576  0.509733  1
  Hf  Hf27  1  0.169679  0.814934  0.046522  1
  Hf  Hf28  1  0.275875  0.855376  0.423749  1
  Hf  Hf29  1  0.110921  0.811057  0.724525  1
  Hf  Hf30  1  0.168973  0.087784  0.694033  1
  Hf  Hf31  1  0.469026  0.131415  0.409712  1
  Hf  Hf32  1  0.680236  0.909409  0.248801  1
  Hf  Hf33  1  0.660198  0.046216  0.004441  1
  Hf  Hf34  1  0.895653  0.168114  0.257348  1
  Hf  Hf35  1  0.758501  0.978522  0.587678  1
  Hf  Hf36  1  0.759538  0.209793  0.947270  1
  Hf  Hf37  1  0.896127  0.227233  0.512369  1
  Hf  Hf38  1  0.070563  0.301538  0.930658  1
  Hf  Hf39  1  0.702680  0.482216  0.240917  1
  Se  Se40  1  0.046030  0.043855  0.434738  1
  Se  Se41  1  0.781144  0.014561  0.058940  1
  Se  Se42  1  0.098967  0.030500  0.746396  1
  Se  Se43  1  0.956171  0.885332  0.190029  1
  Se  Se44  1  0.886443  0.726735  0.496850  1
  Se  Se45  1  0.060908  0.914406  0.892005  1
  Se  Se46  1  0.167364  0.816038  0.557361  1
  Se  Se47  1  0.264968  0.734672  0.220739  1
  Se  Se48  1  0.206250  0.800750  0.879486  1
  Se  Se49  1  0.976883  0.518187  0.789176  1
  Se  Se50  1  0.993799  0.503658  0.135836  1
  Se  Se51  1  0.863255  0.521986  0.471404  1
  Se  Se52  1  0.445704  0.763149  0.193034  1
  Se  Se53  1  0.329970  0.615011  0.837900  1
  Se  Se54  1  0.505085  0.843324  0.564999  1
  Se  Se55  1  0.135194  0.347959  0.200870  1
  Se  Se56  1  0.035067  0.399935  0.585142  1
  Se  Se57  1  0.117138  0.389443  0.877859  1
  Se  Se58  1  0.194330  0.024236  0.078434  1
  Se  Se59  1  0.363192  0.683602  0.396274  1
  Se  Se60  1  0.445478  0.919467  0.772665  1
  Se  Se61  1  0.142074  0.292177  0.277601  1
  Se  Se62  1  0.143838  0.276563  0.604312  1
  Se  Se63  1  0.297776  0.368627  0.981776  1
  Se  Se64  1  0.771365  0.264076  0.025789  1
  Se  Se65  1  0.598961  0.088657  0.688089  1
  Se  Se66  1  0.523468  0.198428  0.359875  1
  Se  Se67  1  0.483710  0.447280  0.139524  1
  Se  Se68  1  0.340172  0.245924  0.447398  1
  Se  Se69  1  0.288382  0.307456  0.754713  1
  Se  Se70  1  0.310848  0.021924  0.196770  1
  Se  Se71  1  0.797489  0.108455  0.552371  1
  Se  Se72  1  0.625922  0.220615  0.879120  1
  Se  Se73  1  0.936796  0.415356  0.966778  1
  Se  Se74  1  0.162083  0.292641  0.692194  1
  Se  Se75  1  0.059603  0.268939  0.331008  1
  Se  Se76  1  0.293322  0.927383  0.368595  1
  Se  Se77  1  0.207005  0.878389  0.667606  1
  Se  Se78  1  0.391202  0.817116  0.028836  1
  Se  Se79  1  0.365765  0.340902  0.071119  1
  Se  Se80  1  0.408831  0.681787  0.463269  1
  Se  Se81  1  0.430474  0.195149  0.714900  1
  Se  Se82  1  0.646785  0.396223  0.958751  1
  Se  Se83  1  0.813446  0.332962  0.244195  1
  Se  Se84  1  0.896173  0.686254  0.666206  1
  Se  Se85  1  0.629542  0.989669  0.928820  1
  Se  Se86  1  0.689712  0.145961  0.640798  1
  Se  Se87  1  0.755161  0.117882  0.305548  1
  Se  Se88  1  0.624387  0.773628  0.720973  1
  Se  Se89  1  0.675682  0.507855  0.312686  1
  Se  Se90  1  0.963876  0.723029  0.985371  1
  Se  Se91  1  0.205382  0.646940  0.722337  1
  Se  Se92  1  0.447440  0.824138  0.818086  1
  Se  Se93  1  0.297148  0.739574  0.093432  1
  Se  Se94  1  0.417538  0.001638  0.495517  1
  Se  Se95  1  0.706368  0.713326  0.259882  1
  Se  Se96  1  0.414276  0.449418  0.459982  1
  Se  Se97  1  0.934304  0.819064  0.924622  1
  Se  Se98  1  0.333669  0.860343  0.618164  1
  Se  Se99  1  0.576893  0.823838  0.295487  1
  Se  Se100  1  0.421529  0.917064  0.984903  1
  Se  Se101  1  0.708446  0.623951  0.686735  1
  Se  Se102  1  0.656545  0.678131  0.362900  1
  Se  Se103  1  0.944917  0.684831  0.044640  1
  Se  Se104  1  0.942921  0.058195  0.178450  1
  Se  Se105  1  0.947895  0.024961  0.486601  1
  Se  Se106  1  0.072972  0.844568  0.792997  1
  Se  Se107  1  0.992201  0.674008  0.123228  1
  Se  Se108  1  0.807851  0.566542  0.759240  1
  Se  Se109  1  0.105198  0.755930  0.446147  1
  Se  Se110  1  0.496559  0.342045  0.184657  1
  Se  Se111  1  0.636618  0.085485  0.811741  1
  Se  Se112  1  0.673554  0.171987  0.463914  1
  Se  Se113  1  0.025787  0.578342  0.207135  1
  Se  Se114  1  0.987299  0.459093  0.521941  1
  Se  Se115  1  0.944371  0.514875  0.857974  1
  Se  Se116  1  0.679021  -0.002495  0.195566  1
  Se  Se117  1  0.364709  0.370746  0.620363  1
  Se  Se118  1  0.420336  0.342267  0.930966  1
  Se  Se119  1  0.798726  0.576457  0.197340  1
  Se  Se120  1  0.807990  0.628027  0.871245  1
  Se  Se121  1  0.711734  0.756093  0.528148  1
  Se  Se122  1  0.154566  0.163846  0.173545  1
  Se  Se123  1  0.038365  0.250619  0.465352  1
  Se  Se124  1  0.081470  0.182077  0.856154  1
  Se  Se125  1  0.934977  0.113117  0.929488  1
  Se  Se126  1  0.963375  -0.007590  0.630955  1
  Se  Se127  1  0.934511  0.963367  0.258219  1
