# generated using pymatgen
data_BaCdGeS4
_symmetry_space_group_name_H-M   'P 1'
_cell_length_a   12.60924337
_cell_length_b   12.60924337
_cell_length_c   12.86844494
_cell_angle_alpha   104.97138007
_cell_angle_beta   104.97138005
_cell_angle_gamma   118.21009159
_symmetry_Int_Tables_number   1
_chemical_formula_structural   BaCdGeS4
_chemical_formula_sum   'Ba8 Cd8 Ge8 S32'
_cell_volume   1558.15337873
_cell_formula_units_Z   8
loop_
 _symmetry_equiv_pos_site_id
 _symmetry_equiv_pos_as_xyz
  1  'x, y, z'
loop_
 _atom_site_type_symbol
 _atom_site_label
 _atom_site_symmetry_multiplicity
 _atom_site_fract_x
 _atom_site_fract_y
 _atom_site_fract_z
 _atom_site_occupancy
  S  S0  1  0.467159  0.230431  0.410027  1
  S  S1  1  0.820404  0.057133  0.589973  1
  S  S2  1  0.980431  0.717159  0.910027  1
  S  S3  1  0.807133  0.070404  0.089973  1
  S  S4  1  0.483652  0.213793  0.911376  1
  S  S5  1  0.302417  0.572276  0.088624  1
  S  S6  1  0.963793  0.733652  0.411376  1
  S  S7  1  0.322276  0.552417  0.588624  1
  S  S8  1  0.165062  0.767555  0.250492  1
  S  S9  1  0.517063  0.914571  0.749508  1
  S  S10  1  0.517555  0.415062  0.750492  1
  S  S11  1  0.664571  0.767063  0.249508  1
  S  S12  1  0.224937  0.272090  0.250170  1
  S  S13  1  0.021920  0.974767  0.749830  1
  S  S14  1  0.022090  0.474937  0.750170  1
  S  S15  1  0.724767  0.271920  0.249830  1
  S  S16  1  0.042318  0.455073  0.247343  1
  S  S17  1  0.207730  0.794975  0.752657  1
  S  S18  1  0.205073  0.292318  0.747343  1
  S  S19  1  0.544975  0.457730  0.252657  1
  S  S20  1  0.022917  0.954016  0.248173  1
  S  S21  1  0.705842  0.774743  0.751827  1
  S  S22  1  0.704016  0.272917  0.748173  1
  S  S23  1  0.524743  0.955842  0.251827  1
  S  S24  1  0.461010  0.730588  0.408743  1
  S  S25  1  0.321845  0.052267  0.591257  1
  S  S26  1  0.480588  0.711010  0.908743  1
  S  S27  1  0.802267  0.571845  0.091257  1
  S  S28  1  0.307869  0.071739  0.088839  1
  S  S29  1  0.982900  0.219030  0.911161  1
  S  S30  1  0.821739  0.557869  0.588839  1
  S  S31  1  0.969030  0.232900  0.411161  1
  Ge  Ge32  1  0.900443  0.264955  0.249944  1
  Ge  Ge33  1  0.015011  0.650499  0.750056  1
  Ge  Ge34  1  0.014955  0.150443  0.749944  1
  Ge  Ge35  1  0.400499  0.265011  0.250056  1
  Ge  Ge36  1  0.513228  0.233656  0.750576  1
  Ge  Ge37  1  0.483080  0.762652  0.249424  1
  Ge  Ge38  1  0.983656  0.763228  0.250576  1
  Ge  Ge39  1  0.512652  0.733080  0.749424  1
  Cd  Cd40  1  0.764570  0.486328  0.252029  1
  Cd  Cd41  1  0.234299  0.512541  0.747971  1
  Cd  Cd42  1  0.236328  0.014570  0.752029  1
  Cd  Cd43  1  0.262541  0.484299  0.247971  1
  Cd  Cd44  1  0.328942  0.979857  0.249210  1
  Cd  Cd45  1  0.730647  0.079731  0.750790  1
  Cd  Cd46  1  0.729857  0.578942  0.749210  1
  Cd  Cd47  1  0.829731  0.980647  0.250790  1
  Ba  Ba48  1  0.248325  0.240373  0.496948  1
  Ba  Ba49  1  0.743426  0.751377  0.503052  1
  Ba  Ba50  1  0.990373  0.498325  0.996948  1
  Ba  Ba51  1  0.501377  0.993426  0.003052  1
  Ba  Ba52  1  0.240583  0.740583  0.500000  1
  Ba  Ba53  1  0.490583  0.490583  0.000000  1
  Ba  Ba54  1  0.751401  0.251401  0.500000  1
  Ba  Ba55  1  0.001401  0.001401  0.000000  1
