# generated using pymatgen
data_TmGe2
_symmetry_space_group_name_H-M   'P 1'
_cell_length_a   3.90018478
_cell_length_b   4.04503139
_cell_length_c   8.14246104
_cell_angle_alpha   104.38233224
_cell_angle_beta   90.00000000
_cell_angle_gamma   90.00000000
_symmetry_Int_Tables_number   1
_chemical_formula_structural   TmGe2
_chemical_formula_sum   'Tm2 Ge4'
_cell_volume   124.43256272
_cell_formula_units_Z   2
loop_
 _symmetry_equiv_pos_site_id
 _symmetry_equiv_pos_as_xyz
  1  'x, y, z'
loop_
 _atom_site_type_symbol
 _atom_site_label
 _atom_site_symmetry_multiplicity
 _atom_site_fract_x
 _atom_site_fract_y
 _atom_site_fract_z
 _atom_site_occupancy
  Ge  Ge0  1  0.250000  0.554133  0.108266  1
  Ge  Ge1  1  0.750000  0.445867  0.891734  1
  Ge  Ge2  1  0.750000  0.746447  0.492894  1
  Ge  Ge3  1  0.250000  0.253553  0.507106  1
  Tm  Tm4  1  0.250000  0.897114  0.794228  1
  Tm  Tm5  1  0.750000  0.102886  0.205772  1
