# generated using pymatgen
data_ThAu
_symmetry_space_group_name_H-M   'P 1'
_cell_length_a   3.78859850
_cell_length_b   4.60718231
_cell_length_c   6.30259949
_cell_angle_alpha   90.00000000
_cell_angle_beta   107.49113970
_cell_angle_gamma   90.00000000
_symmetry_Int_Tables_number   1
_chemical_formula_structural   ThAu
_chemical_formula_sum   'Th2 Au2'
_cell_volume   104.92388485
_cell_formula_units_Z   2
loop_
 _symmetry_equiv_pos_site_id
 _symmetry_equiv_pos_as_xyz
  1  'x, y, z'
loop_
 _atom_site_type_symbol
 _atom_site_label
 _atom_site_symmetry_multiplicity
 _atom_site_fract_x
 _atom_site_fract_y
 _atom_site_fract_z
 _atom_site_occupancy
  Th  Th0  1  0.848832  0.750000  0.697664  1
  Th  Th1  1  0.151168  0.250000  0.302336  1
  Au  Au2  1  0.575324  0.750000  0.150649  1
  Au  Au3  1  0.424676  0.250000  0.849351  1
