# generated using pymatgen
data_LuB2C
_symmetry_space_group_name_H-M   'P 1'
_cell_length_a   6.73413622
_cell_length_b   6.73413622
_cell_length_c   7.19549700
_cell_angle_alpha   90.00000000
_cell_angle_beta   90.00000000
_cell_angle_gamma   90.00000000
_symmetry_Int_Tables_number   1
_chemical_formula_structural   LuB2C
_chemical_formula_sum   'Lu8 B16 C8'
_cell_volume   326.30564783
_cell_formula_units_Z   8
loop_
 _symmetry_equiv_pos_site_id
 _symmetry_equiv_pos_as_xyz
  1  'x, y, z'
loop_
 _atom_site_type_symbol
 _atom_site_label
 _atom_site_symmetry_multiplicity
 _atom_site_fract_x
 _atom_site_fract_y
 _atom_site_fract_z
 _atom_site_occupancy
  B  B0  1  0.153007  0.034262  0.000000  1
  B  B1  1  0.534262  0.653007  0.500000  1
  B  B2  1  0.846993  0.965738  0.000000  1
  B  B3  1  0.346993  0.534262  0.000000  1
  B  B4  1  0.653007  0.465738  0.000000  1
  B  B5  1  0.034262  0.846993  0.500000  1
  B  B6  1  0.965738  0.153007  0.500000  1
  B  B7  1  0.465738  0.346993  0.500000  1
  B  B8  1  0.096847  0.593264  0.000000  1
  B  B9  1  0.406736  0.096847  0.500000  1
  B  B10  1  0.593264  0.903153  0.500000  1
  B  B11  1  0.596847  0.906736  0.000000  1
  B  B12  1  0.403153  0.093264  0.000000  1
  B  B13  1  0.903153  0.406736  0.000000  1
  B  B14  1  0.093264  0.596847  0.500000  1
  B  B15  1  0.906736  0.403153  0.500000  1
  C  C16  1  0.177807  0.040009  0.500000  1
  C  C17  1  0.677807  0.459991  0.500000  1
  C  C18  1  0.322193  0.540009  0.500000  1
  C  C19  1  0.959991  0.177807  0.000000  1
  C  C20  1  0.040009  0.822193  0.000000  1
  C  C21  1  0.540009  0.677807  0.000000  1
  C  C22  1  0.822193  0.959991  0.500000  1
  C  C23  1  0.459991  0.322193  0.000000  1
  Lu  Lu24  1  0.308875  0.808875  0.750000  1
  Lu  Lu25  1  0.191125  0.308875  0.250000  1
  Lu  Lu26  1  0.808875  0.691125  0.250000  1
  Lu  Lu27  1  0.691125  0.191125  0.750000  1
  Lu  Lu28  1  0.691125  0.191125  0.250000  1
  Lu  Lu29  1  0.808875  0.691125  0.750000  1
  Lu  Lu30  1  0.191125  0.308875  0.750000  1
  Lu  Lu31  1  0.308875  0.808875  0.250000  1
