# generated using pymatgen
data_MgMoO4
_symmetry_space_group_name_H-M   'P 1'
_cell_length_a   7.03702201
_cell_length_b   7.03702202
_cell_length_c   7.13889723
_cell_angle_alpha   77.52285462
_cell_angle_beta   77.52285455
_cell_angle_gamma   84.18154923
_symmetry_Int_Tables_number   1
_chemical_formula_structural   MgMoO4
_chemical_formula_sum   'Mg4 Mo4 O16'
_cell_volume   336.45939048
_cell_formula_units_Z   4
loop_
 _symmetry_equiv_pos_site_id
 _symmetry_equiv_pos_as_xyz
  1  'x, y, z'
loop_
 _atom_site_type_symbol
 _atom_site_label
 _atom_site_symmetry_multiplicity
 _atom_site_fract_x
 _atom_site_fract_y
 _atom_site_fract_z
 _atom_site_occupancy
  O  O0  1  0.701824  0.701824  0.354435  1
  O  O1  1  0.298176  0.298177  0.645565  1
  O  O2  1  0.289140  0.977360  0.972720  1
  O  O3  1  0.022641  0.710861  0.027280  1
  O  O4  1  0.710860  0.022641  0.027280  1
  O  O5  1  0.977360  0.289140  0.972720  1
  O  O6  1  0.640328  0.640328  0.960561  1
  O  O7  1  0.359672  0.359672  0.039439  1
  O  O8  1  0.695431  0.389751  0.696261  1
  O  O9  1  0.610249  0.304569  0.303738  1
  O  O10  1  0.304568  0.610249  0.303738  1
  O  O11  1  0.389751  0.695432  0.696261  1
  O  O12  1  0.001808  0.714948  0.608672  1
  O  O13  1  0.998192  0.285052  0.391328  1
  O  O14  1  0.285051  0.998192  0.391328  1
  O  O15  1  0.714949  0.001808  0.608672  1
  Mg  Mg16  1  0.701012  0.701012  0.642072  1
  Mg  Mg17  1  0.298988  0.298988  0.357930  1
  Mg  Mg18  1  0.320981  0.679018  0.000000  1
  Mg  Mg19  1  0.679019  0.320981  0.000000  1
  Mo  Mo20  1  0.770892  0.770892  0.094307  1
  Mo  Mo21  1  0.229107  0.229107  0.905694  1
  Mo  Mo22  1  0.249472  0.750528  0.500001  1
  Mo  Mo23  1  0.750527  0.249473  0.500001  1
