# generated using pymatgen
data_Tm(CuS)2
_symmetry_space_group_name_H-M   'P 1'
_cell_length_a   3.93783847
_cell_length_b   3.93783820
_cell_length_c   6.23856457
_cell_angle_alpha   89.95626619
_cell_angle_beta   90.04373378
_cell_angle_gamma   120.04475711
_symmetry_Int_Tables_number   1
_chemical_formula_structural   Tm(CuS)2
_chemical_formula_sum   'Tm1 Cu2 S2'
_cell_volume   83.74036663
_cell_formula_units_Z   1
loop_
 _symmetry_equiv_pos_site_id
 _symmetry_equiv_pos_as_xyz
  1  'x, y, z'
loop_
 _atom_site_type_symbol
 _atom_site_label
 _atom_site_symmetry_multiplicity
 _atom_site_fract_x
 _atom_site_fract_y
 _atom_site_fract_z
 _atom_site_occupancy
  Tm  Tm0  1  0.000000  0.000000  0.000000  1
  Cu  Cu1  1  0.666596  0.333404  0.663293  1
  Cu  Cu2  1  0.333404  0.666596  0.336707  1
  S  S3  1  0.666672  0.333328  0.261539  1
  S  S4  1  0.333328  0.666672  0.738461  1
