# generated using pymatgen
data_Te4Mo3WS4
_symmetry_space_group_name_H-M   'P 1'
_cell_length_a   3.36121887
_cell_length_b   3.36110558
_cell_length_c   41.19133124
_cell_angle_alpha   90.00160124
_cell_angle_beta   90.00000000
_cell_angle_gamma   120.00111509
_symmetry_Int_Tables_number   1
_chemical_formula_structural   Te4Mo3WS4
_chemical_formula_sum   'Te4 Mo3 W1 S4'
_cell_volume   403.00508625
_cell_formula_units_Z   1
loop_
 _symmetry_equiv_pos_site_id
 _symmetry_equiv_pos_as_xyz
  1  'x, y, z'
loop_
 _atom_site_type_symbol
 _atom_site_label
 _atom_site_symmetry_multiplicity
 _atom_site_fract_x
 _atom_site_fract_y
 _atom_site_fract_z
 _atom_site_occupancy
  Te  Te0  1  0.333311  0.666623  0.330675  1
  Te  Te1  1  0.666736  0.333471  0.044867  1
  Te  Te2  1  0.666721  0.333442  0.136634  1
  Te  Te3  1  0.333324  0.666649  0.238863  1
  Mo  Mo4  1  0.333407  0.666813  0.090739  1
  Mo  Mo5  1  0.333300  0.666600  0.469921  1
  Mo  Mo6  1  0.666639  0.333278  0.284762  1
  W  W7  1  0.666679  0.333357  0.657473  1
  S  S8  1  0.333355  0.666710  0.694341  1
  S  S9  1  0.666564  0.333127  0.433174  1
  S  S10  1  0.666624  0.333248  0.506694  1
  S  S11  1  0.333340  0.666681  0.620604  1
