# generated using pymatgen
data_Er4In(NiGe2)2
_symmetry_space_group_name_H-M   'P 1'
_cell_length_a   4.20980374
_cell_length_b   7.01254953
_cell_length_c   7.98703114
_cell_angle_alpha   107.97079580
_cell_angle_beta   105.28021501
_cell_angle_gamma   90.00000002
_symmetry_Int_Tables_number   1
_chemical_formula_structural   Er4In(NiGe2)2
_chemical_formula_sum   'Er4 In1 Ni2 Ge4'
_cell_volume   215.50561876
_cell_formula_units_Z   1
loop_
 _symmetry_equiv_pos_site_id
 _symmetry_equiv_pos_as_xyz
  1  'x, y, z'
loop_
 _atom_site_type_symbol
 _atom_site_label
 _atom_site_symmetry_multiplicity
 _atom_site_fract_x
 _atom_site_fract_y
 _atom_site_fract_z
 _atom_site_occupancy
  Ni  Ni0  1  0.217499  0.640701  0.434999  1
  Ni  Ni1  1  0.782501  0.359299  0.565001  1
  Ge  Ge2  1  0.065821  0.662664  0.131643  1
  Ge  Ge3  1  0.934179  0.337336  0.868357  1
  Ge  Ge4  1  0.202516  0.267811  0.405031  1
  Ge  Ge5  1  0.797484  0.732189  0.594969  1
  In  In6  1  0.000000  0.000000  0.000000  1
  Er  Er7  1  0.344114  0.062464  0.688229  1
  Er  Er8  1  0.655886  0.937536  0.311771  1
  Er  Er9  1  0.408481  0.608851  0.816963  1
  Er  Er10  1  0.591519  0.391149  0.183037  1
