# generated using pymatgen
data_Te2MoW3(SeS2)2
_symmetry_space_group_name_H-M   'P 1'
_cell_length_a   3.30858245
_cell_length_b   3.30860491
_cell_length_c   37.66261983
_cell_angle_alpha   90.00002830
_cell_angle_beta   90.00000000
_cell_angle_gamma   119.99977534
_symmetry_Int_Tables_number   1
_chemical_formula_structural   Te2MoW3(SeS2)2
_chemical_formula_sum   'Te2 Mo1 W3 Se2 S4'
_cell_volume   357.04997995
_cell_formula_units_Z   1
loop_
 _symmetry_equiv_pos_site_id
 _symmetry_equiv_pos_as_xyz
  1  'x, y, z'
loop_
 _atom_site_type_symbol
 _atom_site_label
 _atom_site_symmetry_multiplicity
 _atom_site_fract_x
 _atom_site_fract_y
 _atom_site_fract_z
 _atom_site_occupancy
  Te  Te0  1  0.333353  0.666707  0.708636  1
  Te  Te1  1  0.333355  0.666711  0.606439  1
  Mo  Mo2  1  0.333297  0.666594  0.469642  1
  W  W3  1  0.333308  0.666616  0.093923  1
  W  W4  1  0.666692  0.333383  0.281800  1
  W  W5  1  0.666692  0.333383  0.657568  1
  Se  Se6  1  0.666638  0.333275  0.049078  1
  Se  Se7  1  0.666636  0.333272  0.138769  1
  S  S8  1  0.333354  0.666709  0.322515  1
  S  S9  1  0.666658  0.333315  0.429103  1
  S  S10  1  0.666659  0.333317  0.510189  1
  S  S11  1  0.333358  0.666718  0.241084  1
