# generated using pymatgen
data_NaNb3O8
_symmetry_space_group_name_H-M   'P 1'
_cell_length_a   7.19445128
_cell_length_b   7.38434763
_cell_length_c   7.38434763
_cell_angle_alpha   60.58514308
_cell_angle_beta   60.84709605
_cell_angle_gamma   60.84709601
_symmetry_Int_Tables_number   1
_chemical_formula_structural   NaNb3O8
_chemical_formula_sum   'Na2 Nb6 O16'
_cell_volume   282.15153986
_cell_formula_units_Z   2
loop_
 _symmetry_equiv_pos_site_id
 _symmetry_equiv_pos_as_xyz
  1  'x, y, z'
loop_
 _atom_site_type_symbol
 _atom_site_label
 _atom_site_symmetry_multiplicity
 _atom_site_fract_x
 _atom_site_fract_y
 _atom_site_fract_z
 _atom_site_occupancy
  O  O0  1  0.562708  0.441045  0.837806  1
  O  O1  1  0.841560  0.558955  0.162194  1
  O  O2  1  0.937292  0.162194  0.558956  1
  O  O3  1  0.658441  0.837805  0.441045  1
  O  O4  1  0.437291  0.558955  0.162194  1
  O  O5  1  0.158441  0.441045  0.837805  1
  O  O6  1  0.062709  0.837805  0.441045  1
  O  O7  1  0.341559  0.162194  0.558956  1
  O  O8  1  0.831580  0.183588  0.153252  1
  O  O9  1  0.168419  0.816413  0.846748  1
  O  O10  1  0.668419  0.846749  0.816411  1
  O  O11  1  0.331580  0.153251  0.183589  1
  O  O12  1  0.075662  0.531474  0.317202  1
  O  O13  1  0.424337  0.682798  0.468528  1
  O  O14  1  0.924337  0.468527  0.682798  1
  O  O15  1  0.575662  0.317201  0.531474  1
  Na  Na16  1  0.250001  1.000000  0.999999  1
  Na  Na17  1  0.750000  1.000000  1.000000  1
  Nb  Nb18  1  0.262728  0.986651  0.487894  1
  Nb  Nb19  1  0.762728  0.487894  0.986650  1
  Nb  Nb20  1  0.237272  0.512106  0.013349  1
  Nb  Nb21  1  0.737273  0.013349  0.512105  1
  Nb  Nb22  1  0.250000  0.500000  0.500000  1
  Nb  Nb23  1  0.750000  0.500000  0.500000  1
