# generated using pymatgen
data_NaNd(GaS2)4
_symmetry_space_group_name_H-M   'P 1'
_cell_length_a   11.94023403
_cell_length_b   11.94023403
_cell_length_c   11.90717446
_cell_angle_alpha   105.35551661
_cell_angle_beta   105.35551658
_cell_angle_gamma   118.15453637
_symmetry_Int_Tables_number   1
_chemical_formula_structural   NaNd(GaS2)4
_chemical_formula_sum   'Na4 Nd4 Ga16 S32'
_cell_volume   1282.70777576
_cell_formula_units_Z   4
loop_
 _symmetry_equiv_pos_site_id
 _symmetry_equiv_pos_as_xyz
  1  'x, y, z'
loop_
 _atom_site_type_symbol
 _atom_site_label
 _atom_site_symmetry_multiplicity
 _atom_site_fract_x
 _atom_site_fract_y
 _atom_site_fract_z
 _atom_site_occupancy
  Na  Na0  1  0.378700  0.621300  0.750000  1
  Na  Na1  1  0.128700  0.871300  0.250000  1
  Na  Na2  1  0.621300  0.378700  0.250000  1
  Na  Na3  1  0.871300  0.128700  0.750000  1
  S  S4  1  0.907590  0.577058  0.994949  1
  S  S5  1  0.587359  0.417891  0.994949  1
  S  S6  1  0.422942  0.092410  0.505051  1
  S  S7  1  0.582109  0.412641  0.505051  1
  S  S8  1  0.092410  0.422942  0.005051  1
  S  S9  1  0.417891  0.587359  0.494949  1
  S  S10  1  0.577058  0.907590  0.494949  1
  S  S11  1  0.412641  0.582109  0.005051  1
  S  S12  1  0.075535  0.406741  0.493539  1
  S  S13  1  0.913202  0.081996  0.006461  1
  S  S14  1  0.593259  0.924465  0.006461  1
  S  S15  1  0.918004  0.086798  0.493539  1
  S  S16  1  0.924465  0.593259  0.506461  1
  S  S17  1  0.086798  0.918004  0.993539  1
  S  S18  1  0.406741  0.075535  0.993539  1
  S  S19  1  0.081996  0.913202  0.506461  1
  S  S20  1  0.847134  0.847836  0.162605  1
  S  S21  1  0.685231  0.184529  0.337395  1
  S  S22  1  0.152164  0.152866  0.337395  1
  S  S23  1  0.815471  0.314769  0.162605  1
  S  S24  1  0.661803  0.653407  0.811899  1
  S  S25  1  0.841508  0.349904  0.688101  1
  S  S26  1  0.346593  0.338197  0.688101  1
  S  S27  1  0.650096  0.158492  0.811899  1
  S  S28  1  0.338197  0.346593  0.188101  1
  S  S29  1  0.158492  0.650096  0.311899  1
  S  S30  1  0.653407  0.661803  0.311899  1
  S  S31  1  0.349904  0.841508  0.188101  1
  S  S32  1  0.184529  0.685231  0.837395  1
  S  S33  1  0.847836  0.847134  0.662605  1
  S  S34  1  0.314769  0.815471  0.662605  1
  S  S35  1  0.152866  0.152164  0.837395  1
  Ga  Ga36  1  0.358362  0.360061  0.391034  1
  Ga  Ga37  1  0.969027  0.467328  0.108966  1
  Ga  Ga38  1  0.639939  0.641638  0.108966  1
  Ga  Ga39  1  0.532672  0.030973  0.391034  1
  Ga  Ga40  1  0.641638  0.639939  0.608966  1
  Ga  Ga41  1  0.030973  0.532672  0.891034  1
  Ga  Ga42  1  0.360061  0.358362  0.891034  1
  Ga  Ga43  1  0.467328  0.969027  0.608966  1
  Ga  Ga44  1  0.866730  0.861531  0.977122  1
  Ga  Ga45  1  0.884409  0.389608  0.522878  1
  Ga  Ga46  1  0.138469  0.133270  0.522878  1
  Ga  Ga47  1  0.610392  0.115591  0.977122  1
  Ga  Ga48  1  0.133270  0.138469  0.022878  1
  Ga  Ga49  1  0.115591  0.610392  0.477122  1
  Ga  Ga50  1  0.861531  0.866730  0.477122  1
  Ga  Ga51  1  0.389608  0.884409  0.022878  1
  Nd  Nd52  1  0.375000  0.625000  0.250000  1
  Nd  Nd53  1  0.625000  0.375000  0.750000  1
  Nd  Nd54  1  0.875000  0.125000  0.250000  1
  Nd  Nd55  1  0.125000  0.875000  0.750000  1
