# generated using pymatgen
data_BaN2
_symmetry_space_group_name_H-M   'P 1'
_cell_length_a   4.26692587
_cell_length_b   4.26692587
_cell_length_c   7.33778644
_cell_angle_alpha   77.21342862
_cell_angle_beta   77.21342863
_cell_angle_gamma   63.39366155
_symmetry_Int_Tables_number   1
_chemical_formula_structural   BaN2
_chemical_formula_sum   'Ba2 N4'
_cell_volume   115.33744370
_cell_formula_units_Z   2
loop_
 _symmetry_equiv_pos_site_id
 _symmetry_equiv_pos_as_xyz
  1  'x, y, z'
loop_
 _atom_site_type_symbol
 _atom_site_label
 _atom_site_symmetry_multiplicity
 _atom_site_fract_x
 _atom_site_fract_y
 _atom_site_fract_z
 _atom_site_occupancy
  N  N0  1  0.148499  0.445011  0.454080  1
  N  N1  1  0.554989  0.851501  0.045920  1
  N  N2  1  0.445011  0.148499  0.954080  1
  N  N3  1  0.851501  0.554989  0.545920  1
  Ba  Ba4  1  0.788451  0.211549  0.250000  1
  Ba  Ba5  1  0.211549  0.788451  0.750000  1
