# generated using pymatgen
data_Te2MoWS2
_symmetry_space_group_name_H-M   'P 1'
_cell_length_a   3.35827507
_cell_length_b   3.35825621
_cell_length_c   23.87798058
_cell_angle_alpha   89.99962291
_cell_angle_beta   89.99999966
_cell_angle_gamma   120.00017768
_symmetry_Int_Tables_number   1
_chemical_formula_structural   Te2MoWS2
_chemical_formula_sum   'Te2 Mo1 W1 S2'
_cell_volume   233.21556934
_cell_formula_units_Z   1
loop_
 _symmetry_equiv_pos_site_id
 _symmetry_equiv_pos_as_xyz
  1  'x, y, z'
loop_
 _atom_site_type_symbol
 _atom_site_label
 _atom_site_symmetry_multiplicity
 _atom_site_fract_x
 _atom_site_fract_y
 _atom_site_fract_z
 _atom_site_occupancy
  Te  Te0  1  0.333353  0.666706  0.530425  1
  Te  Te1  1  0.333356  0.666713  0.372408  1
  Mo  Mo2  1  0.666691  0.333382  0.451424  1
  W  W3  1  0.333312  0.666623  0.150436  1
  S  S4  1  0.666646  0.333292  0.086826  1
  S  S5  1  0.666642  0.333284  0.214085  1
