# generated using pymatgen
data_Te4MoW3(SeS)2
_symmetry_space_group_name_H-M   'P 1'
_cell_length_a   3.40221550
_cell_length_b   3.40219695
_cell_length_c   40.44923981
_cell_angle_alpha   90.00050982
_cell_angle_beta   90.00000000
_cell_angle_gamma   120.00018038
_symmetry_Int_Tables_number   1
_chemical_formula_structural   Te4MoW3(SeS)2
_chemical_formula_sum   'Te4 Mo1 W3 Se2 S2'
_cell_volume   405.47256629
_cell_formula_units_Z   1
loop_
 _symmetry_equiv_pos_site_id
 _symmetry_equiv_pos_as_xyz
  1  'x, y, z'
loop_
 _atom_site_type_symbol
 _atom_site_label
 _atom_site_symmetry_multiplicity
 _atom_site_fract_x
 _atom_site_fract_y
 _atom_site_fract_z
 _atom_site_occupancy
  Te  Te0  1  0.333330  0.666662  0.705991  1
  Te  Te1  1  0.666711  0.333421  0.421670  1
  Te  Te2  1  0.666716  0.333431  0.514822  1
  Te  Te3  1  0.333303  0.666607  0.612897  1
  Mo  Mo4  1  0.333297  0.666595  0.094138  1
  W  W5  1  0.333382  0.666764  0.468248  1
  W  W6  1  0.666665  0.333331  0.281084  1
  W  W7  1  0.666654  0.333308  0.659474  1
  Se  Se8  1  0.333324  0.666648  0.321914  1
  Se  Se9  1  0.333340  0.666680  0.240248  1
  S  S10  1  0.666631  0.333262  0.057021  1
  S  S11  1  0.666646  0.333291  0.131240  1
