# generated using pymatgen
data_Rb2WO4
_symmetry_space_group_name_H-M   'P 1'
_cell_length_a   6.45690256
_cell_length_b   7.30793861
_cell_length_c   8.04008166
_cell_angle_alpha   113.23286384
_cell_angle_beta   90.00000000
_cell_angle_gamma   116.21707185
_symmetry_Int_Tables_number   1
_chemical_formula_structural   Rb2WO4
_chemical_formula_sum   'Rb4 W2 O8'
_cell_volume   305.68848747
_cell_formula_units_Z   2
loop_
 _symmetry_equiv_pos_site_id
 _symmetry_equiv_pos_as_xyz
  1  'x, y, z'
loop_
 _atom_site_type_symbol
 _atom_site_label
 _atom_site_symmetry_multiplicity
 _atom_site_fract_x
 _atom_site_fract_y
 _atom_site_fract_z
 _atom_site_occupancy
  O  O0  1  0.373524  0.285813  0.081136  1
  O  O1  1  0.087710  0.714186  0.918864  1
  O  O2  1  0.626476  0.714186  0.918864  1
  O  O3  1  0.912290  0.285813  0.081136  1
  O  O4  1  0.671910  0.343819  0.624249  1
  O  O5  1  0.328091  0.656182  0.375751  1
  O  O6  1  0.092934  0.185868  0.357790  1
  O  O7  1  0.907066  0.814131  0.642210  1
  Rb  Rb8  1  0.844229  0.688457  0.253225  1
  Rb  Rb9  1  0.155771  0.311542  0.746775  1
  Rb  Rb10  1  0.488914  0.977827  0.763056  1
  Rb  Rb11  1  0.511086  0.022172  0.236944  1
  W  W12  1  0.175772  0.351544  0.225628  1
  W  W13  1  0.824228  0.648455  0.774372  1
