# generated using pymatgen
data_EuTmCuS3
_symmetry_space_group_name_H-M   'P 1'
_cell_length_a   3.88278168
_cell_length_b   6.69374727
_cell_length_c   10.07571105
_cell_angle_alpha   90.00000000
_cell_angle_beta   90.00000000
_cell_angle_gamma   106.85978176
_symmetry_Int_Tables_number   1
_chemical_formula_structural   EuTmCuS3
_chemical_formula_sum   'Eu2 Tm2 Cu2 S6'
_cell_volume   250.61543983
_cell_formula_units_Z   2
loop_
 _symmetry_equiv_pos_site_id
 _symmetry_equiv_pos_as_xyz
  1  'x, y, z'
loop_
 _atom_site_type_symbol
 _atom_site_label
 _atom_site_symmetry_multiplicity
 _atom_site_fract_x
 _atom_site_fract_y
 _atom_site_fract_z
 _atom_site_occupancy
  S  S0  1  0.920358  0.840716  0.250000  1
  S  S1  1  0.079642  0.159284  0.750000  1
  S  S2  1  0.362177  0.724354  0.568317  1
  S  S3  1  0.362177  0.724354  0.931683  1
  S  S4  1  0.637823  0.275646  0.068317  1
  S  S5  1  0.637823  0.275646  0.431683  1
  Cu  Cu6  1  0.474160  0.948319  0.750000  1
  Cu  Cu7  1  0.525840  0.051681  0.250000  1
  Eu  Eu8  1  0.248944  0.497888  0.250000  1
  Eu  Eu9  1  0.751056  0.502112  0.750000  1
  Tm  Tm10  1  0.000000  0.000000  0.500000  1
  Tm  Tm11  1  0.000000  0.000000  0.000000  1
