# generated using pymatgen
data_TiCuF6
_symmetry_space_group_name_H-M   'P 1'
_cell_length_a   5.08900335
_cell_length_b   5.31730765
_cell_length_c   5.60571950
_cell_angle_alpha   58.56010773
_cell_angle_beta   61.54767449
_cell_angle_gamma   60.14413323
_symmetry_Int_Tables_number   1
_chemical_formula_structural   TiCuF6
_chemical_formula_sum   'Ti1 Cu1 F6'
_cell_volume   107.31916462
_cell_formula_units_Z   1
loop_
 _symmetry_equiv_pos_site_id
 _symmetry_equiv_pos_as_xyz
  1  'x, y, z'
loop_
 _atom_site_type_symbol
 _atom_site_label
 _atom_site_symmetry_multiplicity
 _atom_site_fract_x
 _atom_site_fract_y
 _atom_site_fract_z
 _atom_site_occupancy
  Ti  Ti0  1  0.500000  0.500000  0.500000  1
  Cu  Cu1  1  -0.000000  0.000000  -0.000000  1
  F  F2  1  0.745014  0.356506  0.748883  1
  F  F3  1  0.254986  0.643494  0.251117  1
  F  F4  1  0.638142  0.857783  0.254427  1
  F  F5  1  0.361858  0.142217  0.745573  1
  F  F6  1  0.158920  0.722903  0.723527  1
  F  F7  1  0.841080  0.277097  0.276473  1
