# generated using pymatgen
data_BaDy2CoO5
_symmetry_space_group_name_H-M   'P 1'
_cell_length_a   3.77953069
_cell_length_b   5.82997639
_cell_length_c   6.74931797
_cell_angle_alpha   115.58581869
_cell_angle_beta   106.25934560
_cell_angle_gamma   89.99798367
_symmetry_Int_Tables_number   1
_chemical_formula_structural   BaDy2CoO5
_chemical_formula_sum   'Ba1 Dy2 Co1 O5'
_cell_volume   127.50908217
_cell_formula_units_Z   1
loop_
 _symmetry_equiv_pos_site_id
 _symmetry_equiv_pos_as_xyz
  1  'x, y, z'
loop_
 _atom_site_type_symbol
 _atom_site_label
 _atom_site_symmetry_multiplicity
 _atom_site_fract_x
 _atom_site_fract_y
 _atom_site_fract_z
 _atom_site_occupancy
  Ba  Ba0  1  0.999999  1.000000  1.000000  1
  Dy  Dy1  1  0.796529  0.296544  0.593085  1
  Dy  Dy2  1  0.203472  0.703456  0.406915  1
  Co  Co3  1  0.500005  0.500000  0.000000  1
  O  O4  1  0.651410  0.409837  0.302661  1
  O  O5  1  0.348612  0.107125  0.697351  1
  O  O6  1  0.348590  0.590163  0.697340  1
  O  O7  1  0.651390  0.892876  0.302650  1
  O  O8  1  -0.000004  0.500000  0.000000  1
