# generated using pymatgen
data_ThCo9Si2
_symmetry_space_group_name_H-M   'P 1'
_cell_length_a   6.28916765
_cell_length_b   7.56448267
_cell_length_c   7.56448267
_cell_angle_alpha   80.04878399
_cell_angle_beta   65.43635714
_cell_angle_gamma   65.43635710
_symmetry_Int_Tables_number   1
_chemical_formula_structural   ThCo9Si2
_chemical_formula_sum   'Th2 Co18 Si4'
_cell_volume   297.68511309
_cell_formula_units_Z   2
loop_
 _symmetry_equiv_pos_site_id
 _symmetry_equiv_pos_as_xyz
  1  'x, y, z'
loop_
 _atom_site_type_symbol
 _atom_site_label
 _atom_site_symmetry_multiplicity
 _atom_site_fract_x
 _atom_site_fract_y
 _atom_site_fract_z
 _atom_site_occupancy
  Si  Si0  1  0.500000  0.500000  0.500000  1
  Si  Si1  1  0.500000  0.000000  0.500000  1
  Si  Si2  1  0.000000  0.500000  0.000000  1
  Si  Si3  1  0.500000  0.000000  0.000000  1
  Co  Co4  1  0.625000  0.750000  0.250000  1
  Co  Co5  1  0.642361  0.668347  0.919313  1
  Co  Co6  1  0.230021  0.831653  0.580687  1
  Co  Co7  1  0.061674  0.580687  0.668347  1
  Co  Co8  1  0.769979  0.919313  0.668347  1
  Co  Co9  1  0.357639  0.580687  0.831653  1
  Co  Co10  1  0.310708  0.919313  0.831653  1
  Co  Co11  1  0.938326  0.831653  0.919313  1
  Co  Co12  1  0.689292  0.080687  0.168347  1
  Co  Co13  1  0.357639  0.331653  0.080687  1
  Co  Co14  1  0.769979  0.168347  0.419313  1
  Co  Co15  1  0.938326  0.419313  0.331653  1
  Co  Co16  1  0.230021  0.080687  0.331653  1
  Co  Co17  1  0.642361  0.419313  0.168347  1
  Co  Co18  1  0.310708  0.331653  0.419313  1
  Co  Co19  1  0.061674  0.168347  0.080687  1
  Co  Co20  1  0.689292  0.668347  0.580687  1
  Co  Co21  1  0.375000  0.250000  0.750000  1
  Th  Th22  1  0.875000  0.250000  0.750000  1
  Th  Th23  1  0.125000  0.750000  0.250000  1
