# generated using pymatgen
data_Yb2S3
_symmetry_space_group_name_H-M   'P 1'
_cell_length_a   7.92540510
_cell_length_b   7.92540510
_cell_length_c   7.92540510
_cell_angle_alpha   50.02295806
_cell_angle_beta   50.02295808
_cell_angle_gamma   50.02295807
_symmetry_Int_Tables_number   1
_chemical_formula_structural   Yb2S3
_chemical_formula_sum   'Yb4 S6'
_cell_volume   269.03168322
_cell_formula_units_Z   2
loop_
 _symmetry_equiv_pos_site_id
 _symmetry_equiv_pos_as_xyz
  1  'x, y, z'
loop_
 _atom_site_type_symbol
 _atom_site_label
 _atom_site_symmetry_multiplicity
 _atom_site_fract_x
 _atom_site_fract_y
 _atom_site_fract_z
 _atom_site_occupancy
  S  S0  1  0.536109  0.963891  0.250000  1
  S  S1  1  0.250000  0.536109  0.963891  1
  S  S2  1  0.963891  0.250000  0.536109  1
  S  S3  1  0.463891  0.036109  0.750000  1
  S  S4  1  0.750000  0.463891  0.036109  1
  S  S5  1  0.036109  0.750000  0.463891  1
  Yb  Yb6  1  0.348608  0.348608  0.348608  1
  Yb  Yb7  1  0.151392  0.151392  0.151392  1
  Yb  Yb8  1  0.651392  0.651392  0.651392  1
  Yb  Yb9  1  0.848608  0.848608  0.848608  1
