# generated using pymatgen
data_ReN2
_symmetry_space_group_name_H-M   'P 1'
_cell_length_a   4.84429559
_cell_length_b   4.81278387
_cell_length_c   5.59856644
_cell_angle_alpha   90.00000000
_cell_angle_beta   148.57018476
_cell_angle_gamma   90.00000000
_symmetry_Int_Tables_number   1
_chemical_formula_structural   ReN2
_chemical_formula_sum   'Re2 N4'
_cell_volume   68.06433519
_cell_formula_units_Z   2
loop_
 _symmetry_equiv_pos_site_id
 _symmetry_equiv_pos_as_xyz
  1  'x, y, z'
loop_
 _atom_site_type_symbol
 _atom_site_label
 _atom_site_symmetry_multiplicity
 _atom_site_fract_x
 _atom_site_fract_y
 _atom_site_fract_z
 _atom_site_occupancy
  Re  Re0  1  0.887575  0.751750  0.871409  1
  Re  Re1  1  0.887575  0.248250  0.371408  1
  N  N2  1  0.071125  0.959835  0.279791  1
  N  N3  1  0.071125  0.040165  0.779791  1
  N  N4  1  0.511300  0.453682  0.807800  1
  N  N5  1  0.511300  0.546318  0.307800  1
