# generated using pymatgen
data_Rb2TaAgS4
_symmetry_space_group_name_H-M   'P 1'
_cell_length_a   6.00564080
_cell_length_b   7.60170396
_cell_length_c   12.41833056
_cell_angle_alpha   84.51887387
_cell_angle_beta   76.00687411
_cell_angle_gamma   66.73281716
_symmetry_Int_Tables_number   1
_chemical_formula_structural   Rb2TaAgS4
_chemical_formula_sum   'Rb4 Ta2 Ag2 S8'
_cell_volume   505.37235345
_cell_formula_units_Z   2
loop_
 _symmetry_equiv_pos_site_id
 _symmetry_equiv_pos_as_xyz
  1  'x, y, z'
loop_
 _atom_site_type_symbol
 _atom_site_label
 _atom_site_symmetry_multiplicity
 _atom_site_fract_x
 _atom_site_fract_y
 _atom_site_fract_z
 _atom_site_occupancy
  S  S0  1  0.880746  0.553887  0.861035  1
  S  S1  1  0.795667  0.946113  0.638965  1
  S  S2  1  0.565368  0.553887  0.638965  1
  S  S3  1  0.258220  0.946113  0.861035  1
  S  S4  1  0.119254  0.446113  0.138965  1
  S  S5  1  0.741780  0.053887  0.138965  1
  S  S6  1  0.434632  0.446113  0.361035  1
  S  S7  1  0.204333  0.053887  0.361035  1
  Rb  Rb8  1  0.195828  0.250000  0.608343  1
  Rb  Rb9  1  0.804172  0.750000  0.391657  1
  Rb  Rb10  1  0.554172  0.250000  0.891657  1
  Rb  Rb11  1  0.445828  0.750000  0.108343  1
  Ag  Ag12  1  0.125000  0.750000  0.750000  1
  Ag  Ag13  1  0.875000  0.250000  0.250000  1
  Ta  Ta14  1  0.625000  0.750000  0.750000  1
  Ta  Ta15  1  0.375000  0.250000  0.250000  1
