# generated using pymatgen
data_Te2MoW3(Se2S)2
_symmetry_space_group_name_H-M   'P 1'
_cell_length_a   3.34216239
_cell_length_b   3.34216129
_cell_length_c   38.08184393
_cell_angle_alpha   89.99976512
_cell_angle_beta   90.00000000
_cell_angle_gamma   120.00001099
_symmetry_Int_Tables_number   1
_chemical_formula_structural   Te2MoW3(Se2S)2
_chemical_formula_sum   'Te2 Mo1 W3 Se4 S2'
_cell_volume   368.38632895
_cell_formula_units_Z   1
loop_
 _symmetry_equiv_pos_site_id
 _symmetry_equiv_pos_as_xyz
  1  'x, y, z'
loop_
 _atom_site_type_symbol
 _atom_site_label
 _atom_site_symmetry_multiplicity
 _atom_site_fract_x
 _atom_site_fract_y
 _atom_site_fract_z
 _atom_site_occupancy
  Te  Te0  1  0.333350  0.666702  0.331864  1
  Te  Te1  1  0.333349  0.666699  0.231754  1
  Mo  Mo2  1  0.333311  0.666622  0.093880  1
  W  W3  1  0.333309  0.666618  0.469674  1
  W  W4  1  0.666688  0.333377  0.281825  1
  W  W5  1  0.666696  0.333393  0.657534  1
  Se  Se6  1  0.333352  0.666705  0.701471  1
  Se  Se7  1  0.666647  0.333293  0.050178  1
  Se  Se8  1  0.666649  0.333297  0.137627  1
  Se  Se9  1  0.333358  0.666717  0.613594  1
  S  S10  1  0.666645  0.333289  0.429701  1
  S  S11  1  0.666645  0.333289  0.509649  1
