# generated using pymatgen
data_Te2Mo3W(Se2S)2
_symmetry_space_group_name_H-M   'P 1'
_cell_length_a   3.34622921
_cell_length_b   3.34618358
_cell_length_c   39.78615801
_cell_angle_alpha   90.00082547
_cell_angle_beta   90.00000000
_cell_angle_gamma   120.00045096
_symmetry_Int_Tables_number   1
_chemical_formula_structural   Te2Mo3W(Se2S)2
_chemical_formula_sum   'Te2 Mo3 W1 Se4 S2'
_cell_volume   385.80345389
_cell_formula_units_Z   1
loop_
 _symmetry_equiv_pos_site_id
 _symmetry_equiv_pos_as_xyz
  1  'x, y, z'
loop_
 _atom_site_type_symbol
 _atom_site_label
 _atom_site_symmetry_multiplicity
 _atom_site_fract_x
 _atom_site_fract_y
 _atom_site_fract_z
 _atom_site_occupancy
  Te  Te0  1  0.666702  0.333404  0.421646  1
  Te  Te1  1  0.666745  0.333489  0.517564  1
  Mo  Mo2  1  0.333349  0.666699  0.093895  1
  Mo  Mo3  1  0.666663  0.333326  0.280644  1
  Mo  Mo4  1  0.666611  0.333221  0.658767  1
  W  W5  1  0.333388  0.666776  0.469560  1
  Se  Se6  1  0.333302  0.666605  0.322558  1
  Se  Se7  1  0.333298  0.666598  0.700629  1
  Se  Se8  1  0.333370  0.666741  0.238810  1
  Se  Se9  1  0.333283  0.666566  0.616870  1
  S  S10  1  0.666614  0.333227  0.055787  1
  S  S11  1  0.666674  0.333348  0.132017  1
