# generated using pymatgen
data_CrN2
_symmetry_space_group_name_H-M   'P 1'
_cell_length_a   4.60654016
_cell_length_b   4.56180540
_cell_length_c   8.20602432
_cell_angle_alpha   96.32929971
_cell_angle_beta   90.00000000
_cell_angle_gamma   90.00000000
_symmetry_Int_Tables_number   1
_chemical_formula_structural   CrN2
_chemical_formula_sum   'Cr4 N8'
_cell_volume   171.39145477
_cell_formula_units_Z   4
loop_
 _symmetry_equiv_pos_site_id
 _symmetry_equiv_pos_as_xyz
  1  'x, y, z'
loop_
 _atom_site_type_symbol
 _atom_site_label
 _atom_site_symmetry_multiplicity
 _atom_site_fract_x
 _atom_site_fract_y
 _atom_site_fract_z
 _atom_site_occupancy
  Cr  Cr0  1  0.015466  0.177996  0.682134  1
  Cr  Cr1  1  0.015466  0.822004  0.317866  1
  Cr  Cr2  1  0.418365  0.396945  0.187710  1
  Cr  Cr3  1  0.418365  0.603055  0.812290  1
  N  N4  1  0.237912  0.072256  0.210873  1
  N  N5  1  0.237912  0.927744  0.789127  1
  N  N6  1  0.310559  0.500000  -0.000000  1
  N  N7  1  0.271321  0.399383  0.627755  1
  N  N8  1  0.271321  0.600617  0.372245  1
  N  N9  1  0.878703  -0.000000  0.500000  1
  N  N10  1  0.759145  0.555551  0.221781  1
  N  N11  1  0.759145  0.444449  0.778219  1
