# generated using pymatgen
data_CaZn(GeO3)2
_symmetry_space_group_name_H-M   'P 1'
_cell_length_a   5.51303450
_cell_length_b   6.88258180
_cell_length_c   6.88258180
_cell_angle_alpha   82.89266212
_cell_angle_beta   78.43994662
_cell_angle_gamma   78.43994655
_symmetry_Int_Tables_number   1
_chemical_formula_structural   CaZn(GeO3)2
_chemical_formula_sum   'Ca2 Zn2 Ge4 O12'
_cell_volume   249.71278654
_cell_formula_units_Z   2
loop_
 _symmetry_equiv_pos_site_id
 _symmetry_equiv_pos_as_xyz
  1  'x, y, z'
loop_
 _atom_site_type_symbol
 _atom_site_label
 _atom_site_symmetry_multiplicity
 _atom_site_fract_x
 _atom_site_fract_y
 _atom_site_fract_z
 _atom_site_occupancy
  O  O0  1  0.516339  0.328623  0.388394  1
  O  O1  1  0.983661  0.611606  0.671377  1
  O  O2  1  0.483661  0.671377  0.611606  1
  O  O3  1  0.016339  0.388394  0.328623  1
  O  O4  1  0.154818  0.103184  0.624319  1
  O  O5  1  0.345182  0.375681  0.896816  1
  O  O6  1  0.845182  0.896816  0.375681  1
  O  O7  1  0.654818  0.624319  0.103184  1
  O  O8  1  0.865761  0.201137  0.015798  1
  O  O9  1  0.634239  0.984202  0.798863  1
  O  O10  1  0.134239  0.798863  0.984202  1
  O  O11  1  0.365761  0.015798  0.201137  1
  Ca  Ca12  1  0.750000  0.303127  0.696873  1
  Ca  Ca13  1  0.250000  0.696873  0.303127  1
  Zn  Zn14  1  0.750000  0.906589  0.093411  1
  Zn  Zn15  1  0.250000  0.093411  0.906589  1
  Ge  Ge16  1  0.774455  0.382419  0.186181  1
  Ge  Ge17  1  0.725545  0.813819  0.617581  1
  Ge  Ge18  1  0.225545  0.617581  0.813819  1
  Ge  Ge19  1  0.274455  0.186181  0.382419  1
