# generated using pymatgen
data_Mo3W(Se3S)2
_symmetry_space_group_name_H-M   'P 1'
_cell_length_a   3.28628160
_cell_length_b   3.28623034
_cell_length_c   37.34625544
_cell_angle_alpha   89.99993913
_cell_angle_beta   90.00000457
_cell_angle_gamma   120.00050502
_symmetry_Int_Tables_number   1
_chemical_formula_structural   Mo3W(Se3S)2
_chemical_formula_sum   'Mo3 W1 Se6 S2'
_cell_volume   349.28365297
_cell_formula_units_Z   1
loop_
 _symmetry_equiv_pos_site_id
 _symmetry_equiv_pos_as_xyz
  1  'x, y, z'
loop_
 _atom_site_type_symbol
 _atom_site_label
 _atom_site_symmetry_multiplicity
 _atom_site_fract_x
 _atom_site_fract_y
 _atom_site_fract_z
 _atom_site_occupancy
  Mo  Mo0  1  0.333309  0.666619  0.093910  1
  Mo  Mo1  1  0.333312  0.666623  0.469654  1
  Mo  Mo2  1  0.666689  0.333379  0.281789  1
  W  W3  1  0.666689  0.333378  0.657536  1
  Se  Se4  1  0.333367  0.666735  0.326970  1
  Se  Se5  1  0.666634  0.333267  0.048745  1
  Se  Se6  1  0.666648  0.333296  0.424500  1
  Se  Se7  1  0.666641  0.333281  0.139098  1
  Se  Se8  1  0.666645  0.333290  0.514835  1
  Se  Se9  1  0.333353  0.666707  0.236640  1
  S  S10  1  0.333356  0.666713  0.698817  1
  S  S11  1  0.333356  0.666713  0.616252  1
