# generated using pymatgen
data_K2NdP2S7
_symmetry_space_group_name_H-M   'P 1'
_cell_length_a   6.94957187
_cell_length_b   9.22699815
_cell_length_c   20.26244738
_cell_angle_alpha   95.65988411
_cell_angle_beta   90.00000000
_cell_angle_gamma   90.00000000
_symmetry_Int_Tables_number   1
_chemical_formula_structural   K2NdP2S7
_chemical_formula_sum   'K8 Nd4 P8 S28'
_cell_volume   1292.96855236
_cell_formula_units_Z   4
loop_
 _symmetry_equiv_pos_site_id
 _symmetry_equiv_pos_as_xyz
  1  'x, y, z'
loop_
 _atom_site_type_symbol
 _atom_site_label
 _atom_site_symmetry_multiplicity
 _atom_site_fract_x
 _atom_site_fract_y
 _atom_site_fract_z
 _atom_site_occupancy
  P  P0  1  0.010735  0.918779  0.955792  1
  P  P1  1  0.989265  0.081221  0.044208  1
  P  P2  1  0.489265  0.418779  0.455792  1
  P  P3  1  0.510735  0.581221  0.544208  1
  P  P4  1  0.512551  0.397911  0.828842  1
  P  P5  1  0.012551  0.102089  0.671158  1
  P  P6  1  0.487449  0.602089  0.171158  1
  P  P7  1  0.987449  0.897911  0.328842  1
  S  S8  1  0.963458  0.273949  0.005988  1
  S  S9  1  0.463458  0.226051  0.494012  1
  S  S10  1  0.036542  0.726051  0.994012  1
  S  S11  1  0.536542  0.773949  0.505988  1
  S  S12  1  0.740895  0.520370  0.597109  1
  S  S13  1  0.240895  0.979630  0.902891  1
  S  S14  1  0.259105  0.479630  0.402891  1
  S  S15  1  0.759105  0.020370  0.097109  1
  S  S16  1  0.767433  0.945941  0.901599  1
  S  S17  1  0.732567  0.445941  0.401599  1
  S  S18  1  0.267433  0.554059  0.598401  1
  S  S19  1  0.232567  0.054059  0.098401  1
  S  S20  1  0.723938  0.601838  0.110639  1
  S  S21  1  0.223938  0.898162  0.389361  1
  S  S22  1  0.276062  0.398162  0.889361  1
  S  S23  1  0.776062  0.101838  0.610639  1
  S  S24  1  0.758299  0.953404  0.389600  1
  S  S25  1  0.258299  0.546596  0.110400  1
  S  S26  1  0.241701  0.046595  0.610400  1
  S  S27  1  0.741701  0.453404  0.889600  1
  S  S28  1  0.974532  0.958881  0.741428  1
  S  S29  1  0.474532  0.541119  0.758572  1
  S  S30  1  0.025468  0.041119  0.258572  1
  S  S31  1  0.525468  0.458881  0.241428  1
  S  S32  1  0.920992  0.697369  0.279279  1
  S  S33  1  0.420992  0.802631  0.220721  1
  S  S34  1  0.079008  0.302631  0.720721  1
  S  S35  1  0.579008  0.197369  0.779279  1
  K  K36  1  0.512862  0.743011  0.990341  1
  K  K37  1  0.012862  0.756989  0.509659  1
  K  K38  1  0.487138  0.256989  0.009659  1
  K  K39  1  0.987138  0.243011  0.490341  1
  K  K40  1  0.957499  0.345703  0.183527  1
  K  K41  1  0.457499  0.154297  0.316473  1
  K  K42  1  0.042501  0.654297  0.816473  1
  K  K43  1  0.542501  0.845703  0.683527  1
  Nd  Nd44  1  0.532920  0.690253  0.348867  1
  Nd  Nd45  1  0.032920  0.809747  0.151133  1
  Nd  Nd46  1  0.467080  0.309747  0.651133  1
  Nd  Nd47  1  0.967080  0.190253  0.848867  1
