# generated using pymatgen
data_K3Na(FeO4)2
_symmetry_space_group_name_H-M   'P 1'
_cell_length_a   5.90354104
_cell_length_b   5.90354104
_cell_length_c   7.65140230
_cell_angle_alpha   90.00000000
_cell_angle_beta   90.00000000
_cell_angle_gamma   120.00000001
_symmetry_Int_Tables_number   1
_chemical_formula_structural   K3Na(FeO4)2
_chemical_formula_sum   'K3 Na1 Fe2 O8'
_cell_volume   230.93876660
_cell_formula_units_Z   1
loop_
 _symmetry_equiv_pos_site_id
 _symmetry_equiv_pos_as_xyz
  1  'x, y, z'
loop_
 _atom_site_type_symbol
 _atom_site_label
 _atom_site_symmetry_multiplicity
 _atom_site_fract_x
 _atom_site_fract_y
 _atom_site_fract_z
 _atom_site_occupancy
  O  O0  1  0.180942  0.361884  0.195527  1
  O  O1  1  0.638116  0.819058  0.195527  1
  O  O2  1  0.180942  0.819058  0.195527  1
  O  O3  1  0.819058  0.638116  0.804473  1
  O  O4  1  0.819058  0.180942  0.804473  1
  O  O5  1  0.361884  0.180942  0.804473  1
  O  O6  1  0.333333  0.666667  0.488098  1
  O  O7  1  0.666667  0.333333  0.511902  1
  Na  Na8  1  0.000000  0.000000  0.000000  1
  K  K9  1  0.000000  0.000000  0.500000  1
  K  K10  1  0.333333  0.666667  0.834793  1
  K  K11  1  0.666667  0.333333  0.165207  1
  Fe  Fe12  1  0.666667  0.333333  0.725735  1
  Fe  Fe13  1  0.333333  0.666667  0.274265  1
