# generated using pymatgen
data_SrNbO3
_symmetry_space_group_name_H-M   'P 1'
_cell_length_a   5.77520708
_cell_length_b   5.77156258
_cell_length_c   8.22602496
_cell_angle_alpha   90.00000000
_cell_angle_beta   90.00000000
_cell_angle_gamma   90.00000000
_symmetry_Int_Tables_number   1
_chemical_formula_structural   SrNbO3
_chemical_formula_sum   'Sr4 Nb4 O12'
_cell_volume   274.18960957
_cell_formula_units_Z   4
loop_
 _symmetry_equiv_pos_site_id
 _symmetry_equiv_pos_as_xyz
  1  'x, y, z'
loop_
 _atom_site_type_symbol
 _atom_site_label
 _atom_site_symmetry_multiplicity
 _atom_site_fract_x
 _atom_site_fract_y
 _atom_site_fract_z
 _atom_site_occupancy
  O  O0  1  0.717599  0.282734  0.520214  1
  O  O1  1  0.217597  0.217267  0.979786  1
  O  O2  1  0.782402  0.782733  0.479786  1
  O  O3  1  0.282402  0.717267  0.020214  1
  O  O4  1  0.282402  0.717267  0.479786  1
  O  O5  1  0.782402  0.782733  0.020214  1
  O  O6  1  0.217597  0.217267  0.520214  1
  O  O7  1  0.717599  0.282734  0.979786  1
  O  O8  1  0.506409  0.959732  0.749999  1
  O  O9  1  0.006409  0.540268  0.749999  1
  O  O10  1  0.493590  0.040267  0.249999  1
  O  O11  1  0.993592  0.459733  0.249999  1
  Sr  Sr12  1  0.019008  0.999861  0.249999  1
  Sr  Sr13  1  0.519007  0.500139  0.249999  1
  Sr  Sr14  1  0.480992  0.499860  0.749999  1
  Sr  Sr15  1  0.980993  0.000139  0.749999  1
  Nb  Nb16  1  0.000000  0.500001  0.500000  1
  Nb  Nb17  1  0.500000  0.000000  0.000000  1
  Nb  Nb18  1  0.500000  0.000000  0.500000  1
  Nb  Nb19  1  0.000000  0.500001  0.000000  1
