# generated using pymatgen
data_Mo3W(SeS3)2
_symmetry_space_group_name_H-M   'P 1'
_cell_length_a   3.22041756
_cell_length_b   3.22038257
_cell_length_c   36.34893145
_cell_angle_alpha   89.99998096
_cell_angle_beta   90.00000000
_cell_angle_gamma   120.00035946
_symmetry_Int_Tables_number   1
_chemical_formula_structural   Mo3W(SeS3)2
_chemical_formula_sum   'Mo3 W1 Se2 S6'
_cell_volume   326.46780550
_cell_formula_units_Z   1
loop_
 _symmetry_equiv_pos_site_id
 _symmetry_equiv_pos_as_xyz
  1  'x, y, z'
loop_
 _atom_site_type_symbol
 _atom_site_label
 _atom_site_symmetry_multiplicity
 _atom_site_fract_x
 _atom_site_fract_y
 _atom_site_fract_z
 _atom_site_occupancy
  Mo  Mo0  1  0.333312  0.666625  0.093912  1
  Mo  Mo1  1  0.333310  0.666621  0.469644  1
  Mo  Mo2  1  0.666688  0.333376  0.657554  1
  W  W3  1  0.666689  0.333379  0.281791  1
  Se  Se4  1  0.333352  0.666704  0.704630  1
  Se  Se5  1  0.333352  0.666705  0.610479  1
  S  S6  1  0.333357  0.666715  0.324752  1
  S  S7  1  0.666647  0.333293  0.051109  1
  S  S8  1  0.666646  0.333291  0.426864  1
  S  S9  1  0.666647  0.333293  0.136722  1
  S  S10  1  0.666645  0.333289  0.512449  1
  S  S11  1  0.333354  0.666709  0.238842  1
