# generated using pymatgen
data_P4Pb3O13
_symmetry_space_group_name_H-M   'P 1'
_cell_length_a   7.50231072
_cell_length_b   8.04103850
_cell_length_c   10.39981262
_cell_angle_alpha   102.67996208
_cell_angle_beta   104.27476851
_cell_angle_gamma   94.51169452
_symmetry_Int_Tables_number   1
_chemical_formula_structural   P4Pb3O13
_chemical_formula_sum   'P8 Pb6 O26'
_cell_volume   587.30443148
_cell_formula_units_Z   2
loop_
 _symmetry_equiv_pos_site_id
 _symmetry_equiv_pos_as_xyz
  1  'x, y, z'
loop_
 _atom_site_type_symbol
 _atom_site_label
 _atom_site_symmetry_multiplicity
 _atom_site_fract_x
 _atom_site_fract_y
 _atom_site_fract_z
 _atom_site_occupancy
  P  P0  1  0.814655  0.309101  0.034311  1
  P  P1  1  0.185345  0.690899  0.965689  1
  P  P2  1  0.356989  0.036957  0.137422  1
  P  P3  1  0.643011  0.963043  0.862578  1
  P  P4  1  0.864354  0.036011  0.663427  1
  P  P5  1  0.135646  0.963989  0.336573  1
  P  P6  1  0.330985  0.304255  0.506669  1
  P  P7  1  0.669015  0.695745  0.493331  1
  Pb  Pb8  1  0.794406  0.274465  0.382768  1
  Pb  Pb9  1  0.205594  0.725535  0.617232  1
  Pb  Pb10  1  0.315862  0.261173  0.846442  1
  Pb  Pb11  1  0.684138  0.738827  0.153558  1
  Pb  Pb12  1  0.245857  0.477167  0.226378  1
  Pb  Pb13  1  0.754143  0.522833  0.773622  1
  O  O14  1  0.339481  0.611393  0.052911  1
  O  O15  1  0.660519  0.388607  0.947089  1
  O  O16  1  0.839339  0.378509  0.188485  1
  O  O17  1  0.160661  0.621491  0.811515  1
  O  O18  1  0.995417  0.316255  0.994193  1
  O  O19  1  0.004583  0.683745  0.005807  1
  O  O20  1  0.271032  0.895918  0.996105  1
  O  O21  1  0.728968  0.104082  0.003895  1
  O  O22  1  0.368507  0.209629  0.103099  1
  O  O23  1  0.631493  0.790371  0.896901  1
  O  O24  1  0.535785  0.988911  0.216333  1
  O  O25  1  0.464215  0.011089  0.783667  1
  O  O26  1  0.198832  0.027858  0.215756  1
  O  O27  1  0.801168  0.972142  0.784244  1
  O  O28  1  0.422605  0.348884  0.661987  1
  O  O29  1  0.577395  0.651116  0.338013  1
  O  O30  1  0.155366  0.391553  0.469600  1
  O  O31  1  0.844634  0.608447  0.530400  1
  O  O32  1  0.539888  0.676573  0.583096  1
  O  O33  1  0.460112  0.323427  0.416904  1
  O  O34  1  0.259470  0.095732  0.473475  1
  O  O35  1  0.740530  0.904268  0.526525  1
  O  O36  1  0.066118  0.005980  0.687435  1
  O  O37  1  0.933882  0.994020  0.312565  1
  O  O38  1  0.823484  0.213413  0.654172  1
  O  O39  1  0.176516  0.786587  0.345828  1
