# generated using pymatgen
data_Ho6GaCo2
_symmetry_space_group_name_H-M   'P 1'
_cell_length_a   8.22937861
_cell_length_b   8.22937862
_cell_length_c   8.22937862
_cell_angle_alpha   106.90149763
_cell_angle_beta   109.61446310
_cell_angle_gamma   111.93678749
_symmetry_Int_Tables_number   1
_chemical_formula_structural   Ho6GaCo2
_chemical_formula_sum   'Ho12 Ga2 Co4'
_cell_volume   428.19343198
_cell_formula_units_Z   2
loop_
 _symmetry_equiv_pos_site_id
 _symmetry_equiv_pos_as_xyz
  1  'x, y, z'
loop_
 _atom_site_type_symbol
 _atom_site_label
 _atom_site_symmetry_multiplicity
 _atom_site_fract_x
 _atom_site_fract_y
 _atom_site_fract_z
 _atom_site_occupancy
  Co  Co0  1  0.000000  0.115174  0.115174  1
  Co  Co1  1  0.000000  0.884826  0.884826  1
  Co  Co2  1  0.163676  0.500000  0.663676  1
  Co  Co3  1  0.836324  0.500000  0.336324  1
  Ga  Ga4  1  0.500000  0.500000  0.000000  1
  Ga  Ga5  1  0.500000  0.000000  0.500000  1
  Ho  Ho6  1  0.697111  0.261282  0.958393  1
  Ho  Ho7  1  0.302889  0.738718  0.041607  1
  Ho  Ho8  1  0.811967  0.485519  0.673553  1
  Ho  Ho9  1  0.811967  0.138414  0.326447  1
  Ho  Ho10  1  0.188033  0.514481  0.326447  1
  Ho  Ho11  1  0.188033  0.861586  0.673553  1
  Ho  Ho12  1  0.302889  0.261282  0.564171  1
  Ho  Ho13  1  0.697111  0.738718  0.435829  1
  Ho  Ho14  1  0.400154  0.219415  0.180740  1
  Ho  Ho15  1  0.038675  0.219415  0.819260  1
  Ho  Ho16  1  0.961325  0.780585  0.180740  1
  Ho  Ho17  1  0.599846  0.780585  0.819260  1
