# generated using pymatgen
data_Tm2CdSe4
_symmetry_space_group_name_H-M   'P 1'
_cell_length_a   8.27456240
_cell_length_b   8.27456239
_cell_length_c   8.27456239
_cell_angle_alpha   59.99999997
_cell_angle_beta   59.99999999
_cell_angle_gamma   59.99999999
_symmetry_Int_Tables_number   1
_chemical_formula_structural   Tm2CdSe4
_chemical_formula_sum   'Tm4 Cd2 Se8'
_cell_volume   400.60845140
_cell_formula_units_Z   2
loop_
 _symmetry_equiv_pos_site_id
 _symmetry_equiv_pos_as_xyz
  1  'x, y, z'
loop_
 _atom_site_type_symbol
 _atom_site_label
 _atom_site_symmetry_multiplicity
 _atom_site_fract_x
 _atom_site_fract_y
 _atom_site_fract_z
 _atom_site_occupancy
  Se  Se0  1  0.742167  0.742167  0.742167  1
  Se  Se1  1  0.257833  0.257833  0.726502  1
  Se  Se2  1  0.257833  0.726502  0.257833  1
  Se  Se3  1  0.726502  0.257833  0.257833  1
  Se  Se4  1  0.742167  0.273498  0.742167  1
  Se  Se5  1  0.273498  0.742167  0.742167  1
  Se  Se6  1  0.257833  0.257833  0.257833  1
  Se  Se7  1  0.742167  0.742167  0.273498  1
  Cd  Cd8  1  0.875000  0.875000  0.875000  1
  Cd  Cd9  1  0.125000  0.125000  0.125000  1
  Tm  Tm10  1  0.500000  0.500000  0.000000  1
  Tm  Tm11  1  0.500000  0.500000  0.500000  1
  Tm  Tm12  1  0.000000  0.500000  0.500000  1
  Tm  Tm13  1  0.500000  0.000000  0.500000  1
