# generated using pymatgen
data_NaCd(PO3)3
_symmetry_space_group_name_H-M   'P 1'
_cell_length_a   14.91507921
_cell_length_b   14.92034203
_cell_length_c   15.01658154
_cell_angle_alpha   90.00000000
_cell_angle_beta   90.00000000
_cell_angle_gamma   90.00000000
_symmetry_Int_Tables_number   1
_chemical_formula_structural   NaCd(PO3)3
_chemical_formula_sum   'Na16 Cd16 P48 O144'
_cell_volume   3341.76127239
_cell_formula_units_Z   16
loop_
 _symmetry_equiv_pos_site_id
 _symmetry_equiv_pos_as_xyz
  1  'x, y, z'
loop_
 _atom_site_type_symbol
 _atom_site_label
 _atom_site_symmetry_multiplicity
 _atom_site_fract_x
 _atom_site_fract_y
 _atom_site_fract_z
 _atom_site_occupancy
  O  O0  1  0.522847  0.515320  0.653722  1
  O  O1  1  0.022847  0.484680  0.846278  1
  O  O2  1  0.977153  0.015320  0.346278  1
  O  O3  1  0.477153  0.984680  0.153722  1
  O  O4  1  0.519027  0.373713  0.739336  1
  O  O5  1  0.019027  0.626287  0.760664  1
  O  O6  1  0.980973  0.873713  0.260664  1
  O  O7  1  0.480973  0.126287  0.239336  1
  O  O8  1  0.375920  0.449280  0.697686  1
  O  O9  1  0.875920  0.550720  0.802314  1
  O  O10  1  0.124080  0.949280  0.302314  1
  O  O11  1  0.624080  0.050720  0.197686  1
  O  O12  1  0.475846  0.516646  0.821107  1
  O  O13  1  0.975846  0.483354  0.678893  1
  O  O14  1  0.024154  0.016646  0.178893  1
  O  O15  1  0.524154  0.983354  0.321107  1
  O  O16  1  0.460481  0.301537  0.877622  1
  O  O17  1  0.960481  0.698463  0.622378  1
  O  O18  1  0.039519  0.801537  0.122378  1
  O  O19  1  0.539519  0.198463  0.377622  1
  O  O20  1  0.579977  0.225815  0.778334  1
  O  O21  1  0.079977  0.774185  0.721666  1
  O  O22  1  0.920023  0.725815  0.221666  1
  O  O23  1  0.420023  0.274185  0.278334  1
  O  O24  1  0.411798  0.240090  0.731197  1
  O  O25  1  0.911798  0.759910  0.768803  1
  O  O26  1  0.088202  0.740090  0.268803  1
  O  O27  1  0.588202  0.259910  0.231197  1
  O  O28  1  0.375670  0.230289  0.004688  1
  O  O29  1  0.875670  0.769711  0.495312  1
  O  O30  1  0.124330  0.730289  0.995312  1
  O  O31  1  0.624330  0.269711  0.504688  1
  O  O32  1  0.527655  0.174211  0.974154  1
  O  O33  1  0.027655  0.825789  0.525846  1
  O  O34  1  0.972345  0.674211  0.025846  1
  O  O35  1  0.472345  0.325789  0.474154  1
  O  O36  1  0.505111  0.338324  0.031191  1
  O  O37  1  0.005111  0.661676  0.468809  1
  O  O38  1  0.994889  0.838324  0.968809  1
  O  O39  1  0.494889  0.161676  0.531191  1
  O  O40  1  0.235383  0.222014  0.092052  1
  O  O41  1  0.735383  0.777986  0.407948  1
  O  O42  1  0.264617  0.722014  0.907948  1
  O  O43  1  0.764617  0.277986  0.592052  1
  O  O44  1  0.232265  0.275557  0.926400  1
  O  O45  1  0.732265  0.724443  0.573600  1
  O  O46  1  0.267735  0.775557  0.073600  1
  O  O47  1  0.767735  0.224443  0.426400  1
  O  O48  1  0.298355  0.371639  0.053309  1
  O  O49  1  0.798355  0.628361  0.446691  1
  O  O50  1  0.201645  0.871639  0.946691  1
  O  O51  1  0.701645  0.128361  0.553309  1
  O  O52  1  0.265856  0.518882  0.124052  1
  O  O53  1  0.765856  0.481118  0.375948  1
  O  O54  1  0.234144  0.018882  0.875948  1
  O  O55  1  0.734144  0.981118  0.624052  1
  O  O56  1  0.343737  0.514287  0.977175  1
  O  O57  1  0.843737  0.485713  0.522825  1
  O  O58  1  0.156263  0.014287  0.022825  1
  O  O59  1  0.656263  0.985713  0.477175  1
  O  O60  1  0.174395  0.472749  0.988879  1
  O  O61  1  0.674395  0.527251  0.511121  1
  O  O62  1  0.325605  0.972749  0.011121  1
  O  O63  1  0.825605  0.027251  0.488879  1
  O  O64  1  0.127436  0.458041  0.196549  1
  O  O65  1  0.627436  0.541959  0.303451  1
  O  O66  1  0.372564  0.958041  0.803451  1
  O  O67  1  0.872564  0.041959  0.696549  1
  O  O68  1  0.223235  0.582748  0.269842  1
  O  O69  1  0.723235  0.417252  0.230158  1
  O  O70  1  0.276765  0.082748  0.730158  1
  O  O71  1  0.776765  0.917252  0.769842  1
  O  O72  1  0.275598  0.416081  0.259635  1
  O  O73  1  0.775598  0.583919  0.240365  1
  O  O74  1  0.224402  0.916081  0.740365  1
  O  O75  1  0.724402  0.083919  0.759635  1
  O  O76  1  0.027081  0.514300  0.324351  1
  O  O77  1  0.527081  0.485700  0.175649  1
  O  O78  1  0.472919  0.014300  0.675649  1
  O  O79  1  0.972919  0.985700  0.824351  1
  O  O80  1  0.977284  0.518447  0.157489  1
  O  O81  1  0.477284  0.481553  0.342511  1
  O  O82  1  0.522716  0.018447  0.842511  1
  O  O83  1  0.022716  0.981553  0.657489  1
  O  O84  1  0.987702  0.373925  0.237228  1
  O  O85  1  0.487702  0.626075  0.262772  1
  O  O86  1  0.512298  0.873925  0.762772  1
  O  O87  1  0.012298  0.126075  0.737228  1
  O  O88  1  0.921065  0.229101  0.278418  1
  O  O89  1  0.421065  0.770899  0.221582  1
  O  O90  1  0.578935  0.729101  0.721582  1
  O  O91  1  0.078935  0.270899  0.778418  1
  O  O92  1  0.087867  0.236060  0.225551  1
  O  O93  1  0.587867  0.763940  0.274449  1
  O  O94  1  0.412133  0.736060  0.774449  1
  O  O95  1  0.912133  0.263940  0.725551  1
  O  O96  1  0.047724  0.297684  0.374173  1
  O  O97  1  0.547724  0.702316  0.125827  1
  O  O98  1  0.452276  0.797684  0.625827  1
  O  O99  1  0.952276  0.202316  0.874173  1
  O  O100  1  0.982611  0.342786  0.520893  1
  O  O101  1  0.482611  0.657214  0.979107  1
  O  O102  1  0.517389  0.842786  0.479107  1
  O  O103  1  0.017389  0.157214  0.020893  1
  O  O104  1  0.982333  0.173905  0.474990  1
  O  O105  1  0.482333  0.826095  0.025010  1
  O  O106  1  0.517667  0.673905  0.525010  1
  O  O107  1  0.017667  0.326095  0.974990  1
  O  O108  1  0.124679  0.257224  0.516523  1
  O  O109  1  0.624679  0.742776  0.983477  1
  O  O110  1  0.375321  0.757224  0.483477  1
  O  O111  1  0.875321  0.242776  0.016523  1
  O  O112  1  0.208549  0.126819  0.450216  1
  O  O113  1  0.708549  0.873181  0.049784  1
  O  O114  1  0.291451  0.626819  0.549784  1
  O  O115  1  0.791451  0.373181  0.950216  1
  O  O116  1  0.274980  0.225695  0.575623  1
  O  O117  1  0.774980  0.774305  0.924377  1
  O  O118  1  0.225020  0.725695  0.424377  1
  O  O119  1  0.725020  0.274305  0.075623  1
  O  O120  1  0.256632  0.280146  0.410861  1
  O  O121  1  0.756632  0.719854  0.089139  1
  O  O122  1  0.243368  0.780146  0.589139  1
  O  O123  1  0.743368  0.219854  0.910861  1
  O  O124  1  0.332233  0.029369  0.521918  1
  O  O125  1  0.832233  0.970631  0.978082  1
  O  O126  1  0.167767  0.529369  0.478082  1
  O  O127  1  0.667767  0.470631  0.021918  1
  O  O128  1  0.165166  0.977661  0.510404  1
  O  O129  1  0.665166  0.022339  0.989596  1
  O  O130  1  0.334834  0.477661  0.489596  1
  O  O131  1  0.834834  0.522339  0.010404  1
  O  O132  1  0.268713  0.989631  0.375483  1
  O  O133  1  0.768713  0.010369  0.124517  1
  O  O134  1  0.231287  0.489631  0.624517  1
  O  O135  1  0.731287  0.510369  0.875483  1
  O  O136  1  0.221556  0.075513  0.236794  1
  O  O137  1  0.721556  0.924487  0.263206  1
  O  O138  1  0.278444  0.575513  0.763206  1
  O  O139  1  0.778444  0.424487  0.736794  1
  O  O140  1  0.269779  0.907316  0.231945  1
  O  O141  1  0.769779  0.092684  0.268055  1
  O  O142  1  0.230221  0.407316  0.768055  1
  O  O143  1  0.730221  0.592684  0.731945  1
  Na  Na144  1  0.993673  0.998964  0.004013  1
  Na  Na145  1  0.493673  0.001036  0.495987  1
  Na  Na146  1  0.506327  0.498964  0.995987  1
  Na  Na147  1  0.006327  0.501036  0.504013  1
  Na  Na148  1  0.004484  0.504921  0.002034  1
  Na  Na149  1  0.504484  0.495079  0.497966  1
  Na  Na150  1  0.495516  1.004921  0.997966  1
  Na  Na151  1  0.995516  -0.004921  0.502034  1
  Na  Na152  1  0.743753  0.256186  0.749942  1
  Na  Na153  1  0.243753  0.743814  0.750058  1
  Na  Na154  1  0.756247  0.756186  0.250058  1
  Na  Na155  1  0.256247  0.243814  0.249942  1
  Na  Na156  1  0.741004  0.754613  0.754879  1
  Na  Na157  1  0.241004  0.245387  0.745121  1
  Na  Na158  1  0.758996  0.254613  0.245121  1
  Na  Na159  1  0.258996  0.745387  0.254879  1
  P  P160  1  0.476025  0.472198  0.731312  1
  P  P161  1  0.976025  0.527802  0.768688  1
  P  P162  1  0.023975  0.972198  0.268688  1
  P  P163  1  0.523975  0.027802  0.231312  1
  P  P164  1  0.493098  0.276568  0.778116  1
  P  P165  1  0.993098  0.723432  0.721884  1
  P  P166  1  0.006902  0.776568  0.221884  1
  P  P167  1  0.506902  0.223432  0.278116  1
  P  P168  1  0.475020  0.259755  0.975904  1
  P  P169  1  0.975020  0.740245  0.524096  1
  P  P170  1  0.024980  0.759755  0.024096  1
  P  P171  1  0.524980  0.240245  0.475904  1
  P  P172  1  0.276979  0.272423  0.016024  1
  P  P173  1  0.776979  0.727577  0.483976  1
  P  P174  1  0.223021  0.772423  0.983976  1
  P  P175  1  0.723021  0.227577  0.516024  1
  P  P176  1  0.267708  0.472206  0.027409  1
  P  P177  1  0.767708  0.527794  0.472591  1
  P  P178  1  0.232292  0.972206  0.972591  1
  P  P179  1  0.732292  0.027793  0.527409  1
  P  P180  1  0.226282  0.494690  0.221093  1
  P  P181  1  0.726282  0.505310  0.278907  1
  P  P182  1  0.273718  0.994690  0.778907  1
  P  P183  1  0.773718  0.005310  0.721093  1
  P  P184  1  0.026619  0.474031  0.232560  1
  P  P185  1  0.526619  0.525969  0.267440  1
  P  P186  1  0.473381  0.974031  0.767440  1
  P  P187  1  0.973381  0.025969  0.732560  1
  P  P188  1  0.010399  0.275876  0.275554  1
  P  P189  1  0.510399  0.724124  0.224446  1
  P  P190  1  0.489601  0.775876  0.724446  1
  P  P191  1  0.989601  0.224124  0.775554  1
  P  P192  1  0.025755  0.264747  0.474389  1
  P  P193  1  0.525755  0.735253  0.025611  1
  P  P194  1  0.474245  0.764747  0.525611  1
  P  P195  1  0.974245  0.235253  0.974389  1
  P  P196  1  0.224189  0.226610  0.489210  1
  P  P197  1  0.724189  0.773390  0.010790  1
  P  P198  1  0.275811  0.726610  0.510790  1
  P  P199  1  0.775811  0.273390  0.989210  1
  P  P200  1  0.244304  0.027247  0.473072  1
  P  P201  1  0.744304  0.972753  0.026928  1
  P  P202  1  0.255696  0.527247  0.526928  1
  P  P203  1  0.755696  0.472753  0.973072  1
  P  P204  1  0.223684  0.983756  0.278242  1
  P  P205  1  0.723684  0.016244  0.221758  1
  P  P206  1  0.276316  0.483756  0.721758  1
  P  P207  1  0.776316  0.516244  0.778242  1
  Cd  Cd208  1  0.634647  0.117517  0.876107  1
  Cd  Cd209  1  0.134647  0.882483  0.623893  1
  Cd  Cd210  1  0.865353  0.617517  0.123893  1
  Cd  Cd211  1  0.365353  0.382483  0.376107  1
  Cd  Cd212  1  0.376781  0.625127  0.875181  1
  Cd  Cd213  1  0.876781  0.374873  0.624819  1
  Cd  Cd214  1  0.123219  0.125127  0.124819  1
  Cd  Cd215  1  0.623219  0.874873  0.375181  1
  Cd  Cd216  1  0.627494  0.621048  0.623763  1
  Cd  Cd217  1  0.127494  0.378952  0.876237  1
  Cd  Cd218  1  0.872506  0.121048  0.376237  1
  Cd  Cd219  1  0.372506  0.878952  0.123763  1
  Cd  Cd220  1  0.884515  0.868392  0.870975  1
  Cd  Cd221  1  0.384515  0.131608  0.629025  1
  Cd  Cd222  1  0.615485  0.368392  0.129025  1
  Cd  Cd223  1  0.115485  0.631608  0.370975  1
