# generated using pymatgen
data_Y3Si3Pd2
_symmetry_space_group_name_H-M   'P 1'
_cell_length_a   4.26819559
_cell_length_b   5.65814339
_cell_length_c   14.15345501
_cell_angle_alpha   90.00000000
_cell_angle_beta   90.00000000
_cell_angle_gamma   112.15866914
_symmetry_Int_Tables_number   1
_chemical_formula_structural   Y3Si3Pd2
_chemical_formula_sum   'Y6 Si6 Pd4'
_cell_volume   316.56196526
_cell_formula_units_Z   2
loop_
 _symmetry_equiv_pos_site_id
 _symmetry_equiv_pos_as_xyz
  1  'x, y, z'
loop_
 _atom_site_type_symbol
 _atom_site_label
 _atom_site_symmetry_multiplicity
 _atom_site_fract_x
 _atom_site_fract_y
 _atom_site_fract_z
 _atom_site_occupancy
  Si  Si0  1  0.161440  0.322881  0.250000  1
  Si  Si1  1  0.838560  0.677119  0.750000  1
  Si  Si2  1  0.105711  0.211422  0.539019  1
  Si  Si3  1  0.894289  0.788578  0.460981  1
  Si  Si4  1  0.894289  0.788578  0.039019  1
  Si  Si5  1  0.105711  0.211422  0.960981  1
  Y  Y6  1  0.587024  0.174048  0.389000  1
  Y  Y7  1  0.412976  0.825952  0.611000  1
  Y  Y8  1  0.134439  0.268878  0.750000  1
  Y  Y9  1  0.865561  0.731122  0.250000  1
  Y  Y10  1  0.587024  0.174048  0.111000  1
  Y  Y11  1  0.412976  0.825952  0.889000  1
  Pd  Pd12  1  0.704747  0.409495  0.594540  1
  Pd  Pd13  1  0.295253  0.590505  0.405460  1
  Pd  Pd14  1  0.295253  0.590505  0.094540  1
  Pd  Pd15  1  0.704747  0.409495  0.905460  1
