# generated using pymatgen
data_CdS2O7
_symmetry_space_group_name_H-M   'P 1'
_cell_length_a   5.32554483
_cell_length_b   8.51493355
_cell_length_c   13.26315910
_cell_angle_alpha   90.00000000
_cell_angle_beta   90.00000000
_cell_angle_gamma   91.17961452
_symmetry_Int_Tables_number   1
_chemical_formula_structural   CdS2O7
_chemical_formula_sum   'Cd4 S8 O28'
_cell_volume   601.31250855
_cell_formula_units_Z   4
loop_
 _symmetry_equiv_pos_site_id
 _symmetry_equiv_pos_as_xyz
  1  'x, y, z'
loop_
 _atom_site_type_symbol
 _atom_site_label
 _atom_site_symmetry_multiplicity
 _atom_site_fract_x
 _atom_site_fract_y
 _atom_site_fract_z
 _atom_site_occupancy
  O  O0  1  0.850344  0.359348  0.554453  1
  O  O1  1  0.649656  0.140652  0.054453  1
  O  O2  1  0.149656  0.640652  0.445547  1
  O  O3  1  0.350344  0.859348  0.945547  1
  O  O4  1  0.666190  0.416050  0.389415  1
  O  O5  1  0.833810  0.083950  0.889415  1
  O  O6  1  0.333810  0.583950  0.610585  1
  O  O7  1  0.166190  0.916050  0.110585  1
  O  O8  1  0.406197  0.430939  0.174944  1
  O  O9  1  0.093803  0.069061  0.674944  1
  O  O10  1  0.593803  0.569061  0.825056  1
  O  O11  1  0.906197  0.930939  0.325056  1
  O  O12  1  0.180729  0.851058  0.567782  1
  O  O13  1  0.319271  0.648942  0.067782  1
  O  O14  1  0.819271  0.148942  0.432218  1
  O  O15  1  0.680729  0.351058  0.932218  1
  O  O16  1  0.563954  0.748397  0.489945  1
  O  O17  1  0.936046  0.751603  0.989945  1
  O  O18  1  0.436046  0.251603  0.510055  1
  O  O19  1  0.063954  0.248397  0.010055  1
  O  O20  1  0.464283  0.910974  0.712998  1
  O  O21  1  0.035717  0.589026  0.212998  1
  O  O22  1  0.535717  0.089026  0.287002  1
  O  O23  1  0.964283  0.410974  0.787002  1
  O  O24  1  0.039689  0.805022  0.743675  1
  O  O25  1  0.460311  0.694978  0.243675  1
  O  O26  1  0.960311  0.194978  0.256325  1
  O  O27  1  0.539689  0.305022  0.756325  1
  S  S28  1  0.681194  0.307760  0.474398  1
  S  S29  1  0.818806  0.192240  0.974398  1
  S  S30  1  0.318806  0.692240  0.525602  1
  S  S31  1  0.181194  0.807760  0.025602  1
  S  S32  1  0.698961  0.413809  0.814008  1
  S  S33  1  0.801039  0.086191  0.314008  1
  S  S34  1  0.301039  0.586191  0.185992  1
  S  S35  1  0.198961  0.913809  0.685992  1
  Cd  Cd36  1  0.203492  0.328319  0.650293  1
  Cd  Cd37  1  0.296508  0.171681  0.150293  1
  Cd  Cd38  1  0.796508  0.671681  0.349707  1
  Cd  Cd39  1  0.703492  0.828319  0.849707  1
