# generated using pymatgen
data_Sr2YRuO6
_symmetry_space_group_name_H-M   'P 1'
_cell_length_a   5.81665760
_cell_length_b   5.88539442
_cell_length_c   8.25486210
_cell_angle_alpha   90.00000000
_cell_angle_beta   90.39561942
_cell_angle_gamma   90.00000000
_symmetry_Int_Tables_number   1
_chemical_formula_structural   Sr2YRuO6
_chemical_formula_sum   'Sr4 Y2 Ru2 O12'
_cell_volume   282.58463356
_cell_formula_units_Z   2
loop_
 _symmetry_equiv_pos_site_id
 _symmetry_equiv_pos_as_xyz
  1  'x, y, z'
loop_
 _atom_site_type_symbol
 _atom_site_label
 _atom_site_symmetry_multiplicity
 _atom_site_fract_x
 _atom_site_fract_y
 _atom_site_fract_z
 _atom_site_occupancy
  O  O0  1  0.923659  0.520692  0.733686  1
  O  O1  1  0.576341  0.020692  0.766314  1
  O  O2  1  0.076341  0.479308  0.266314  1
  O  O3  1  0.423659  0.979308  0.233686  1
  O  O4  1  0.804498  0.772010  0.458083  1
  O  O5  1  0.695502  0.272010  0.041917  1
  O  O6  1  0.195502  0.227990  0.541917  1
  O  O7  1  0.304498  0.727990  0.958083  1
  O  O8  1  0.229196  0.198519  0.960736  1
  O  O9  1  0.270804  0.698519  0.539264  1
  O  O10  1  0.770804  0.801481  0.039264  1
  O  O11  1  0.729196  0.301481  0.460736  1
  Sr  Sr12  1  0.508747  0.537407  0.249460  1
  Sr  Sr13  1  0.991253  0.037407  0.250540  1
  Sr  Sr14  1  0.008747  0.962593  0.749460  1
  Sr  Sr15  1  0.491253  0.462593  0.750540  1
  Y  Y16  1  0.500000  0.000000  0.500000  1
  Y  Y17  1  0.000000  0.500000  0.000000  1
  Ru  Ru18  1  0.500000  0.000000  0.000000  1
  Ru  Ru19  1  0.000000  0.500000  0.500000  1
