# generated using pymatgen
data_NaErGeO4
_symmetry_space_group_name_H-M   'P 1'
_cell_length_a   5.31325605
_cell_length_b   6.45840288
_cell_length_c   11.43935858
_cell_angle_alpha   90.00000000
_cell_angle_beta   90.00000000
_cell_angle_gamma   90.00000000
_symmetry_Int_Tables_number   1
_chemical_formula_structural   NaErGeO4
_chemical_formula_sum   'Na4 Er4 Ge4 O16'
_cell_volume   392.54328471
_cell_formula_units_Z   4
loop_
 _symmetry_equiv_pos_site_id
 _symmetry_equiv_pos_as_xyz
  1  'x, y, z'
loop_
 _atom_site_type_symbol
 _atom_site_label
 _atom_site_symmetry_multiplicity
 _atom_site_fract_x
 _atom_site_fract_y
 _atom_site_fract_z
 _atom_site_occupancy
  O  O0  1  0.792201  0.041351  0.175476  1
  O  O1  1  0.292201  0.958649  0.324524  1
  O  O2  1  0.207799  0.541351  0.824524  1
  O  O3  1  0.707799  0.458649  0.675476  1
  O  O4  1  0.207799  0.958649  0.824524  1
  O  O5  1  0.707799  0.041351  0.675476  1
  O  O6  1  0.792201  0.458649  0.175476  1
  O  O7  1  0.292201  0.541351  0.324524  1
  O  O8  1  0.170667  0.750000  0.045980  1
  O  O9  1  0.670667  0.250000  0.454020  1
  O  O10  1  0.829333  0.250000  0.954020  1
  O  O11  1  0.329333  0.750000  0.545980  1
  O  O12  1  0.774650  0.750000  0.388154  1
  O  O13  1  0.274650  0.250000  0.111846  1
  O  O14  1  0.225350  0.250000  0.611846  1
  O  O15  1  0.725350  0.750000  0.888154  1
  Na  Na16  1  0.500000  0.000000  0.000000  1
  Na  Na17  1  0.000000  0.000000  0.500000  1
  Na  Na18  1  0.500000  0.500000  0.000000  1
  Na  Na19  1  0.000000  0.500000  0.500000  1
  Ge  Ge20  1  0.052602  0.750000  0.901906  1
  Ge  Ge21  1  0.552602  0.250000  0.598094  1
  Ge  Ge22  1  0.947398  0.250000  0.098094  1
  Ge  Ge23  1  0.447398  0.750000  0.401906  1
  Er  Er24  1  0.005327  0.750000  0.222901  1
  Er  Er25  1  0.505327  0.250000  0.277099  1
  Er  Er26  1  0.994673  0.250000  0.777099  1
  Er  Er27  1  0.494673  0.750000  0.722901  1
