# generated using pymatgen
data_BS4N4F3
_symmetry_space_group_name_H-M   'P 1'
_cell_length_a   7.49552038
_cell_length_b   10.91721680
_cell_length_c   11.09415722
_cell_angle_alpha   90.00000000
_cell_angle_beta   94.72367161
_cell_angle_gamma   90.00000000
_symmetry_Int_Tables_number   1
_chemical_formula_structural   BS4N4F3
_chemical_formula_sum   'B4 S16 N16 F12'
_cell_volume   904.75382095
_cell_formula_units_Z   4
loop_
 _symmetry_equiv_pos_site_id
 _symmetry_equiv_pos_as_xyz
  1  'x, y, z'
loop_
 _atom_site_type_symbol
 _atom_site_label
 _atom_site_symmetry_multiplicity
 _atom_site_fract_x
 _atom_site_fract_y
 _atom_site_fract_z
 _atom_site_occupancy
  B  B0  1  0.509751  0.403075  0.301244  1
  B  B1  1  0.990249  0.903075  0.198756  1
  B  B2  1  0.490249  0.596925  0.698756  1
  B  B3  1  0.009751  0.096925  0.801244  1
  N  N4  1  0.205338  0.437715  0.914360  1
  N  N5  1  0.073870  0.437917  0.676865  1
  N  N6  1  0.573870  0.062083  0.176865  1
  N  N7  1  0.926130  0.562083  0.323135  1
  N  N8  1  0.294662  0.937715  0.585640  1
  N  N9  1  0.794662  0.562285  0.085640  1
  N  N10  1  0.705338  0.062285  0.414360  1
  N  N11  1  0.426130  0.937917  0.823135  1
  N  N12  1  0.009166  0.801716  0.647243  1
  N  N13  1  0.490834  0.301716  0.852757  1
  N  N14  1  0.990834  0.198284  0.352757  1
  N  N15  1  0.428818  0.459738  0.668232  1
  N  N16  1  0.571182  0.540262  0.331768  1
  N  N17  1  0.928818  0.040262  0.168232  1
  N  N18  1  0.071182  0.959738  0.831768  1
  N  N19  1  0.509166  0.698284  0.147243  1
  F  F20  1  0.133645  0.152198  0.729437  1
  F  F21  1  0.661290  0.589734  0.759950  1
  F  F22  1  0.161290  0.910266  0.259950  1
  F  F23  1  0.338710  0.410266  0.240050  1
  F  F24  1  0.838710  0.089734  0.740050  1
  F  F25  1  0.992178  0.839331  0.088380  1
  F  F26  1  0.492178  0.660669  0.588380  1
  F  F27  1  0.007822  0.160669  0.911620  1
  F  F28  1  0.633645  0.347802  0.229437  1
  F  F29  1  0.866355  0.847802  0.270563  1
  F  F30  1  0.366355  0.652198  0.770563  1
  F  F31  1  0.507822  0.339331  0.411620  1
  S  S32  1  0.265382  0.926859  0.909012  1
  S  S33  1  0.234618  0.426859  0.590988  1
  S  S34  1  0.734618  0.073141  0.090988  1
  S  S35  1  0.765382  0.573141  0.409012  1
  S  S36  1  0.457461  0.952321  0.686403  1
  S  S37  1  0.042539  0.452321  0.813597  1
  S  S38  1  0.542539  0.047679  0.313597  1
  S  S39  1  0.957461  0.547679  0.186403  1
  S  S40  1  0.136107  0.843839  0.550237  1
  S  S41  1  0.363893  0.343839  0.949763  1
  S  S42  1  0.863893  0.156161  0.449763  1
  S  S43  1  0.636107  0.656161  0.050237  1
  S  S44  1  0.963765  0.833870  0.781871  1
  S  S45  1  0.536235  0.333870  0.718129  1
  S  S46  1  0.036235  0.166130  0.218129  1
  S  S47  1  0.463765  0.666130  0.281871  1
