# generated using pymatgen
data_Na2Zn2Se3
_symmetry_space_group_name_H-M   'P 1'
_cell_length_a   7.77873326
_cell_length_b   7.77873326
_cell_length_c   11.87309509
_cell_angle_alpha   90.00000000
_cell_angle_beta   90.00000000
_cell_angle_gamma   90.00000000
_symmetry_Int_Tables_number   1
_chemical_formula_structural   Na2Zn2Se3
_chemical_formula_sum   'Na8 Zn8 Se12'
_cell_volume   718.42544356
_cell_formula_units_Z   4
loop_
 _symmetry_equiv_pos_site_id
 _symmetry_equiv_pos_as_xyz
  1  'x, y, z'
loop_
 _atom_site_type_symbol
 _atom_site_label
 _atom_site_symmetry_multiplicity
 _atom_site_fract_x
 _atom_site_fract_y
 _atom_site_fract_z
 _atom_site_occupancy
  Na  Na0  1  0.968854  0.250022  0.403915  1
  Na  Na1  1  0.031146  0.749978  0.903915  1
  Na  Na2  1  0.750022  0.531146  0.653915  1
  Na  Na3  1  0.249978  0.468854  0.153915  1
  Na  Na4  1  0.749978  0.031146  0.096085  1
  Na  Na5  1  0.250022  0.968854  0.596085  1
  Na  Na6  1  0.531146  0.750022  0.346085  1
  Na  Na7  1  0.468854  0.249978  0.846085  1
  Zn  Zn8  1  0.220948  0.952480  0.132322  1
  Zn  Zn9  1  0.779052  0.047520  0.632322  1
  Zn  Zn10  1  0.452480  0.279052  0.382322  1
  Zn  Zn11  1  0.547520  0.720948  0.882322  1
  Zn  Zn12  1  0.047520  0.779052  0.367678  1
  Zn  Zn13  1  0.952480  0.220948  0.867678  1
  Zn  Zn14  1  0.279052  0.452480  0.617678  1
  Zn  Zn15  1  0.720948  0.547520  0.117678  1
  Se  Se16  1  0.526270  0.239283  0.584142  1
  Se  Se17  1  0.473730  0.760717  0.084142  1
  Se  Se18  1  0.739283  0.973730  0.834142  1
  Se  Se19  1  0.260717  0.026270  0.334142  1
  Se  Se20  1  0.760717  0.473730  0.915858  1
  Se  Se21  1  0.239283  0.526270  0.415858  1
  Se  Se22  1  0.973730  0.739283  0.165858  1
  Se  Se23  1  0.026270  0.260717  0.665858  1
  Se  Se24  1  0.686908  0.313092  0.250000  1
  Se  Se25  1  0.313092  0.686908  0.750000  1
  Se  Se26  1  0.813092  0.813092  0.500000  1
  Se  Se27  1  0.186908  0.186908  0.000000  1
