# generated using pymatgen
data_Ca(BeP)2
_symmetry_space_group_name_H-M   'P 1'
_cell_length_a   3.74392105
_cell_length_b   3.74390646
_cell_length_c   6.61610369
_cell_angle_alpha   89.99999999
_cell_angle_beta   89.99967739
_cell_angle_gamma   119.99986380
_symmetry_Int_Tables_number   1
_chemical_formula_structural   Ca(BeP)2
_chemical_formula_sum   'Ca1 Be2 P2'
_cell_volume   80.31288035
_cell_formula_units_Z   1
loop_
 _symmetry_equiv_pos_site_id
 _symmetry_equiv_pos_as_xyz
  1  'x, y, z'
loop_
 _atom_site_type_symbol
 _atom_site_label
 _atom_site_symmetry_multiplicity
 _atom_site_fract_x
 _atom_site_fract_y
 _atom_site_fract_z
 _atom_site_occupancy
  Ca  Ca0  1  0.000000  0.000000  0.000000  1
  Be  Be1  1  0.666663  0.333332  0.376418  1
  Be  Be2  1  0.333337  0.666668  0.623582  1
  P  P3  1  0.666675  0.333338  0.714906  1
  P  P4  1  0.333325  0.666662  0.285094  1
