# generated using pymatgen
data_Te4Mo3W(SeS)2
_symmetry_space_group_name_H-M   'P 1'
_cell_length_a   3.39623883
_cell_length_b   3.39618627
_cell_length_c   38.69734359
_cell_angle_alpha   90.00005261
_cell_angle_beta   90.00000000
_cell_angle_gamma   120.00051190
_symmetry_Int_Tables_number   1
_chemical_formula_structural   Te4Mo3W(SeS)2
_chemical_formula_sum   'Te4 Mo3 W1 Se2 S2'
_cell_volume   386.54429628
_cell_formula_units_Z   1
loop_
 _symmetry_equiv_pos_site_id
 _symmetry_equiv_pos_as_xyz
  1  'x, y, z'
loop_
 _atom_site_type_symbol
 _atom_site_label
 _atom_site_symmetry_multiplicity
 _atom_site_fract_x
 _atom_site_fract_y
 _atom_site_fract_z
 _atom_site_occupancy
  Te  Te0  1  0.333353  0.666707  0.330229  1
  Te  Te1  1  0.333354  0.666709  0.705951  1
  Te  Te2  1  0.333351  0.666703  0.233401  1
  Te  Te3  1  0.333359  0.666720  0.609116  1
  Mo  Mo4  1  0.333310  0.666620  0.093904  1
  Mo  Mo5  1  0.666689  0.333379  0.281795  1
  Mo  Mo6  1  0.666690  0.333380  0.657528  1
  W  W7  1  0.333310  0.666621  0.469654  1
  Se  Se8  1  0.666645  0.333290  0.051290  1
  Se  Se9  1  0.666648  0.333294  0.136541  1
  S  S10  1  0.666644  0.333286  0.430708  1
  S  S11  1  0.666647  0.333293  0.508631  1
