# generated using pymatgen
data_Ho2NiGe6
_symmetry_space_group_name_H-M   'P 1'
_cell_length_a   3.98808981
_cell_length_b   4.05492452
_cell_length_c   10.90216696
_cell_angle_alpha   90.00000000
_cell_angle_beta   100.53892852
_cell_angle_gamma   90.00000000
_symmetry_Int_Tables_number   1
_chemical_formula_structural   Ho2NiGe6
_chemical_formula_sum   'Ho2 Ni1 Ge6'
_cell_volume   173.32925248
_cell_formula_units_Z   1
loop_
 _symmetry_equiv_pos_site_id
 _symmetry_equiv_pos_as_xyz
  1  'x, y, z'
loop_
 _atom_site_type_symbol
 _atom_site_label
 _atom_site_symmetry_multiplicity
 _atom_site_fract_x
 _atom_site_fract_y
 _atom_site_fract_z
 _atom_site_occupancy
  Ni  Ni0  1  0.781507  0.500000  0.563014  1
  Ge  Ge1  1  0.724416  0.000000  0.448832  1
  Ge  Ge2  1  0.223555  0.500000  0.447111  1
  Ge  Ge3  1  0.106249  0.500000  0.212498  1
  Ge  Ge4  1  0.607590  0.000000  0.215179  1
  Ge  Ge5  1  0.464295  0.500000  0.928591  1
  Ge  Ge6  1  0.888927  0.500000  0.777853  1
  Ho  Ho7  1  0.338845  0.000000  0.677691  1
  Ho  Ho8  1  0.002615  0.000000  0.005230  1
