# generated using pymatgen
data_Fe2Ni(PO4)2
_symmetry_space_group_name_H-M   'P 1'
_cell_length_a   4.77169471
_cell_length_b   6.10731335
_cell_length_c   10.52598451
_cell_angle_alpha   90.27930893
_cell_angle_beta   90.00000000
_cell_angle_gamma   90.00000000
_symmetry_Int_Tables_number   1
_chemical_formula_structural   Fe2Ni(PO4)2
_chemical_formula_sum   'Fe4 Ni2 P4 O16'
_cell_volume   306.74706738
_cell_formula_units_Z   2
loop_
 _symmetry_equiv_pos_site_id
 _symmetry_equiv_pos_as_xyz
  1  'x, y, z'
loop_
 _atom_site_type_symbol
 _atom_site_label
 _atom_site_symmetry_multiplicity
 _atom_site_fract_x
 _atom_site_fract_y
 _atom_site_fract_z
 _atom_site_occupancy
  O  O0  1  0.228320  0.471987  0.658494  1
  O  O1  1  0.728320  0.528013  0.841506  1
  O  O2  1  0.771680  0.528013  0.341506  1
  O  O3  1  0.271680  0.471987  0.158494  1
  O  O4  1  0.181812  0.071676  0.680139  1
  O  O5  1  0.681812  0.928324  0.819861  1
  O  O6  1  0.818188  0.928324  0.319861  1
  O  O7  1  0.318188  0.071676  0.180139  1
  O  O8  1  0.307062  0.257645  0.960552  1
  O  O9  1  0.807062  0.742355  0.539448  1
  O  O10  1  0.747408  0.281468  0.102554  1
  O  O11  1  0.247408  0.718532  0.397446  1
  O  O12  1  0.252592  0.718532  0.897446  1
  O  O13  1  0.752592  0.281468  0.602554  1
  O  O14  1  0.192938  0.257645  0.460552  1
  O  O15  1  0.692938  0.742355  0.039448  1
  P  P16  1  0.074426  0.263538  0.597852  1
  P  P17  1  0.574426  0.736462  0.902148  1
  P  P18  1  0.925574  0.736462  0.402148  1
  P  P19  1  0.425574  0.263538  0.097852  1
  Fe  Fe20  1  0.521617  0.236874  0.782173  1
  Fe  Fe21  1  0.021617  0.763126  0.717827  1
  Fe  Fe22  1  0.478383  0.763126  0.217827  1
  Fe  Fe23  1  0.978383  0.236874  0.282173  1
  Ni  Ni24  1  0.500000  0.500000  0.500000  1
  Ni  Ni25  1  0.000000  0.500000  0.000000  1
