# generated using pymatgen
data_Tb4(SiS4)3
_symmetry_space_group_name_H-M   'P 1'
_cell_length_a   9.97020724
_cell_length_b   11.13564778
_cell_length_c   16.60161146
_cell_angle_alpha   90.00000000
_cell_angle_beta   103.60816937
_cell_angle_gamma   90.00000000
_symmetry_Int_Tables_number   1
_chemical_formula_structural   Tb4(SiS4)3
_chemical_formula_sum   'Tb16 Si12 S48'
_cell_volume   1791.44620410
_cell_formula_units_Z   4
loop_
 _symmetry_equiv_pos_site_id
 _symmetry_equiv_pos_as_xyz
  1  'x, y, z'
loop_
 _atom_site_type_symbol
 _atom_site_label
 _atom_site_symmetry_multiplicity
 _atom_site_fract_x
 _atom_site_fract_y
 _atom_site_fract_z
 _atom_site_occupancy
  Si  Si0  1  0.207890  0.786358  0.733235  1
  Si  Si1  1  0.292110  0.286358  0.766765  1
  Si  Si2  1  0.792110  0.213642  0.266765  1
  Si  Si3  1  0.707890  0.713642  0.233235  1
  Si  Si4  1  0.196735  0.619710  0.440826  1
  Si  Si5  1  0.303265  0.119710  0.059174  1
  Si  Si6  1  0.803265  0.380290  0.559174  1
  Si  Si7  1  0.696735  0.880290  0.940826  1
  Si  Si8  1  0.718843  0.951669  0.619077  1
  Si  Si9  1  0.781157  0.451669  0.880923  1
  Si  Si10  1  0.281157  0.048331  0.380923  1
  Si  Si11  1  0.218843  0.548331  0.119077  1
  S  S12  1  0.251166  0.958402  0.686617  1
  S  S13  1  0.248834  0.458402  0.813383  1
  S  S14  1  0.748834  0.041598  0.313383  1
  S  S15  1  0.751166  0.541598  0.186617  1
  S  S16  1  0.157010  0.444942  0.473951  1
  S  S17  1  0.342990  0.944942  0.026049  1
  S  S18  1  0.842990  0.555058  0.526049  1
  S  S19  1  0.657010  0.055058  0.973951  1
  S  S20  1  0.650131  0.775087  0.628993  1
  S  S21  1  0.849869  0.275087  0.871007  1
  S  S22  1  0.349869  0.224913  0.371007  1
  S  S23  1  0.150131  0.724913  0.128993  1
  S  S24  1  0.168131  0.020809  0.473361  1
  S  S25  1  0.331869  0.520809  0.026639  1
  S  S26  1  0.831869  0.979191  0.526639  1
  S  S27  1  0.668131  0.479191  0.973361  1
  S  S28  1  0.846786  0.027682  0.729889  1
  S  S29  1  0.653214  0.527682  0.770111  1
  S  S30  1  0.153214  0.972318  0.270111  1
  S  S31  1  0.346786  0.472318  0.229889  1
  S  S32  1  0.538801  0.065205  0.592887  1
  S  S33  1  0.961199  0.565205  0.907113  1
  S  S34  1  0.461199  0.934795  0.407113  1
  S  S35  1  0.038801  0.434795  0.092887  1
  S  S36  1  0.404891  0.658677  0.448757  1
  S  S37  1  0.095109  0.158677  0.051243  1
  S  S38  1  0.595109  0.341323  0.551243  1
  S  S39  1  0.904891  0.841323  0.948757  1
  S  S40  1  0.109374  0.741115  0.513893  1
  S  S41  1  0.390626  0.241115  0.986107  1
  S  S42  1  0.890626  0.258885  0.486107  1
  S  S43  1  0.609374  0.758885  0.013893  1
  S  S44  1  0.343429  0.666923  0.686946  1
  S  S45  1  0.156571  0.166923  0.813054  1
  S  S46  1  0.656571  0.333077  0.313054  1
  S  S47  1  0.843429  0.833077  0.186946  1
  S  S48  1  0.239877  0.289894  0.635932  1
  S  S49  1  0.260123  0.789894  0.864068  1
  S  S50  1  0.760123  0.710106  0.364068  1
  S  S51  1  0.739877  0.210106  0.135932  1
  S  S52  1  0.918334  0.348061  0.683710  1
  S  S53  1  0.581666  0.848061  0.816290  1
  S  S54  1  0.081666  0.651939  0.316290  1
  S  S55  1  0.418334  0.151939  0.183710  1
  S  S56  1  0.003271  0.722159  0.691664  1
  S  S57  1  0.496729  0.222159  0.808336  1
  S  S58  1  0.996729  0.277841  0.308336  1
  S  S59  1  0.503271  0.777841  0.191664  1
  Tb  Tb60  1  0.821099  0.738102  0.790792  1
  Tb  Tb61  1  0.678901  0.238102  0.709208  1
  Tb  Tb62  1  0.178901  0.261898  0.209208  1
  Tb  Tb63  1  0.321099  0.761898  0.290792  1
  Tb  Tb64  1  0.027240  0.127690  0.634615  1
  Tb  Tb65  1  0.472760  0.627690  0.865385  1
  Tb  Tb66  1  0.972760  0.872310  0.365385  1
  Tb  Tb67  1  0.527240  0.372310  0.134615  1
  Tb  Tb68  1  0.373717  0.850286  0.559401  1
  Tb  Tb69  1  0.126283  0.350286  0.940599  1
  Tb  Tb70  1  0.626283  0.149714  0.440599  1
  Tb  Tb71  1  0.873717  0.649714  0.059401  1
  Tb  Tb72  1  0.108576  0.518862  0.625592  1
  Tb  Tb73  1  0.391424  0.018862  0.874408  1
  Tb  Tb74  1  0.891424  0.481138  0.374408  1
  Tb  Tb75  1  0.608576  0.981138  0.125592  1
