# generated using pymatgen
data_Te2Mo3W(SeS2)2
_symmetry_space_group_name_H-M   'P 1'
_cell_length_a   3.31211256
_cell_length_b   3.31211626
_cell_length_c   37.71887043
_cell_angle_alpha   89.99929103
_cell_angle_beta   90.00000000
_cell_angle_gamma   119.99996304
_symmetry_Int_Tables_number   1
_chemical_formula_structural   Te2Mo3W(SeS2)2
_chemical_formula_sum   'Te2 Mo3 W1 Se2 S4'
_cell_volume   358.34399588
_cell_formula_units_Z   1
loop_
 _symmetry_equiv_pos_site_id
 _symmetry_equiv_pos_as_xyz
  1  'x, y, z'
loop_
 _atom_site_type_symbol
 _atom_site_label
 _atom_site_symmetry_multiplicity
 _atom_site_fract_x
 _atom_site_fract_y
 _atom_site_fract_z
 _atom_site_occupancy
  Te  Te0  1  0.666636  0.333272  0.418574  1
  Te  Te1  1  0.666643  0.333285  0.520568  1
  Mo  Mo2  1  0.333308  0.666617  0.093930  1
  Mo  Mo3  1  0.666655  0.333310  0.281749  1
  Mo  Mo4  1  0.666691  0.333382  0.657655  1
  W  W5  1  0.333315  0.666629  0.469569  1
  Se  Se6  1  0.333361  0.666723  0.702144  1
  Se  Se7  1  0.333361  0.666723  0.613137  1
  S  S8  1  0.333368  0.666738  0.322288  1
  S  S9  1  0.666645  0.333289  0.053396  1
  S  S10  1  0.666645  0.333288  0.134472  1
  S  S11  1  0.333371  0.666743  0.241264  1
