# generated using pymatgen
data_CaCo(SiO3)2
_symmetry_space_group_name_H-M   'P 1'
_cell_length_a   5.31468517
_cell_length_b   6.71329701
_cell_length_c   6.71329736
_cell_angle_alpha   84.65461170
_cell_angle_beta   78.37987509
_cell_angle_gamma   78.37987156
_symmetry_Int_Tables_number   1
_chemical_formula_structural   CaCo(SiO3)2
_chemical_formula_sum   'Ca2 Co2 Si4 O12'
_cell_volume   229.46097374
_cell_formula_units_Z   2
loop_
 _symmetry_equiv_pos_site_id
 _symmetry_equiv_pos_as_xyz
  1  'x, y, z'
loop_
 _atom_site_type_symbol
 _atom_site_label
 _atom_site_symmetry_multiplicity
 _atom_site_fract_x
 _atom_site_fract_y
 _atom_site_fract_z
 _atom_site_occupancy
  Ca  Ca0  1  0.250000  0.703198  0.296802  1
  Ca  Ca1  1  0.750000  0.296802  0.703198  1
  Co  Co2  1  0.250000  0.093378  0.906622  1
  Co  Co3  1  0.750000  0.906622  0.093378  1
  Si  Si4  1  0.269755  0.194489  0.379842  1
  Si  Si5  1  0.730245  0.805511  0.620158  1
  Si  Si6  1  0.230245  0.620158  0.805511  1
  Si  Si7  1  0.769755  0.379842  0.194489  1
  O  O8  1  0.994563  0.631261  0.668497  1
  O  O9  1  0.505437  0.331503  0.368739  1
  O  O10  1  0.145550  0.793715  0.971857  1
  O  O11  1  0.322915  0.389522  0.886494  1
  O  O12  1  0.494563  0.668497  0.631261  1
  O  O13  1  0.822915  0.886494  0.389522  1
  O  O14  1  0.677085  0.610478  0.113506  1
  O  O15  1  0.645550  0.971857  0.793715  1
  O  O16  1  0.354450  0.028143  0.206285  1
  O  O17  1  0.005437  0.368739  0.331503  1
  O  O18  1  0.177085  0.113506  0.610478  1
  O  O19  1  0.854450  0.206285  0.028143  1
