# generated using pymatgen
data_Ta36B4C35
_symmetry_space_group_name_H-M   'P 1'
_cell_length_a   3.16513417
_cell_length_b   3.16518903
_cell_length_c   123.18877292
_cell_angle_alpha   59.92067603
_cell_angle_beta   59.92098169
_cell_angle_gamma   60.00121626
_symmetry_Int_Tables_number   1
_chemical_formula_structural   Ta36B4C35
_chemical_formula_sum   'Ta36 B4 C35'
_cell_volume   871.62794323
_cell_formula_units_Z   1
loop_
 _symmetry_equiv_pos_site_id
 _symmetry_equiv_pos_as_xyz
  1  'x, y, z'
loop_
 _atom_site_type_symbol
 _atom_site_label
 _atom_site_symmetry_multiplicity
 _atom_site_fract_x
 _atom_site_fract_y
 _atom_site_fract_z
 _atom_site_occupancy
  Ta  Ta0  1  0.006816  0.006954  0.076439  1
  Ta  Ta1  1  0.019794  0.019869  0.126669  1
  Ta  Ta2  1  0.023111  0.023166  0.100783  1
  Ta  Ta3  1  0.017420  0.017493  0.152494  1
  Ta  Ta4  1  0.009737  0.009837  0.178711  1
  Ta  Ta5  1  0.008500  0.008587  0.204455  1
  Ta  Ta6  1  0.002690  0.002790  0.256183  1
  Ta  Ta7  1  0.004089  0.004129  0.230430  1
  Ta  Ta8  1  0.000657  0.000797  0.281981  1
  Ta  Ta9  1  0.000282  0.000498  0.307648  1
  Ta  Ta10  1  0.999666  0.999804  0.333351  1
  Ta  Ta11  1  0.999327  0.999439  0.384665  1
  Ta  Ta12  1  0.000009  0.000188  0.358972  1
  Ta  Ta13  1  0.999249  0.999404  0.435948  1
  Ta  Ta14  1  0.999572  0.999728  0.410285  1
  Ta  Ta15  1  0.999773  0.999880  0.461545  1
  Ta  Ta16  1  0.000849  0.000933  0.512744  1
  Ta  Ta17  1  0.000021  0.000110  0.487172  1
  Ta  Ta18  1  0.001899  0.002084  0.563937  1
  Ta  Ta19  1  0.001585  0.001683  0.538335  1
  Ta  Ta20  1  0.002059  0.002167  0.589558  1
  Ta  Ta21  1  0.004648  0.004817  0.640647  1
  Ta  Ta22  1  0.001909  0.002028  0.615217  1
  Ta  Ta23  1  0.007096  0.007222  0.691751  1
  Ta  Ta24  1  0.006556  0.006713  0.666141  1
  Ta  Ta25  1  0.996741  0.996836  0.743848  1
  Ta  Ta26  1  0.004729  0.004847  0.717569  1
  Ta  Ta27  1  0.994110  0.994185  0.769687  1
  Ta  Ta28  1  0.992840  0.992965  0.795444  1
  Ta  Ta29  1  0.992026  0.992125  0.821111  1
  Ta  Ta30  1  0.988430  0.988632  0.872618  1
  Ta  Ta31  1  0.990590  0.990727  0.846905  1
  Ta  Ta32  1  0.986923  0.987113  0.898483  1
  Ta  Ta33  1  0.977934  0.978462  0.924552  1
  Ta  Ta34  1  0.964857  0.964628  0.976754  1
  Ta  Ta35  1  0.974179  0.973757  0.950539  1
  B  B36  1  0.300887  0.300919  0.053720  1
  B  B37  1  0.500723  0.500829  0.730709  1
  B  B38  1  0.461788  0.461654  0.964133  1
  B  B39  1  0.381502  0.378375  0.997117  1
  C  C40  1  0.715918  0.710726  0.997476  1
  C  C41  1  0.618072  0.618125  0.054965  1
  C  C42  1  0.527875  0.527979  0.087626  1
  C  C43  1  0.519176  0.519205  0.113899  1
  C  C44  1  0.520351  0.520397  0.139448  1
  C  C45  1  0.514981  0.514999  0.165500  1
  C  C46  1  0.509336  0.509431  0.191571  1
  C  C47  1  0.505882  0.505946  0.217469  1
  C  C48  1  0.503309  0.503498  0.243304  1
  C  C49  1  0.501449  0.501590  0.269099  1
  C  C50  1  0.500414  0.500559  0.294824  1
  C  C51  1  0.499828  0.499910  0.320510  1
  C  C52  1  0.499825  0.500012  0.346166  1
  C  C53  1  0.499506  0.499621  0.371827  1
  C  C54  1  0.499609  0.499772  0.397465  1
  C  C55  1  0.499352  0.499419  0.423123  1
  C  C56  1  0.499660  0.499741  0.448737  1
  C  C57  1  0.499912  0.500037  0.474354  1
  C  C58  1  0.500390  0.500523  0.499960  1
  C  C59  1  0.501046  0.501241  0.525547  1
  C  C60  1  0.501603  0.501777  0.551149  1
  C  C61  1  0.501880  0.502023  0.576756  1
  C  C62  1  0.502241  0.502423  0.602361  1
  C  C63  1  0.503492  0.503682  0.627913  1
  C  C64  1  0.505063  0.505217  0.653436  1
  C  C65  1  0.506804  0.506909  0.678949  1
  C  C66  1  0.508404  0.508598  0.704463  1
  C  C67  1  0.493096  0.493214  0.756950  1
  C  C68  1  0.493906  0.493965  0.782537  1
  C  C69  1  0.492839  0.492966  0.808245  1
  C  C70  1  0.491633  0.491775  0.833976  1
  C  C71  1  0.489113  0.489270  0.859789  1
  C  C72  1  0.486977  0.487200  0.885603  1
  C  C73  1  0.482512  0.482803  0.911516  1
  C  C74  1  0.478974  0.479073  0.937314  1
