# generated using pymatgen
data_Sr3Y2(GeO4)3
_symmetry_space_group_name_H-M   'P 1'
_cell_length_a   11.48305134
_cell_length_b   11.48305134
_cell_length_c   11.48305134
_cell_angle_alpha   109.47122063
_cell_angle_beta   109.47122063
_cell_angle_gamma   109.47122062
_symmetry_Int_Tables_number   1
_chemical_formula_structural   Sr3Y2(GeO4)3
_chemical_formula_sum   'Sr12 Y8 Ge12 O48'
_cell_volume   1165.60131580
_cell_formula_units_Z   4
loop_
 _symmetry_equiv_pos_site_id
 _symmetry_equiv_pos_as_xyz
  1  'x, y, z'
loop_
 _atom_site_type_symbol
 _atom_site_label
 _atom_site_symmetry_multiplicity
 _atom_site_fract_x
 _atom_site_fract_y
 _atom_site_fract_z
 _atom_site_occupancy
  O  O0  1  0.789800  0.409757  0.802187  1
  O  O1  1  0.090243  0.880043  0.392430  1
  O  O2  1  0.697813  0.107570  0.987613  1
  O  O3  1  0.710200  0.512387  0.619957  1
  O  O4  1  0.710200  0.697813  0.090243  1
  O  O5  1  0.512387  0.619957  0.710200  1
  O  O6  1  0.107570  0.619957  0.409757  1
  O  O7  1  0.619957  0.710200  0.512387  1
  O  O8  1  0.392430  0.802187  0.512387  1
  O  O9  1  0.880043  0.987613  0.789800  1
  O  O10  1  0.987613  0.789800  0.880043  1
  O  O11  1  0.090243  0.710200  0.697813  1
  O  O12  1  0.619957  0.409757  0.107570  1
  O  O13  1  0.512387  0.392430  0.802187  1
  O  O14  1  0.697813  0.090243  0.710200  1
  O  O15  1  0.409757  0.107570  0.619957  1
  O  O16  1  0.802187  0.512387  0.392430  1
  O  O17  1  0.392430  0.090243  0.880043  1
  O  O18  1  0.107570  0.987613  0.697813  1
  O  O19  1  0.607570  0.197813  0.487613  1
  O  O20  1  0.987613  0.697813  0.107570  1
  O  O21  1  0.802187  0.789800  0.409757  1
  O  O22  1  0.880043  0.392430  0.090243  1
  O  O23  1  0.789800  0.880043  0.987613  1
  O  O24  1  0.210200  0.590243  0.197813  1
  O  O25  1  0.909757  0.119957  0.607570  1
  O  O26  1  0.302187  0.892430  0.012387  1
  O  O27  1  0.289800  0.487613  0.380043  1
  O  O28  1  0.289800  0.302187  0.909757  1
  O  O29  1  0.487613  0.380043  0.289800  1
  O  O30  1  0.892430  0.380043  0.590243  1
  O  O31  1  0.380043  0.289800  0.487613  1
  O  O32  1  0.210200  0.119957  0.012387  1
  O  O33  1  0.119957  0.607570  0.909757  1
  O  O34  1  0.197813  0.210200  0.590243  1
  O  O35  1  0.590243  0.197813  0.210200  1
  O  O36  1  0.012387  0.302187  0.892430  1
  O  O37  1  0.892430  0.012387  0.302187  1
  O  O38  1  0.607570  0.909757  0.119957  1
  O  O39  1  0.197813  0.487613  0.607570  1
  O  O40  1  0.590243  0.892430  0.380043  1
  O  O41  1  0.302187  0.909757  0.289800  1
  O  O42  1  0.487613  0.607570  0.197813  1
  O  O43  1  0.380043  0.590243  0.892430  1
  O  O44  1  0.909757  0.289800  0.302187  1
  O  O45  1  0.012387  0.210200  0.119957  1
  O  O46  1  0.119957  0.012387  0.210200  1
  O  O47  1  0.409757  0.802187  0.789800  1
  Ge  Ge48  1  0.250000  0.125000  0.875000  1
  Ge  Ge49  1  0.750000  0.875000  0.125000  1
  Ge  Ge50  1  0.375000  0.250000  0.625000  1
  Ge  Ge51  1  0.625000  0.375000  0.250000  1
  Ge  Ge52  1  0.125000  0.750000  0.875000  1
  Ge  Ge53  1  0.875000  0.125000  0.750000  1
  Ge  Ge54  1  0.750000  0.375000  0.625000  1
  Ge  Ge55  1  0.375000  0.625000  0.750000  1
  Ge  Ge56  1  0.125000  0.875000  0.250000  1
  Ge  Ge57  1  0.875000  0.250000  0.125000  1
  Ge  Ge58  1  0.625000  0.750000  0.375000  1
  Ge  Ge59  1  0.250000  0.625000  0.375000  1
  Sr  Sr60  1  0.375000  0.750000  0.125000  1
  Sr  Sr61  1  0.125000  0.250000  0.375000  1
  Sr  Sr62  1  0.375000  0.125000  0.250000  1
  Sr  Sr63  1  0.125000  0.375000  0.750000  1
  Sr  Sr64  1  0.875000  0.750000  0.625000  1
  Sr  Sr65  1  0.750000  0.125000  0.375000  1
  Sr  Sr66  1  0.750000  0.625000  0.875000  1
  Sr  Sr67  1  0.625000  0.250000  0.875000  1
  Sr  Sr68  1  0.250000  0.875000  0.625000  1
  Sr  Sr69  1  0.875000  0.625000  0.250000  1
  Sr  Sr70  1  0.625000  0.875000  0.750000  1
  Sr  Sr71  1  0.250000  0.375000  0.125000  1
  Y  Y72  1  0.000000  0.000000  0.000000  1
  Y  Y73  1  0.000000  0.500000  0.000000  1
  Y  Y74  1  0.000000  0.000000  0.500000  1
  Y  Y75  1  0.000000  0.500000  0.500000  1
  Y  Y76  1  0.500000  0.000000  0.500000  1
  Y  Y77  1  0.500000  0.500000  0.000000  1
  Y  Y78  1  0.500000  0.500000  0.500000  1
  Y  Y79  1  0.500000  0.000000  0.000000  1
