# generated using pymatgen
data_KHo2CuS4
_symmetry_space_group_name_H-M   'P 1'
_cell_length_a   3.94230306
_cell_length_b   7.01912784
_cell_length_c   13.69523438
_cell_angle_alpha   90.00000000
_cell_angle_beta   90.00000000
_cell_angle_gamma   106.30949158
_symmetry_Int_Tables_number   1
_chemical_formula_structural   KHo2CuS4
_chemical_formula_sum   'K2 Ho4 Cu2 S8'
_cell_volume   363.71794124
_cell_formula_units_Z   2
loop_
 _symmetry_equiv_pos_site_id
 _symmetry_equiv_pos_as_xyz
  1  'x, y, z'
loop_
 _atom_site_type_symbol
 _atom_site_label
 _atom_site_symmetry_multiplicity
 _atom_site_fract_x
 _atom_site_fract_y
 _atom_site_fract_z
 _atom_site_occupancy
  S  S0  1  0.000000  0.000000  0.500000  1
  S  S1  1  0.000000  0.000000  0.000000  1
  S  S2  1  0.262622  0.525245  0.110364  1
  S  S3  1  0.737378  0.474755  0.889636  1
  S  S4  1  0.431143  0.862285  0.750000  1
  S  S5  1  0.262622  0.525245  0.389636  1
  S  S6  1  0.568857  0.137715  0.250000  1
  S  S7  1  0.737378  0.474755  0.610364  1
  K  K8  1  0.890322  0.780644  0.250000  1
  K  K9  1  0.109678  0.219356  0.750000  1
  Cu  Cu10  1  0.837141  0.674281  0.750000  1
  Cu  Cu11  1  0.162859  0.325719  0.250000  1
  Ho  Ho12  1  0.365813  0.731625  0.936664  1
  Ho  Ho13  1  0.634187  0.268375  0.436664  1
  Ho  Ho14  1  0.365813  0.731625  0.563336  1
  Ho  Ho15  1  0.634187  0.268375  0.063336  1
