# generated using pymatgen
data_ThIr
_symmetry_space_group_name_H-M   'P 1'
_cell_length_a   3.92898926
_cell_length_b   4.20943926
_cell_length_c   6.05957609
_cell_angle_alpha   90.00000000
_cell_angle_beta   108.91691496
_cell_angle_gamma   90.00000000
_symmetry_Int_Tables_number   1
_chemical_formula_structural   ThIr
_chemical_formula_sum   'Th2 Ir2'
_cell_volume   94.80554421
_cell_formula_units_Z   2
loop_
 _symmetry_equiv_pos_site_id
 _symmetry_equiv_pos_as_xyz
  1  'x, y, z'
loop_
 _atom_site_type_symbol
 _atom_site_label
 _atom_site_symmetry_multiplicity
 _atom_site_fract_x
 _atom_site_fract_y
 _atom_site_fract_z
 _atom_site_occupancy
  Ir  Ir0  1  0.401847  0.750000  0.803694  1
  Ir  Ir1  1  0.598153  0.250000  0.196306  1
  Th  Th2  1  0.136987  0.750000  0.273974  1
  Th  Th3  1  0.863013  0.250000  0.726026  1
