# generated using pymatgen
data_Na2CoPO4F
_symmetry_space_group_name_H-M   'P 1'
_cell_length_a   5.29954749
_cell_length_b   11.79524397
_cell_length_c   13.93286385
_cell_angle_alpha   90.00000000
_cell_angle_beta   90.00000000
_cell_angle_gamma   90.00000000
_symmetry_Int_Tables_number   1
_chemical_formula_structural   Na2CoPO4F
_chemical_formula_sum   'Na16 Co8 P8 O32 F8'
_cell_volume   870.93573387
_cell_formula_units_Z   8
loop_
 _symmetry_equiv_pos_site_id
 _symmetry_equiv_pos_as_xyz
  1  'x, y, z'
loop_
 _atom_site_type_symbol
 _atom_site_label
 _atom_site_symmetry_multiplicity
 _atom_site_fract_x
 _atom_site_fract_y
 _atom_site_fract_z
 _atom_site_occupancy
  O  O0  1  0.767155  0.959255  0.390558  1
  O  O1  1  0.267155  0.040746  0.109443  1
  O  O2  1  0.732844  0.459255  0.109443  1
  O  O3  1  0.232845  0.540746  0.390558  1
  O  O4  1  0.232845  0.040746  0.609443  1
  O  O5  1  0.732844  0.959255  0.890557  1
  O  O6  1  0.267155  0.540746  0.890557  1
  O  O7  1  0.767155  0.459255  0.609443  1
  O  O8  1  0.586100  0.893713  0.603974  1
  O  O9  1  0.086101  0.106287  0.896027  1
  O  O10  1  0.913899  0.393713  0.896027  1
  O  O11  1  0.413899  0.606287  0.603974  1
  O  O12  1  0.413899  0.106287  0.396027  1
  O  O13  1  0.913899  0.893713  0.103973  1
  O  O14  1  0.086101  0.606287  0.103973  1
  O  O15  1  0.586100  0.393713  0.396027  1
  O  O16  1  0.209054  0.867961  0.716091  1
  O  O17  1  0.709054  0.132038  0.783909  1
  O  O18  1  0.290946  0.367962  0.783909  1
  O  O19  1  0.790946  0.632039  0.716091  1
  O  O20  1  0.790946  0.132038  0.283909  1
  O  O21  1  0.290946  0.867961  0.216091  1
  O  O22  1  0.709054  0.632039  0.216091  1
  O  O23  1  0.209054  0.367962  0.283909  1
  O  O24  1  0.155070  0.846695  0.534879  1
  O  O25  1  0.655070  0.153305  0.965121  1
  O  O26  1  0.344930  0.346695  0.965121  1
  O  O27  1  0.844930  0.653305  0.534879  1
  O  O28  1  0.844930  0.153305  0.465122  1
  O  O29  1  0.344930  0.846695  0.034879  1
  O  O30  1  0.655070  0.653305  0.034879  1
  O  O31  1  0.155070  0.346695  0.465122  1
  F  F32  1  0.500000  0.250000  0.126915  1
  F  F33  1  0.000000  0.750000  0.373084  1
  F  F34  1  0.500000  0.750000  0.873085  1
  F  F35  1  0.000000  0.250000  0.626916  1
  F  F36  1  0.000000  0.250000  0.095185  1
  F  F37  1  0.500000  0.750000  0.404814  1
  F  F38  1  0.000000  0.750000  0.904815  1
  F  F39  1  0.500000  0.250000  0.595186  1
  Na  Na40  1  0.735134  0.828331  0.254381  1
  Na  Na41  1  0.235133  0.171668  0.245619  1
  Na  Na42  1  0.764867  0.328332  0.245619  1
  Na  Na43  1  0.264867  0.671668  0.254381  1
  Na  Na44  1  0.264867  0.171668  0.745619  1
  Na  Na45  1  0.764867  0.828331  0.754381  1
  Na  Na46  1  0.235133  0.671668  0.754381  1
  Na  Na47  1  0.735134  0.328332  0.745619  1
  Na  Na48  1  0.758464  0.082968  0.624202  1
  Na  Na49  1  0.258465  0.917032  0.875797  1
  Na  Na50  1  0.741535  0.582968  0.875797  1
  Na  Na51  1  0.241535  0.417032  0.624202  1
  Na  Na52  1  0.241535  0.917032  0.375797  1
  Na  Na53  1  0.741535  0.082968  0.124203  1
  Na  Na54  1  0.258465  0.417032  0.124203  1
  Na  Na55  1  0.758464  0.582968  0.375797  1
  P  P56  1  0.294186  0.911924  0.617545  1
  P  P57  1  0.794186  0.088076  0.882455  1
  P  P58  1  0.205814  0.411924  0.882455  1
  P  P59  1  0.705814  0.588076  0.617545  1
  P  P60  1  0.705814  0.088076  0.382455  1
  P  P61  1  0.205814  0.911924  0.117545  1
  P  P62  1  0.794186  0.588076  0.117545  1
  P  P63  1  0.294186  0.411924  0.382455  1
  Co  Co64  1  0.779990  0.826229  0.488650  1
  Co  Co65  1  0.279991  0.173772  0.011349  1
  Co  Co66  1  0.720009  0.326228  0.011349  1
  Co  Co67  1  0.220009  0.673771  0.488650  1
  Co  Co68  1  0.220009  0.173772  0.511350  1
  Co  Co69  1  0.720009  0.826229  0.988650  1
  Co  Co70  1  0.279991  0.673771  0.988650  1
  Co  Co71  1  0.779990  0.326228  0.511350  1
