# generated using pymatgen
data_ThC2
_symmetry_space_group_name_H-M   'P 1'
_cell_length_a   5.80476138
_cell_length_b   5.80476138
_cell_length_c   5.80476138
_cell_angle_alpha   90.00000000
_cell_angle_beta   90.00000000
_cell_angle_gamma   90.00000000
_symmetry_Int_Tables_number   1
_chemical_formula_structural   ThC2
_chemical_formula_sum   'Th4 C8'
_cell_volume   195.59291305
_cell_formula_units_Z   4
loop_
 _symmetry_equiv_pos_site_id
 _symmetry_equiv_pos_as_xyz
  1  'x, y, z'
loop_
 _atom_site_type_symbol
 _atom_site_label
 _atom_site_symmetry_multiplicity
 _atom_site_fract_x
 _atom_site_fract_y
 _atom_site_fract_z
 _atom_site_occupancy
  C  C0  1  0.432909  0.067091  0.932909  1
  C  C1  1  0.067091  0.932909  0.432909  1
  C  C2  1  0.932909  0.432909  0.067091  1
  C  C3  1  0.567091  0.567091  0.567091  1
  C  C4  1  0.432909  0.432909  0.432909  1
  C  C5  1  0.067091  0.567091  0.932909  1
  C  C6  1  0.932909  0.067091  0.567091  1
  C  C7  1  0.567091  0.932909  0.067091  1
  Th  Th8  1  0.000000  0.500000  0.500000  1
  Th  Th9  1  0.500000  0.500000  0.000000  1
  Th  Th10  1  0.500000  0.000000  0.500000  1
  Th  Th11  1  0.000000  0.000000  0.000000  1
