# generated using pymatgen
data_Sn5(S2Cl)2
_symmetry_space_group_name_H-M   'P 1'
_cell_length_a   10.58969849
_cell_length_b   7.32188005
_cell_length_c   14.77878803
_cell_angle_alpha   89.82821239
_cell_angle_beta   141.56456761
_cell_angle_gamma   69.92741578
_symmetry_Int_Tables_number   1
_chemical_formula_structural   Sn5(S2Cl)2
_chemical_formula_sum   'Sn10 S8 Cl4'
_cell_volume   592.12129164
_cell_formula_units_Z   2
loop_
 _symmetry_equiv_pos_site_id
 _symmetry_equiv_pos_as_xyz
  1  'x, y, z'
loop_
 _atom_site_type_symbol
 _atom_site_label
 _atom_site_symmetry_multiplicity
 _atom_site_fract_x
 _atom_site_fract_y
 _atom_site_fract_z
 _atom_site_occupancy
  Sn  Sn0  1  0.001310  0.091007  0.747660  1
  Sn  Sn1  1  0.998690  0.908995  0.252340  1
  Sn  Sn2  1  0.701410  0.621004  0.133227  1
  Sn  Sn3  1  0.300112  0.326714  0.367114  1
  Sn  Sn4  1  0.298590  0.378995  0.866773  1
  Sn  Sn5  1  0.699888  0.673285  0.632886  1
  Sn  Sn6  1  0.455374  0.193763  0.712418  1
  Sn  Sn7  1  0.544626  0.806237  0.287582  1
  Sn  Sn8  1  0.546675  0.648116  0.788332  1
  Sn  Sn9  1  0.453325  0.351884  0.211668  1
  S  S10  1  0.305769  0.008517  0.491814  1
  S  S11  1  0.577867  0.081549  0.140777  1
  S  S12  1  0.697206  0.312832  0.011581  1
  S  S13  1  0.419318  0.659760  0.358200  1
  S  S14  1  0.694233  0.991483  0.508187  1
  S  S15  1  0.422134  0.918451  0.859224  1
  S  S16  1  0.302793  0.687169  0.988419  1
  S  S17  1  0.580681  0.340241  0.641800  1
  Cl  Cl18  1  0.881033  0.810650  0.946477  1
  Cl  Cl19  1  0.118967  0.189350  0.053523  1
  Cl  Cl20  1  0.118867  0.693237  0.552584  1
  Cl  Cl21  1  0.881133  0.306763  0.447416  1
