# generated using pymatgen
data_AgBF4
_symmetry_space_group_name_H-M   'P 1'
_cell_length_a   5.47302510
_cell_length_b   6.92141182
_cell_length_c   8.20132746
_cell_angle_alpha   90.00000000
_cell_angle_beta   90.00000000
_cell_angle_gamma   90.00000000
_symmetry_Int_Tables_number   1
_chemical_formula_structural   AgBF4
_chemical_formula_sum   'Ag4 B4 F16'
_cell_volume   310.67498266
_cell_formula_units_Z   4
loop_
 _symmetry_equiv_pos_site_id
 _symmetry_equiv_pos_as_xyz
  1  'x, y, z'
loop_
 _atom_site_type_symbol
 _atom_site_label
 _atom_site_symmetry_multiplicity
 _atom_site_fract_x
 _atom_site_fract_y
 _atom_site_fract_z
 _atom_site_occupancy
  B  B0  1  0.750000  0.181890  0.439358  1
  B  B1  1  0.250000  0.818110  0.560642  1
  B  B2  1  0.250000  0.681890  0.060642  1
  B  B3  1  0.750000  0.318110  0.939358  1
  F  F4  1  0.750000  0.413080  0.090644  1
  F  F5  1  0.250000  0.586920  0.909356  1
  F  F6  1  0.250000  0.913080  0.409356  1
  F  F7  1  0.750000  0.086920  0.590644  1
  F  F8  1  0.750000  0.451531  0.809017  1
  F  F9  1  0.250000  0.548469  0.190983  1
  F  F10  1  0.250000  0.951531  0.690983  1
  F  F11  1  0.750000  0.048469  0.309017  1
  F  F12  1  0.537958  0.197916  0.927180  1
  F  F13  1  0.037958  0.802084  0.072820  1
  F  F14  1  0.462042  0.697916  0.572820  1
  F  F15  1  0.962042  0.302084  0.427180  1
  F  F16  1  0.462042  0.802084  0.072820  1
  F  F17  1  0.962042  0.197916  0.927180  1
  F  F18  1  0.537958  0.302084  0.427180  1
  F  F19  1  0.037958  0.697916  0.572820  1
  Ag  Ag20  1  0.250000  0.170083  0.180434  1
  Ag  Ag21  1  0.750000  0.829917  0.819566  1
  Ag  Ag22  1  0.750000  0.670083  0.319566  1
  Ag  Ag23  1  0.250000  0.329917  0.680434  1
