# generated using pymatgen
data_Ba2Mg(PO4)2
_symmetry_space_group_name_H-M   'P 1'
_cell_length_a   5.39517775
_cell_length_b   8.96467655
_cell_length_c   16.33962020
_cell_angle_alpha   90.00000000
_cell_angle_beta   90.51856260
_cell_angle_gamma   90.00000000
_symmetry_Int_Tables_number   1
_chemical_formula_structural   Ba2Mg(PO4)2
_chemical_formula_sum   'Ba8 Mg4 P8 O32'
_cell_volume   790.25008601
_cell_formula_units_Z   4
loop_
 _symmetry_equiv_pos_site_id
 _symmetry_equiv_pos_as_xyz
  1  'x, y, z'
loop_
 _atom_site_type_symbol
 _atom_site_label
 _atom_site_symmetry_multiplicity
 _atom_site_fract_x
 _atom_site_fract_y
 _atom_site_fract_z
 _atom_site_occupancy
  O  O0  1  0.460957  0.891009  0.665479  1
  O  O1  1  0.039043  0.391009  0.834521  1
  O  O2  1  0.539043  0.108991  0.334521  1
  O  O3  1  0.960957  0.608991  0.165479  1
  O  O4  1  0.853901  0.728053  0.667704  1
  O  O5  1  0.646099  0.228053  0.832296  1
  O  O6  1  0.146099  0.271947  0.332296  1
  O  O7  1  0.353901  0.771947  0.167704  1
  O  O8  1  0.852361  0.973316  0.589822  1
  O  O9  1  0.647639  0.473316  0.910178  1
  O  O10  1  0.147639  0.026684  0.410178  1
  O  O11  1  0.352361  0.526684  0.089822  1
  O  O12  1  0.847802  0.972654  0.745013  1
  O  O13  1  0.652198  0.472654  0.754987  1
  O  O14  1  0.152198  0.027346  0.254987  1
  O  O15  1  0.347802  0.527346  0.245013  1
  O  O16  1  0.477634  0.864307  0.876807  1
  O  O17  1  0.022366  0.364307  0.623193  1
  O  O18  1  0.522366  0.135693  0.123193  1
  O  O19  1  0.977634  0.635693  0.376807  1
  O  O20  1  0.785726  0.585266  0.514993  1
  O  O21  1  0.714274  0.085266  0.985007  1
  O  O22  1  0.214274  0.414734  0.485007  1
  O  O23  1  0.285726  0.914734  0.014993  1
  O  O24  1  0.523041  0.698815  0.400980  1
  O  O25  1  0.976959  0.198815  0.099020  1
  O  O26  1  0.476959  0.301185  0.599020  1
  O  O27  1  0.023041  0.801185  0.900980  1
  O  O28  1  0.650300  0.434341  0.387361  1
  O  O29  1  0.849700  0.934341  0.112639  1
  O  O30  1  0.349700  0.565659  0.612639  1
  O  O31  1  0.150300  0.065659  0.887361  1
  Mg  Mg32  1  0.227157  0.983624  0.133911  1
  Mg  Mg33  1  0.272843  0.483624  0.366089  1
  Mg  Mg34  1  0.727157  0.516376  0.633911  1
  Mg  Mg35  1  0.772843  0.016376  0.866089  1
  P  P36  1  0.263801  0.411783  0.577501  1
  P  P37  1  0.750039  0.891467  0.666665  1
  P  P38  1  0.763801  0.088217  0.077501  1
  P  P39  1  0.736199  0.588217  0.422499  1
  P  P40  1  0.250039  0.608533  0.166665  1
  P  P41  1  0.249961  0.108533  0.333335  1
  P  P42  1  0.749961  0.391467  0.833335  1
  P  P43  1  0.236199  0.911783  0.922499  1
  Ba  Ba44  1  0.246818  0.657567  0.771385  1
  Ba  Ba45  1  0.253182  0.157567  0.728615  1
  Ba  Ba46  1  0.753182  0.342433  0.228615  1
  Ba  Ba47  1  0.746818  0.842433  0.271385  1
  Ba  Ba48  1  0.798852  0.203965  0.480289  1
  Ba  Ba49  1  0.701148  0.703965  0.019711  1
  Ba  Ba50  1  0.201148  0.796035  0.519711  1
  Ba  Ba51  1  0.298852  0.296035  0.980289  1
