# generated using pymatgen
data_LaAsRh
_symmetry_space_group_name_H-M   'P 1'
_cell_length_a   4.20790409
_cell_length_b   4.20790409
_cell_length_c   8.13109740
_cell_angle_alpha   104.99612764
_cell_angle_beta   104.99612764
_cell_angle_gamma   90.00000001
_symmetry_Int_Tables_number   1
_chemical_formula_structural   LaAsRh
_chemical_formula_sum   'La2 As2 Rh2'
_cell_volume   133.98713127
_cell_formula_units_Z   2
loop_
 _symmetry_equiv_pos_site_id
 _symmetry_equiv_pos_as_xyz
  1  'x, y, z'
loop_
 _atom_site_type_symbol
 _atom_site_label
 _atom_site_symmetry_multiplicity
 _atom_site_fract_x
 _atom_site_fract_y
 _atom_site_fract_z
 _atom_site_occupancy
  As  As0  1  0.750514  0.250514  0.501027  1
  As  As1  1  0.000514  0.000514  0.001027  1
  Rh  Rh2  1  0.164687  0.164687  0.329374  1
  Rh  Rh3  1  0.914687  0.414687  0.829374  1
  La  La4  1  0.330710  0.830710  0.661419  1
  La  La5  1  0.580710  0.580710  0.161419  1
