# generated using pymatgen
data_Sr2CaUO6
_symmetry_space_group_name_H-M   'P 1'
_cell_length_a   5.97358517
_cell_length_b   6.13709503
_cell_length_c   8.53458022
_cell_angle_alpha   90.00000000
_cell_angle_beta   90.22073325
_cell_angle_gamma   90.00000000
_symmetry_Int_Tables_number   1
_chemical_formula_structural   Sr2CaUO6
_chemical_formula_sum   'Sr4 Ca2 U2 O12'
_cell_volume   312.87931365
_cell_formula_units_Z   2
loop_
 _symmetry_equiv_pos_site_id
 _symmetry_equiv_pos_as_xyz
  1  'x, y, z'
loop_
 _atom_site_type_symbol
 _atom_site_label
 _atom_site_symmetry_multiplicity
 _atom_site_fract_x
 _atom_site_fract_y
 _atom_site_fract_z
 _atom_site_occupancy
  O  O0  1  0.896095  0.543900  0.766479  1
  O  O1  1  0.603905  0.043900  0.733521  1
  O  O2  1  0.103905  0.456100  0.233521  1
  O  O3  1  0.396095  0.956100  0.266479  1
  O  O4  1  0.782661  0.811491  0.451009  1
  O  O5  1  0.717339  0.311491  0.048991  1
  O  O6  1  0.217339  0.188509  0.548991  1
  O  O7  1  0.282661  0.688509  0.951009  1
  O  O8  1  0.186392  0.220906  0.938206  1
  O  O9  1  0.313608  0.720906  0.561794  1
  O  O10  1  0.813608  0.779094  0.061794  1
  O  O11  1  0.686392  0.279094  0.438206  1
  Ca  Ca12  1  0.000000  0.500000  0.500000  1
  Ca  Ca13  1  0.500000  0.000000  0.000000  1
  Sr  Sr14  1  0.513161  0.547383  0.247059  1
  Sr  Sr15  1  0.986839  0.047383  0.252941  1
  Sr  Sr16  1  0.013161  0.952617  0.747059  1
  Sr  Sr17  1  0.486839  0.452617  0.752941  1
  U  U18  1  0.000000  0.500000  0.000000  1
  U  U19  1  0.500000  0.000000  0.500000  1
