# generated using pymatgen
data_Te2MoWSeS
_symmetry_space_group_name_H-M   'P 1'
_cell_length_a   3.40155518
_cell_length_b   3.40154679
_cell_length_c   38.76485247
_cell_angle_alpha   90.00025311
_cell_angle_beta   90.00000000
_cell_angle_gamma   120.00008159
_symmetry_Int_Tables_number   1
_chemical_formula_structural   Te2MoWSeS
_chemical_formula_sum   'Te4 Mo2 W2 Se2 S2'
_cell_volume   388.43859968
_cell_formula_units_Z   2
loop_
 _symmetry_equiv_pos_site_id
 _symmetry_equiv_pos_as_xyz
  1  'x, y, z'
loop_
 _atom_site_type_symbol
 _atom_site_label
 _atom_site_symmetry_multiplicity
 _atom_site_fract_x
 _atom_site_fract_y
 _atom_site_fract_z
 _atom_site_occupancy
  Te  Te0  1  0.333354  0.666710  0.706098  1
  Te  Te1  1  0.666645  0.333289  0.421064  1
  Te  Te2  1  0.666647  0.333294  0.518115  1
  Te  Te3  1  0.333352  0.666706  0.609069  1
  Mo  Mo4  1  0.333308  0.666617  0.093930  1
  Mo  Mo5  1  0.666687  0.333375  0.281795  1
  W  W6  1  0.333311  0.666621  0.469595  1
  W  W7  1  0.666692  0.333383  0.657631  1
  Se  Se8  1  0.666642  0.333284  0.051463  1
  Se  Se9  1  0.666648  0.333294  0.136393  1
  S  S10  1  0.333357  0.666715  0.320593  1
  S  S11  1  0.333356  0.666713  0.243001  1
