# generated using pymatgen
data_Te2Mo3WSe6
_symmetry_space_group_name_H-M   'P 1'
_cell_length_a   3.38102497
_cell_length_b   3.38097821
_cell_length_c   38.42963656
_cell_angle_alpha   90.00029605
_cell_angle_beta   89.99999327
_cell_angle_gamma   120.00046248
_symmetry_Int_Tables_number   1
_chemical_formula_structural   Te2Mo3WSe6
_chemical_formula_sum   'Te2 Mo3 W1 Se6'
_cell_volume   380.43952880
_cell_formula_units_Z   1
loop_
 _symmetry_equiv_pos_site_id
 _symmetry_equiv_pos_as_xyz
  1  'x, y, z'
loop_
 _atom_site_type_symbol
 _atom_site_label
 _atom_site_symmetry_multiplicity
 _atom_site_fract_x
 _atom_site_fract_y
 _atom_site_fract_z
 _atom_site_occupancy
  Te  Te0  1  0.333357  0.666714  0.706413  1
  Te  Te1  1  0.333354  0.666709  0.608655  1
  Mo  Mo2  1  0.333307  0.666613  0.093909  1
  Mo  Mo3  1  0.333312  0.666623  0.469667  1
  Mo  Mo4  1  0.666693  0.333385  0.657557  1
  W  W5  1  0.666689  0.333378  0.281801  1
  Se  Se6  1  0.333363  0.666728  0.325016  1
  Se  Se7  1  0.666645  0.333290  0.050860  1
  Se  Se8  1  0.666636  0.333271  0.426591  1
  Se  Se9  1  0.666647  0.333293  0.136985  1
  Se  Se10  1  0.666648  0.333296  0.512716  1
  Se  Se11  1  0.333350  0.666700  0.238578  1
