# generated using pymatgen
data_Sm3NbS3O4
_symmetry_space_group_name_H-M   'P 1'
_cell_length_a   6.73974342
_cell_length_b   7.73655149
_cell_length_c   14.37891507
_cell_angle_alpha   90.00000000
_cell_angle_beta   90.00000000
_cell_angle_gamma   90.00000000
_symmetry_Int_Tables_number   1
_chemical_formula_structural   Sm3NbS3O4
_chemical_formula_sum   'Sm12 Nb4 S12 O16'
_cell_volume   749.75073851
_cell_formula_units_Z   4
loop_
 _symmetry_equiv_pos_site_id
 _symmetry_equiv_pos_as_xyz
  1  'x, y, z'
loop_
 _atom_site_type_symbol
 _atom_site_label
 _atom_site_symmetry_multiplicity
 _atom_site_fract_x
 _atom_site_fract_y
 _atom_site_fract_z
 _atom_site_occupancy
  O  O0  1  0.634362  0.263665  0.073502  1
  O  O1  1  0.365639  0.763665  0.926498  1
  O  O2  1  0.865639  0.763665  0.573502  1
  O  O3  1  0.134361  0.263665  0.426498  1
  O  O4  1  0.381629  0.479968  0.139345  1
  O  O5  1  0.618371  0.979968  0.860655  1
  O  O6  1  0.118371  0.979968  0.639345  1
  O  O7  1  0.881630  0.479968  0.360655  1
  O  O8  1  0.375986  0.028762  0.112895  1
  O  O9  1  0.624014  0.528761  0.887104  1
  O  O10  1  0.124014  0.528761  0.612895  1
  O  O11  1  0.875987  0.028762  0.387104  1
  O  O12  1  0.358185  0.242350  0.937221  1
  O  O13  1  0.858185  0.242350  0.562779  1
  O  O14  1  0.141814  0.742350  0.437221  1
  O  O15  1  0.641814  0.742350  0.062779  1
  S  S16  1  0.502033  0.760801  0.272811  1
  S  S17  1  0.497967  0.260801  0.727189  1
  S  S18  1  0.997967  0.260801  0.772811  1
  S  S19  1  0.002033  0.760801  0.227189  1
  S  S20  1  0.548567  0.239238  0.298364  1
  S  S21  1  0.451433  0.739239  0.701636  1
  S  S22  1  0.967670  0.969933  0.991682  1
  S  S23  1  0.048567  0.239238  0.201636  1
  S  S24  1  0.467670  0.969933  0.508318  1
  S  S25  1  0.532330  0.469932  0.491682  1
  S  S26  1  0.032330  0.469932  0.008318  1
  S  S27  1  0.951434  0.739239  0.798364  1
  Nb  Nb28  1  0.320073  0.264864  0.073711  1
  Nb  Nb29  1  0.679927  0.764865  0.926289  1
  Nb  Nb30  1  0.179927  0.764865  0.573711  1
  Nb  Nb31  1  0.820073  0.264864  0.426289  1
  Sm  Sm32  1  0.716583  0.005445  0.155561  1
  Sm  Sm33  1  0.271359  0.995668  0.830822  1
  Sm  Sm34  1  0.771360  0.995668  0.669178  1
  Sm  Sm35  1  0.228641  0.495668  0.330822  1
  Sm  Sm36  1  0.728639  0.495668  0.169178  1
  Sm  Sm37  1  0.283417  0.505445  0.844439  1
  Sm  Sm38  1  0.783416  0.505445  0.655561  1
  Sm  Sm39  1  0.216583  0.005445  0.344439  1
  Sm  Sm40  1  0.278421  0.749506  0.082500  1
  Sm  Sm41  1  0.721578  0.249507  0.917500  1
  Sm  Sm42  1  0.221580  0.249507  0.582500  1
  Sm  Sm43  1  0.778421  0.749506  0.417500  1
