# generated using pymatgen
data_Tb4Si2S3O7
_symmetry_space_group_name_H-M   'P 1'
_cell_length_a   10.80139730
_cell_length_b   10.80139730
_cell_length_c   10.80139730
_cell_angle_alpha   100.82730434
_cell_angle_beta   113.95852843
_cell_angle_gamma   113.95852846
_symmetry_Int_Tables_number   1
_chemical_formula_structural   Tb4Si2S3O7
_chemical_formula_sum   'Tb16 Si8 S12 O28'
_cell_volume   953.90360906
_cell_formula_units_Z   4
loop_
 _symmetry_equiv_pos_site_id
 _symmetry_equiv_pos_as_xyz
  1  'x, y, z'
loop_
 _atom_site_type_symbol
 _atom_site_label
 _atom_site_symmetry_multiplicity
 _atom_site_fract_x
 _atom_site_fract_y
 _atom_site_fract_z
 _atom_site_occupancy
  O  O0  1  0.250000  0.398940  0.148940  1
  O  O1  1  0.750000  0.148940  0.398940  1
  O  O2  1  0.750000  0.601060  0.851060  1
  O  O3  1  0.250000  0.851060  0.601060  1
  O  O4  1  0.018060  0.825754  0.343815  1
  O  O5  1  0.481940  0.825754  0.807694  1
  O  O6  1  0.481940  0.656185  0.174246  1
  O  O7  1  0.981940  0.807694  0.825754  1
  O  O8  1  0.518060  0.343815  0.825754  1
  O  O9  1  0.518060  0.174246  0.192306  1
  O  O10  1  0.981940  0.174246  0.656185  1
  O  O11  1  0.018060  0.192306  0.174246  1
  O  O12  1  0.768390  0.919088  0.433165  1
  O  O13  1  0.731610  0.164775  0.150698  1
  O  O14  1  0.731610  0.566835  0.080912  1
  O  O15  1  0.985924  0.150698  0.919088  1
  O  O16  1  0.514076  0.433165  0.164775  1
  O  O17  1  0.514076  0.080912  0.849302  1
  O  O18  1  0.985924  0.835225  0.566835  1
  O  O19  1  0.768390  0.849302  0.835225  1
  O  O20  1  0.231610  0.080912  0.566835  1
  O  O21  1  0.268390  0.835225  0.849302  1
  O  O22  1  0.268390  0.433165  0.919088  1
  O  O23  1  0.014076  0.849302  0.080912  1
  O  O24  1  0.485924  0.566835  0.835225  1
  O  O25  1  0.485924  0.919088  0.150698  1
  O  O26  1  0.014076  0.164775  0.433165  1
  O  O27  1  0.231610  0.150698  0.164775  1
  Si  Si28  1  0.374985  0.903710  0.778695  1
  Si  Si29  1  0.125015  0.903710  0.528725  1
  Si  Si30  1  0.125015  0.221305  0.096290  1
  Si  Si31  1  0.625015  0.528725  0.903710  1
  Si  Si32  1  0.874985  0.778695  0.903710  1
  Si  Si33  1  0.874985  0.096290  0.471275  1
  Si  Si34  1  0.625015  0.096290  0.221305  1
  Si  Si35  1  0.374985  0.471275  0.096290  1
  S  S36  1  0.250000  0.125000  0.875000  1
  S  S37  1  0.750000  0.875000  0.125000  1
  S  S38  1  0.750000  0.375000  0.625000  1
  S  S39  1  0.250000  0.625000  0.375000  1
  S  S40  1  0.853433  0.500000  0.353433  1
  S  S41  1  0.853433  0.353433  0.000000  1
  S  S42  1  0.646567  0.646567  0.500000  1
  S  S43  1  0.646567  0.000000  0.646567  1
  S  S44  1  0.146567  0.500000  0.646567  1
  S  S45  1  0.146567  0.646567  0.000000  1
  S  S46  1  0.353433  0.353433  0.500000  1
  S  S47  1  0.353433  0.000000  0.353433  1
  Tb  Tb48  1  0.094263  0.047131  0.297131  1
  Tb  Tb49  1  0.250000  0.297131  0.702869  1
  Tb  Tb50  1  0.250000  0.952869  0.047131  1
  Tb  Tb51  1  0.405737  0.702869  0.952869  1
  Tb  Tb52  1  0.905737  0.952869  0.702869  1
  Tb  Tb53  1  0.750000  0.702869  0.297131  1
  Tb  Tb54  1  0.750000  0.047131  0.952869  1
  Tb  Tb55  1  0.594263  0.297131  0.047131  1
  Tb  Tb56  1  0.014120  0.658188  0.172308  1
  Tb  Tb57  1  0.485880  0.658188  0.644067  1
  Tb  Tb58  1  0.485880  0.827692  0.341812  1
  Tb  Tb59  1  0.985880  0.644067  0.658188  1
  Tb  Tb60  1  0.514120  0.172308  0.658188  1
  Tb  Tb61  1  0.514120  0.341812  0.355933  1
  Tb  Tb62  1  0.985880  0.341812  0.827692  1
  Tb  Tb63  1  0.014120  0.355933  0.341812  1
