# generated using pymatgen
data_K7Ta(SO4)6
_symmetry_space_group_name_H-M   'P 1'
_cell_length_a   9.46019927
_cell_length_b   9.46019928
_cell_length_c   9.46019928
_cell_angle_alpha   109.45409862
_cell_angle_beta   109.45409855
_cell_angle_gamma   109.45409863
_symmetry_Int_Tables_number   1
_chemical_formula_structural   K7Ta(SO4)6
_chemical_formula_sum   'K7 Ta1 S6 O24'
_cell_volume   652.15971718
_cell_formula_units_Z   1
loop_
 _symmetry_equiv_pos_site_id
 _symmetry_equiv_pos_as_xyz
  1  'x, y, z'
loop_
 _atom_site_type_symbol
 _atom_site_label
 _atom_site_symmetry_multiplicity
 _atom_site_fract_x
 _atom_site_fract_y
 _atom_site_fract_z
 _atom_site_occupancy
  O  O0  1  0.573889  0.090710  0.835700  1
  O  O1  1  0.090710  0.835700  0.573889  1
  O  O2  1  0.835700  0.573889  0.090710  1
  O  O3  1  0.426111  0.909290  0.164300  1
  O  O4  1  0.909290  0.164300  0.426111  1
  O  O5  1  0.164300  0.426111  0.909290  1
  O  O6  1  0.685957  0.015217  0.639603  1
  O  O7  1  0.015217  0.639603  0.685957  1
  O  O8  1  0.639603  0.685957  0.015217  1
  O  O9  1  0.314043  0.984783  0.360397  1
  O  O10  1  0.984783  0.360397  0.314043  1
  O  O11  1  0.360397  0.314043  0.984783  1
  O  O12  1  0.231143  0.022010  0.107101  1
  O  O13  1  0.022010  0.107101  0.231143  1
  O  O14  1  0.350952  0.523546  0.212387  1
  O  O15  1  0.212387  0.350952  0.523546  1
  O  O16  1  0.523546  0.212387  0.350952  1
  O  O17  1  0.649048  0.476454  0.787613  1
  O  O18  1  0.787613  0.649048  0.476454  1
  O  O19  1  0.476454  0.787613  0.649048  1
  O  O20  1  0.892899  0.768857  0.977990  1
  O  O21  1  0.977990  0.892899  0.768857  1
  O  O22  1  0.768857  0.977990  0.892899  1
  O  O23  1  0.107101  0.231143  0.022010  1
  S  S24  1  0.031505  0.254055  0.381368  1
  S  S25  1  0.254055  0.381368  0.031505  1
  S  S26  1  0.381368  0.031505  0.254055  1
  S  S27  1  0.968495  0.745945  0.618632  1
  S  S28  1  0.745945  0.618632  0.968495  1
  S  S29  1  0.618632  0.968495  0.745945  1
  K  K30  1  0.500000  0.500000  0.500000  1
  K  K31  1  0.163169  0.665601  0.324114  1
  K  K32  1  0.665601  0.324114  0.163169  1
  K  K33  1  0.324114  0.163169  0.665601  1
  K  K34  1  0.836831  0.334399  0.675886  1
  K  K35  1  0.334399  0.675886  0.836831  1
  K  K36  1  0.675886  0.836831  0.334399  1
  Ta  Ta37  1  0.000000  0.000000  0.000000  1
