# generated using pymatgen
data_Te4MoW3S4
_symmetry_space_group_name_H-M   'P 1'
_cell_length_a   3.35992134
_cell_length_b   3.36021138
_cell_length_c   40.55786790
_cell_angle_alpha   90.00245248
_cell_angle_beta   90.00000000
_cell_angle_gamma   119.99714472
_symmetry_Int_Tables_number   1
_chemical_formula_structural   Te4MoW3S4
_chemical_formula_sum   'Te4 Mo1 W3 S4'
_cell_volume   396.56460658
_cell_formula_units_Z   1
loop_
 _symmetry_equiv_pos_site_id
 _symmetry_equiv_pos_as_xyz
  1  'x, y, z'
loop_
 _atom_site_type_symbol
 _atom_site_label
 _atom_site_symmetry_multiplicity
 _atom_site_fract_x
 _atom_site_fract_y
 _atom_site_fract_z
 _atom_site_occupancy
  Te  Te0  1  0.333327  0.666656  0.707561  1
  Te  Te1  1  0.666673  0.333345  0.419981  1
  Te  Te2  1  0.666696  0.333390  0.513628  1
  Te  Te3  1  0.333295  0.666590  0.613923  1
  Mo  Mo4  1  0.333385  0.666771  0.093903  1
  W  W5  1  0.333388  0.666776  0.466832  1
  W  W6  1  0.666666  0.333331  0.281428  1
  W  W7  1  0.666615  0.333230  0.660749  1
  S  S8  1  0.333371  0.666743  0.318858  1
  S  S9  1  0.666605  0.333210  0.056657  1
  S  S10  1  0.666678  0.333356  0.131184  1
  S  S11  1  0.333300  0.666601  0.244044  1
