# generated using pymatgen
data_Sm5Ge4
_symmetry_space_group_name_H-M   'P 1'
_cell_length_a   7.84324419
_cell_length_b   7.92852453
_cell_length_c   15.04720500
_cell_angle_alpha   90.00000000
_cell_angle_beta   90.00000000
_cell_angle_gamma   90.00000000
_symmetry_Int_Tables_number   1
_chemical_formula_structural   Sm5Ge4
_chemical_formula_sum   'Sm20 Ge16'
_cell_volume   935.71576896
_cell_formula_units_Z   4
loop_
 _symmetry_equiv_pos_site_id
 _symmetry_equiv_pos_as_xyz
  1  'x, y, z'
loop_
 _atom_site_type_symbol
 _atom_site_label
 _atom_site_symmetry_multiplicity
 _atom_site_fract_x
 _atom_site_fract_y
 _atom_site_fract_z
 _atom_site_occupancy
  Ge  Ge0  1  0.779922  0.532974  0.455460  1
  Ge  Ge1  1  0.279922  0.967026  0.044540  1
  Ge  Ge2  1  0.720078  0.032974  0.544540  1
  Ge  Ge3  1  0.220078  0.467026  0.955460  1
  Ge  Ge4  1  0.220078  0.467026  0.544540  1
  Ge  Ge5  1  0.720078  0.032974  0.955460  1
  Ge  Ge6  1  0.279922  0.967026  0.455460  1
  Ge  Ge7  1  0.779922  0.532974  0.044540  1
  Ge  Ge8  1  0.915034  0.887546  0.250000  1
  Ge  Ge9  1  0.415034  0.612454  0.250000  1
  Ge  Ge10  1  0.584966  0.387546  0.750000  1
  Ge  Ge11  1  0.084966  0.112454  0.750000  1
  Ge  Ge12  1  0.173402  0.365328  0.250000  1
  Ge  Ge13  1  0.673402  0.134672  0.250000  1
  Ge  Ge14  1  0.326598  0.865328  0.750000  1
  Ge  Ge15  1  0.826598  0.634672  0.750000  1
  Sm  Sm16  1  0.377694  0.160294  0.884353  1
  Sm  Sm17  1  0.877694  0.339706  0.615647  1
  Sm  Sm18  1  0.122306  0.660294  0.115647  1
  Sm  Sm19  1  0.622306  0.839706  0.384353  1
  Sm  Sm20  1  0.377694  0.160294  0.615647  1
  Sm  Sm21  1  0.877694  0.339706  0.884353  1
  Sm  Sm22  1  0.122306  0.660294  0.384353  1
  Sm  Sm23  1  0.622306  0.839706  0.115647  1
  Sm  Sm24  1  0.023749  0.821739  0.601992  1
  Sm  Sm25  1  0.523749  0.678261  0.898008  1
  Sm  Sm26  1  0.476251  0.321739  0.398008  1
  Sm  Sm27  1  0.976251  0.178261  0.101992  1
  Sm  Sm28  1  0.976251  0.178261  0.398008  1
  Sm  Sm29  1  0.476251  0.321739  0.101992  1
  Sm  Sm30  1  0.523749  0.678261  0.601992  1
  Sm  Sm31  1  0.023749  0.821739  0.898008  1
  Sm  Sm32  1  0.286952  0.997579  0.250000  1
  Sm  Sm33  1  0.786952  0.502421  0.250000  1
  Sm  Sm34  1  0.213048  0.497579  0.750000  1
  Sm  Sm35  1  0.713048  0.002421  0.750000  1
