# generated using pymatgen
data_SrV2O6
_symmetry_space_group_name_H-M   'P 1'
_cell_length_a   3.71334374
_cell_length_b   9.82844743
_cell_length_c   12.99695088
_cell_angle_alpha   90.00000000
_cell_angle_beta   90.00000000
_cell_angle_gamma   90.00000000
_symmetry_Int_Tables_number   1
_chemical_formula_structural   SrV2O6
_chemical_formula_sum   'Sr4 V8 O24'
_cell_volume   474.34196668
_cell_formula_units_Z   4
loop_
 _symmetry_equiv_pos_site_id
 _symmetry_equiv_pos_as_xyz
  1  'x, y, z'
loop_
 _atom_site_type_symbol
 _atom_site_label
 _atom_site_symmetry_multiplicity
 _atom_site_fract_x
 _atom_site_fract_y
 _atom_site_fract_z
 _atom_site_occupancy
  O  O0  1  0.249999  0.891107  0.024429  1
  O  O1  1  0.750001  0.108893  0.975571  1
  O  O2  1  0.249999  0.391107  0.475571  1
  O  O3  1  0.750001  0.608894  0.524429  1
  O  O4  1  0.249999  0.784013  0.217516  1
  O  O5  1  0.750001  0.215987  0.782484  1
  O  O6  1  0.249999  0.284014  0.282484  1
  O  O7  1  0.750001  0.715987  0.717516  1
  O  O8  1  0.249999  0.535338  0.101956  1
  O  O9  1  0.750001  0.464662  0.898044  1
  O  O10  1  0.249999  0.035339  0.398044  1
  O  O11  1  0.750001  0.964662  0.601956  1
  O  O12  1  0.750001  0.830882  0.390586  1
  O  O13  1  0.249999  0.169118  0.609415  1
  O  O14  1  0.750001  0.330882  0.109415  1
  O  O15  1  0.249999  0.669118  0.890585  1
  O  O16  1  0.750001  0.028013  0.235245  1
  O  O17  1  0.249999  0.971987  0.764755  1
  O  O18  1  0.249999  0.309194  0.928028  1
  O  O19  1  0.249999  0.471986  0.735245  1
  O  O20  1  0.750001  0.190806  0.428028  1
  O  O21  1  0.249999  0.809194  0.571972  1
  O  O22  1  0.750001  0.690805  0.071972  1
  O  O23  1  0.750001  0.528013  0.264755  1
  V  V24  1  0.249999  0.741985  0.095348  1
  V  V25  1  0.750001  0.258015  0.904652  1
  V  V26  1  0.249999  0.241985  0.404651  1
  V  V27  1  0.750001  0.758015  0.595349  1
  V  V28  1  0.249999  0.500136  0.863025  1
  V  V29  1  0.750001  0.499864  0.136974  1
  V  V30  1  0.750001  -0.000136  0.363025  1
  V  V31  1  0.249999  1.000135  0.636975  1
  Sr  Sr32  1  0.249999  0.135613  0.115965  1
  Sr  Sr33  1  0.750001  0.864387  0.884036  1
  Sr  Sr34  1  0.249999  0.635613  0.384036  1
  Sr  Sr35  1  0.750001  0.364387  0.615964  1
