# generated using pymatgen
data_Nb12O29
_symmetry_space_group_name_H-M   'P 1'
_cell_length_a   3.86369550
_cell_length_b   10.75310962
_cell_length_c   29.50085670
_cell_angle_alpha   90.00000000
_cell_angle_beta   90.00000000
_cell_angle_gamma   100.34965349
_symmetry_Int_Tables_number   1
_chemical_formula_structural   Nb12O29
_chemical_formula_sum   'Nb24 O58'
_cell_volume   1205.72255081
_cell_formula_units_Z   2
loop_
 _symmetry_equiv_pos_site_id
 _symmetry_equiv_pos_as_xyz
  1  'x, y, z'
loop_
 _atom_site_type_symbol
 _atom_site_label
 _atom_site_symmetry_multiplicity
 _atom_site_fract_x
 _atom_site_fract_y
 _atom_site_fract_z
 _atom_site_occupancy
  O  O0  1  0.541964  0.083929  0.750000  1
  O  O1  1  0.458036  0.916071  0.250000  1
  O  O2  1  0.552126  0.104251  0.184317  1
  O  O3  1  0.447874  0.895749  0.815683  1
  O  O4  1  0.447874  0.895749  0.684317  1
  O  O5  1  0.552126  0.104251  0.315683  1
  O  O6  1  0.349354  0.698707  0.750000  1
  O  O7  1  0.650646  0.301293  0.250000  1
  O  O8  1  0.148474  0.296947  0.175522  1
  O  O9  1  0.851526  0.703053  0.824478  1
  O  O10  1  0.851526  0.703053  0.675522  1
  O  O11  1  0.148474  0.296947  0.324478  1
  O  O12  1  0.744225  0.488451  0.180302  1
  O  O13  1  0.255775  0.511549  0.819698  1
  O  O14  1  0.255775  0.511549  0.680302  1
  O  O15  1  0.744225  0.488451  0.319698  1
  O  O16  1  0.165564  0.331128  0.750000  1
  O  O17  1  0.834436  0.668872  0.250000  1
  O  O18  1  0.939632  0.879265  0.180132  1
  O  O19  1  0.060368  0.120735  0.819868  1
  O  O20  1  0.060368  0.120735  0.680132  1
  O  O21  1  0.939632  0.879265  0.319868  1
  O  O22  1  0.356554  0.713108  0.179803  1
  O  O23  1  0.643446  0.286892  0.820197  1
  O  O24  1  0.355717  0.711434  0.463318  1
  O  O25  1  0.644283  0.288566  0.536682  1
  O  O26  1  0.644283  0.288566  0.963318  1
  O  O27  1  0.355717  0.711434  0.036682  1
  O  O28  1  0.938654  0.877308  0.456347  1
  O  O29  1  0.061346  0.122692  0.543653  1
  O  O30  1  0.061346  0.122692  0.956347  1
  O  O31  1  0.938654  0.877308  0.043653  1
  O  O32  1  0.549319  0.098637  0.468927  1
  O  O33  1  0.450681  0.901363  0.531073  1
  O  O34  1  0.450681  0.901363  0.968927  1
  O  O35  1  0.549319  0.098637  0.031073  1
  O  O36  1  0.467800  0.935600  0.388201  1
  O  O37  1  0.532200  0.064400  0.611799  1
  O  O38  1  0.532200  0.064400  0.888201  1
  O  O39  1  0.467800  0.935600  0.111799  1
  O  O40  1  0.150386  0.300771  0.471629  1
  O  O41  1  0.849614  0.699229  0.528371  1
  O  O42  1  0.849614  0.699229  0.971629  1
  O  O43  1  0.150386  0.300771  0.028371  1
  O  O44  1  0.743296  0.486592  0.457644  1
  O  O45  1  0.256704  0.513408  0.542356  1
  O  O46  1  0.256704  0.513408  0.957644  1
  O  O47  1  0.743296  0.486592  0.042356  1
  O  O48  1  0.641367  0.282735  0.391532  1
  O  O49  1  0.358633  0.717265  0.608468  1
  O  O50  1  0.358633  0.717265  0.891532  1
  O  O51  1  0.641367  0.282735  0.108468  1
  O  O52  1  0.835639  0.671278  0.388300  1
  O  O53  1  0.164361  0.328722  0.611700  1
  O  O54  1  0.164361  0.328722  0.888300  1
  O  O55  1  0.835639  0.671278  0.111700  1
  O  O56  1  0.356554  0.713108  0.320197  1
  O  O57  1  0.643446  0.286892  0.679803  1
  Nb  Nb58  1  0.464960  0.929921  0.184948  1
  Nb  Nb59  1  0.535040  0.070079  0.815052  1
  Nb  Nb60  1  0.535040  0.070079  0.684948  1
  Nb  Nb61  1  0.464960  0.929921  0.315052  1
  Nb  Nb62  1  0.647803  0.295607  0.184819  1
  Nb  Nb63  1  0.352197  0.704393  0.815181  1
  Nb  Nb64  1  0.352197  0.704393  0.684819  1
  Nb  Nb65  1  0.647803  0.295607  0.315181  1
  Nb  Nb66  1  0.831046  0.662092  0.184533  1
  Nb  Nb67  1  0.168954  0.337908  0.815467  1
  Nb  Nb68  1  0.168954  0.337908  0.684533  1
  Nb  Nb69  1  0.831046  0.662092  0.315467  1
  Nb  Nb70  1  0.830826  0.661653  0.050466  1
  Nb  Nb71  1  0.169174  0.338347  0.949534  1
  Nb  Nb72  1  0.169174  0.338347  0.550466  1
  Nb  Nb73  1  0.830826  0.661653  0.449534  1
  Nb  Nb74  1  0.647990  0.295981  0.048304  1
  Nb  Nb75  1  0.352010  0.704019  0.951696  1
  Nb  Nb76  1  0.352010  0.704019  0.548304  1
  Nb  Nb77  1  0.647990  0.295981  0.451696  1
  Nb  Nb78  1  0.463449  0.926897  0.050714  1
  Nb  Nb79  1  0.536551  0.073103  0.949286  1
  Nb  Nb80  1  0.536551  0.073103  0.550714  1
  Nb  Nb81  1  0.463449  0.926897  0.449286  1
