# generated using pymatgen
data_LiSm2OsO6
_symmetry_space_group_name_H-M   'P 1'
_cell_length_a   5.41668892
_cell_length_b   5.82385568
_cell_length_c   7.74525906
_cell_angle_alpha   90.00000000
_cell_angle_beta   90.73351527
_cell_angle_gamma   90.00000000
_symmetry_Int_Tables_number   1
_chemical_formula_structural   LiSm2OsO6
_chemical_formula_sum   'Li2 Sm4 Os2 O12'
_cell_volume   244.31203249
_cell_formula_units_Z   2
loop_
 _symmetry_equiv_pos_site_id
 _symmetry_equiv_pos_as_xyz
  1  'x, y, z'
loop_
 _atom_site_type_symbol
 _atom_site_label
 _atom_site_symmetry_multiplicity
 _atom_site_fract_x
 _atom_site_fract_y
 _atom_site_fract_z
 _atom_site_occupancy
  Li  Li0  1  0.000000  0.000000  0.000000  1
  Li  Li1  1  0.500000  0.500000  0.500000  1
  O  O2  1  0.175965  0.290859  0.441330  1
  O  O3  1  0.324035  0.790859  0.058670  1
  O  O4  1  0.824035  0.709141  0.558670  1
  O  O5  1  0.675965  0.209141  0.941330  1
  O  O6  1  0.109386  0.038134  0.743929  1
  O  O7  1  0.390614  0.538134  0.756071  1
  O  O8  1  0.199739  0.317151  0.051695  1
  O  O9  1  0.300261  0.817151  0.448305  1
  O  O10  1  0.800261  0.682849  0.948305  1
  O  O11  1  0.699739  0.182849  0.551695  1
  O  O12  1  0.609386  0.461866  0.243929  1
  O  O13  1  0.890614  0.961866  0.256071  1
  Sm  Sm14  1  0.480567  0.074891  0.251710  1
  Sm  Sm15  1  0.019433  0.574891  0.248290  1
  Sm  Sm16  1  0.980567  0.425109  0.751710  1
  Sm  Sm17  1  0.519433  0.925109  0.748290  1
  Os  Os18  1  0.500000  0.500000  0.000000  1
  Os  Os19  1  0.000000  0.000000  0.500000  1
