# generated using pymatgen
data_TeMo2SeS2
_symmetry_space_group_name_H-M   'P 1'
_cell_length_a   3.30930233
_cell_length_b   3.30929705
_cell_length_c   37.58347446
_cell_angle_alpha   89.99964620
_cell_angle_beta   90.00000000
_cell_angle_gamma   120.00005285
_symmetry_Int_Tables_number   1
_chemical_formula_structural   TeMo2SeS2
_chemical_formula_sum   'Te2 Mo4 Se2 S4'
_cell_volume   356.45074325
_cell_formula_units_Z   2
loop_
 _symmetry_equiv_pos_site_id
 _symmetry_equiv_pos_as_xyz
  1  'x, y, z'
loop_
 _atom_site_type_symbol
 _atom_site_label
 _atom_site_symmetry_multiplicity
 _atom_site_fract_x
 _atom_site_fract_y
 _atom_site_fract_z
 _atom_site_occupancy
  Te  Te0  1  0.333352  0.666706  0.708435  1
  Te  Te1  1  0.333365  0.666731  0.606655  1
  Mo  Mo2  1  0.333314  0.666627  0.093915  1
  Mo  Mo3  1  0.333330  0.666659  0.469644  1
  Mo  Mo4  1  0.666683  0.333366  0.281803  1
  Mo  Mo5  1  0.666688  0.333375  0.657586  1
  Se  Se6  1  0.333350  0.666701  0.326538  1
  Se  Se7  1  0.333349  0.666700  0.237057  1
  S  S8  1  0.666646  0.333291  0.053296  1
  S  S9  1  0.666638  0.333274  0.429028  1
  S  S10  1  0.666648  0.333294  0.134541  1
  S  S11  1  0.666638  0.333275  0.510249  1
