# generated using pymatgen
data_TeMoWS3
_symmetry_space_group_name_H-M   'P 1'
_cell_length_a   3.27490760
_cell_length_b   3.27495471
_cell_length_c   37.35024967
_cell_angle_alpha   89.99968651
_cell_angle_beta   90.00001246
_cell_angle_gamma   119.99971411
_symmetry_Int_Tables_number   1
_chemical_formula_structural   TeMoWS3
_chemical_formula_sum   'Te2 Mo2 W2 S6'
_cell_volume   346.92032250
_cell_formula_units_Z   2
loop_
 _symmetry_equiv_pos_site_id
 _symmetry_equiv_pos_as_xyz
  1  'x, y, z'
loop_
 _atom_site_type_symbol
 _atom_site_label
 _atom_site_symmetry_multiplicity
 _atom_site_fract_x
 _atom_site_fract_y
 _atom_site_fract_z
 _atom_site_occupancy
  Te  Te0  1  0.333361  0.666723  0.709522  1
  Te  Te1  1  0.333352  0.666706  0.605618  1
  Mo  Mo2  1  0.333322  0.666643  0.469608  1
  Mo  Mo3  1  0.666684  0.333368  0.281798  1
  W  W4  1  0.333312  0.666624  0.093919  1
  W  W5  1  0.666688  0.333378  0.657594  1
  S  S6  1  0.333356  0.666711  0.322944  1
  S  S7  1  0.666646  0.333291  0.052582  1
  S  S8  1  0.666642  0.333284  0.428484  1
  S  S9  1  0.666641  0.333282  0.135263  1
  S  S10  1  0.666642  0.333284  0.510763  1
  S  S11  1  0.333354  0.666707  0.240653  1
