# generated using pymatgen
data_Hg2GeO4
_symmetry_space_group_name_H-M   'P 1'
_cell_length_a   6.55948733
_cell_length_b   6.55948733
_cell_length_c   6.73428402
_cell_angle_alpha   104.89202068
_cell_angle_beta   104.89202077
_cell_angle_gamma   118.18413050
_symmetry_Int_Tables_number   1
_chemical_formula_structural   Hg2GeO4
_chemical_formula_sum   'Hg4 Ge2 O8'
_cell_volume   221.13473330
_cell_formula_units_Z   2
loop_
 _symmetry_equiv_pos_site_id
 _symmetry_equiv_pos_as_xyz
  1  'x, y, z'
loop_
 _atom_site_type_symbol
 _atom_site_label
 _atom_site_symmetry_multiplicity
 _atom_site_fract_x
 _atom_site_fract_y
 _atom_site_fract_z
 _atom_site_occupancy
  O  O0  1  0.746581  0.795506  0.083942  1
  O  O1  1  0.711564  0.162639  0.416058  1
  O  O2  1  0.204494  0.253419  0.416058  1
  O  O3  1  0.837361  0.288436  0.083942  1
  O  O4  1  0.253419  0.204494  0.916058  1
  O  O5  1  0.288436  0.837361  0.583942  1
  O  O6  1  0.162639  0.711564  0.916058  1
  O  O7  1  0.795506  0.746581  0.583942  1
  Ge  Ge8  1  0.875000  0.125000  0.250000  1
  Ge  Ge9  1  0.125000  0.875000  0.750000  1
  Hg  Hg10  1  0.192938  0.807062  0.250000  1
  Hg  Hg11  1  0.557062  0.442938  0.250000  1
  Hg  Hg12  1  0.807062  0.192938  0.750000  1
  Hg  Hg13  1  0.442938  0.557062  0.750000  1
