# generated using pymatgen
data_La4MnSe6O
_symmetry_space_group_name_H-M   'P 1'
_cell_length_a   9.83485894
_cell_length_b   9.83485894
_cell_length_c   7.13787919
_cell_angle_alpha   90.00000000
_cell_angle_beta   90.00000000
_cell_angle_gamma   120.00000001
_symmetry_Int_Tables_number   1
_chemical_formula_structural   La4MnSe6O
_chemical_formula_sum   'La8 Mn2 Se12 O2'
_cell_volume   597.91038294
_cell_formula_units_Z   2
loop_
 _symmetry_equiv_pos_site_id
 _symmetry_equiv_pos_as_xyz
  1  'x, y, z'
loop_
 _atom_site_type_symbol
 _atom_site_label
 _atom_site_symmetry_multiplicity
 _atom_site_fract_x
 _atom_site_fract_y
 _atom_site_fract_z
 _atom_site_occupancy
  O  O0  1  0.666666  0.333333  0.044419  1
  O  O1  1  0.333333  0.666667  0.544419  1
  Mn  Mn2  1  0.000000  0.000000  0.492171  1
  Mn  Mn3  1  0.000000  0.000000  0.992170  1
  Se  Se4  1  0.530111  0.469888  0.445580  1
  Se  Se5  1  0.469888  0.939776  0.945581  1
  Se  Se6  1  0.060224  0.530112  0.945581  1
  Se  Se7  1  0.530111  0.060224  0.445580  1
  Se  Se8  1  0.939776  0.469888  0.445580  1
  Se  Se9  1  0.469888  0.530112  0.945581  1
  Se  Se10  1  0.126430  0.873571  0.262247  1
  Se  Se11  1  0.252858  0.126429  0.762246  1
  Se  Se12  1  0.873571  0.126429  0.762246  1
  Se  Se13  1  0.126429  0.252859  0.262247  1
  Se  Se14  1  0.747141  0.873571  0.262247  1
  Se  Se15  1  0.873570  0.747141  0.762246  1
  La  La16  1  0.666666  0.333333  0.707861  1
  La  La17  1  0.333333  0.666667  0.207860  1
  La  La18  1  0.200257  0.799743  0.660974  1
  La  La19  1  0.400515  0.200257  0.160973  1
  La  La20  1  0.799742  0.599486  0.160973  1
  La  La21  1  0.200257  0.400514  0.660974  1
  La  La22  1  0.599486  0.799743  0.660974  1
  La  La23  1  0.799743  0.200257  0.160973  1
