# generated using pymatgen
data_TlZnAsO4
_symmetry_space_group_name_H-M   'P 1'
_cell_length_a   5.73520112
_cell_length_b   9.11082896
_cell_length_c   9.17394860
_cell_angle_alpha   91.05618755
_cell_angle_beta   90.00000000
_cell_angle_gamma   90.00000000
_symmetry_Int_Tables_number   1
_chemical_formula_structural   TlZnAsO4
_chemical_formula_sum   'Tl4 Zn4 As4 O16'
_cell_volume   479.27972275
_cell_formula_units_Z   4
loop_
 _symmetry_equiv_pos_site_id
 _symmetry_equiv_pos_as_xyz
  1  'x, y, z'
loop_
 _atom_site_type_symbol
 _atom_site_label
 _atom_site_symmetry_multiplicity
 _atom_site_fract_x
 _atom_site_fract_y
 _atom_site_fract_z
 _atom_site_occupancy
  O  O0  1  0.912547  0.674341  0.249003  1
  O  O1  1  0.412547  0.325659  0.750997  1
  O  O2  1  0.291856  0.223068  0.433451  1
  O  O3  1  0.791856  0.776932  0.566549  1
  O  O4  1  0.247442  0.211986  0.017367  1
  O  O5  1  0.747442  0.788014  0.982633  1
  O  O6  1  0.899123  0.321743  0.284845  1
  O  O7  1  0.399123  0.678257  0.715155  1
  O  O8  1  0.341703  0.794237  0.438417  1
  O  O9  1  0.841703  0.205763  0.561583  1
  O  O10  1  0.723761  0.213607  0.965195  1
  O  O11  1  0.223761  0.786393  0.034805  1
  O  O12  1  0.462171  0.980783  0.682084  1
  O  O13  1  0.962171  0.019217  0.317916  1
  O  O14  1  0.992684  0.520837  0.980471  1
  O  O15  1  0.492684  0.479163  0.019529  1
  Zn  Zn16  1  0.501052  0.177523  0.597950  1
  Zn  Zn17  1  0.001052  0.822477  0.402050  1
  Zn  Zn18  1  0.967673  0.327380  0.075340  1
  Zn  Zn19  1  0.467673  0.672620  0.924660  1
  As  As20  1  0.469007  0.308953  0.934489  1
  As  As21  1  0.499268  0.811127  0.598543  1
  As  As22  1  0.969007  0.691047  0.065511  1
  As  As23  1  0.999268  0.188873  0.401457  1
  Tl  Tl24  1  0.518083  0.502189  0.319246  1
  Tl  Tl25  1  0.018083  0.497811  0.680754  1
  Tl  Tl26  1  0.481932  0.996728  0.184029  1
  Tl  Tl27  1  0.981932  0.003272  0.815971  1
