# generated using pymatgen
data_Ag7AsS6
_symmetry_space_group_name_H-M   'P 1'
_cell_length_a   10.64731893
_cell_length_b   10.64731893
_cell_length_c   10.64731893
_cell_angle_alpha   90.00000000
_cell_angle_beta   90.00000000
_cell_angle_gamma   90.00000000
_symmetry_Int_Tables_number   1
_chemical_formula_structural   Ag7AsS6
_chemical_formula_sum   'Ag28 As4 S24'
_cell_volume   1207.03757366
_cell_formula_units_Z   4
loop_
 _symmetry_equiv_pos_site_id
 _symmetry_equiv_pos_as_xyz
  1  'x, y, z'
loop_
 _atom_site_type_symbol
 _atom_site_label
 _atom_site_symmetry_multiplicity
 _atom_site_fract_x
 _atom_site_fract_y
 _atom_site_fract_z
 _atom_site_occupancy
  S  S0  1  0.369536  0.117698  0.616008  1
  S  S1  1  0.869536  0.382302  0.383992  1
  S  S2  1  0.630464  0.617698  0.883992  1
  S  S3  1  0.382302  0.383992  0.869536  1
  S  S4  1  0.883992  0.630464  0.617698  1
  S  S5  1  0.383992  0.869536  0.382302  1
  S  S6  1  0.117698  0.616008  0.369536  1
  S  S7  1  0.616008  0.369536  0.117698  1
  S  S8  1  0.617698  0.883992  0.630464  1
  S  S9  1  0.882302  0.116008  0.130464  1
  S  S10  1  0.116008  0.130464  0.882302  1
  S  S11  1  0.130464  0.882302  0.116008  1
  S  S12  1  0.734632  0.765368  0.234632  1
  S  S13  1  0.528123  0.528123  0.528123  1
  S  S14  1  0.765368  0.234632  0.734632  1
  S  S15  1  0.265368  0.265368  0.265368  1
  S  S16  1  0.116706  0.383294  0.616706  1
  S  S17  1  0.383294  0.616706  0.116706  1
  S  S18  1  0.616706  0.116706  0.383294  1
  S  S19  1  0.883294  0.883294  0.883294  1
  S  S20  1  0.471877  0.028123  0.971877  1
  S  S21  1  0.028123  0.971877  0.471877  1
  S  S22  1  0.971877  0.471877  0.028123  1
  S  S23  1  0.234632  0.734632  0.765368  1
  As  As24  1  0.995529  0.504471  0.495529  1
  As  As25  1  0.504471  0.495529  0.995529  1
  As  As26  1  0.495529  0.995529  0.504471  1
  As  As27  1  0.004471  0.004471  0.004471  1
  Ag  Ag28  1  0.149122  0.176989  0.488685  1
  Ag  Ag29  1  0.649122  0.323011  0.511315  1
  Ag  Ag30  1  0.850878  0.676989  0.011315  1
  Ag  Ag31  1  0.323011  0.511315  0.649122  1
  Ag  Ag32  1  0.011315  0.850878  0.676989  1
  Ag  Ag33  1  0.511315  0.649122  0.323011  1
  Ag  Ag34  1  0.176989  0.488685  0.149122  1
  Ag  Ag35  1  0.488685  0.149122  0.176989  1
  Ag  Ag36  1  0.676989  0.011315  0.850878  1
  Ag  Ag37  1  0.823011  0.988685  0.350878  1
  Ag  Ag38  1  0.988685  0.350878  0.823011  1
  Ag  Ag39  1  0.350878  0.823011  0.988685  1
  Ag  Ag40  1  0.256488  0.972003  0.766018  1
  Ag  Ag41  1  0.756488  0.527997  0.233982  1
  Ag  Ag42  1  0.743512  0.472003  0.733982  1
  Ag  Ag43  1  0.527997  0.233982  0.756488  1
  Ag  Ag44  1  0.733982  0.743512  0.472003  1
  Ag  Ag45  1  0.233982  0.756488  0.527997  1
  Ag  Ag46  1  0.972003  0.766018  0.256488  1
  Ag  Ag47  1  0.766018  0.256488  0.972003  1
  Ag  Ag48  1  0.472003  0.733982  0.743512  1
  Ag  Ag49  1  0.027997  0.266018  0.243512  1
  Ag  Ag50  1  0.266018  0.243512  0.027997  1
  Ag  Ag51  1  0.243512  0.027997  0.266018  1
  Ag  Ag52  1  0.602682  0.897318  0.102682  1
  Ag  Ag53  1  0.897318  0.102682  0.602682  1
  Ag  Ag54  1  0.102682  0.602682  0.897318  1
  Ag  Ag55  1  0.397318  0.397318  0.397318  1
