# generated using pymatgen
data_Cr3N4
_symmetry_space_group_name_H-M   'P 1'
_cell_length_a   4.81213296
_cell_length_b   5.89242301
_cell_length_c   9.94836287
_cell_angle_alpha   90.00000000
_cell_angle_beta   90.00000000
_cell_angle_gamma   90.00000000
_symmetry_Int_Tables_number   1
_chemical_formula_structural   Cr3N4
_chemical_formula_sum   'Cr12 N16'
_cell_volume   282.08705264
_cell_formula_units_Z   4
loop_
 _symmetry_equiv_pos_site_id
 _symmetry_equiv_pos_as_xyz
  1  'x, y, z'
loop_
 _atom_site_type_symbol
 _atom_site_label
 _atom_site_symmetry_multiplicity
 _atom_site_fract_x
 _atom_site_fract_y
 _atom_site_fract_z
 _atom_site_occupancy
  Cr  Cr0  1  0.500000  -0.000000  0.500000  1
  Cr  Cr1  1  0.000000  0.500000  0.000000  1
  Cr  Cr2  1  0.500000  0.500000  0.500000  1
  Cr  Cr3  1  0.000000  -0.000000  0.000000  1
  Cr  Cr4  1  0.489632  0.750000  0.238163  1
  Cr  Cr5  1  0.010368  0.750000  0.738163  1
  Cr  Cr6  1  0.510368  0.250000  0.761837  1
  Cr  Cr7  1  0.989632  0.250000  0.261837  1
  Cr  Cr8  1  0.914466  0.750000  0.408787  1
  Cr  Cr9  1  0.585534  0.750000  0.908787  1
  Cr  Cr10  1  0.085534  0.250000  0.591213  1
  Cr  Cr11  1  0.414466  0.250000  0.091213  1
  N  N12  1  0.279324  0.750000  0.414678  1
  N  N13  1  0.220676  0.750000  0.914678  1
  N  N14  1  0.720676  0.250000  0.585322  1
  N  N15  1  0.779324  0.250000  0.085322  1
  N  N16  1  0.744299  0.750000  0.070926  1
  N  N17  1  0.755701  0.750000  0.570926  1
  N  N18  1  0.255701  0.250000  0.929074  1
  N  N19  1  0.244299  0.250000  0.429074  1
  N  N20  1  0.750355  -0.014161  0.332818  1
  N  N21  1  0.749645  0.514161  0.832818  1
  N  N22  1  0.249645  0.485839  0.667182  1
  N  N23  1  0.250355  1.014161  0.167182  1
  N  N24  1  0.249645  1.014161  0.667182  1
  N  N25  1  0.250355  0.485839  0.167182  1
  N  N26  1  0.750355  0.514161  0.332818  1
  N  N27  1  0.749645  -0.014161  0.832818  1
