# generated using pymatgen
data_Re2SbO6
_symmetry_space_group_name_H-M   'P 1'
_cell_length_a   4.98489396
_cell_length_b   5.56559823
_cell_length_c   8.50350187
_cell_angle_alpha   91.22712420
_cell_angle_beta   107.04413738
_cell_angle_gamma   90.00000002
_symmetry_Int_Tables_number   1
_chemical_formula_structural   Re2SbO6
_chemical_formula_sum   'Re4 Sb2 O12'
_cell_volume   225.50205349
_cell_formula_units_Z   2
loop_
 _symmetry_equiv_pos_site_id
 _symmetry_equiv_pos_as_xyz
  1  'x, y, z'
loop_
 _atom_site_type_symbol
 _atom_site_label
 _atom_site_symmetry_multiplicity
 _atom_site_fract_x
 _atom_site_fract_y
 _atom_site_fract_z
 _atom_site_occupancy
  O  O0  1  0.519618  0.574000  0.861443  1
  O  O1  1  0.658174  0.926000  0.138557  1
  O  O2  1  0.480382  0.426000  0.138557  1
  O  O3  1  0.341826  0.074000  0.861443  1
  O  O4  1  0.884427  0.380994  0.720284  1
  O  O5  1  0.164143  0.119006  0.279716  1
  O  O6  1  0.264716  0.831205  0.568028  1
  O  O7  1  0.696687  0.668795  0.431972  1
  O  O8  1  0.735284  0.168795  0.431972  1
  O  O9  1  0.303313  0.331205  0.568028  1
  O  O10  1  0.835857  0.880994  0.720284  1
  O  O11  1  0.115573  0.619006  0.279716  1
  Sb  Sb12  1  0.695512  0.250000  0.000000  1
  Sb  Sb13  1  0.304488  0.750000  0.000000  1
  Re  Re14  1  0.586066  0.609265  0.637365  1
  Re  Re15  1  0.948702  0.890735  0.362635  1
  Re  Re16  1  0.413934  0.390735  0.362635  1
  Re  Re17  1  0.051298  0.109265  0.637365  1
