# generated using pymatgen
data_KAsSe2
_symmetry_space_group_name_H-M   'P 1'
_cell_length_a   6.87592395
_cell_length_b   6.87885883
_cell_length_c   12.97994774
_cell_angle_alpha   100.59541208
_cell_angle_beta   100.51564756
_cell_angle_gamma   109.50357297
_symmetry_Int_Tables_number   1
_chemical_formula_structural   KAsSe2
_chemical_formula_sum   'K4 As4 Se8'
_cell_volume   548.77758897
_cell_formula_units_Z   4
loop_
 _symmetry_equiv_pos_site_id
 _symmetry_equiv_pos_as_xyz
  1  'x, y, z'
loop_
 _atom_site_type_symbol
 _atom_site_label
 _atom_site_symmetry_multiplicity
 _atom_site_fract_x
 _atom_site_fract_y
 _atom_site_fract_z
 _atom_site_occupancy
  K  K0  1  0.035227  0.045304  0.255504  1
  K  K1  1  0.066897  0.621079  0.495013  1
  K  K2  1  0.983964  0.095257  0.755352  1
  K  K3  1  0.560016  0.128326  0.995220  1
  As  As4  1  0.310483  0.584547  0.176622  1
  As  As5  1  0.579327  0.986263  0.444402  1
  As  As6  1  0.523630  0.371918  0.676853  1
  As  As7  1  0.925570  0.642231  0.944438  1
  Se  Se8  1  0.972228  0.519876  0.208743  1
  Se  Se9  1  0.270748  0.596715  0.983909  1
  Se  Se10  1  0.949511  0.080177  0.497651  1
  Se  Se11  1  0.505820  0.979254  0.247992  1
  Se  Se12  1  0.459276  0.033682  0.708541  1
  Se  Se13  1  0.535212  0.332035  0.483957  1
  Se  Se14  1  0.019817  0.012458  0.997711  1
  Se  Se15  1  0.918573  0.567277  0.747992  1
