# generated using pymatgen
data_Te2Mo3W(SeS2)2
_symmetry_space_group_name_H-M   'P 1'
_cell_length_a   3.30513948
_cell_length_b   3.30525334
_cell_length_c   38.98548217
_cell_angle_alpha   89.99930224
_cell_angle_beta   90.00000000
_cell_angle_gamma   119.99886044
_symmetry_Int_Tables_number   1
_chemical_formula_structural   Te2Mo3W(SeS2)2
_chemical_formula_sum   'Te2 Mo3 W1 Se2 S4'
_cell_volume   368.83580470
_cell_formula_units_Z   1
loop_
 _symmetry_equiv_pos_site_id
 _symmetry_equiv_pos_as_xyz
  1  'x, y, z'
loop_
 _atom_site_type_symbol
 _atom_site_label
 _atom_site_symmetry_multiplicity
 _atom_site_fract_x
 _atom_site_fract_y
 _atom_site_fract_z
 _atom_site_occupancy
  Te  Te0  1  0.333329  0.666659  0.331486  1
  Te  Te1  1  0.333348  0.666696  0.233454  1
  Mo  Mo2  1  0.333363  0.666727  0.092904  1
  Mo  Mo3  1  0.333339  0.666678  0.470034  1
  Mo  Mo4  1  0.666657  0.333315  0.282455  1
  W  W5  1  0.666649  0.333297  0.657516  1
  Se  Se6  1  0.666678  0.333354  0.049827  1
  Se  Se7  1  0.666654  0.333308  0.136000  1
  S  S8  1  0.333345  0.666691  0.696878  1
  S  S9  1  0.666647  0.333293  0.430849  1
  S  S10  1  0.666638  0.333275  0.509181  1
  S  S11  1  0.333353  0.666707  0.618163  1
