# generated using pymatgen
data_SiP2O7
_symmetry_space_group_name_H-M   'P 1'
_cell_length_a   4.34524134
_cell_length_b   7.23264367
_cell_length_c   6.35512734
_cell_angle_alpha   90.00000000
_cell_angle_beta   103.69655833
_cell_angle_gamma   90.00000000
_symmetry_Int_Tables_number   1
_chemical_formula_structural   SiP2O7
_chemical_formula_sum   'Si2 P4 O14'
_cell_volume   194.04673965
_cell_formula_units_Z   2
loop_
 _symmetry_equiv_pos_site_id
 _symmetry_equiv_pos_as_xyz
  1  'x, y, z'
loop_
 _atom_site_type_symbol
 _atom_site_label
 _atom_site_symmetry_multiplicity
 _atom_site_fract_x
 _atom_site_fract_y
 _atom_site_fract_z
 _atom_site_occupancy
  Si  Si0  1  0.500000  -0.000000  -0.000000  1
  Si  Si1  1  0.500000  0.500000  0.500000  1
  P  P2  1  0.887471  0.888524  0.683166  1
  P  P3  1  0.112529  0.388524  0.816834  1
  P  P4  1  0.112529  0.111476  0.316834  1
  P  P5  1  0.887471  0.611476  0.183166  1
  O  O6  1  0.650178  0.010421  0.763105  1
  O  O7  1  0.349822  0.510421  0.736895  1
  O  O8  1  0.349822  0.989579  0.236895  1
  O  O9  1  0.650178  0.489579  0.263105  1
  O  O10  1  0.736476  0.708098  0.591564  1
  O  O11  1  0.263524  0.208098  0.908436  1
  O  O12  1  0.263524  0.291902  0.408436  1
  O  O13  1  0.736476  0.791902  0.091564  1
  O  O14  1  0.190186  0.857577  0.860318  1
  O  O15  1  0.809814  0.357577  0.639682  1
  O  O16  1  0.809814  0.142423  0.139682  1
  O  O17  1  0.190186  0.642423  0.360318  1
  O  O18  1  0.000000  -0.000000  0.500000  1
  O  O19  1  0.000000  0.500000  -0.000000  1
