# generated using pymatgen
data_MgSi7Ir3
_symmetry_space_group_name_H-M   'P 1'
_cell_length_a   7.99258155
_cell_length_b   7.99258154
_cell_length_c   7.99258154
_cell_angle_alpha   56.53912833
_cell_angle_beta   56.53912835
_cell_angle_gamma   56.53912834
_symmetry_Int_Tables_number   1
_chemical_formula_structural   MgSi7Ir3
_chemical_formula_sum   'Mg2 Si14 Ir6'
_cell_volume   332.15769790
_cell_formula_units_Z   2
loop_
 _symmetry_equiv_pos_site_id
 _symmetry_equiv_pos_as_xyz
  1  'x, y, z'
loop_
 _atom_site_type_symbol
 _atom_site_label
 _atom_site_symmetry_multiplicity
 _atom_site_fract_x
 _atom_site_fract_y
 _atom_site_fract_z
 _atom_site_occupancy
  Mg  Mg0  1  0.500000  0.500000  0.500000  1
  Mg  Mg1  1  0.000000  0.000000  0.000000  1
  Si  Si2  1  0.064687  0.850110  0.672958  1
  Si  Si3  1  0.850110  0.672958  0.064687  1
  Si  Si4  1  0.672958  0.064687  0.850110  1
  Si  Si5  1  0.827042  0.649890  0.435313  1
  Si  Si6  1  0.250000  0.250000  0.250000  1
  Si  Si7  1  0.750000  0.750000  0.750000  1
  Si  Si8  1  0.564687  0.172958  0.350110  1
  Si  Si9  1  0.350110  0.564687  0.172958  1
  Si  Si10  1  0.172958  0.350110  0.564687  1
  Si  Si11  1  0.327042  0.935313  0.149890  1
  Si  Si12  1  0.149890  0.327042  0.935313  1
  Si  Si13  1  0.935313  0.149890  0.327042  1
  Si  Si14  1  0.435313  0.827042  0.649890  1
  Si  Si15  1  0.649890  0.435313  0.827042  1
  Ir  Ir16  1  0.073807  0.750000  0.426193  1
  Ir  Ir17  1  0.750000  0.426193  0.073807  1
  Ir  Ir18  1  0.426193  0.073807  0.750000  1
  Ir  Ir19  1  0.926193  0.250000  0.573807  1
  Ir  Ir20  1  0.250000  0.573807  0.926193  1
  Ir  Ir21  1  0.573807  0.926193  0.250000  1
