# generated using pymatgen
data_WS2
_symmetry_space_group_name_H-M   'P 1'
_cell_length_a   3.19073100
_cell_length_b   3.19073066
_cell_length_c   38.40480400
_cell_angle_alpha   90.00000000
_cell_angle_beta   90.00000000
_cell_angle_gamma   60.00000685
_symmetry_Int_Tables_number   1
_chemical_formula_structural   WS2
_chemical_formula_sum   'W4 S8'
_cell_volume   338.60748354
_cell_formula_units_Z   4
loop_
 _symmetry_equiv_pos_site_id
 _symmetry_equiv_pos_as_xyz
  1  'x, y, z'
loop_
 _atom_site_type_symbol
 _atom_site_label
 _atom_site_symmetry_multiplicity
 _atom_site_fract_x
 _atom_site_fract_y
 _atom_site_fract_z
 _atom_site_occupancy
  W  W0  1  0.666666  0.666667  0.277356  1
  W  W1  1  0.666666  0.666667  0.647164  1
  W  W2  1  0.333334  0.333333  0.092452  1
  W  W3  1  0.333334  0.333333  0.462260  1
  S  S4  1  0.666666  0.666667  0.051493  1
  S  S5  1  0.666666  0.666667  0.421301  1
  S  S6  1  0.333334  0.333333  0.236396  1
  S  S7  1  0.333334  0.333333  0.606204  1
  S  S8  1  0.666666  0.666667  0.133411  1
  S  S9  1  0.666666  0.666667  0.503219  1
  S  S10  1  0.333334  0.333333  0.318316  1
  S  S11  1  0.333334  0.333333  0.688124  1
