# generated using pymatgen
data_Er2Ge2O7
_symmetry_space_group_name_H-M   'P 1'
_cell_length_a   6.82707987
_cell_length_b   6.82707987
_cell_length_c   12.43309573
_cell_angle_alpha   90.00000000
_cell_angle_beta   90.00000000
_cell_angle_gamma   90.00000000
_symmetry_Int_Tables_number   1
_chemical_formula_structural   Er2Ge2O7
_chemical_formula_sum   'Er8 Ge8 O28'
_cell_volume   579.49440196
_cell_formula_units_Z   4
loop_
 _symmetry_equiv_pos_site_id
 _symmetry_equiv_pos_as_xyz
  1  'x, y, z'
loop_
 _atom_site_type_symbol
 _atom_site_label
 _atom_site_symmetry_multiplicity
 _atom_site_fract_x
 _atom_site_fract_y
 _atom_site_fract_z
 _atom_site_occupancy
  O  O0  1  0.856918  0.319023  0.955559  1
  O  O1  1  0.143082  0.680977  0.455559  1
  O  O2  1  0.319023  0.856918  0.044441  1
  O  O3  1  0.819023  0.643082  0.705559  1
  O  O4  1  0.180977  0.356918  0.205559  1
  O  O5  1  0.643082  0.819023  0.294441  1
  O  O6  1  0.356918  0.180977  0.794441  1
  O  O7  1  0.680977  0.143082  0.544441  1
  O  O8  1  0.661715  0.934524  0.929234  1
  O  O9  1  0.338285  0.065476  0.429234  1
  O  O10  1  0.934524  0.661715  0.070766  1
  O  O11  1  0.434524  0.838285  0.679234  1
  O  O12  1  0.565476  0.161715  0.179234  1
  O  O13  1  0.838285  0.434524  0.320766  1
  O  O14  1  0.161715  0.565476  0.820766  1
  O  O15  1  0.065476  0.338285  0.570766  1
  O  O16  1  0.803589  0.196411  0.750000  1
  O  O17  1  0.303589  0.303589  0.000000  1
  O  O18  1  0.696411  0.696411  0.500000  1
  O  O19  1  0.196411  0.803589  0.250000  1
  O  O20  1  0.079271  0.966450  0.622189  1
  O  O21  1  0.533550  0.579271  0.872189  1
  O  O22  1  0.466450  0.420729  0.372189  1
  O  O23  1  0.579271  0.533550  0.127811  1
  O  O24  1  0.420729  0.466450  0.627811  1
  O  O25  1  0.920729  0.033550  0.122189  1
  O  O26  1  0.966450  0.079271  0.377811  1
  O  O27  1  0.033550  0.920729  0.877811  1
  Ge  Ge28  1  0.848953  0.099690  0.881492  1
  Ge  Ge29  1  0.151047  0.900310  0.381492  1
  Ge  Ge30  1  0.099690  0.848953  0.118508  1
  Ge  Ge31  1  0.599690  0.651047  0.631492  1
  Ge  Ge32  1  0.400310  0.348953  0.131492  1
  Ge  Ge33  1  0.651047  0.599690  0.368508  1
  Ge  Ge34  1  0.348953  0.400310  0.868508  1
  Ge  Ge35  1  0.900310  0.151047  0.618508  1
  Er  Er36  1  0.646020  0.125790  0.364977  1
  Er  Er37  1  0.353980  0.874210  0.864977  1
  Er  Er38  1  0.125790  0.646020  0.635023  1
  Er  Er39  1  0.625790  0.853980  0.114977  1
  Er  Er40  1  0.374210  0.146020  0.614977  1
  Er  Er41  1  0.853980  0.625790  0.885023  1
  Er  Er42  1  0.146020  0.374210  0.385023  1
  Er  Er43  1  0.874210  0.353980  0.135023  1
