# generated using pymatgen
data_La2MgRhO6
_symmetry_space_group_name_H-M   'P 1'
_cell_length_a   5.59247917
_cell_length_b   5.71300180
_cell_length_c   7.93920349
_cell_angle_alpha   90.00000000
_cell_angle_beta   89.90094916
_cell_angle_gamma   90.00000000
_symmetry_Int_Tables_number   1
_chemical_formula_structural   La2MgRhO6
_chemical_formula_sum   'La4 Mg2 Rh2 O12'
_cell_volume   253.65593078
_cell_formula_units_Z   2
loop_
 _symmetry_equiv_pos_site_id
 _symmetry_equiv_pos_as_xyz
  1  'x, y, z'
loop_
 _atom_site_type_symbol
 _atom_site_label
 _atom_site_symmetry_multiplicity
 _atom_site_fract_x
 _atom_site_fract_y
 _atom_site_fract_z
 _atom_site_occupancy
  O  O0  1  0.913045  0.523740  0.752680  1
  O  O1  1  0.586955  0.023740  0.747320  1
  O  O2  1  0.086955  0.476260  0.247320  1
  O  O3  1  0.413045  0.976260  0.252680  1
  O  O4  1  0.791094  0.795159  0.453231  1
  O  O5  1  0.708906  0.295159  0.046769  1
  O  O6  1  0.208906  0.204841  0.546769  1
  O  O7  1  0.291094  0.704841  0.953231  1
  O  O8  1  0.201616  0.210294  0.953102  1
  O  O9  1  0.298384  0.710294  0.546898  1
  O  O10  1  0.798384  0.789706  0.046898  1
  O  O11  1  0.701616  0.289706  0.453102  1
  Mg  Mg12  1  0.500000  0.000000  0.000000  1
  Mg  Mg13  1  0.000000  0.500000  0.500000  1
  Rh  Rh14  1  0.000000  0.500000  0.000000  1
  Rh  Rh15  1  0.500000  0.000000  0.500000  1
  La  La16  1  0.010618  0.951824  0.749435  1
  La  La17  1  0.489382  0.451824  0.750565  1
  La  La18  1  0.989382  0.048176  0.250565  1
  La  La19  1  0.510618  0.548176  0.249435  1
