# generated using pymatgen
data_Rb5GeP3
_symmetry_space_group_name_H-M   'P 1'
_cell_length_a   5.49343313
_cell_length_b   15.71328435
_cell_length_c   14.98090591
_cell_angle_alpha   90.00000000
_cell_angle_beta   90.00000000
_cell_angle_gamma   90.00000000
_symmetry_Int_Tables_number   1
_chemical_formula_structural   Rb5GeP3
_chemical_formula_sum   'Rb20 Ge4 P12'
_cell_volume   1293.14995294
_cell_formula_units_Z   4
loop_
 _symmetry_equiv_pos_site_id
 _symmetry_equiv_pos_as_xyz
  1  'x, y, z'
loop_
 _atom_site_type_symbol
 _atom_site_label
 _atom_site_symmetry_multiplicity
 _atom_site_fract_x
 _atom_site_fract_y
 _atom_site_fract_z
 _atom_site_occupancy
  P  P0  1  0.250000  0.863244  0.792060  1
  P  P1  1  0.750000  0.136756  0.207940  1
  P  P2  1  0.250000  0.363244  0.707940  1
  P  P3  1  0.750000  0.636756  0.292060  1
  P  P4  1  0.250000  0.845000  0.055602  1
  P  P5  1  0.750000  0.155000  0.944398  1
  P  P6  1  0.250000  0.345000  0.444398  1
  P  P7  1  0.750000  0.655000  0.555602  1
  P  P8  1  0.250000  0.633446  0.910980  1
  P  P9  1  0.750000  0.366554  0.089020  1
  P  P10  1  0.250000  0.133446  0.589020  1
  P  P11  1  0.750000  0.866554  0.410980  1
  Ge  Ge12  1  0.250000  0.780328  0.918844  1
  Ge  Ge13  1  0.750000  0.219672  0.081156  1
  Ge  Ge14  1  0.250000  0.280328  0.581156  1
  Ge  Ge15  1  0.750000  0.719672  0.418844  1
  Rb  Rb16  1  0.750000  0.984581  0.619375  1
  Rb  Rb17  1  0.250000  0.015419  0.380625  1
  Rb  Rb18  1  0.750000  0.484581  0.880625  1
  Rb  Rb19  1  0.250000  0.515419  0.119375  1
  Rb  Rb20  1  0.250000  0.765479  0.269792  1
  Rb  Rb21  1  0.750000  0.234521  0.730208  1
  Rb  Rb22  1  0.250000  0.265479  0.230208  1
  Rb  Rb23  1  0.750000  0.734521  0.769792  1
  Rb  Rb24  1  0.250000  0.304211  0.940276  1
  Rb  Rb25  1  0.750000  0.695789  0.059724  1
  Rb  Rb26  1  0.250000  0.804211  0.559724  1
  Rb  Rb27  1  0.750000  0.195789  0.440276  1
  Rb  Rb28  1  0.250000  0.084304  0.815723  1
  Rb  Rb29  1  0.750000  0.915696  0.184277  1
  Rb  Rb30  1  0.250000  0.584304  0.684277  1
  Rb  Rb31  1  0.750000  0.415696  0.315723  1
  Rb  Rb32  1  0.250000  0.067325  0.072060  1
  Rb  Rb33  1  0.750000  0.932675  0.927940  1
  Rb  Rb34  1  0.250000  0.567325  0.427940  1
  Rb  Rb35  1  0.750000  0.432675  0.572060  1
