# generated using pymatgen
data_Sr3(GeAs2)2
_symmetry_space_group_name_H-M   'P 1'
_cell_length_a   7.55979599
_cell_length_b   7.71029588
_cell_length_c   18.76899817
_cell_angle_alpha   90.00000000
_cell_angle_beta   90.00000000
_cell_angle_gamma   111.87512201
_symmetry_Int_Tables_number   1
_chemical_formula_structural   Sr3(GeAs2)2
_chemical_formula_sum   'Sr12 Ge8 As16'
_cell_volume   1015.24137313
_cell_formula_units_Z   4
loop_
 _symmetry_equiv_pos_site_id
 _symmetry_equiv_pos_as_xyz
  1  'x, y, z'
loop_
 _atom_site_type_symbol
 _atom_site_label
 _atom_site_symmetry_multiplicity
 _atom_site_fract_x
 _atom_site_fract_y
 _atom_site_fract_z
 _atom_site_occupancy
  Ge  Ge0  1  0.527990  0.212506  0.628529  1
  Ge  Ge1  1  0.972010  0.787494  0.128529  1
  Ge  Ge2  1  0.027990  0.212506  0.871471  1
  Ge  Ge3  1  0.472010  0.787494  0.371471  1
  Ge  Ge4  1  0.914610  0.314764  0.759656  1
  Ge  Ge5  1  0.585390  0.685236  0.259656  1
  Ge  Ge6  1  0.085390  0.685236  0.240344  1
  Ge  Ge7  1  0.414610  0.314764  0.740344  1
  As  As8  1  0.219122  0.040452  0.814057  1
  As  As9  1  0.280878  0.959548  0.314057  1
  As  As10  1  0.780878  0.959548  0.185943  1
  As  As11  1  0.719122  0.040452  0.685943  1
  As  As12  1  0.752160  0.007958  0.939330  1
  As  As13  1  0.747840  0.992042  0.439330  1
  As  As14  1  0.247840  0.992042  0.060670  1
  As  As15  1  0.252160  0.007958  0.560670  1
  As  As16  1  0.241383  0.496843  0.932126  1
  As  As17  1  0.258617  0.503157  0.432126  1
  As  As18  1  0.741383  0.496843  0.567874  1
  As  As19  1  0.758617  0.503157  0.067874  1
  As  As20  1  0.723567  0.502202  0.801885  1
  As  As21  1  0.776433  0.497798  0.301885  1
  As  As22  1  0.276433  0.497798  0.198115  1
  As  As23  1  0.223567  0.502202  0.698115  1
  Sr  Sr24  1  0.987433  0.782100  0.684545  1
  Sr  Sr25  1  0.512567  0.217900  0.184545  1
  Sr  Sr26  1  0.012567  0.217900  0.315455  1
  Sr  Sr27  1  0.487433  0.782100  0.815455  1
  Sr  Sr28  1  0.002318  0.260852  0.560230  1
  Sr  Sr29  1  0.497682  0.739148  0.060230  1
  Sr  Sr30  1  0.997682  0.739148  0.439770  1
  Sr  Sr31  1  0.502318  0.260852  0.939770  1
  Sr  Sr32  1  0.488413  0.744850  0.561339  1
  Sr  Sr33  1  0.011587  0.255150  0.061339  1
  Sr  Sr34  1  0.511587  0.255150  0.438661  1
  Sr  Sr35  1  0.988413  0.744850  0.938661  1
