# generated using pymatgen
data_MoW3(SeS)4
_symmetry_space_group_name_H-M   'P 1'
_cell_length_a   3.25285505
_cell_length_b   3.25282235
_cell_length_c   36.88341667
_cell_angle_alpha   90.00005919
_cell_angle_beta   90.00000000
_cell_angle_gamma   120.00033262
_symmetry_Int_Tables_number   1
_chemical_formula_structural   MoW3(SeS)4
_chemical_formula_sum   'Mo1 W3 Se4 S4'
_cell_volume   337.97562342
_cell_formula_units_Z   1
loop_
 _symmetry_equiv_pos_site_id
 _symmetry_equiv_pos_as_xyz
  1  'x, y, z'
loop_
 _atom_site_type_symbol
 _atom_site_label
 _atom_site_symmetry_multiplicity
 _atom_site_fract_x
 _atom_site_fract_y
 _atom_site_fract_z
 _atom_site_occupancy
  Mo  Mo0  1  0.333310  0.666619  0.093910  1
  W  W1  1  0.333309  0.666619  0.469657  1
  W  W2  1  0.666691  0.333382  0.281796  1
  W  W3  1  0.666690  0.333381  0.657545  1
  Se  Se4  1  0.666633  0.333265  0.047865  1
  Se  Se5  1  0.666645  0.333289  0.423329  1
  Se  Se6  1  0.666649  0.333296  0.139957  1
  Se  Se7  1  0.666649  0.333297  0.516013  1
  S  S8  1  0.333355  0.666712  0.323849  1
  S  S9  1  0.333355  0.666712  0.699609  1
  S  S10  1  0.333356  0.666713  0.239744  1
  S  S11  1  0.333357  0.666716  0.615475  1
