# generated using pymatgen
data_Rb2TaCuS4
_symmetry_space_group_name_H-M   'P 1'
_cell_length_a   5.61263147
_cell_length_b   7.46811409
_cell_length_c   12.48279418
_cell_angle_alpha   85.15391673
_cell_angle_beta   77.00801744
_cell_angle_gamma   67.92790219
_symmetry_Int_Tables_number   1
_chemical_formula_structural   Rb2TaCuS4
_chemical_formula_sum   'Rb4 Ta2 Cu2 S8'
_cell_volume   472.46745943
_cell_formula_units_Z   2
loop_
 _symmetry_equiv_pos_site_id
 _symmetry_equiv_pos_as_xyz
  1  'x, y, z'
loop_
 _atom_site_type_symbol
 _atom_site_label
 _atom_site_symmetry_multiplicity
 _atom_site_fract_x
 _atom_site_fract_y
 _atom_site_fract_z
 _atom_site_occupancy
  S  S0  1  0.091161  0.440997  0.143068  1
  S  S1  1  0.175226  0.059003  0.356932  1
  S  S2  1  0.824774  0.940997  0.643068  1
  S  S3  1  0.908839  0.559003  0.856932  1
  S  S4  1  0.234229  0.940997  0.856932  1
  S  S5  1  0.532158  0.559003  0.643068  1
  S  S6  1  0.467842  0.440997  0.356932  1
  S  S7  1  0.765771  0.059003  0.143068  1
  Cu  Cu8  1  0.125000  0.750000  0.750000  1
  Cu  Cu9  1  0.875000  0.250000  0.250000  1
  Rb  Rb10  1  0.802512  0.750000  0.394976  1
  Rb  Rb11  1  0.447488  0.750000  0.105024  1
  Rb  Rb12  1  0.197488  0.250000  0.605024  1
  Rb  Rb13  1  0.552512  0.250000  0.894976  1
  Ta  Ta14  1  0.625000  0.750000  0.750000  1
  Ta  Ta15  1  0.375000  0.250000  0.250000  1
