# generated using pymatgen
data_Sr3P14
_symmetry_space_group_name_H-M   'P 1'
_cell_length_a   6.38560753
_cell_length_b   9.96760240
_cell_length_c   12.87291611
_cell_angle_alpha   90.00000000
_cell_angle_beta   90.00000000
_cell_angle_gamma   89.93481197
_symmetry_Int_Tables_number   1
_chemical_formula_structural   Sr3P14
_chemical_formula_sum   'Sr6 P28'
_cell_volume   819.35024311
_cell_formula_units_Z   2
loop_
 _symmetry_equiv_pos_site_id
 _symmetry_equiv_pos_as_xyz
  1  'x, y, z'
loop_
 _atom_site_type_symbol
 _atom_site_label
 _atom_site_symmetry_multiplicity
 _atom_site_fract_x
 _atom_site_fract_y
 _atom_site_fract_z
 _atom_site_occupancy
  P  P0  1  0.338399  0.048670  0.676252  1
  P  P1  1  0.161601  0.451330  0.176252  1
  P  P2  1  0.661601  0.951330  0.323748  1
  P  P3  1  0.838399  0.548670  0.823748  1
  P  P4  1  0.580031  0.140407  0.582594  1
  P  P5  1  0.919969  0.359593  0.082594  1
  P  P6  1  0.419969  0.859593  0.417406  1
  P  P7  1  0.080031  0.640407  0.917406  1
  P  P8  1  0.151255  0.229374  0.709230  1
  P  P9  1  0.348745  0.270626  0.209230  1
  P  P10  1  0.848745  0.770626  0.290770  1
  P  P11  1  0.651255  0.729374  0.790770  1
  P  P12  1  0.107926  0.319514  0.553372  1
  P  P13  1  0.392074  0.180486  0.053372  1
  P  P14  1  0.892074  0.680486  0.446628  1
  P  P15  1  0.607926  0.819514  0.946628  1
  P  P16  1  0.396039  0.361273  0.774099  1
  P  P17  1  0.103961  0.138727  0.274099  1
  P  P18  1  0.603961  0.638727  0.225901  1
  P  P19  1  0.896039  0.861273  0.725901  1
  P  P20  1  0.067025  0.183111  0.003695  1
  P  P21  1  0.432975  0.316889  0.503695  1
  P  P22  1  0.932975  0.816889  0.996305  1
  P  P23  1  0.567025  0.683111  0.496305  1
  P  P24  1  0.623440  0.352764  0.648539  1
  P  P25  1  0.876560  0.147236  0.148539  1
  P  P26  1  0.376560  0.647236  0.351461  1
  P  P27  1  0.123440  0.852764  0.851461  1
  Sr  Sr28  1  0.500000  0.500000  0.000000  1
  Sr  Sr29  1  0.000000  0.000000  0.500000  1
  Sr  Sr30  1  0.692735  0.110282  0.841301  1
  Sr  Sr31  1  0.807265  0.389718  0.341301  1
  Sr  Sr32  1  0.307265  0.889718  0.158699  1
  Sr  Sr33  1  0.192735  0.610282  0.658699  1
