# generated using pymatgen
data_TeW2SeS2
_symmetry_space_group_name_H-M   'P 1'
_cell_length_a   3.30636582
_cell_length_b   3.30633638
_cell_length_c   37.66752258
_cell_angle_alpha   90.00028531
_cell_angle_beta   90.00000000
_cell_angle_gamma   120.00029455
_symmetry_Int_Tables_number   1
_chemical_formula_structural   TeW2SeS2
_chemical_formula_sum   'Te2 W4 Se2 S4'
_cell_volume   356.61067415
_cell_formula_units_Z   2
loop_
 _symmetry_equiv_pos_site_id
 _symmetry_equiv_pos_as_xyz
  1  'x, y, z'
loop_
 _atom_site_type_symbol
 _atom_site_label
 _atom_site_symmetry_multiplicity
 _atom_site_fract_x
 _atom_site_fract_y
 _atom_site_fract_z
 _atom_site_occupancy
  Te  Te0  1  0.333355  0.666712  0.708571  1
  Te  Te1  1  0.333352  0.666705  0.606520  1
  W  W2  1  0.333311  0.666623  0.093922  1
  W  W3  1  0.333308  0.666617  0.469646  1
  W  W4  1  0.666689  0.333378  0.281805  1
  W  W5  1  0.666691  0.333382  0.657564  1
  Se  Se6  1  0.333367  0.666736  0.326551  1
  Se  Se7  1  0.333349  0.666699  0.237035  1
  S  S8  1  0.666647  0.333293  0.053216  1
  S  S9  1  0.666641  0.333281  0.428947  1
  S  S10  1  0.666647  0.333293  0.134625  1
  S  S11  1  0.666641  0.333282  0.510347  1
