# generated using pymatgen
data_Sr2YIrO6
_symmetry_space_group_name_H-M   'P 1'
_cell_length_a   5.82488568
_cell_length_b   5.87991000
_cell_length_c   8.27062644
_cell_angle_alpha   90.00000000
_cell_angle_beta   90.38549777
_cell_angle_gamma   90.00000000
_symmetry_Int_Tables_number   1
_chemical_formula_structural   Sr2YIrO6
_chemical_formula_sum   'Sr4 Y2 Ir2 O12'
_cell_volume   283.26091942
_cell_formula_units_Z   2
loop_
 _symmetry_equiv_pos_site_id
 _symmetry_equiv_pos_as_xyz
  1  'x, y, z'
loop_
 _atom_site_type_symbol
 _atom_site_label
 _atom_site_symmetry_multiplicity
 _atom_site_fract_x
 _atom_site_fract_y
 _atom_site_fract_z
 _atom_site_occupancy
  O  O0  1  0.927570  0.518149  0.734753  1
  O  O1  1  0.572430  0.018149  0.765247  1
  O  O2  1  0.072430  0.481851  0.265247  1
  O  O3  1  0.427570  0.981851  0.234753  1
  O  O4  1  0.803539  0.772219  0.460586  1
  O  O5  1  0.696461  0.272219  0.039414  1
  O  O6  1  0.196461  0.227781  0.539414  1
  O  O7  1  0.303539  0.727781  0.960586  1
  O  O8  1  0.228651  0.199585  0.962542  1
  O  O9  1  0.271349  0.699585  0.537458  1
  O  O10  1  0.771349  0.800415  0.037458  1
  O  O11  1  0.728651  0.300415  0.462542  1
  Sr  Sr12  1  0.007910  0.964100  0.749209  1
  Sr  Sr13  1  0.492090  0.464100  0.750791  1
  Sr  Sr14  1  0.992090  0.035900  0.250791  1
  Sr  Sr15  1  0.507910  0.535900  0.249209  1
  Y  Y16  1  0.000000  0.500000  0.000000  1
  Y  Y17  1  0.500000  0.000000  0.500000  1
  Ir  Ir18  1  0.500000  0.000000  0.000000  1
  Ir  Ir19  1  0.000000  0.500000  0.500000  1
