# generated using pymatgen
data_Te2MoWSeS
_symmetry_space_group_name_H-M   'P 1'
_cell_length_a   3.39441127
_cell_length_b   3.39452294
_cell_length_c   40.22552389
_cell_angle_alpha   90.00319987
_cell_angle_beta   90.00000000
_cell_angle_gamma   119.99891188
_symmetry_Int_Tables_number   1
_chemical_formula_structural   Te2MoWSeS
_chemical_formula_sum   'Te4 Mo2 W2 Se2 S2'
_cell_volume   401.40271910
_cell_formula_units_Z   2
loop_
 _symmetry_equiv_pos_site_id
 _symmetry_equiv_pos_as_xyz
  1  'x, y, z'
loop_
 _atom_site_type_symbol
 _atom_site_label
 _atom_site_symmetry_multiplicity
 _atom_site_fract_x
 _atom_site_fract_y
 _atom_site_fract_z
 _atom_site_occupancy
  Te  Te0  1  0.333373  0.666747  0.329619  1
  Te  Te1  1  0.666713  0.333425  0.045673  1
  Te  Te2  1  0.666714  0.333427  0.138894  1
  Te  Te3  1  0.333330  0.666661  0.236427  1
  Mo  Mo4  1  0.333367  0.666735  0.092266  1
  Mo  Mo5  1  0.666694  0.333388  0.283012  1
  W  W6  1  0.333207  0.666415  0.470162  1
  W  W7  1  0.666743  0.333487  0.657480  1
  Se  Se8  1  0.666519  0.333036  0.428971  1
  Se  Se9  1  0.666581  0.333160  0.511293  1
  S  S10  1  0.333392  0.666785  0.694980  1
  S  S11  1  0.333367  0.666734  0.619973  1
