# generated using pymatgen
data_Ca2CoWO6
_symmetry_space_group_name_H-M   'P 1'
_cell_length_a   5.47878509
_cell_length_b   5.67181536
_cell_length_c   7.81113150
_cell_angle_alpha   90.00000000
_cell_angle_beta   90.52751116
_cell_angle_gamma   90.00000000
_symmetry_Int_Tables_number   1
_chemical_formula_structural   Ca2CoWO6
_chemical_formula_sum   'Ca4 Co2 W2 O12'
_cell_volume   242.71794811
_cell_formula_units_Z   2
loop_
 _symmetry_equiv_pos_site_id
 _symmetry_equiv_pos_as_xyz
  1  'x, y, z'
loop_
 _atom_site_type_symbol
 _atom_site_label
 _atom_site_symmetry_multiplicity
 _atom_site_fract_x
 _atom_site_fract_y
 _atom_site_fract_z
 _atom_site_occupancy
  Ca  Ca0  1  0.985276  0.056159  0.253438  1
  Ca  Ca1  1  0.514724  0.556160  0.246562  1
  Ca  Ca2  1  0.014725  0.943842  0.746562  1
  Ca  Ca3  1  0.485275  0.443841  0.753438  1
  Co  Co4  1  0.500000  0.000000  0.000000  1
  Co  Co5  1  0.000001  0.499999  0.500000  1
  W  W6  1  0.500000  0.000000  0.499999  1
  W  W7  1  0.000000  0.499999  0.000000  1
  O  O8  1  0.688710  0.283003  0.446697  1
  O  O9  1  0.811290  0.783004  0.053303  1
  O  O10  1  0.311289  0.716997  0.553303  1
  O  O11  1  0.188711  0.216996  0.946697  1
  O  O12  1  0.211514  0.193251  0.545085  1
  O  O13  1  0.288486  0.693250  0.954915  1
  O  O14  1  0.788487  0.806749  0.454915  1
  O  O15  1  0.711513  0.306750  0.045085  1
  O  O16  1  0.094929  0.468609  0.240974  1
  O  O17  1  0.405072  0.968610  0.259025  1
  O  O18  1  0.594929  0.031390  0.740975  1
  O  O19  1  0.905072  0.531391  0.759026  1
