# generated using pymatgen
data_Zr4Fe4Si7
_symmetry_space_group_name_H-M   'P 1'
_cell_length_a   5.04516534
_cell_length_b   9.58748853
_cell_length_c   9.58748853
_cell_angle_alpha   86.03035894
_cell_angle_beta   74.74520618
_cell_angle_gamma   74.74520614
_symmetry_Int_Tables_number   1
_chemical_formula_structural   Zr4Fe4Si7
_chemical_formula_sum   'Zr8 Fe8 Si14'
_cell_volume   431.64675412
_cell_formula_units_Z   2
loop_
 _symmetry_equiv_pos_site_id
 _symmetry_equiv_pos_as_xyz
  1  'x, y, z'
loop_
 _atom_site_type_symbol
 _atom_site_label
 _atom_site_symmetry_multiplicity
 _atom_site_fract_x
 _atom_site_fract_y
 _atom_site_fract_z
 _atom_site_occupancy
  Si  Si0  1  0.749918  0.000000  0.000000  1
  Si  Si1  1  0.250082  0.000000  0.000000  1
  Si  Si2  1  0.091226  0.408774  0.408774  1
  Si  Si3  1  0.500000  0.591226  0.408774  1
  Si  Si4  1  0.500000  0.408774  0.591226  1
  Si  Si5  1  0.908774  0.591226  0.591226  1
  Si  Si6  1  0.699553  0.300447  0.300447  1
  Si  Si7  1  0.000000  0.699553  0.300447  1
  Si  Si8  1  0.710468  0.000000  0.579064  1
  Si  Si9  1  0.289532  0.420936  0.000000  1
  Si  Si10  1  0.300447  0.699553  0.699553  1
  Si  Si11  1  0.710468  0.579064  0.000000  1
  Si  Si12  1  0.289532  0.000000  0.420936  1
  Si  Si13  1  0.000000  0.300447  0.699553  1
  Fe  Fe14  1  0.102155  0.795690  0.500000  1
  Fe  Fe15  1  0.897845  0.500000  0.204310  1
  Fe  Fe16  1  0.602155  0.500000  0.795690  1
  Fe  Fe17  1  0.102155  0.500000  0.795690  1
  Fe  Fe18  1  0.602155  0.795690  0.500000  1
  Fe  Fe19  1  0.397845  0.500000  0.204310  1
  Fe  Fe20  1  0.897845  0.204310  0.500000  1
  Fe  Fe21  1  0.397845  0.204310  0.500000  1
  Zr  Zr22  1  0.696459  0.803541  0.803541  1
  Zr  Zr23  1  0.500000  0.196459  0.803541  1
  Zr  Zr24  1  0.500000  0.803541  0.196459  1
  Zr  Zr25  1  0.303541  0.196459  0.196459  1
  Zr  Zr26  1  0.861937  0.000000  0.276125  1
  Zr  Zr27  1  0.138063  0.723875  0.000000  1
  Zr  Zr28  1  0.861937  0.276125  0.000000  1
  Zr  Zr29  1  0.138063  0.000000  0.723875  1
