# generated using pymatgen
data_CeGa2Ni
_symmetry_space_group_name_H-M   'P 1'
_cell_length_a   4.12831373
_cell_length_b   4.17083074
_cell_length_c   8.98071210
_cell_angle_alpha   103.42724632
_cell_angle_beta   90.00000000
_cell_angle_gamma   90.00000000
_symmetry_Int_Tables_number   1
_chemical_formula_structural   CeGa2Ni
_chemical_formula_sum   'Ce2 Ga4 Ni2'
_cell_volume   150.40752812
_cell_formula_units_Z   2
loop_
 _symmetry_equiv_pos_site_id
 _symmetry_equiv_pos_as_xyz
  1  'x, y, z'
loop_
 _atom_site_type_symbol
 _atom_site_label
 _atom_site_symmetry_multiplicity
 _atom_site_fract_x
 _atom_site_fract_y
 _atom_site_fract_z
 _atom_site_occupancy
  Ce  Ce0  1  0.500000  0.358847  0.717695  1
  Ce  Ce1  1  0.500000  0.641153  0.282305  1
  Ga  Ga2  1  -0.000000  0.210218  0.420436  1
  Ga  Ga3  1  0.000000  0.789782  0.579564  1
  Ga  Ga4  1  0.500000  0.000000  0.000000  1
  Ga  Ga5  1  0.000000  0.500000  0.000000  1
  Ni  Ni6  1  -0.000000  0.074449  0.148897  1
  Ni  Ni7  1  -0.000000  0.925551  0.851103  1
