# generated using pymatgen
data_Na5Nd(WO4)4
_symmetry_space_group_name_H-M   'P 1'
_cell_length_a   10.14426861
_cell_length_b   10.14426861
_cell_length_c   10.14426860
_cell_angle_alpha   109.01996596
_cell_angle_beta   109.01996592
_cell_angle_gamma   110.37754936
_symmetry_Int_Tables_number   1
_chemical_formula_structural   Na5Nd(WO4)4
_chemical_formula_sum   'Na10 Nd2 W8 O32'
_cell_volume   803.44965968
_cell_formula_units_Z   2
loop_
 _symmetry_equiv_pos_site_id
 _symmetry_equiv_pos_as_xyz
  1  'x, y, z'
loop_
 _atom_site_type_symbol
 _atom_site_label
 _atom_site_symmetry_multiplicity
 _atom_site_fract_x
 _atom_site_fract_y
 _atom_site_fract_z
 _atom_site_occupancy
  O  O0  1  0.799006  0.169828  0.926030  1
  O  O1  1  0.669828  0.243797  0.370821  1
  O  O2  1  0.372976  0.299007  0.129179  1
  O  O3  1  0.743797  0.872976  0.573970  1
  O  O4  1  0.200994  0.830172  0.073970  1
  O  O5  1  0.330173  0.756203  0.629179  1
  O  O6  1  0.627024  0.700994  0.870821  1
  O  O7  1  0.256203  0.127024  0.426030  1
  O  O8  1  0.853777  0.505641  0.984470  1
  O  O9  1  0.005641  0.521171  0.651863  1
  O  O10  1  0.369307  0.353778  0.848137  1
  O  O11  1  0.021171  0.869308  0.515530  1
  O  O12  1  0.146222  0.494360  0.015529  1
  O  O13  1  0.994360  0.478829  0.348137  1
  O  O14  1  0.630692  0.646222  0.151863  1
  O  O15  1  0.978829  0.130693  0.484470  1
  O  O16  1  0.547914  0.196385  0.714500  1
  O  O17  1  0.696385  0.481885  0.648471  1
  O  O18  1  0.333414  0.047914  0.851529  1
  O  O19  1  0.981884  0.833414  0.785500  1
  O  O20  1  0.928534  0.854044  0.196445  1
  O  O21  1  0.354045  0.657599  0.925510  1
  O  O22  1  0.232089  0.428534  0.574490  1
  O  O23  1  0.157599  0.732088  0.303554  1
  O  O24  1  0.071466  0.145956  0.803554  1
  O  O25  1  0.645955  0.342401  0.074489  1
  O  O26  1  0.452086  0.803615  0.285500  1
  O  O27  1  0.842401  0.267911  0.696445  1
  O  O28  1  0.018116  0.166587  0.214501  1
  O  O29  1  0.666586  0.952086  0.148471  1
  O  O30  1  0.303615  0.518115  0.351530  1
  O  O31  1  0.767911  0.571466  0.425510  1
  Na  Na32  1  0.296514  0.962864  0.576493  1
  Na  Na33  1  0.220022  0.796514  0.833650  1
  Na  Na34  1  0.624999  0.874999  0.750000  1
  Na  Na35  1  0.375000  0.125000  0.250000  1
  Na  Na36  1  0.779978  0.203485  0.166349  1
  Na  Na37  1  0.886371  0.720022  0.923508  1
  Na  Na38  1  0.113629  0.279978  0.076492  1
  Na  Na39  1  0.537136  0.613629  0.333651  1
  Na  Na40  1  0.462864  0.386371  0.666349  1
  Na  Na41  1  0.703486  0.037136  0.423508  1
  Nd  Nd42  1  0.875000  0.625000  0.250000  1
  Nd  Nd43  1  0.125000  0.375000  0.750001  1
  W  W44  1  0.045171  0.072649  0.336143  1
  W  W45  1  0.572649  0.736507  0.027479  1
  W  W46  1  0.209027  0.545170  0.472521  1
  W  W47  1  0.236506  0.709027  0.163857  1
  W  W48  1  0.954830  0.927351  0.663858  1
  W  W49  1  0.427351  0.263493  0.972521  1
  W  W50  1  0.790973  0.454830  0.527479  1
  W  W51  1  0.763494  0.290972  0.836142  1
