# generated using pymatgen
data_TmAl4Ni
_symmetry_space_group_name_H-M   'P 1'
_cell_length_a   4.02439169
_cell_length_b   6.65822302
_cell_length_c   7.88136741
_cell_angle_alpha   90.00000000
_cell_angle_beta   104.79198452
_cell_angle_gamma   90.00000000
_symmetry_Int_Tables_number   1
_chemical_formula_structural   TmAl4Ni
_chemical_formula_sum   'Tm2 Al8 Ni2'
_cell_volume   204.18477308
_cell_formula_units_Z   2
loop_
 _symmetry_equiv_pos_site_id
 _symmetry_equiv_pos_as_xyz
  1  'x, y, z'
loop_
 _atom_site_type_symbol
 _atom_site_label
 _atom_site_symmetry_multiplicity
 _atom_site_fract_x
 _atom_site_fract_y
 _atom_site_fract_z
 _atom_site_occupancy
  Al  Al0  1  0.500000  0.000000  0.000000  1
  Al  Al1  1  0.500000  0.500000  0.000000  1
  Al  Al2  1  0.075271  0.250000  0.150542  1
  Al  Al3  1  0.924729  0.750000  0.849458  1
  Al  Al4  1  0.687545  0.053390  0.375090  1
  Al  Al5  1  0.312455  0.946610  0.624910  1
  Al  Al6  1  0.312455  0.553390  0.624910  1
  Al  Al7  1  0.687545  0.446610  0.375090  1
  Ni  Ni8  1  0.227959  0.250000  0.455918  1
  Ni  Ni9  1  0.772041  0.750000  0.544082  1
  Tm  Tm10  1  0.880527  0.250000  0.761054  1
  Tm  Tm11  1  0.119473  0.750000  0.238946  1
