# generated using pymatgen
data_Mo2W(SeS2)2
_symmetry_space_group_name_H-M   'P 1'
_cell_length_a   3.23290398
_cell_length_b   3.23292074
_cell_length_c   30.20289088
_cell_angle_alpha   89.99156883
_cell_angle_beta   90.00000000
_cell_angle_gamma   119.99982852
_symmetry_Int_Tables_number   1
_chemical_formula_structural   Mo2W(SeS2)2
_chemical_formula_sum   'Mo2 W1 Se2 S4'
_cell_volume   273.38063783
_cell_formula_units_Z   1
loop_
 _symmetry_equiv_pos_site_id
 _symmetry_equiv_pos_as_xyz
  1  'x, y, z'
loop_
 _atom_site_type_symbol
 _atom_site_label
 _atom_site_symmetry_multiplicity
 _atom_site_fract_x
 _atom_site_fract_y
 _atom_site_fract_z
 _atom_site_occupancy
  Mo  Mo0  1  0.333205  0.666410  0.112862  1
  Mo  Mo1  1  0.666733  0.333466  0.348244  1
  W  W2  1  0.333308  0.666616  0.579878  1
  Se  Se3  1  0.666698  0.333396  0.056274  1
  Se  Se4  1  0.666510  0.333020  0.169361  1
  S  S5  1  0.333431  0.666864  0.399621  1
  S  S6  1  0.666660  0.333320  0.528287  1
  S  S7  1  0.666764  0.333527  0.631456  1
  S  S8  1  0.333291  0.666583  0.296858  1
