# generated using pymatgen
data_Te4Mo3W(SeS)2
_symmetry_space_group_name_H-M   'P 1'
_cell_length_a   3.39805921
_cell_length_b   3.39795159
_cell_length_c   38.69759025
_cell_angle_alpha   90.00056815
_cell_angle_beta   90.00000000
_cell_angle_gamma   120.00104778
_symmetry_Int_Tables_number   1
_chemical_formula_structural   Te4Mo3W(SeS)2
_chemical_formula_sum   'Te4 Mo3 W1 Se2 S2'
_cell_volume   386.95289273
_cell_formula_units_Z   1
loop_
 _symmetry_equiv_pos_site_id
 _symmetry_equiv_pos_as_xyz
  1  'x, y, z'
loop_
 _atom_site_type_symbol
 _atom_site_label
 _atom_site_symmetry_multiplicity
 _atom_site_fract_x
 _atom_site_fract_y
 _atom_site_fract_z
 _atom_site_occupancy
  Te  Te0  1  0.333349  0.666700  0.705981  1
  Te  Te1  1  0.666641  0.333281  0.045508  1
  Te  Te2  1  0.666653  0.333304  0.142380  1
  Te  Te3  1  0.333347  0.666695  0.609120  1
  Mo  Mo4  1  0.333312  0.666623  0.093911  1
  Mo  Mo5  1  0.666678  0.333356  0.281783  1
  Mo  Mo6  1  0.666687  0.333375  0.657580  1
  W  W7  1  0.333309  0.666619  0.469638  1
  Se  Se8  1  0.666641  0.333280  0.426817  1
  Se  Se9  1  0.666652  0.333303  0.512454  1
  S  S10  1  0.333364  0.666729  0.320595  1
  S  S11  1  0.333367  0.666736  0.242980  1
