# generated using pymatgen
data_Te2MoWSeS
_symmetry_space_group_name_H-M   'P 1'
_cell_length_a   3.39789512
_cell_length_b   3.39792152
_cell_length_c   38.81379127
_cell_angle_alpha   89.99949311
_cell_angle_beta   90.00000000
_cell_angle_gamma   119.99974297
_symmetry_Int_Tables_number   1
_chemical_formula_structural   Te2MoWSeS
_chemical_formula_sum   'Te4 Mo2 W2 Se2 S2'
_cell_volume   388.09776038
_cell_formula_units_Z   2
loop_
 _symmetry_equiv_pos_site_id
 _symmetry_equiv_pos_as_xyz
  1  'x, y, z'
loop_
 _atom_site_type_symbol
 _atom_site_label
 _atom_site_symmetry_multiplicity
 _atom_site_fract_x
 _atom_site_fract_y
 _atom_site_fract_z
 _atom_site_occupancy
  Te  Te0  1  0.333351  0.666704  0.705841  1
  Te  Te1  1  0.666650  0.333300  0.421074  1
  Te  Te2  1  0.666641  0.333280  0.518087  1
  Te  Te3  1  0.333362  0.666724  0.609362  1
  Mo  Mo4  1  0.333313  0.666627  0.093953  1
  Mo  Mo5  1  0.666688  0.333376  0.657637  1
  W  W6  1  0.333307  0.666614  0.469585  1
  W  W7  1  0.666686  0.333372  0.281778  1
  Se  Se8  1  0.333349  0.666698  0.324490  1
  Se  Se9  1  0.333355  0.666711  0.239053  1
  S  S10  1  0.666649  0.333297  0.055214  1
  S  S11  1  0.666649  0.333296  0.132676  1
