# generated using pymatgen
data_CsGaTe2
_symmetry_space_group_name_H-M   'P 1'
_cell_length_a   8.57666492
_cell_length_b   8.57666492
_cell_length_c   18.31801609
_cell_angle_alpha   83.28645489
_cell_angle_beta   83.28645488
_cell_angle_gamma   89.97610300
_symmetry_Int_Tables_number   1
_chemical_formula_structural   CsGaTe2
_chemical_formula_sum   'Cs8 Ga8 Te16'
_cell_volume   1328.92276125
_cell_formula_units_Z   8
loop_
 _symmetry_equiv_pos_site_id
 _symmetry_equiv_pos_as_xyz
  1  'x, y, z'
loop_
 _atom_site_type_symbol
 _atom_site_label
 _atom_site_symmetry_multiplicity
 _atom_site_fract_x
 _atom_site_fract_y
 _atom_site_fract_z
 _atom_site_occupancy
  Ga  Ga0  1  0.914947  0.292549  0.328893  1
  Ga  Ga1  1  0.707200  0.579524  0.171633  1
  Ga  Ga2  1  0.420476  0.292800  0.328367  1
  Ga  Ga3  1  0.292800  0.420476  0.828367  1
  Ga  Ga4  1  0.579524  0.707200  0.671633  1
  Ga  Ga5  1  0.707451  0.085053  0.171107  1
  Ga  Ga6  1  0.085053  0.707451  0.671107  1
  Ga  Ga7  1  0.292549  0.914947  0.828893  1
  Te  Te8  1  0.572467  0.947487  0.750370  1
  Te  Te9  1  0.052513  0.427533  0.749630  1
  Te  Te10  1  0.427533  0.052513  0.249630  1
  Te  Te11  1  0.427202  0.572798  0.250000  1
  Te  Te12  1  0.947487  0.572467  0.250370  1
  Te  Te13  1  0.052400  0.947600  0.750000  1
  Te  Te14  1  0.947600  0.052400  0.250000  1
  Te  Te15  1  0.572798  0.427202  0.750000  1
  Te  Te16  1  0.355576  0.729953  0.580378  1
  Te  Te17  1  0.270047  0.644424  0.919622  1
  Te  Te18  1  0.644424  0.270047  0.419622  1
  Te  Te19  1  0.729953  0.355576  0.080378  1
  Te  Te20  1  0.270348  0.146087  0.917504  1
  Te  Te21  1  0.853913  0.729652  0.582496  1
  Te  Te22  1  0.729652  0.853913  0.082496  1
  Te  Te23  1  0.146087  0.270348  0.417504  1
  Cs  Cs24  1  0.149648  0.775296  0.400582  1
  Cs  Cs25  1  0.224704  0.850352  0.099418  1
  Cs  Cs26  1  0.850352  0.224704  0.599418  1
  Cs  Cs27  1  0.775296  0.149648  0.900582  1
  Cs  Cs28  1  0.222781  0.348024  0.108281  1
  Cs  Cs29  1  0.651976  0.777219  0.391719  1
  Cs  Cs30  1  0.777219  0.651976  0.891719  1
  Cs  Cs31  1  0.348024  0.222781  0.608281  1
