# generated using pymatgen
data_KNaV2O6
_symmetry_space_group_name_H-M   'P 1'
_cell_length_a   5.92526261
_cell_length_b   7.45795267
_cell_length_c   7.45795267
_cell_angle_alpha   87.14977124
_cell_angle_beta   79.47004249
_cell_angle_gamma   79.47004246
_symmetry_Int_Tables_number   1
_chemical_formula_structural   KNaV2O6
_chemical_formula_sum   'K2 Na2 V4 O12'
_cell_volume   318.51715629
_cell_formula_units_Z   2
loop_
 _symmetry_equiv_pos_site_id
 _symmetry_equiv_pos_as_xyz
  1  'x, y, z'
loop_
 _atom_site_type_symbol
 _atom_site_label
 _atom_site_symmetry_multiplicity
 _atom_site_fract_x
 _atom_site_fract_y
 _atom_site_fract_z
 _atom_site_occupancy
  O  O0  1  0.214692  0.080591  0.612126  1
  O  O1  1  0.285309  0.387873  0.919410  1
  O  O2  1  0.785308  0.919409  0.387874  1
  O  O3  1  0.714691  0.612127  0.080590  1
  O  O4  1  0.484946  0.140944  0.168717  1
  O  O5  1  0.015053  0.831283  0.859056  1
  O  O6  1  0.515053  0.859057  0.831283  1
  O  O7  1  0.984947  0.168717  0.140944  1
  O  O8  1  0.849768  0.537471  0.712763  1
  O  O9  1  0.650232  0.287237  0.462529  1
  O  O10  1  0.349766  0.712763  0.537471  1
  O  O11  1  0.150233  0.462529  0.287237  1
  Na  Na12  1  0.250000  0.405323  0.594677  1
  Na  Na13  1  0.750000  0.594677  0.405323  1
  K  K14  1  0.250000  0.802748  0.197252  1
  K  K15  1  0.750000  0.197252  0.802748  1
  V  V16  1  0.777955  0.700838  0.870911  1
  V  V17  1  0.722044  0.129088  0.299162  1
  V  V18  1  0.222045  0.299162  0.129089  1
  V  V19  1  0.277954  0.870912  0.700838  1
