# generated using pymatgen
data_CuI
_symmetry_space_group_name_H-M   'P 1'
_cell_length_a   5.31003446
_cell_length_b   5.31003446
_cell_length_c   4.33332734
_cell_angle_alpha   90.00000000
_cell_angle_beta   90.00000000
_cell_angle_gamma   89.65504750
_symmetry_Int_Tables_number   1
_chemical_formula_structural   CuI
_chemical_formula_sum   'Cu2 I2'
_cell_volume   122.18230228
_cell_formula_units_Z   2
loop_
 _symmetry_equiv_pos_site_id
 _symmetry_equiv_pos_as_xyz
  1  'x, y, z'
loop_
 _atom_site_type_symbol
 _atom_site_label
 _atom_site_symmetry_multiplicity
 _atom_site_fract_x
 _atom_site_fract_y
 _atom_site_fract_z
 _atom_site_occupancy
  Cu  Cu0  1  0.418355  0.581645  0.750000  1
  Cu  Cu1  1  0.581645  0.418355  0.250000  1
  I  I2  1  0.768924  0.231076  0.750000  1
  I  I3  1  0.231076  0.768924  0.250000  1
