# generated using pymatgen
data_Th2Co17
_symmetry_space_group_name_H-M   'P 1'
_cell_length_a   6.26509730
_cell_length_b   6.26421411
_cell_length_c   6.26421361
_cell_angle_alpha   83.60238999
_cell_angle_beta   83.61906133
_cell_angle_gamma   83.61906117
_symmetry_Int_Tables_number   1
_chemical_formula_structural   Th2Co17
_chemical_formula_sum   'Th2 Co17'
_cell_volume   241.58337632
_cell_formula_units_Z   1
loop_
 _symmetry_equiv_pos_site_id
 _symmetry_equiv_pos_as_xyz
  1  'x, y, z'
loop_
 _atom_site_type_symbol
 _atom_site_label
 _atom_site_symmetry_multiplicity
 _atom_site_fract_x
 _atom_site_fract_y
 _atom_site_fract_z
 _atom_site_occupancy
  Th  Th0  1  0.657614  0.157733  0.157733  1
  Th  Th1  1  0.342386  0.842267  0.842267  1
  Co  Co2  1  0.000000  0.785137  0.214863  1
  Co  Co3  1  0.849323  0.845437  0.845437  1
  Co  Co4  1  0.654563  0.154569  0.650676  1
  Co  Co5  1  0.345437  0.845431  0.349324  1
  Co  Co6  1  0.285191  0.499984  0.214821  1
  Co  Co7  1  0.098127  0.598075  0.598075  1
  Co  Co8  1  0.901873  0.401925  0.401925  1
  Co  Co9  1  0.345437  0.349324  0.845431  1
  Co  Co10  1  0.654563  0.650676  0.154569  1
  Co  Co11  1  0.714809  0.785179  0.500016  1
  Co  Co12  1  1.000000  0.214863  0.785137  1
  Co  Co13  1  0.500000  0.500000  0.500000  1
  Co  Co14  1  0.150677  0.154563  0.154563  1
  Co  Co15  1  0.285191  0.214821  0.499984  1
  Co  Co16  1  0.714809  0.500016  0.785179  1
  Co  Co17  1  0.000000  0.500000  0.000000  1
  Co  Co18  1  0.000000  0.000000  0.500000  1
