# generated using pymatgen
data_MoWSeS3
_symmetry_space_group_name_H-M   'P 1'
_cell_length_a   3.22256692
_cell_length_b   3.22252806
_cell_length_c   36.38927615
_cell_angle_alpha   89.99954364
_cell_angle_beta   90.00000000
_cell_angle_gamma   120.00039887
_symmetry_Int_Tables_number   1
_chemical_formula_structural   MoWSeS3
_chemical_formula_sum   'Mo2 W2 Se2 S6'
_cell_volume   327.26605070
_cell_formula_units_Z   2
loop_
 _symmetry_equiv_pos_site_id
 _symmetry_equiv_pos_as_xyz
  1  'x, y, z'
loop_
 _atom_site_type_symbol
 _atom_site_label
 _atom_site_symmetry_multiplicity
 _atom_site_fract_x
 _atom_site_fract_y
 _atom_site_fract_z
 _atom_site_occupancy
  Mo  Mo0  1  0.333310  0.666621  0.093896  1
  Mo  Mo1  1  0.333311  0.666622  0.469661  1
  W  W2  1  0.666687  0.333374  0.281780  1
  W  W3  1  0.666691  0.333381  0.657540  1
  Se  Se4  1  0.333351  0.666702  0.329080  1
  Se  Se5  1  0.333355  0.666711  0.234523  1
  S  S6  1  0.333359  0.666718  0.700441  1
  S  S7  1  0.666646  0.333290  0.051180  1
  S  S8  1  0.666646  0.333292  0.426961  1
  S  S9  1  0.666641  0.333281  0.136641  1
  S  S10  1  0.666645  0.333289  0.512399  1
  S  S11  1  0.333359  0.666718  0.614648  1
