# generated using pymatgen
data_Ce2Al3Ge4
_symmetry_space_group_name_H-M   'P 1'
_cell_length_a   6.02668495
_cell_length_b   7.93684592
_cell_length_c   8.10355278
_cell_angle_alpha   90.00000000
_cell_angle_beta   111.83003395
_cell_angle_gamma   90.00000000
_symmetry_Int_Tables_number   1
_chemical_formula_structural   Ce2Al3Ge4
_chemical_formula_sum   'Ce4 Al6 Ge8'
_cell_volume   359.82062853
_cell_formula_units_Z   2
loop_
 _symmetry_equiv_pos_site_id
 _symmetry_equiv_pos_as_xyz
  1  'x, y, z'
loop_
 _atom_site_type_symbol
 _atom_site_label
 _atom_site_symmetry_multiplicity
 _atom_site_fract_x
 _atom_site_fract_y
 _atom_site_fract_z
 _atom_site_occupancy
  Al  Al0  1  0.500000  0.500000  0.000000  1
  Al  Al1  1  0.000000  0.000000  0.000000  1
  Al  Al2  1  0.465137  0.250000  0.430275  1
  Al  Al3  1  0.034863  0.750000  0.569725  1
  Al  Al4  1  0.965137  0.250000  0.430275  1
  Al  Al5  1  0.534863  0.750000  0.569725  1
  Ge  Ge6  1  0.684199  0.550718  0.368398  1
  Ge  Ge7  1  0.315801  0.449282  0.631602  1
  Ge  Ge8  1  0.184199  0.949282  0.368398  1
  Ge  Ge9  1  0.796455  0.250000  0.092911  1
  Ge  Ge10  1  0.296455  0.250000  0.092911  1
  Ge  Ge11  1  0.203545  0.750000  0.907089  1
  Ge  Ge12  1  0.703545  0.750000  0.907089  1
  Ge  Ge13  1  0.815801  0.050718  0.631602  1
  Ce  Ce14  1  0.613756  0.918340  0.227512  1
  Ce  Ce15  1  0.386244  0.081660  0.772488  1
  Ce  Ce16  1  0.113756  0.581660  0.227512  1
  Ce  Ce17  1  0.886244  0.418340  0.772488  1
