# generated using pymatgen
data_Rb2Ni2(MoO4)3
_symmetry_space_group_name_H-M   'P 1'
_cell_length_a   7.09247526
_cell_length_b   9.39555680
_cell_length_c   19.32397913
_cell_angle_alpha   90.00000000
_cell_angle_beta   91.65099228
_cell_angle_gamma   90.00000000
_symmetry_Int_Tables_number   1
_chemical_formula_structural   Rb2Ni2(MoO4)3
_chemical_formula_sum   'Rb8 Ni8 Mo12 O48'
_cell_volume   1287.17200461
_cell_formula_units_Z   4
loop_
 _symmetry_equiv_pos_site_id
 _symmetry_equiv_pos_as_xyz
  1  'x, y, z'
loop_
 _atom_site_type_symbol
 _atom_site_label
 _atom_site_symmetry_multiplicity
 _atom_site_fract_x
 _atom_site_fract_y
 _atom_site_fract_z
 _atom_site_occupancy
  O  O0  1  0.586510  0.749518  0.956761  1
  O  O1  1  0.913491  0.249518  0.543239  1
  O  O2  1  0.413490  0.250482  0.043239  1
  O  O3  1  0.086509  0.750482  0.456761  1
  O  O4  1  0.426846  0.951454  0.066456  1
  O  O5  1  0.073155  0.451455  0.433544  1
  O  O6  1  0.573154  0.048545  0.933545  1
  O  O7  1  0.926845  0.548545  0.566455  1
  O  O8  1  0.846603  0.946931  0.035876  1
  O  O9  1  0.653396  0.446930  0.464124  1
  O  O10  1  0.153397  0.053070  0.964124  1
  O  O11  1  0.346604  0.553070  0.535877  1
  O  O12  1  0.660384  0.704865  0.097328  1
  O  O13  1  0.839615  0.204865  0.402672  1
  O  O14  1  0.339616  0.295135  0.902672  1
  O  O15  1  0.160385  0.795134  0.597328  1
  O  O16  1  0.387468  0.610665  0.386013  1
  O  O17  1  0.112532  0.110665  0.113987  1
  O  O18  1  0.802459  0.656074  0.355506  1
  O  O19  1  0.887468  0.889335  0.886013  1
  O  O20  1  0.651093  0.744332  0.493355  1
  O  O21  1  0.848906  0.244332  0.006645  1
  O  O22  1  0.348907  0.255668  0.506645  1
  O  O23  1  0.151094  0.755668  0.993355  1
  O  O24  1  0.549275  0.890923  0.370427  1
  O  O25  1  0.950726  0.390923  0.129574  1
  O  O26  1  0.450725  0.109077  0.629573  1
  O  O27  1  0.049274  0.609078  0.870426  1
  O  O28  1  0.887164  0.494995  0.720278  1
  O  O29  1  0.612835  0.994995  0.779722  1
  O  O30  1  0.112836  0.505004  0.279722  1
  O  O31  1  0.387165  0.005005  0.220278  1
  O  O32  1  0.951904  0.799312  0.726365  1
  O  O33  1  0.548097  0.299312  0.773635  1
  O  O34  1  0.048096  0.200688  0.273635  1
  O  O35  1  0.451903  0.700688  0.226365  1
  O  O36  1  0.627024  0.692430  0.648256  1
  O  O37  1  0.872977  0.192430  0.851744  1
  O  O38  1  0.372976  0.307570  0.351744  1
  O  O39  1  0.127023  0.807569  0.148256  1
  O  O40  1  0.633773  0.682447  0.802561  1
  O  O41  1  0.866227  0.182447  0.697439  1
  O  O42  1  0.366227  0.317553  0.197439  1
  O  O43  1  0.133773  0.817554  0.302562  1
  O  O44  1  0.302460  0.843926  0.855506  1
  O  O45  1  0.197541  0.343927  0.644494  1
  O  O46  1  0.697540  0.156074  0.144494  1
  O  O47  1  0.612532  0.389335  0.613987  1
  Ni  Ni48  1  0.905865  0.360601  0.636626  1
  Ni  Ni49  1  0.594136  0.860601  0.863373  1
  Ni  Ni50  1  0.405864  0.139399  0.136627  1
  Ni  Ni51  1  0.094137  0.639399  0.363373  1
  Ni  Ni52  1  0.366444  0.424718  0.441546  1
  Ni  Ni53  1  0.133557  0.924718  0.058454  1
  Ni  Ni54  1  0.633556  0.575282  0.558454  1
  Ni  Ni55  1  0.866445  0.075282  0.941546  1
  Rb  Rb56  1  0.718205  0.475439  0.237293  1
  Rb  Rb57  1  0.718632  0.461738  0.908035  1
  Rb  Rb58  1  0.218633  0.038262  0.408035  1
  Rb  Rb59  1  0.281368  0.538262  0.091964  1
  Rb  Rb60  1  0.218204  0.024560  0.737293  1
  Rb  Rb61  1  0.281795  0.524560  0.762707  1
  Rb  Rb62  1  0.781367  0.961738  0.591965  1
  Rb  Rb63  1  0.781796  0.975439  0.262707  1
  Mo  Mo64  1  0.372045  0.158601  0.962536  1
  Mo  Mo65  1  0.872046  0.341399  0.462537  1
  Mo  Mo66  1  0.627955  0.841399  0.037464  1
  Mo  Mo67  1  0.127956  0.658601  0.537463  1
  Mo  Mo68  1  0.600998  0.719565  0.401832  1
  Mo  Mo69  1  0.899002  0.219565  0.098168  1
  Mo  Mo70  1  0.399002  0.280436  0.598168  1
  Mo  Mo71  1  0.100998  0.780436  0.901832  1
  Mo  Mo72  1  0.275235  0.832395  0.225259  1
  Mo  Mo73  1  0.224765  0.332396  0.274741  1
  Mo  Mo74  1  0.724765  0.167604  0.774741  1
  Mo  Mo75  1  0.775235  0.667605  0.725259  1
