# generated using pymatgen
data_Ba2Ga2S5
_symmetry_space_group_name_H-M   'P 1'
_cell_length_a   8.64498188
_cell_length_b   10.85845503
_cell_length_c   10.85845503
_cell_angle_alpha   87.74742598
_cell_angle_beta   79.01102216
_cell_angle_gamma   79.01102222
_symmetry_Int_Tables_number   1
_chemical_formula_structural   Ba2Ga2S5
_chemical_formula_sum   'Ba8 Ga8 S20'
_cell_volume   982.25379725
_cell_formula_units_Z   4
loop_
 _symmetry_equiv_pos_site_id
 _symmetry_equiv_pos_as_xyz
  1  'x, y, z'
loop_
 _atom_site_type_symbol
 _atom_site_label
 _atom_site_symmetry_multiplicity
 _atom_site_fract_x
 _atom_site_fract_y
 _atom_site_fract_z
 _atom_site_occupancy
  S  S0  1  0.250000  0.032575  0.967425  1
  S  S1  1  0.750000  0.967425  0.032575  1
  S  S2  1  0.765131  0.613580  0.034050  1
  S  S3  1  0.734869  0.965950  0.386420  1
  S  S4  1  0.234869  0.386420  0.965950  1
  S  S5  1  0.265131  0.034050  0.613580  1
  S  S6  1  0.462595  0.477437  0.242053  1
  S  S7  1  0.037405  0.757947  0.522563  1
  S  S8  1  0.537405  0.522563  0.757947  1
  S  S9  1  0.962595  0.242053  0.477437  1
  S  S10  1  0.087636  0.746030  0.838598  1
  S  S11  1  0.412364  0.161402  0.253970  1
  S  S12  1  0.912364  0.253970  0.161402  1
  S  S13  1  0.587636  0.838598  0.746030  1
  S  S14  1  0.441635  0.816146  0.261481  1
  S  S15  1  0.058365  0.738519  0.183854  1
  S  S16  1  0.750000  0.600410  0.399590  1
  S  S17  1  0.250000  0.399590  0.600410  1
  S  S18  1  0.941635  0.261481  0.816146  1
  S  S19  1  0.558365  0.183854  0.738519  1
  Ga  Ga20  1  0.615553  0.622820  0.232033  1
  Ga  Ga21  1  0.884447  0.767967  0.377180  1
  Ga  Ga22  1  0.384447  0.377180  0.767967  1
  Ga  Ga23  1  0.115553  0.232033  0.622820  1
  Ga  Ga24  1  0.587298  0.976490  0.227703  1
  Ga  Ga25  1  0.912702  0.772297  0.023510  1
  Ga  Ga26  1  0.412702  0.023510  0.772297  1
  Ga  Ga27  1  0.087298  0.227703  0.976490  1
  Ba  Ba28  1  0.610558  0.277563  0.018969  1
  Ba  Ba29  1  0.889442  0.981031  0.722437  1
  Ba  Ba30  1  0.389442  0.722437  0.981031  1
  Ba  Ba31  1  0.110558  0.018969  0.277563  1
  Ba  Ba32  1  0.605240  0.268338  0.432488  1
  Ba  Ba33  1  0.894760  0.567512  0.731662  1
  Ba  Ba34  1  0.394760  0.731662  0.567512  1
  Ba  Ba35  1  0.105240  0.432488  0.268338  1
