# generated using pymatgen
data_Te4Mo2WS2
_symmetry_space_group_name_H-M   'P 1'
_cell_length_a   3.41708875
_cell_length_b   3.41707305
_cell_length_c   31.74429133
_cell_angle_alpha   89.99981204
_cell_angle_beta   90.00000000
_cell_angle_gamma   120.00015188
_symmetry_Int_Tables_number   1
_chemical_formula_structural   Te4Mo2WS2
_chemical_formula_sum   'Te4 Mo2 W1 S2'
_cell_volume   321.00080773
_cell_formula_units_Z   1
loop_
 _symmetry_equiv_pos_site_id
 _symmetry_equiv_pos_as_xyz
  1  'x, y, z'
loop_
 _atom_site_type_symbol
 _atom_site_label
 _atom_site_symmetry_multiplicity
 _atom_site_fract_x
 _atom_site_fract_y
 _atom_site_fract_z
 _atom_site_occupancy
  Te  Te0  1  0.333364  0.666729  0.405842  1
  Te  Te1  1  0.666645  0.333290  0.056822  1
  Te  Te2  1  0.666641  0.333282  0.174402  1
  Te  Te3  1  0.333363  0.666727  0.288291  1
  Mo  Mo4  1  0.333304  0.666608  0.115557  1
  Mo  Mo5  1  0.666683  0.333367  0.347023  1
  W  W6  1  0.333309  0.666617  0.578284  1
  S  S7  1  0.666645  0.333289  0.530963  1
  S  S8  1  0.666646  0.333291  0.625657  1
