# generated using pymatgen
data_CsErCdTe3
_symmetry_space_group_name_H-M   'P 1'
_cell_length_a   4.52742072
_cell_length_b   8.97781310
_cell_length_c   11.84082741
_cell_angle_alpha   90.00000000
_cell_angle_beta   90.00000000
_cell_angle_gamma   104.60447648
_symmetry_Int_Tables_number   1
_chemical_formula_structural   CsErCdTe3
_chemical_formula_sum   'Cs2 Er2 Cd2 Te6'
_cell_volume   465.73564923
_cell_formula_units_Z   2
loop_
 _symmetry_equiv_pos_site_id
 _symmetry_equiv_pos_as_xyz
  1  'x, y, z'
loop_
 _atom_site_type_symbol
 _atom_site_label
 _atom_site_symmetry_multiplicity
 _atom_site_fract_x
 _atom_site_fract_y
 _atom_site_fract_z
 _atom_site_occupancy
  Cd  Cd0  1  0.462392  0.924785  0.250000  1
  Cd  Cd1  1  0.537608  0.075215  0.750000  1
  Te  Te2  1  0.619231  0.238462  0.544688  1
  Te  Te3  1  0.380769  0.761538  0.455312  1
  Te  Te4  1  0.380769  0.761538  0.044688  1
  Te  Te5  1  0.619231  0.238462  0.955312  1
  Te  Te6  1  0.064807  0.129615  0.250000  1
  Te  Te7  1  0.935193  0.870385  0.750000  1
  Cs  Cs8  1  0.248906  0.497812  0.750000  1
  Cs  Cs9  1  0.751094  0.502188  0.250000  1
  Er  Er10  1  0.000000  0.000000  0.500000  1
  Er  Er11  1  0.000000  0.000000  0.000000  1
