# generated using pymatgen
data_Te2Mo3W(SeS2)2
_symmetry_space_group_name_H-M   'P 1'
_cell_length_a   3.30563032
_cell_length_b   3.30559927
_cell_length_c   37.60197804
_cell_angle_alpha   90.00013603
_cell_angle_beta   90.00000000
_cell_angle_gamma   120.00031072
_symmetry_Int_Tables_number   1
_chemical_formula_structural   Te2Mo3W(SeS2)2
_chemical_formula_sum   'Te2 Mo3 W1 Se2 S4'
_cell_volume   355.83154860
_cell_formula_units_Z   1
loop_
 _symmetry_equiv_pos_site_id
 _symmetry_equiv_pos_as_xyz
  1  'x, y, z'
loop_
 _atom_site_type_symbol
 _atom_site_label
 _atom_site_symmetry_multiplicity
 _atom_site_fract_x
 _atom_site_fract_y
 _atom_site_fract_z
 _atom_site_occupancy
  Te  Te0  1  0.333353  0.666707  0.332615  1
  Te  Te1  1  0.333352  0.666705  0.230952  1
  Mo  Mo2  1  0.333296  0.666593  0.093911  1
  Mo  Mo3  1  0.666691  0.333382  0.281788  1
  Mo  Mo4  1  0.666692  0.333383  0.657527  1
  W  W5  1  0.333312  0.666624  0.469671  1
  Se  Se6  1  0.333353  0.666707  0.702185  1
  Se  Se7  1  0.333355  0.666711  0.612892  1
  S  S8  1  0.666651  0.333301  0.053268  1
  S  S9  1  0.666645  0.333288  0.428904  1
  S  S10  1  0.666654  0.333306  0.134577  1
  S  S11  1  0.666646  0.333292  0.510456  1
