# generated using pymatgen
data_EuMg3SiN4
_symmetry_space_group_name_H-M   'P 1'
_cell_length_a   10.65987730
_cell_length_b   10.65987730
_cell_length_c   10.65987730
_cell_angle_alpha   100.79683690
_cell_angle_beta   113.97490357
_cell_angle_gamma   113.97490357
_symmetry_Int_Tables_number   1
_chemical_formula_structural   EuMg3SiN4
_chemical_formula_sum   'Eu8 Mg24 Si8 N32'
_cell_volume   916.79004298
_cell_formula_units_Z   8
loop_
 _symmetry_equiv_pos_site_id
 _symmetry_equiv_pos_as_xyz
  1  'x, y, z'
loop_
 _atom_site_type_symbol
 _atom_site_label
 _atom_site_symmetry_multiplicity
 _atom_site_fract_x
 _atom_site_fract_y
 _atom_site_fract_z
 _atom_site_occupancy
  Eu  Eu0  1  0.280335  0.598251  0.355982  1
  Eu  Eu1  1  0.219665  0.075647  0.817916  1
  Eu  Eu2  1  0.257731  0.355982  0.075647  1
  Eu  Eu3  1  0.242269  0.817916  0.598251  1
  Eu  Eu4  1  0.719665  0.401749  0.644018  1
  Eu  Eu5  1  0.780335  0.924353  0.182084  1
  Eu  Eu6  1  0.742269  0.644018  0.924353  1
  Eu  Eu7  1  0.757731  0.182084  0.401749  1
  Mg  Mg8  1  0.387668  0.678999  0.067496  1
  Mg  Mg9  1  0.112332  0.679828  0.791331  1
  Mg  Mg10  1  0.888497  0.067496  0.679828  1
  Mg  Mg11  1  0.611503  0.791331  0.678999  1
  Mg  Mg12  1  0.612332  0.321001  0.932504  1
  Mg  Mg13  1  0.887668  0.320172  0.208669  1
  Mg  Mg14  1  0.111503  0.932504  0.320172  1
  Mg  Mg15  1  0.388497  0.208669  0.321001  1
  Mg  Mg16  1  0.069886  0.649612  0.040082  1
  Mg  Mg17  1  0.430114  0.970196  0.079725  1
  Mg  Mg18  1  0.890470  0.040082  0.970196  1
  Mg  Mg19  1  0.609530  0.079725  0.649612  1
  Mg  Mg20  1  0.930114  0.350388  0.959918  1
  Mg  Mg21  1  0.569886  0.029804  0.920275  1
  Mg  Mg22  1  0.109530  0.959918  0.029804  1
  Mg  Mg23  1  0.390470  0.920275  0.350388  1
  Mg  Mg24  1  0.432107  0.465967  0.588982  1
  Mg  Mg25  1  0.067893  0.156876  0.533861  1
  Mg  Mg26  1  0.623015  0.588982  0.156876  1
  Mg  Mg27  1  0.876985  0.533861  0.465967  1
  Mg  Mg28  1  0.567893  0.534033  0.411018  1
  Mg  Mg29  1  0.932107  0.843124  0.466139  1
  Mg  Mg30  1  0.376985  0.411018  0.843124  1
  Mg  Mg31  1  0.123015  0.466139  0.534033  1
  Si  Si32  1  0.108468  0.231680  0.266435  1
  Si  Si33  1  0.391532  0.157967  0.623212  1
  Si  Si34  1  0.534755  0.266435  0.157967  1
  Si  Si35  1  0.965245  0.623212  0.231680  1
  Si  Si36  1  0.891532  0.768320  0.733565  1
  Si  Si37  1  0.608468  0.842033  0.376788  1
  Si  Si38  1  0.465245  0.733565  0.842033  1
  Si  Si39  1  0.034755  0.376788  0.768320  1
  N  N40  1  0.319630  0.365127  0.355240  1
  N  N41  1  0.180370  0.035610  0.545497  1
  N  N42  1  0.490113  0.355240  0.035610  1
  N  N43  1  0.009887  0.545497  0.365127  1
  N  N44  1  0.680370  0.634873  0.644760  1
  N  N45  1  0.819630  0.964390  0.454503  1
  N  N46  1  0.509887  0.644760  0.964390  1
  N  N47  1  0.990113  0.454503  0.634873  1
  N  N48  1  0.553932  0.871875  0.512463  1
  N  N49  1  0.946068  0.958531  0.817943  1
  N  N50  1  0.140588  0.512463  0.958531  1
  N  N51  1  0.359412  0.817943  0.871875  1
  N  N52  1  0.446068  0.128125  0.487537  1
  N  N53  1  0.053932  0.041469  0.182057  1
  N  N54  1  0.859412  0.487537  0.041469  1
  N  N55  1  0.640588  0.182057  0.128125  1
  N  N56  1  0.007555  0.267749  0.110227  1
  N  N57  1  0.492445  0.102672  0.760194  1
  N  N58  1  0.342478  0.110227  0.102672  1
  N  N59  1  0.157522  0.760194  0.267749  1
  N  N60  1  0.992445  0.732251  0.889773  1
  N  N61  1  0.507555  0.897328  0.239806  1
  N  N62  1  0.657522  0.889773  0.897328  1
  N  N63  1  0.842478  0.239806  0.732251  1
  N  N64  1  0.520163  0.645249  0.273801  1
  N  N65  1  0.979837  0.753638  0.625086  1
  N  N66  1  0.128552  0.273801  0.753638  1
  N  N67  1  0.371448  0.625086  0.645249  1
  N  N68  1  0.479837  0.354751  0.726199  1
  N  N69  1  0.020163  0.246362  0.374914  1
  N  N70  1  0.871448  0.726199  0.246362  1
  N  N71  1  0.628552  0.374914  0.354751  1
