# generated using pymatgen
data_Cu(IrS2)2
_symmetry_space_group_name_H-M   'P 1'
_cell_length_a   7.02614671
_cell_length_b   7.02614672
_cell_length_c   7.02614671
_cell_angle_alpha   59.99999998
_cell_angle_beta   59.99999996
_cell_angle_gamma   59.99999997
_symmetry_Int_Tables_number   1
_chemical_formula_structural   Cu(IrS2)2
_chemical_formula_sum   'Cu2 Ir4 S8'
_cell_volume   245.26560224
_cell_formula_units_Z   2
loop_
 _symmetry_equiv_pos_site_id
 _symmetry_equiv_pos_as_xyz
  1  'x, y, z'
loop_
 _atom_site_type_symbol
 _atom_site_label
 _atom_site_symmetry_multiplicity
 _atom_site_fract_x
 _atom_site_fract_y
 _atom_site_fract_z
 _atom_site_occupancy
  S  S0  1  0.739444  0.739444  0.739444  1
  S  S1  1  0.260556  0.260556  0.718332  1
  S  S2  1  0.260556  0.718332  0.260556  1
  S  S3  1  0.718332  0.260556  0.260556  1
  S  S4  1  0.739444  0.281668  0.739444  1
  S  S5  1  0.281668  0.739444  0.739444  1
  S  S6  1  0.260556  0.260556  0.260556  1
  S  S7  1  0.739444  0.739444  0.281668  1
  Cu  Cu8  1  0.875000  0.875000  0.875000  1
  Cu  Cu9  1  0.125000  0.125000  0.125000  1
  Ir  Ir10  1  0.500000  0.500000  0.000000  1
  Ir  Ir11  1  0.500000  0.500000  0.500000  1
  Ir  Ir12  1  0.000000  0.500000  0.500000  1
  Ir  Ir13  1  0.500000  0.000000  0.500000  1
