# generated using pymatgen
data_Te4MoW3S4
_symmetry_space_group_name_H-M   'P 1'
_cell_length_a   3.36135707
_cell_length_b   3.36146111
_cell_length_c   39.77552800
_cell_angle_alpha   90.00335678
_cell_angle_beta   90.00000000
_cell_angle_gamma   119.99897606
_symmetry_Int_Tables_number   1
_chemical_formula_structural   Te4MoW3S4
_chemical_formula_sum   'Te4 Mo1 W3 S4'
_cell_volume   389.21879642
_cell_formula_units_Z   1
loop_
 _symmetry_equiv_pos_site_id
 _symmetry_equiv_pos_as_xyz
  1  'x, y, z'
loop_
 _atom_site_type_symbol
 _atom_site_label
 _atom_site_symmetry_multiplicity
 _atom_site_fract_x
 _atom_site_fract_y
 _atom_site_fract_z
 _atom_site_occupancy
  Te  Te0  1  0.333365  0.666732  0.706866  1
  Te  Te1  1  0.666654  0.333308  0.420402  1
  Te  Te2  1  0.666688  0.333375  0.516067  1
  Te  Te3  1  0.333317  0.666634  0.611248  1
  Mo  Mo4  1  0.666689  0.333378  0.281716  1
  W  W5  1  0.333316  0.666633  0.093903  1
  W  W6  1  0.333331  0.666662  0.468221  1
  W  W7  1  0.666681  0.333362  0.659072  1
  S  S8  1  0.333347  0.666694  0.319710  1
  S  S9  1  0.666631  0.333261  0.055748  1
  S  S10  1  0.666670  0.333338  0.132064  1
  S  S11  1  0.333311  0.666623  0.243730  1
