# generated using pymatgen
data_BaIn2Pd
_symmetry_space_group_name_H-M   'P 1'
_cell_length_a   4.62835740
_cell_length_b   6.35602241
_cell_length_c   8.16263807
_cell_angle_alpha   90.00000000
_cell_angle_beta   90.00000000
_cell_angle_gamma   111.35173084
_symmetry_Int_Tables_number   1
_chemical_formula_structural   BaIn2Pd
_chemical_formula_sum   'Ba2 In4 Pd2'
_cell_volume   223.64632771
_cell_formula_units_Z   2
loop_
 _symmetry_equiv_pos_site_id
 _symmetry_equiv_pos_as_xyz
  1  'x, y, z'
loop_
 _atom_site_type_symbol
 _atom_site_label
 _atom_site_symmetry_multiplicity
 _atom_site_fract_x
 _atom_site_fract_y
 _atom_site_fract_z
 _atom_site_occupancy
  Ba  Ba0  1  0.448861  0.897723  0.250000  1
  Ba  Ba1  1  0.551139  0.102277  0.750000  1
  In  In2  1  0.165457  0.330914  0.056981  1
  In  In3  1  0.834543  0.669086  0.943019  1
  In  In4  1  0.834543  0.669086  0.556981  1
  In  In5  1  0.165457  0.330914  0.443019  1
  Pd  Pd6  1  0.723073  0.446146  0.250000  1
  Pd  Pd7  1  0.276927  0.553854  0.750000  1
