# generated using pymatgen
data_Sr3Ta6(Si2O13)2
_symmetry_space_group_name_H-M   'P 1'
_cell_length_a   9.03505957
_cell_length_b   9.03505957
_cell_length_c   7.74188034
_cell_angle_alpha   90.00000000
_cell_angle_beta   90.00000000
_cell_angle_gamma   119.99999998
_symmetry_Int_Tables_number   1
_chemical_formula_structural   Sr3Ta6(Si2O13)2
_chemical_formula_sum   'Sr3 Ta6 Si4 O26'
_cell_volume   547.31723801
_cell_formula_units_Z   1
loop_
 _symmetry_equiv_pos_site_id
 _symmetry_equiv_pos_as_xyz
  1  'x, y, z'
loop_
 _atom_site_type_symbol
 _atom_site_label
 _atom_site_symmetry_multiplicity
 _atom_site_fract_x
 _atom_site_fract_y
 _atom_site_fract_z
 _atom_site_occupancy
  O  O0  1  0.000000  0.221391  0.500000  1
  O  O1  1  0.778609  0.778609  0.500000  1
  O  O2  1  0.221391  0.000000  0.500000  1
  O  O3  1  0.508909  0.685950  0.291238  1
  O  O4  1  0.314050  0.822960  0.291238  1
  O  O5  1  0.177040  0.491091  0.291238  1
  O  O6  1  0.491091  0.177040  0.708762  1
  O  O7  1  0.177040  0.491091  0.708762  1
  O  O8  1  0.508909  0.685950  0.708762  1
  O  O9  1  0.314050  0.822960  0.708762  1
  O  O10  1  0.685950  0.508909  0.291238  1
  O  O11  1  0.822960  0.314050  0.291238  1
  O  O12  1  0.822960  0.314050  0.708762  1
  O  O13  1  0.333333  0.666667  0.000000  1
  O  O14  1  0.666667  0.333333  0.000000  1
  O  O15  1  0.279294  0.000000  0.000000  1
  O  O16  1  0.720706  0.720706  0.000000  1
  O  O17  1  0.000000  0.279294  0.000000  1
  O  O18  1  0.814623  0.000000  0.234627  1
  O  O19  1  0.185377  0.185377  0.765373  1
  O  O20  1  0.000000  0.814623  0.765373  1
  O  O21  1  0.000000  0.814623  0.234627  1
  O  O22  1  0.185377  0.185377  0.234627  1
  O  O23  1  0.814623  0.000000  0.765373  1
  O  O24  1  0.491091  0.177040  0.291238  1
  O  O25  1  0.685950  0.508909  0.708762  1
  Si  Si26  1  0.666667  0.333333  0.209320  1
  Si  Si27  1  0.666667  0.333333  0.790680  1
  Si  Si28  1  0.333333  0.666667  0.790680  1
  Si  Si29  1  0.333333  0.666667  0.209320  1
  Sr  Sr30  1  0.403018  0.403018  0.500000  1
  Sr  Sr31  1  0.000000  0.596982  0.500000  1
  Sr  Sr32  1  0.596982  0.000000  0.500000  1
  Ta  Ta33  1  0.000000  0.238533  0.754007  1
  Ta  Ta34  1  0.761467  0.761467  0.754007  1
  Ta  Ta35  1  0.238533  0.000000  0.245993  1
  Ta  Ta36  1  0.761467  0.761467  0.245993  1
  Ta  Ta37  1  0.238533  0.000000  0.754007  1
  Ta  Ta38  1  0.000000  0.238533  0.245993  1
