# generated using pymatgen
data_SrBe2(PO4)2
_symmetry_space_group_name_H-M   'P 1'
_cell_length_a   8.07701511
_cell_length_b   9.07905464
_cell_length_c   8.51077309
_cell_angle_alpha   90.00000000
_cell_angle_beta   90.14946274
_cell_angle_gamma   90.00000000
_symmetry_Int_Tables_number   1
_chemical_formula_structural   SrBe2(PO4)2
_chemical_formula_sum   'Sr4 Be8 P8 O32'
_cell_volume   624.10700810
_cell_formula_units_Z   4
loop_
 _symmetry_equiv_pos_site_id
 _symmetry_equiv_pos_as_xyz
  1  'x, y, z'
loop_
 _atom_site_type_symbol
 _atom_site_label
 _atom_site_symmetry_multiplicity
 _atom_site_fract_x
 _atom_site_fract_y
 _atom_site_fract_z
 _atom_site_occupancy
  Sr  Sr0  1  0.255738  0.587351  0.609088  1
  Sr  Sr1  1  0.744262  0.087351  0.890912  1
  Sr  Sr2  1  0.744262  0.412649  0.390912  1
  Sr  Sr3  1  0.255738  0.912649  0.109088  1
  Be  Be4  1  0.428640  0.581255  0.226446  1
  Be  Be5  1  0.571360  0.081255  0.273554  1
  Be  Be6  1  0.571360  0.418745  0.773554  1
  Be  Be7  1  0.428640  0.918745  0.726446  1
  Be  Be8  1  0.926317  0.806884  0.436554  1
  Be  Be9  1  0.073683  0.306884  0.063446  1
  Be  Be10  1  0.073683  0.193116  0.563446  1
  Be  Be11  1  0.926317  0.693116  0.936554  1
  P  P12  1  0.563671  0.804461  0.433175  1
  P  P13  1  0.436329  0.304461  0.066825  1
  P  P14  1  0.436329  0.195539  0.566825  1
  P  P15  1  0.563671  0.695539  0.933175  1
  P  P16  1  0.062332  0.914275  0.730956  1
  P  P17  1  0.937668  0.414275  0.769044  1
  P  P18  1  0.937668  0.085725  0.269044  1
  P  P19  1  0.062332  0.585725  0.230956  1
  O  O20  1  0.438683  0.818067  0.570614  1
  O  O21  1  0.561317  0.318067  0.929386  1
  O  O22  1  0.561317  0.181933  0.429386  1
  O  O23  1  0.438683  0.681933  0.070614  1
  O  O24  1  0.240949  0.592894  0.300319  1
  O  O25  1  0.759051  0.092894  0.199681  1
  O  O26  1  0.759051  0.407106  0.699681  1
  O  O27  1  0.240949  0.907106  0.800319  1
  O  O28  1  0.547503  0.642941  0.370991  1
  O  O29  1  0.452497  0.142941  0.129009  1
  O  O30  1  0.452497  0.357059  0.629009  1
  O  O31  1  0.547503  0.857059  0.870991  1
  O  O32  1  0.739424  0.835920  0.490039  1
  O  O33  1  0.260576  0.335920  0.009961  1
  O  O34  1  0.260576  0.164080  0.509961  1
  O  O35  1  0.739424  0.664080  0.990039  1
  O  O36  1  0.490509  0.413034  0.199132  1
  O  O37  1  0.509491  0.913034  0.300868  1
  O  O38  1  0.509491  0.586966  0.800867  1
  O  O39  1  0.490509  0.086966  0.699133  1
  O  O40  1  0.994102  0.572668  0.806571  1
  O  O41  1  0.005898  0.072668  0.693429  1
  O  O42  1  0.005898  0.427332  0.193429  1
  O  O43  1  0.994102  0.927332  0.306571  1
  O  O44  1  0.055422  0.812732  0.586156  1
  O  O45  1  0.944578  0.312732  0.913844  1
  O  O46  1  0.944578  0.187268  0.413844  1
  O  O47  1  0.055422  0.687268  0.086156  1
  O  O48  1  0.944806  0.638313  0.364508  1
  O  O49  1  0.055194  0.138313  0.135492  1
  O  O50  1  0.055194  0.361687  0.635492  1
  O  O51  1  0.944806  0.861687  0.864508  1
