# generated using pymatgen
data_Tm4Si2S3O7
_symmetry_space_group_name_H-M   'P 1'
_cell_length_a   10.63188949
_cell_length_b   10.63188949
_cell_length_c   10.63188949
_cell_angle_alpha   101.26762415
_cell_angle_beta   113.72229183
_cell_angle_gamma   113.72229183
_symmetry_Int_Tables_number   1
_chemical_formula_structural   Tm4Si2S3O7
_chemical_formula_sum   'Tm16 Si8 S12 O28'
_cell_volume   911.21084880
_cell_formula_units_Z   4
loop_
 _symmetry_equiv_pos_site_id
 _symmetry_equiv_pos_as_xyz
  1  'x, y, z'
loop_
 _atom_site_type_symbol
 _atom_site_label
 _atom_site_symmetry_multiplicity
 _atom_site_fract_x
 _atom_site_fract_y
 _atom_site_fract_z
 _atom_site_occupancy
  O  O0  1  0.250000  0.849833  0.599833  1
  O  O1  1  0.750000  0.599833  0.849833  1
  O  O2  1  0.750000  0.150167  0.400167  1
  O  O3  1  0.250000  0.400167  0.150167  1
  O  O4  1  0.015584  0.826270  0.341854  1
  O  O5  1  0.484416  0.826270  0.810686  1
  O  O6  1  0.484416  0.658146  0.173730  1
  O  O7  1  0.984416  0.810686  0.826270  1
  O  O8  1  0.515584  0.341854  0.826270  1
  O  O9  1  0.515584  0.173730  0.189314  1
  O  O10  1  0.984416  0.173730  0.658146  1
  O  O11  1  0.015584  0.189314  0.173730  1
  O  O12  1  0.766449  0.915765  0.432262  1
  O  O13  1  0.733551  0.165812  0.149316  1
  O  O14  1  0.733551  0.567738  0.084235  1
  O  O15  1  0.983504  0.149316  0.915765  1
  O  O16  1  0.516496  0.432262  0.165812  1
  O  O17  1  0.516496  0.084235  0.850684  1
  O  O18  1  0.983504  0.834188  0.567738  1
  O  O19  1  0.766449  0.850684  0.834188  1
  O  O20  1  0.233551  0.084235  0.567738  1
  O  O21  1  0.266449  0.834188  0.850684  1
  O  O22  1  0.266449  0.432262  0.915765  1
  O  O23  1  0.016496  0.850684  0.084235  1
  O  O24  1  0.483504  0.567738  0.834188  1
  O  O25  1  0.483504  0.915765  0.149316  1
  O  O26  1  0.016496  0.165812  0.432262  1
  O  O27  1  0.233551  0.149316  0.165812  1
  Si  Si28  1  0.375257  0.904843  0.780099  1
  Si  Si29  1  0.124743  0.904843  0.529586  1
  Si  Si30  1  0.124743  0.219901  0.095157  1
  Si  Si31  1  0.624743  0.529586  0.904843  1
  Si  Si32  1  0.875257  0.780099  0.904843  1
  Si  Si33  1  0.875257  0.095157  0.470414  1
  Si  Si34  1  0.624743  0.095157  0.219901  1
  Si  Si35  1  0.375257  0.470414  0.095157  1
  S  S36  1  0.250000  0.125000  0.875000  1
  S  S37  1  0.750000  0.875000  0.125000  1
  S  S38  1  0.750000  0.375000  0.625000  1
  S  S39  1  0.250000  0.625000  0.375000  1
  S  S40  1  0.854690  0.500000  0.354690  1
  S  S41  1  0.854690  0.354690  0.000000  1
  S  S42  1  0.645310  0.645310  0.500000  1
  S  S43  1  0.645310  0.000000  0.645310  1
  S  S44  1  0.145310  0.500000  0.645310  1
  S  S45  1  0.145310  0.645310  0.000000  1
  S  S46  1  0.354690  0.354690  0.500000  1
  S  S47  1  0.354690  0.000000  0.354690  1
  Tm  Tm48  1  0.095161  0.047581  0.297581  1
  Tm  Tm49  1  0.250000  0.297581  0.702419  1
  Tm  Tm50  1  0.250000  0.952419  0.047581  1
  Tm  Tm51  1  0.404839  0.702419  0.952419  1
  Tm  Tm52  1  0.904839  0.952419  0.702419  1
  Tm  Tm53  1  0.750000  0.702419  0.297581  1
  Tm  Tm54  1  0.750000  0.047581  0.952419  1
  Tm  Tm55  1  0.595161  0.297581  0.047581  1
  Tm  Tm56  1  0.014614  0.659232  0.173847  1
  Tm  Tm57  1  0.485386  0.659232  0.644618  1
  Tm  Tm58  1  0.485386  0.826153  0.340768  1
  Tm  Tm59  1  0.985386  0.644618  0.659232  1
  Tm  Tm60  1  0.514614  0.173847  0.659232  1
  Tm  Tm61  1  0.514614  0.340768  0.355382  1
  Tm  Tm62  1  0.985386  0.340768  0.826153  1
  Tm  Tm63  1  0.014614  0.355382  0.340768  1
