# generated using pymatgen
data_SmMo5O8
_symmetry_space_group_name_H-M   'P 1'
_cell_length_a   8.38578189
_cell_length_b   9.26918672
_cell_length_c   10.76462035
_cell_angle_alpha   90.00000000
_cell_angle_beta   109.44447362
_cell_angle_gamma   90.00000000
_symmetry_Int_Tables_number   1
_chemical_formula_structural   SmMo5O8
_chemical_formula_sum   'Sm4 Mo20 O32'
_cell_volume   789.00412792
_cell_formula_units_Z   4
loop_
 _symmetry_equiv_pos_site_id
 _symmetry_equiv_pos_as_xyz
  1  'x, y, z'
loop_
 _atom_site_type_symbol
 _atom_site_label
 _atom_site_symmetry_multiplicity
 _atom_site_fract_x
 _atom_site_fract_y
 _atom_site_fract_z
 _atom_site_occupancy
  O  O0  1  0.418665  0.498525  0.865995  1
  O  O1  1  0.581334  -0.001474  0.634005  1
  O  O2  1  0.581334  0.501475  0.134004  1
  O  O3  1  0.418665  1.001474  0.365995  1
  O  O4  1  0.626410  0.715066  0.329309  1
  O  O5  1  0.373590  0.215067  0.170690  1
  O  O6  1  0.373590  0.284934  0.670691  1
  O  O7  1  0.626410  0.784933  0.829309  1
  O  O8  1  0.209119  0.709265  0.684329  1
  O  O9  1  0.790881  0.209265  0.815672  1
  O  O10  1  0.790881  0.290735  0.315671  1
  O  O11  1  0.209118  0.790735  0.184329  1
  O  O12  1  0.811510  0.712783  0.592102  1
  O  O13  1  0.188489  0.212782  0.907898  1
  O  O14  1  0.188489  0.287217  0.407898  1
  O  O15  1  0.811510  0.787217  0.092102  1
  O  O16  1  0.396632  0.749515  0.510558  1
  O  O17  1  0.603368  0.249514  0.989442  1
  O  O18  1  0.603368  0.250486  0.489441  1
  O  O19  1  0.396633  0.750486  0.010559  1
  O  O20  1  0.985603  0.490709  0.767419  1
  O  O21  1  0.014397  0.990709  0.732581  1
  O  O22  1  0.014396  0.509290  0.232582  1
  O  O23  1  0.985603  0.009291  0.267418  1
  O  O24  1  0.406176  0.002998  0.853893  1
  O  O25  1  0.593826  0.502999  0.646108  1
  O  O26  1  0.593826  0.997002  0.146107  1
  O  O27  1  0.406175  0.497001  0.353893  1
  O  O28  1  1.011205  0.750607  0.408749  1
  O  O29  1  -0.011203  0.249393  0.591251  1
  O  O30  1  -0.011203  0.250608  0.091251  1
  O  O31  1  1.011203  0.749393  0.908748  1
  Mo  Mo32  1  1.010707  0.644430  0.079106  1
  Mo  Mo33  1  -0.010708  0.144430  0.420894  1
  Mo  Mo34  1  -0.010708  0.355570  0.920893  1
  Mo  Mo35  1  1.010707  0.855570  0.579107  1
  Mo  Mo36  1  0.796837  0.642167  0.773566  1
  Mo  Mo37  1  0.203163  0.142167  0.726433  1
  Mo  Mo38  1  0.203163  0.357833  0.226433  1
  Mo  Mo39  1  0.796837  0.857833  0.273567  1
  Mo  Mo40  1  0.197971  0.625730  0.864015  1
  Mo  Mo41  1  0.802029  0.125730  0.635985  1
  Mo  Mo42  1  0.802029  0.374270  0.135986  1
  Mo  Mo43  1  0.197971  0.874270  0.364014  1
  Mo  Mo44  1  0.609639  0.851817  0.482652  1
  Mo  Mo45  1  0.596434  0.137319  0.310420  1
  Mo  Mo46  1  0.596434  0.362682  0.810419  1
  Mo  Mo47  1  0.403566  0.862682  0.689580  1
  Mo  Mo48  1  0.609639  0.648183  0.982652  1
  Mo  Mo49  1  0.390361  0.148183  0.517348  1
  Mo  Mo50  1  0.390361  0.351817  0.017348  1
  Mo  Mo51  1  0.403566  0.637318  0.189580  1
  Sm  Sm52  1  0.302654  0.984362  0.034286  1
  Sm  Sm53  1  0.697346  0.484363  0.465714  1
  Sm  Sm54  1  0.697346  0.015638  0.965715  1
  Sm  Sm55  1  0.302654  0.515637  0.534286  1
