# generated using pymatgen
data_Te2MoWSeS
_symmetry_space_group_name_H-M   'P 1'
_cell_length_a   3.39487251
_cell_length_b   3.39488330
_cell_length_c   40.50938012
_cell_angle_alpha   90.00779989
_cell_angle_beta   90.00031730
_cell_angle_gamma   119.99965379
_symmetry_Int_Tables_number   1
_chemical_formula_structural   Te2MoWSeS
_chemical_formula_sum   'Te4 Mo2 W2 Se2 S2'
_cell_volume   404.33008645
_cell_formula_units_Z   2
loop_
 _symmetry_equiv_pos_site_id
 _symmetry_equiv_pos_as_xyz
  1  'x, y, z'
loop_
 _atom_site_type_symbol
 _atom_site_label
 _atom_site_symmetry_multiplicity
 _atom_site_fract_x
 _atom_site_fract_y
 _atom_site_fract_z
 _atom_site_occupancy
  Te  Te0  1  0.333406  0.666795  0.706096  1
  Te  Te1  1  0.666643  0.333273  0.420996  1
  Te  Te2  1  0.666765  0.333494  0.514086  1
  Te  Te3  1  0.333275  0.666540  0.613552  1
  Mo  Mo4  1  0.333354  0.666684  0.093804  1
  Mo  Mo5  1  0.666669  0.333322  0.659838  1
  W  W6  1  0.333366  0.666715  0.467531  1
  W  W7  1  0.666608  0.333283  0.281740  1
  Se  Se8  1  0.666655  0.333296  0.053063  1
  Se  Se9  1  0.666730  0.333428  0.134542  1
  S  S10  1  0.333310  0.666676  0.318955  1
  S  S11  1  0.333219  0.666493  0.244545  1
