# generated using pymatgen
data_Te2Mo3W(SeS2)2
_symmetry_space_group_name_H-M   'P 1'
_cell_length_a   3.30704610
_cell_length_b   3.30702472
_cell_length_c   39.12708292
_cell_angle_alpha   89.99980703
_cell_angle_beta   90.00000000
_cell_angle_gamma   120.00021383
_symmetry_Int_Tables_number   1
_chemical_formula_structural   Te2Mo3W(SeS2)2
_chemical_formula_sum   'Te2 Mo3 W1 Se2 S4'
_cell_volume   370.58245776
_cell_formula_units_Z   1
loop_
 _symmetry_equiv_pos_site_id
 _symmetry_equiv_pos_as_xyz
  1  'x, y, z'
loop_
 _atom_site_type_symbol
 _atom_site_label
 _atom_site_symmetry_multiplicity
 _atom_site_fract_x
 _atom_site_fract_y
 _atom_site_fract_z
 _atom_site_occupancy
  Te  Te0  1  0.333321  0.666643  0.329882  1
  Te  Te1  1  0.333334  0.666669  0.232090  1
  Mo  Mo2  1  0.333252  0.666504  0.093487  1
  Mo  Mo3  1  0.666657  0.333315  0.280973  1
  Mo  Mo4  1  0.666709  0.333418  0.657570  1
  W  W5  1  0.333371  0.666741  0.470861  1
  Se  Se6  1  0.666760  0.333518  0.427746  1
  Se  Se7  1  0.666695  0.333389  0.514003  1
  S  S8  1  0.333387  0.666775  0.696635  1
  S  S9  1  0.666587  0.333174  0.054461  1
  S  S10  1  0.666552  0.333103  0.132509  1
  S  S11  1  0.333375  0.666751  0.618528  1
