# generated using pymatgen
data_BaHo2CuO5
_symmetry_space_group_name_H-M   'P 1'
_cell_length_a   5.68849879
_cell_length_b   7.20474738
_cell_length_c   12.21924394
_cell_angle_alpha   90.00000000
_cell_angle_beta   90.00000000
_cell_angle_gamma   90.00000000
_symmetry_Int_Tables_number   1
_chemical_formula_structural   BaHo2CuO5
_chemical_formula_sum   'Ba4 Ho8 Cu4 O20'
_cell_volume   500.79589781
_cell_formula_units_Z   4
loop_
 _symmetry_equiv_pos_site_id
 _symmetry_equiv_pos_as_xyz
  1  'x, y, z'
loop_
 _atom_site_type_symbol
 _atom_site_label
 _atom_site_symmetry_multiplicity
 _atom_site_fract_x
 _atom_site_fract_y
 _atom_site_fract_z
 _atom_site_occupancy
  O  O0  1  0.250000  0.414640  0.600183  1
  O  O1  1  0.750000  0.585360  0.399817  1
  O  O2  1  0.750000  0.914640  0.899817  1
  O  O3  1  0.250000  0.085360  0.100183  1
  O  O4  1  0.003119  0.856411  0.271913  1
  O  O5  1  0.503119  0.143589  0.728087  1
  O  O6  1  0.996881  0.356411  0.228087  1
  O  O7  1  0.496881  0.643589  0.771913  1
  O  O8  1  0.996881  0.143589  0.728087  1
  O  O9  1  0.496881  0.856411  0.271913  1
  O  O10  1  0.003119  0.643589  0.771913  1
  O  O11  1  0.503119  0.356411  0.228087  1
  O  O12  1  0.494926  0.660912  0.068057  1
  O  O13  1  0.994926  0.339088  0.931943  1
  O  O14  1  0.505074  0.160912  0.431943  1
  O  O15  1  0.005074  0.839088  0.568057  1
  O  O16  1  0.994926  0.160912  0.431943  1
  O  O17  1  0.494926  0.839088  0.568057  1
  O  O18  1  0.005074  0.660912  0.068057  1
  O  O19  1  0.505074  0.339088  0.931943  1
  Cu  Cu20  1  0.250000  0.782264  0.160636  1
  Cu  Cu21  1  0.750000  0.217736  0.839364  1
  Cu  Cu22  1  0.750000  0.282264  0.339364  1
  Cu  Cu23  1  0.250000  0.717736  0.660636  1
  Ba  Ba24  1  0.750000  0.068889  0.095782  1
  Ba  Ba25  1  0.750000  0.431111  0.595782  1
  Ba  Ba26  1  0.250000  0.568889  0.404218  1
  Ba  Ba27  1  0.250000  0.931111  0.904218  1
  Ho  Ho28  1  0.250000  0.396917  0.073902  1
  Ho  Ho29  1  0.750000  0.613479  0.212991  1
  Ho  Ho30  1  0.750000  0.886521  0.712991  1
  Ho  Ho31  1  0.250000  0.113479  0.287009  1
  Ho  Ho32  1  0.750000  0.603083  0.926098  1
  Ho  Ho33  1  0.750000  0.896917  0.426098  1
  Ho  Ho34  1  0.250000  0.103083  0.573902  1
  Ho  Ho35  1  0.250000  0.386521  0.787009  1
