# generated using pymatgen
data_TeMoWSeS2
_symmetry_space_group_name_H-M   'P 1'
_cell_length_a   3.30870384
_cell_length_b   3.30871277
_cell_length_c   37.64541271
_cell_angle_alpha   90.00023096
_cell_angle_beta   90.00000000
_cell_angle_gamma   119.99991072
_symmetry_Int_Tables_number   1
_chemical_formula_structural   TeMoWSeS2
_chemical_formula_sum   'Te2 Mo2 W2 Se2 S4'
_cell_volume   356.91109451
_cell_formula_units_Z   2
loop_
 _symmetry_equiv_pos_site_id
 _symmetry_equiv_pos_as_xyz
  1  'x, y, z'
loop_
 _atom_site_type_symbol
 _atom_site_label
 _atom_site_symmetry_multiplicity
 _atom_site_fract_x
 _atom_site_fract_y
 _atom_site_fract_z
 _atom_site_occupancy
  Te  Te0  1  0.333352  0.666705  0.708662  1
  Te  Te1  1  0.333355  0.666711  0.606410  1
  Mo  Mo2  1  0.333337  0.666674  0.469645  1
  Mo  Mo3  1  0.666687  0.333373  0.281814  1
  W  W4  1  0.333313  0.666626  0.093920  1
  W  W5  1  0.666688  0.333376  0.657564  1
  Se  Se6  1  0.333367  0.666736  0.326438  1
  Se  Se7  1  0.333350  0.666701  0.237166  1
  S  S8  1  0.666646  0.333291  0.053181  1
  S  S9  1  0.666629  0.333258  0.429069  1
  S  S10  1  0.666646  0.333292  0.134656  1
  S  S11  1  0.666629  0.333257  0.510224  1
