# generated using pymatgen
data_CeZnGa
_symmetry_space_group_name_H-M   'P 1'
_cell_length_a   4.49156393
_cell_length_b   4.49152204
_cell_length_c   7.47396182
_cell_angle_alpha   90.00000000
_cell_angle_beta   90.00000000
_cell_angle_gamma   120.00030843
_symmetry_Int_Tables_number   1
_chemical_formula_structural   CeZnGa
_chemical_formula_sum   'Ce2 Zn2 Ga2'
_cell_volume   130.57838040
_cell_formula_units_Z   2
loop_
 _symmetry_equiv_pos_site_id
 _symmetry_equiv_pos_as_xyz
  1  'x, y, z'
loop_
 _atom_site_type_symbol
 _atom_site_label
 _atom_site_symmetry_multiplicity
 _atom_site_fract_x
 _atom_site_fract_y
 _atom_site_fract_z
 _atom_site_occupancy
  Ce  Ce0  1  -0.000000  0.000000  0.500000  1
  Ce  Ce1  1  0.000000  0.000000  0.000000  1
  Zn  Zn2  1  0.333322  0.666645  0.750000  1
  Zn  Zn3  1  0.666678  0.333355  0.250000  1
  Ga  Ga4  1  0.333323  0.666645  0.250000  1
  Ga  Ga5  1  0.666677  0.333355  0.750000  1
