# generated using pymatgen
data_MgP4O11
_symmetry_space_group_name_H-M   'P 1'
_cell_length_a   5.47310669
_cell_length_b   7.57533926
_cell_length_c   22.56848552
_cell_angle_alpha   90.00000000
_cell_angle_beta   90.00000000
_cell_angle_gamma   111.25531222
_symmetry_Int_Tables_number   1
_chemical_formula_structural   MgP4O11
_chemical_formula_sum   'Mg4 P16 O44'
_cell_volume   872.05190707
_cell_formula_units_Z   4
loop_
 _symmetry_equiv_pos_site_id
 _symmetry_equiv_pos_as_xyz
  1  'x, y, z'
loop_
 _atom_site_type_symbol
 _atom_site_label
 _atom_site_symmetry_multiplicity
 _atom_site_fract_x
 _atom_site_fract_y
 _atom_site_fract_z
 _atom_site_occupancy
  O  O0  1  0.340803  0.476407  0.335417  1
  O  O1  1  0.659197  0.023593  0.835417  1
  O  O2  1  0.659197  0.523593  0.664583  1
  O  O3  1  0.340803  0.976407  0.164583  1
  O  O4  1  0.783625  0.702916  0.549040  1
  O  O5  1  0.216375  0.797084  0.049040  1
  O  O6  1  0.216375  0.297084  0.450960  1
  O  O7  1  0.783625  0.202916  0.950960  1
  O  O8  1  0.337735  0.751642  0.565501  1
  O  O9  1  0.662265  0.748358  0.065501  1
  O  O10  1  0.662265  0.248358  0.434499  1
  O  O11  1  0.337735  0.251642  0.934499  1
  O  O12  1  0.799979  0.449351  0.320375  1
  O  O13  1  0.200021  0.050649  0.820375  1
  O  O14  1  0.200021  0.550649  0.679625  1
  O  O15  1  0.799979  0.949351  0.179625  1
  O  O16  1  0.740997  0.760822  0.305190  1
  O  O17  1  0.764847  0.528534  0.953430  1
  O  O18  1  0.764847  0.028534  0.546570  1
  O  O19  1  0.235153  0.471466  0.046570  1
  O  O20  1  0.561890  0.801130  0.464432  1
  O  O21  1  0.438110  0.698870  0.964432  1
  O  O22  1  0.438110  0.198870  0.535568  1
  O  O23  1  0.561890  0.301130  0.035568  1
  O  O24  1  0.740997  0.260822  0.194810  1
  O  O25  1  0.259003  0.239178  0.694810  1
  O  O26  1  0.259003  0.739178  0.805190  1
  O  O27  1  0.531352  0.990455  0.265930  1
  O  O28  1  0.087027  0.628390  0.425787  1
  O  O29  1  0.912973  0.871610  0.925787  1
  O  O30  1  0.912973  0.371610  0.574213  1
  O  O31  1  0.087027  0.128390  0.074213  1
  O  O32  1  0.431143  0.875026  0.364517  1
  O  O33  1  0.568857  0.624974  0.864517  1
  O  O34  1  0.568857  0.124974  0.635483  1
  O  O35  1  0.431143  0.375026  0.135483  1
  O  O36  1  0.907497  0.096253  0.342901  1
  O  O37  1  0.092503  0.403747  0.842901  1
  O  O38  1  0.092503  0.903747  0.657099  1
  O  O39  1  0.907497  0.596253  0.157099  1
  O  O40  1  0.531352  0.490455  0.234070  1
  O  O41  1  0.468648  0.009545  0.734070  1
  O  O42  1  0.468648  0.509545  0.765930  1
  O  O43  1  0.235153  0.971466  0.453430  1
  Mg  Mg44  1  0.998455  0.635091  0.614669  1
  Mg  Mg45  1  0.001545  0.864909  0.114669  1
  Mg  Mg46  1  0.001545  0.364909  0.385331  1
  Mg  Mg47  1  0.998455  0.135091  0.885331  1
  P  P48  1  0.314970  0.305912  0.071331  1
  P  P49  1  0.685030  0.194088  0.571331  1
  P  P50  1  0.685030  0.694088  0.928669  1
  P  P51  1  0.314970  0.805912  0.428669  1
  P  P52  1  0.596319  0.027614  0.195044  1
  P  P53  1  0.403681  0.472386  0.695044  1
  P  P54  1  0.403681  0.972386  0.804956  1
  P  P55  1  0.596319  0.527614  0.304956  1
  P  P56  1  0.598470  0.299926  0.962855  1
  P  P57  1  0.401530  0.200074  0.462855  1
  P  P58  1  0.401530  0.700074  0.037145  1
  P  P59  1  0.598470  0.799926  0.537145  1
  P  P60  1  0.674764  0.941043  0.320696  1
  P  P61  1  0.325236  0.558957  0.820696  1
  P  P62  1  0.325236  0.058957  0.679304  1
  P  P63  1  0.674764  0.441043  0.179304  1
