# generated using pymatgen
data_Ba3NbGa3(SiO7)2
_symmetry_space_group_name_H-M   'P 1'
_cell_length_a   8.65363881
_cell_length_b   8.65363880
_cell_length_c   5.27368871
_cell_angle_alpha   90.00000000
_cell_angle_beta   90.00000000
_cell_angle_gamma   119.99999999
_symmetry_Int_Tables_number   1
_chemical_formula_structural   Ba3NbGa3(SiO7)2
_chemical_formula_sum   'Ba3 Nb1 Ga3 Si2 O14'
_cell_volume   342.01302945
_cell_formula_units_Z   1
loop_
 _symmetry_equiv_pos_site_id
 _symmetry_equiv_pos_as_xyz
  1  'x, y, z'
loop_
 _atom_site_type_symbol
 _atom_site_label
 _atom_site_symmetry_multiplicity
 _atom_site_fract_x
 _atom_site_fract_y
 _atom_site_fract_z
 _atom_site_occupancy
  O  O0  1  0.109413  0.218377  0.772782  1
  O  O1  1  0.781623  0.891035  0.772782  1
  O  O2  1  0.108965  0.890587  0.772782  1
  O  O3  1  0.891036  0.781623  0.227217  1
  O  O4  1  0.890587  0.108964  0.227217  1
  O  O5  1  0.218377  0.109413  0.227217  1
  O  O6  1  0.301746  0.476530  0.353675  1
  O  O7  1  0.523469  0.825216  0.353675  1
  O  O8  1  0.174784  0.698254  0.353675  1
  O  O9  1  0.333333  0.666666  0.785716  1
  O  O10  1  0.666667  0.333333  0.214283  1
  O  O11  1  0.825216  0.523470  0.646324  1
  O  O12  1  0.698253  0.174784  0.646324  1
  O  O13  1  0.476531  0.301747  0.646324  1
  Si  Si14  1  0.666667  0.333333  0.519607  1
  Si  Si15  1  0.333333  0.666666  0.480394  1
  Ga  Ga16  1  0.258107  0.258107  0.500000  1
  Ga  Ga17  1  0.000000  0.741893  0.500000  1
  Ga  Ga18  1  0.741893  0.000000  0.500000  1
  Nb  Nb19  1  0.000000  0.000000  0.000000  1
  Ba  Ba20  1  0.000000  0.429052  0.000000  1
  Ba  Ba21  1  0.570948  0.570948  0.000000  1
  Ba  Ba22  1  0.429051  0.000000  0.000000  1
