# generated using pymatgen
data_CaMg3SiN4
_symmetry_space_group_name_H-M   'P 1'
_cell_length_a   10.56176355
_cell_length_b   10.56176355
_cell_length_c   10.56176355
_cell_angle_alpha   100.59770842
_cell_angle_beta   114.08201986
_cell_angle_gamma   114.08201986
_symmetry_Int_Tables_number   1
_chemical_formula_structural   CaMg3SiN4
_chemical_formula_sum   'Ca8 Mg24 Si8 N32'
_cell_volume   891.00931969
_cell_formula_units_Z   8
loop_
 _symmetry_equiv_pos_site_id
 _symmetry_equiv_pos_as_xyz
  1  'x, y, z'
loop_
 _atom_site_type_symbol
 _atom_site_label
 _atom_site_symmetry_multiplicity
 _atom_site_fract_x
 _atom_site_fract_y
 _atom_site_fract_z
 _atom_site_occupancy
  Ca  Ca0  1  0.213554  0.577858  0.320072  1
  Ca  Ca1  1  0.286446  0.106518  0.864304  1
  Ca  Ca2  1  0.242214  0.320072  0.106518  1
  Ca  Ca3  1  0.257786  0.864304  0.577858  1
  Ca  Ca4  1  0.786446  0.422142  0.679928  1
  Ca  Ca5  1  0.713554  0.893482  0.135696  1
  Ca  Ca6  1  0.757786  0.679928  0.893482  1
  Ca  Ca7  1  0.742214  0.135696  0.422142  1
  Mg  Mg8  1  0.110099  0.174596  0.292160  1
  Mg  Mg9  1  0.389901  0.182061  0.564496  1
  Mg  Mg10  1  0.617564  0.292160  0.182061  1
  Mg  Mg11  1  0.882436  0.564496  0.174596  1
  Mg  Mg12  1  0.889901  0.825404  0.707840  1
  Mg  Mg13  1  0.610099  0.817939  0.435504  1
  Mg  Mg14  1  0.382436  0.707840  0.817939  1
  Mg  Mg15  1  0.117564  0.435504  0.825404  1
  Mg  Mg16  1  0.427987  0.471310  0.577313  1
  Mg  Mg17  1  0.072013  0.149326  0.543323  1
  Mg  Mg18  1  0.606003  0.577313  0.149326  1
  Mg  Mg19  1  0.893997  0.543323  0.471310  1
  Mg  Mg20  1  0.572013  0.528690  0.422687  1
  Mg  Mg21  1  0.927987  0.850674  0.456677  1
  Mg  Mg22  1  0.393997  0.422687  0.850674  1
  Mg  Mg23  1  0.106003  0.456677  0.528690  1
  Mg  Mg24  1  0.065080  0.655699  0.032209  1
  Mg  Mg25  1  0.434920  0.967130  0.090620  1
  Mg  Mg26  1  0.876510  0.032209  0.967130  1
  Mg  Mg27  1  0.623490  0.090620  0.655699  1
  Mg  Mg28  1  0.934920  0.344301  0.967791  1
  Mg  Mg29  1  0.565080  0.032870  0.909380  1
  Mg  Mg30  1  0.123490  0.967791  0.032870  1
  Mg  Mg31  1  0.376510  0.909380  0.344301  1
  Si  Si32  1  0.390801  0.656873  0.125934  1
  Si  Si33  1  0.109199  0.735133  0.766072  1
  Si  Si34  1  0.969061  0.125934  0.735133  1
  Si  Si35  1  0.530939  0.766072  0.656873  1
  Si  Si36  1  0.609199  0.343127  0.874066  1
  Si  Si37  1  0.890801  0.264867  0.233928  1
  Si  Si38  1  0.030939  0.874066  0.264867  1
  Si  Si39  1  0.469061  0.233928  0.343127  1
  N  N40  1  0.358682  0.314502  0.372017  1
  N  N41  1  0.141318  0.013335  0.455819  1
  N  N42  1  0.557516  0.372017  0.013335  1
  N  N43  1  0.942484  0.455819  0.314502  1
  N  N44  1  0.641318  0.685498  0.627983  1
  N  N45  1  0.858682  0.986665  0.544181  1
  N  N46  1  0.442484  0.627983  0.986665  1
  N  N47  1  0.057516  0.544181  0.685498  1
  N  N48  1  0.179754  0.533894  0.051781  1
  N  N49  1  0.320246  0.872027  0.854140  1
  N  N50  1  0.017886  0.051781  0.872027  1
  N  N51  1  0.482114  0.854140  0.533894  1
  N  N52  1  0.820246  0.466106  0.948219  1
  N  N53  1  0.679754  0.127973  0.145860  1
  N  N54  1  0.982114  0.948219  0.127973  1
  N  N55  1  0.517886  0.145860  0.466106  1
  N  N56  1  0.488880  0.596951  0.260485  1
  N  N57  1  0.011120  0.771604  0.608070  1
  N  N58  1  0.163534  0.260485  0.771604  1
  N  N59  1  0.336466  0.608070  0.596951  1
  N  N60  1  0.511120  0.403049  0.739515  1
  N  N61  1  0.988880  0.228396  0.391930  1
  N  N62  1  0.836466  0.739515  0.228396  1
  N  N63  1  0.663534  0.391930  0.403049  1
  N  N64  1  0.982903  0.253767  0.127605  1
  N  N65  1  0.517097  0.144702  0.770865  1
  N  N66  1  0.373838  0.127605  0.144702  1
  N  N67  1  0.126162  0.770865  0.253767  1
  N  N68  1  0.017097  0.746233  0.872395  1
  N  N69  1  0.482903  0.855298  0.229135  1
  N  N70  1  0.626162  0.872395  0.855298  1
  N  N71  1  0.873838  0.229135  0.746233  1
