# generated using pymatgen
data_Ca4Al6WO16
_symmetry_space_group_name_H-M   'P 1'
_cell_length_a   8.19278293
_cell_length_b   8.19278293
_cell_length_c   8.19278293
_cell_angle_alpha   109.47122062
_cell_angle_beta   109.47122062
_cell_angle_gamma   109.47122065
_symmetry_Int_Tables_number   1
_chemical_formula_structural   Ca4Al6WO16
_chemical_formula_sum   'Ca4 Al6 W1 O16'
_cell_volume   423.32357379
_cell_formula_units_Z   1
loop_
 _symmetry_equiv_pos_site_id
 _symmetry_equiv_pos_as_xyz
  1  'x, y, z'
loop_
 _atom_site_type_symbol
 _atom_site_label
 _atom_site_symmetry_multiplicity
 _atom_site_fract_x
 _atom_site_fract_y
 _atom_site_fract_z
 _atom_site_occupancy
  O  O0  1  0.302863  0.693121  0.302863  1
  O  O1  1  0.306879  0.609742  0.609742  1
  O  O2  1  0.609742  0.609742  0.306879  1
  O  O3  1  0.390258  0.697137  0.000000  1
  O  O4  1  0.000000  0.697137  0.390258  1
  O  O5  1  0.302863  0.302863  0.693121  1
  O  O6  1  0.697137  0.390258  0.000000  1
  O  O7  1  0.390258  0.000000  0.697137  1
  O  O8  1  0.697137  0.000000  0.390258  1
  O  O9  1  0.000000  0.390258  0.697137  1
  O  O10  1  0.693121  0.302863  0.302863  1
  O  O11  1  0.779117  0.779117  0.779117  1
  O  O12  1  0.220883  0.000000  0.000000  1
  O  O13  1  0.000000  0.220883  0.000000  1
  O  O14  1  0.000000  0.000000  0.220883  1
  O  O15  1  0.609742  0.306879  0.609742  1
  Al  Al16  1  0.750000  0.500000  0.250000  1
  Al  Al17  1  0.500000  0.750000  0.250000  1
  Al  Al18  1  0.250000  0.750000  0.500000  1
  Al  Al19  1  0.750000  0.250000  0.500000  1
  Al  Al20  1  0.500000  0.250000  0.750000  1
  Al  Al21  1  0.250000  0.500000  0.750000  1
  Ca  Ca22  1  0.498005  0.000000  0.000000  1
  Ca  Ca23  1  0.000000  0.000000  0.498005  1
  Ca  Ca24  1  0.501995  0.501995  0.501995  1
  Ca  Ca25  1  0.000000  0.498005  0.000000  1
  W  W26  1  0.000000  0.000000  0.000000  1
