# generated using pymatgen
data_Sr6Y2Al4O15
_symmetry_space_group_name_H-M   'P 1'
_cell_length_a   5.79895205
_cell_length_b   9.34672452
_cell_length_c   7.77352681
_cell_angle_alpha   90.61308472
_cell_angle_beta   90.00000000
_cell_angle_gamma   108.07207104
_symmetry_Int_Tables_number   1
_chemical_formula_structural   Sr6Y2Al4O15
_chemical_formula_sum   'Sr6 Y2 Al4 O15'
_cell_volume   400.52349352
_cell_formula_units_Z   1
loop_
 _symmetry_equiv_pos_site_id
 _symmetry_equiv_pos_as_xyz
  1  'x, y, z'
loop_
 _atom_site_type_symbol
 _atom_site_label
 _atom_site_symmetry_multiplicity
 _atom_site_fract_x
 _atom_site_fract_y
 _atom_site_fract_z
 _atom_site_occupancy
  Sr  Sr0  1  0.687351  0.344574  0.504346  1
  Sr  Sr1  1  0.342777  0.655426  0.495654  1
  Sr  Sr2  1  0.691092  0.318211  0.965508  1
  Sr  Sr3  1  0.372882  0.681790  0.034492  1
  Sr  Sr4  1  0.973935  0.000000  0.000000  1
  Sr  Sr5  1  0.904811  0.000000  0.500000  1
  Y  Y6  1  0.849889  0.685267  0.753216  1
  Y  Y7  1  0.164622  0.314733  0.246784  1
  Al  Al8  1  0.827784  0.618795  0.244619  1
  Al  Al9  1  0.208989  0.381205  0.755381  1
  Al  Al10  1  0.481829  0.027004  0.226392  1
  Al  Al11  1  0.454825  0.972996  0.773608  1
  O  O12  1  0.862315  0.725371  0.051681  1
  O  O13  1  0.136943  0.274629  0.948319  1
  O  O14  1  0.046584  0.520745  0.235655  1
  O  O15  1  0.525839  0.479255  0.764344  1
  O  O16  1  0.534246  0.479991  0.227779  1
  O  O17  1  0.054255  0.520009  0.772221  1
  O  O18  1  0.759417  0.178125  0.256797  1
  O  O19  1  0.581292  0.821875  0.743203  1
  O  O20  1  0.227093  0.086995  0.272785  1
  O  O21  1  0.140098  0.913005  0.727215  1
  O  O22  1  0.512269  0.860418  0.308704  1
  O  O23  1  0.651852  0.139582  0.691296  1
  O  O24  1  0.846918  0.683738  0.462592  1
  O  O25  1  0.163180  0.316262  0.537408  1
  O  O26  1  0.467711  0.000000  0.000000  1
