# generated using pymatgen
data_Te4Mo3W(SeS)2
_symmetry_space_group_name_H-M   'P 1'
_cell_length_a   3.39622493
_cell_length_b   3.39653422
_cell_length_c   45.67614093
_cell_angle_alpha   89.98232938
_cell_angle_beta   90.00000000
_cell_angle_gamma   119.99698792
_symmetry_Int_Tables_number   1
_chemical_formula_structural   Te4Mo3W(SeS)2
_chemical_formula_sum   'Te4 Mo3 W1 Se2 S2'
_cell_volume   456.31592851
_cell_formula_units_Z   1
loop_
 _symmetry_equiv_pos_site_id
 _symmetry_equiv_pos_as_xyz
  1  'x, y, z'
loop_
 _atom_site_type_symbol
 _atom_site_label
 _atom_site_symmetry_multiplicity
 _atom_site_fract_x
 _atom_site_fract_y
 _atom_site_fract_z
 _atom_site_occupancy
  Te  Te0  1  0.333440  0.666881  0.703691  1
  Te  Te1  1  0.666839  0.333677  0.423689  1
  Te  Te2  1  0.666533  0.333066  0.505761  1
  Te  Te3  1  0.333440  0.666881  0.621638  1
  Mo  Mo4  1  0.333156  0.666312  0.093844  1
  Mo  Mo5  1  0.333331  0.666661  0.464685  1
  Mo  Mo6  1  0.666789  0.333577  0.662686  1
  W  W7  1  0.666726  0.333451  0.281676  1
  Se  Se8  1  0.666553  0.333106  0.057781  1
  Se  Se9  1  0.666474  0.332948  0.129992  1
  S  S10  1  0.333289  0.666578  0.314614  1
  S  S11  1  0.333430  0.666861  0.248690  1
