# generated using pymatgen
data_Ba5Dy8Zn4O21
_symmetry_space_group_name_H-M   'P 1'
_cell_length_a   5.75813139
_cell_length_b   10.24409116
_cell_length_c   10.24409115
_cell_angle_alpha   85.46965219
_cell_angle_beta   73.67732856
_cell_angle_gamma   73.67732854
_symmetry_Int_Tables_number   1
_chemical_formula_structural   Ba5Dy8Zn4O21
_chemical_formula_sum   'Ba5 Dy8 Zn4 O21'
_cell_volume   556.53712808
_cell_formula_units_Z   1
loop_
 _symmetry_equiv_pos_site_id
 _symmetry_equiv_pos_as_xyz
  1  'x, y, z'
loop_
 _atom_site_type_symbol
 _atom_site_label
 _atom_site_symmetry_multiplicity
 _atom_site_fract_x
 _atom_site_fract_y
 _atom_site_fract_z
 _atom_site_occupancy
  O  O0  1  0.099592  0.890873  0.405701  1
  O  O1  1  0.505293  0.594299  0.890873  1
  O  O2  1  0.990465  0.405701  0.109127  1
  O  O3  1  0.396166  0.109127  0.594299  1
  O  O4  1  0.900408  0.109127  0.594299  1
  O  O5  1  0.494707  0.405701  0.109127  1
  O  O6  1  0.009535  0.594299  0.890873  1
  O  O7  1  0.603834  0.890873  0.405701  1
  O  O8  1  0.927823  0.869967  0.774356  1
  O  O9  1  0.702179  0.225644  0.869967  1
  O  O10  1  0.797790  0.774356  0.130033  1
  O  O11  1  0.572146  0.130033  0.225644  1
  O  O12  1  0.072177  0.130033  0.225644  1
  O  O13  1  0.297821  0.774356  0.130033  1
  O  O14  1  0.202210  0.225644  0.869967  1
  O  O15  1  0.427854  0.869967  0.774356  1
  O  O16  1  0.371978  0.665293  0.590751  1
  O  O17  1  0.500000  0.000000  0.000000  1
  O  O18  1  0.628022  0.334707  0.409249  1
  O  O19  1  0.037271  0.590751  0.334707  1
  O  O20  1  0.962729  0.409249  0.665293  1
  Zn  Zn21  1  0.959385  0.789795  0.291434  1
  Zn  Zn22  1  0.250820  0.708566  0.789795  1
  Zn  Zn23  1  0.749180  0.291434  0.210205  1
  Zn  Zn24  1  0.040615  0.210205  0.708566  1
  Ba  Ba25  1  0.465127  0.395632  0.674115  1
  Ba  Ba26  1  0.139242  0.325885  0.395632  1
  Ba  Ba27  1  0.860758  0.674115  0.604368  1
  Ba  Ba28  1  0.534873  0.604368  0.325885  1
  Ba  Ba29  1  0.000000  0.000000  0.000000  1
  Dy  Dy30  1  0.588667  0.053503  0.769163  1
  Dy  Dy31  1  0.357830  0.230837  0.053503  1
  Dy  Dy32  1  0.642170  0.769163  0.946497  1
  Dy  Dy33  1  0.411333  0.946497  0.230837  1
  Dy  Dy34  1  0.752697  0.079450  0.415156  1
  Dy  Dy35  1  0.167853  0.584844  0.079450  1
  Dy  Dy36  1  0.832147  0.415156  0.920550  1
  Dy  Dy37  1  0.247303  0.920550  0.584844  1
