# generated using pymatgen
data_CsAlPdF6
_symmetry_space_group_name_H-M   'P 1'
_cell_length_a   7.27979256
_cell_length_b   7.62421147
_cell_length_c   10.44765413
_cell_angle_alpha   90.00000000
_cell_angle_beta   90.00000000
_cell_angle_gamma   90.00000000
_symmetry_Int_Tables_number   1
_chemical_formula_structural   CsAlPdF6
_chemical_formula_sum   'Cs4 Al4 Pd4 F24'
_cell_volume   579.87278236
_cell_formula_units_Z   4
loop_
 _symmetry_equiv_pos_site_id
 _symmetry_equiv_pos_as_xyz
  1  'x, y, z'
loop_
 _atom_site_type_symbol
 _atom_site_label
 _atom_site_symmetry_multiplicity
 _atom_site_fract_x
 _atom_site_fract_y
 _atom_site_fract_z
 _atom_site_occupancy
  F  F0  1  0.978262  0.324069  0.382536  1
  F  F1  1  0.478262  0.675931  0.617464  1
  F  F2  1  0.521738  0.824069  0.117464  1
  F  F3  1  0.021738  0.175931  0.882536  1
  F  F4  1  0.021738  0.675931  0.617464  1
  F  F5  1  0.521738  0.324069  0.382536  1
  F  F6  1  0.478262  0.175931  0.882536  1
  F  F7  1  0.978262  0.824069  0.117464  1
  F  F8  1  0.983714  0.162985  0.127249  1
  F  F9  1  0.483714  0.837015  0.872751  1
  F  F10  1  0.516286  0.662985  0.372751  1
  F  F11  1  0.016286  0.337015  0.627249  1
  F  F12  1  0.750000  0.992765  0.351259  1
  F  F13  1  0.250000  0.007235  0.648741  1
  F  F14  1  0.750000  0.492765  0.148741  1
  F  F15  1  0.250000  0.507235  0.851259  1
  F  F16  1  0.750000  0.005376  0.975860  1
  F  F17  1  0.250000  0.994624  0.024140  1
  F  F18  1  0.750000  0.505376  0.524140  1
  F  F19  1  0.250000  0.494624  0.475860  1
  F  F20  1  0.983714  0.662985  0.372751  1
  F  F21  1  0.483714  0.337015  0.627249  1
  F  F22  1  0.516286  0.162985  0.127249  1
  F  F23  1  0.016286  0.837015  0.872751  1
  Al  Al24  1  0.000000  0.500000  0.500000  1
  Al  Al25  1  0.500000  0.500000  0.500000  1
  Al  Al26  1  0.500000  0.000000  0.000000  1
  Al  Al27  1  0.000000  0.000000  0.000000  1
  Pd  Pd28  1  0.250000  0.755548  0.747591  1
  Pd  Pd29  1  0.750000  0.244452  0.252409  1
  Pd  Pd30  1  0.250000  0.255548  0.752409  1
  Pd  Pd31  1  0.750000  0.744452  0.247591  1
  Cs  Cs32  1  0.250000  0.995506  0.360264  1
  Cs  Cs33  1  0.750000  0.004494  0.639736  1
  Cs  Cs34  1  0.250000  0.495506  0.139736  1
  Cs  Cs35  1  0.750000  0.504494  0.860264  1
