# generated using pymatgen
data_CsUAgS3
_symmetry_space_group_name_H-M   'P 1'
_cell_length_a   4.13707766
_cell_length_b   8.06236355
_cell_length_c   10.54877551
_cell_angle_alpha   90.00000000
_cell_angle_beta   90.00000000
_cell_angle_gamma   104.86647477
_symmetry_Int_Tables_number   1
_chemical_formula_structural   CsUAgS3
_chemical_formula_sum   'Cs2 U2 Ag2 S6'
_cell_volume   340.07273040
_cell_formula_units_Z   2
loop_
 _symmetry_equiv_pos_site_id
 _symmetry_equiv_pos_as_xyz
  1  'x, y, z'
loop_
 _atom_site_type_symbol
 _atom_site_label
 _atom_site_symmetry_multiplicity
 _atom_site_fract_x
 _atom_site_fract_y
 _atom_site_fract_z
 _atom_site_occupancy
  S  S0  1  0.386832  0.773664  0.536634  1
  S  S1  1  0.613168  0.226336  0.463366  1
  S  S2  1  0.613168  0.226336  0.036634  1
  S  S3  1  0.052898  0.105796  0.750000  1
  S  S4  1  0.947102  0.894204  0.250000  1
  S  S5  1  0.386832  0.773664  0.963366  1
  Ag  Ag6  1  0.455091  0.910181  0.750000  1
  Ag  Ag7  1  0.544909  0.089819  0.250000  1
  Cs  Cs8  1  0.261037  0.522073  0.250000  1
  Cs  Cs9  1  0.738963  0.477927  0.750000  1
  U  U10  1  0.000000  0.000000  0.500000  1
  U  U11  1  0.000000  0.000000  0.000000  1
