# generated using pymatgen
data_K2Al2Si3O10
_symmetry_space_group_name_H-M   'P 1'
_cell_length_a   6.65402504
_cell_length_b   9.26554697
_cell_length_c   9.85403583
_cell_angle_alpha   83.03668673
_cell_angle_beta   70.26748810
_cell_angle_gamma   68.95669167
_symmetry_Int_Tables_number   1
_chemical_formula_structural   K2Al2Si3O10
_chemical_formula_sum   'K4 Al4 Si6 O20'
_cell_volume   533.72019367
_cell_formula_units_Z   2
loop_
 _symmetry_equiv_pos_site_id
 _symmetry_equiv_pos_as_xyz
  1  'x, y, z'
loop_
 _atom_site_type_symbol
 _atom_site_label
 _atom_site_symmetry_multiplicity
 _atom_site_fract_x
 _atom_site_fract_y
 _atom_site_fract_z
 _atom_site_occupancy
  K  K0  1  0.739948  0.417684  0.874861  1
  K  K1  1  0.032494  0.582316  0.125139  1
  K  K2  1  0.907633  0.082316  0.374861  1
  K  K3  1  0.364810  0.917684  0.625139  1
  Al  Al4  1  0.300950  0.429576  0.695625  1
  Al  Al5  1  0.426151  0.570424  0.304375  1
  Al  Al6  1  0.480526  0.070424  0.195625  1
  Al  Al7  1  0.746575  0.929576  0.804375  1
  Si  Si8  1  0.744811  0.500000  0.500000  1
  Si  Si9  1  0.994811  -0.000000  0.000000  1
  Si  Si10  1  0.293421  0.211410  0.943372  1
  Si  Si11  1  0.448203  0.788590  0.056628  1
  Si  Si12  1  0.254831  0.288590  0.443372  1
  Si  Si13  1  0.986794  0.711410  0.556628  1
  O  O14  1  0.574517  0.443142  0.638538  1
  O  O15  1  0.656197  0.556858  0.361462  1
  O  O16  1  0.767659  0.056858  0.138538  1
  O  O17  1  0.963055  0.943142  0.861462  1
  O  O18  1  0.218705  0.389874  0.883685  1
  O  O19  1  0.492264  0.610126  0.116315  1
  O  O20  1  0.358579  0.110126  0.383685  1
  O  O21  1  0.852390  0.889874  0.616315  1
  O  O22  1  0.271054  0.288320  0.604762  1
  O  O23  1  0.164135  0.711680  0.395238  1
  O  O24  1  0.309373  0.211680  0.104762  1
  O  O25  1  0.625815  0.788320  0.895238  1
  O  O26  1  0.530182  0.109985  0.829861  1
  O  O27  1  0.470027  0.890015  0.170139  1
  O  O28  1  0.390167  0.390015  0.329861  1
  O  O29  1  0.110042  0.609985  0.670139  1
  O  O30  1  0.086873  0.147397  0.949097  1
  O  O31  1  0.183367  0.852603  0.050903  1
  O  O32  1  0.984270  0.352603  0.449097  1
  O  O33  1  0.785971  0.647397  0.550903  1
