# generated using pymatgen
data_TeMoWSe2S
_symmetry_space_group_name_H-M   'P 1'
_cell_length_a   3.34177900
_cell_length_b   3.34174604
_cell_length_c   38.02203370
_cell_angle_alpha   90.00001449
_cell_angle_beta   90.00000000
_cell_angle_gamma   120.00032626
_symmetry_Int_Tables_number   1
_chemical_formula_structural   TeMoWSe2S
_chemical_formula_sum   'Te2 Mo2 W2 Se4 S2'
_cell_volume   367.71869832
_cell_formula_units_Z   2
loop_
 _symmetry_equiv_pos_site_id
 _symmetry_equiv_pos_as_xyz
  1  'x, y, z'
loop_
 _atom_site_type_symbol
 _atom_site_label
 _atom_site_symmetry_multiplicity
 _atom_site_fract_x
 _atom_site_fract_y
 _atom_site_fract_z
 _atom_site_occupancy
  Te  Te0  1  0.333361  0.666723  0.707401  1
  Te  Te1  1  0.333353  0.666706  0.607686  1
  Mo  Mo2  1  0.333309  0.666618  0.093887  1
  Mo  Mo3  1  0.666689  0.333378  0.657566  1
  W  W4  1  0.333311  0.666621  0.469663  1
  W  W5  1  0.666689  0.333378  0.281811  1
  Se  Se6  1  0.333351  0.666703  0.325836  1
  Se  Se7  1  0.666649  0.333296  0.050093  1
  Se  Se8  1  0.666649  0.333297  0.137727  1
  Se  Se9  1  0.333351  0.666703  0.237772  1
  S  S10  1  0.666641  0.333280  0.429622  1
  S  S11  1  0.666648  0.333296  0.509683  1
