# generated using pymatgen
data_NaV2O5
_symmetry_space_group_name_H-M   'P 1'
_cell_length_a   3.64389114
_cell_length_b   5.01135500
_cell_length_c   11.50250076
_cell_angle_alpha   90.00000000
_cell_angle_beta   90.00000000
_cell_angle_gamma   90.00000000
_symmetry_Int_Tables_number   1
_chemical_formula_structural   NaV2O5
_chemical_formula_sum   'Na2 V4 O10'
_cell_volume   210.04523492
_cell_formula_units_Z   2
loop_
 _symmetry_equiv_pos_site_id
 _symmetry_equiv_pos_as_xyz
  1  'x, y, z'
loop_
 _atom_site_type_symbol
 _atom_site_label
 _atom_site_symmetry_multiplicity
 _atom_site_fract_x
 _atom_site_fract_y
 _atom_site_fract_z
 _atom_site_occupancy
  O  O0  1  0.750001  0.925727  0.380653  1
  O  O1  1  0.250001  0.481407  0.070969  1
  O  O2  1  0.750001  0.518594  0.570969  1
  O  O3  1  0.250001  0.481407  0.429031  1
  O  O4  1  0.750001  0.469499  0.250000  1
  O  O5  1  0.250001  0.074273  0.619347  1
  O  O6  1  0.750001  0.925727  0.119347  1
  O  O7  1  0.250001  0.074273  0.880653  1
  O  O8  1  0.750001  0.518594  0.929031  1
  O  O9  1  0.250001  0.530500  0.750000  1
  Na  Na10  1  0.250001  0.124339  0.250000  1
  Na  Na11  1  0.750001  0.875661  0.750000  1
  V  V12  1  0.250001  0.400384  0.599976  1
  V  V13  1  0.750001  0.599617  0.400024  1
  V  V14  1  0.250001  0.400384  0.900024  1
  V  V15  1  0.750001  0.599617  0.099976  1
