# generated using pymatgen
data_Sm2O3
_symmetry_space_group_name_H-M   'P 1'
_cell_length_a   3.63012904
_cell_length_b   7.42279066
_cell_length_c   8.91731010
_cell_angle_alpha   99.94113865
_cell_angle_beta   90.00000000
_cell_angle_gamma   104.15381726
_symmetry_Int_Tables_number   1
_chemical_formula_structural   Sm2O3
_chemical_formula_sum   'Sm6 O9'
_cell_volume   229.26627217
_cell_formula_units_Z   3
loop_
 _symmetry_equiv_pos_site_id
 _symmetry_equiv_pos_as_xyz
  1  'x, y, z'
loop_
 _atom_site_type_symbol
 _atom_site_label
 _atom_site_symmetry_multiplicity
 _atom_site_fract_x
 _atom_site_fract_y
 _atom_site_fract_z
 _atom_site_occupancy
  O  O0  1  0.500000  0.000000  0.000000  1
  O  O1  1  0.527479  0.054957  0.656336  1
  O  O2  1  0.472521  0.945043  0.343664  1
  O  O3  1  0.204298  0.408596  0.624428  1
  O  O4  1  0.795702  0.591404  0.375572  1
  O  O5  1  0.175136  0.350272  0.971552  1
  O  O6  1  0.128621  0.257242  0.283548  1
  O  O7  1  0.871379  0.742758  0.716452  1
  O  O8  1  0.824864  0.649728  0.028448  1
  Sm  Sm9  1  0.032646  0.065292  0.812794  1
  Sm  Sm10  1  0.967354  0.934708  0.187206  1
  Sm  Sm11  1  0.308832  0.617663  0.862270  1
  Sm  Sm12  1  0.691168  0.382337  0.137730  1
  Sm  Sm13  1  0.365332  0.730664  0.511198  1
  Sm  Sm14  1  0.634668  0.269336  0.488802  1
