# generated using pymatgen
data_Te4Mo3W(SeS)2
_symmetry_space_group_name_H-M   'P 1'
_cell_length_a   3.39866179
_cell_length_b   3.39860451
_cell_length_c   40.40517971
_cell_angle_alpha   89.99778024
_cell_angle_beta   90.00000000
_cell_angle_gamma   120.00055766
_symmetry_Int_Tables_number   1
_chemical_formula_structural   Te4Mo3W(SeS)2
_chemical_formula_sum   'Te4 Mo3 W1 Se2 S2'
_cell_volume   404.17906173
_cell_formula_units_Z   1
loop_
 _symmetry_equiv_pos_site_id
 _symmetry_equiv_pos_as_xyz
  1  'x, y, z'
loop_
 _atom_site_type_symbol
 _atom_site_label
 _atom_site_symmetry_multiplicity
 _atom_site_fract_x
 _atom_site_fract_y
 _atom_site_fract_z
 _atom_site_occupancy
  Te  Te0  1  0.333332  0.666665  0.326964  1
  Te  Te1  1  0.666550  0.333100  0.424868  1
  Te  Te2  1  0.666492  0.332983  0.517590  1
  Te  Te3  1  0.333533  0.667067  0.234184  1
  Mo  Mo4  1  0.333384  0.666767  0.093503  1
  Mo  Mo5  1  0.333183  0.666366  0.471242  1
  Mo  Mo6  1  0.666757  0.333514  0.280564  1
  W  W7  1  0.666665  0.333331  0.657592  1
  Se  Se8  1  0.666691  0.333382  0.052667  1
  Se  Se9  1  0.666741  0.333481  0.134352  1
  S  S10  1  0.333380  0.666761  0.694830  1
  S  S11  1  0.333292  0.666584  0.620391  1
