# generated using pymatgen
data_Co2MoS4
_symmetry_space_group_name_H-M   'P 1'
_cell_length_a   5.04675237
_cell_length_b   5.04675268
_cell_length_c   6.26975817
_cell_angle_alpha   113.73255236
_cell_angle_beta   113.73254513
_cell_angle_gamma   89.99999491
_symmetry_Int_Tables_number   1
_chemical_formula_structural   Co2MoS4
_chemical_formula_sum   'Co2 Mo1 S4'
_cell_volume   131.29880034
_cell_formula_units_Z   1
loop_
 _symmetry_equiv_pos_site_id
 _symmetry_equiv_pos_as_xyz
  1  'x, y, z'
loop_
 _atom_site_type_symbol
 _atom_site_label
 _atom_site_symmetry_multiplicity
 _atom_site_fract_x
 _atom_site_fract_y
 _atom_site_fract_z
 _atom_site_occupancy
  Co  Co0  1  0.250000  0.750000  0.500000  1
  Co  Co1  1  0.000000  -0.000000  0.000000  1
  Mo  Mo2  1  0.750000  0.250000  0.500000  1
  S  S3  1  0.888015  0.870269  0.245920  1
  S  S4  1  0.624349  0.111985  0.754080  1
  S  S5  1  0.129731  0.642096  0.754080  1
  S  S6  1  0.357904  0.375651  0.245920  1
