# generated using pymatgen
data_Rb2MoS4
_symmetry_space_group_name_H-M   'P 1'
_cell_length_a   7.15339068
_cell_length_b   9.93311427
_cell_length_c   12.75021574
_cell_angle_alpha   90.00000000
_cell_angle_beta   90.00000000
_cell_angle_gamma   90.00000000
_symmetry_Int_Tables_number   1
_chemical_formula_structural   Rb2MoS4
_chemical_formula_sum   'Rb8 Mo4 S16'
_cell_volume   905.97227929
_cell_formula_units_Z   4
loop_
 _symmetry_equiv_pos_site_id
 _symmetry_equiv_pos_as_xyz
  1  'x, y, z'
loop_
 _atom_site_type_symbol
 _atom_site_label
 _atom_site_symmetry_multiplicity
 _atom_site_fract_x
 _atom_site_fract_y
 _atom_site_fract_z
 _atom_site_occupancy
  S  S0  1  0.000866  0.662042  0.856487  1
  S  S1  1  0.499134  0.662042  0.856487  1
  S  S2  1  0.999134  0.337958  0.143513  1
  S  S3  1  0.000866  0.162042  0.643513  1
  S  S4  1  0.250000  0.473426  0.604722  1
  S  S5  1  0.750000  0.526574  0.395278  1
  S  S6  1  0.250000  0.973426  0.895278  1
  S  S7  1  0.750000  0.026574  0.104722  1
  S  S8  1  0.250000  0.214151  0.403038  1
  S  S9  1  0.750000  0.785849  0.596962  1
  S  S10  1  0.250000  0.714151  0.096962  1
  S  S11  1  0.500866  0.337958  0.143513  1
  S  S12  1  0.499134  0.162042  0.643513  1
  S  S13  1  0.999134  0.837958  0.356487  1
  S  S14  1  0.750000  0.285849  0.903038  1
  S  S15  1  0.500866  0.837958  0.356487  1
  Rb  Rb16  1  0.750000  0.962562  0.832329  1
  Rb  Rb17  1  0.250000  0.846743  0.603889  1
  Rb  Rb18  1  0.750000  0.153257  0.396111  1
  Rb  Rb19  1  0.250000  0.346743  0.896111  1
  Rb  Rb20  1  0.250000  0.537438  0.332329  1
  Rb  Rb21  1  0.750000  0.462562  0.667671  1
  Rb  Rb22  1  0.750000  0.653257  0.103889  1
  Rb  Rb23  1  0.250000  0.037438  0.167671  1
  Mo  Mo24  1  0.750000  0.245294  0.073110  1
  Mo  Mo25  1  0.250000  0.754706  0.926890  1
  Mo  Mo26  1  0.750000  0.745294  0.426890  1
  Mo  Mo27  1  0.250000  0.254706  0.573110  1
