# generated using pymatgen
data_Sc2Cr4Si5
_symmetry_space_group_name_H-M   'P 1'
_cell_length_a   4.89786253
_cell_length_b   7.56052632
_cell_length_c   9.23746036
_cell_angle_alpha   114.15732966
_cell_angle_beta   105.37341291
_cell_angle_gamma   90.00000001
_symmetry_Int_Tables_number   1
_chemical_formula_structural   Sc2Cr4Si5
_chemical_formula_sum   'Sc4 Cr8 Si10'
_cell_volume   298.64567340
_cell_formula_units_Z   2
loop_
 _symmetry_equiv_pos_site_id
 _symmetry_equiv_pos_as_xyz
  1  'x, y, z'
loop_
 _atom_site_type_symbol
 _atom_site_label
 _atom_site_symmetry_multiplicity
 _atom_site_fract_x
 _atom_site_fract_y
 _atom_site_fract_z
 _atom_site_occupancy
  Si  Si0  1  0.749984  0.000000  0.000000  1
  Si  Si1  1  0.710890  0.418220  0.421780  1
  Si  Si2  1  0.289110  0.581780  0.578220  1
  Si  Si3  1  0.789102  0.996427  0.578204  1
  Si  Si4  1  0.250016  0.000000  0.000000  1
  Si  Si5  1  0.436209  0.358703  0.872419  1
  Si  Si6  1  0.563791  0.641297  0.127581  1
  Si  Si7  1  0.063788  0.486277  0.127577  1
  Si  Si8  1  0.936212  0.513723  0.872423  1
  Si  Si9  1  0.210898  0.003573  0.421796  1
  Sc  Sc10  1  0.357869  0.977142  0.715739  1
  Sc  Sc11  1  0.857867  0.738593  0.715734  1
  Sc  Sc12  1  0.142133  0.261407  0.284266  1
  Sc  Sc13  1  0.642131  0.022858  0.284261  1
  Cr  Cr14  1  0.059395  0.309407  0.618786  1
  Cr  Cr15  1  0.559391  0.309407  0.618786  1
  Cr  Cr16  1  0.940605  0.690593  0.381214  1
  Cr  Cr17  1  0.061924  0.807630  0.123848  1
  Cr  Cr18  1  0.938076  0.192370  0.876152  1
  Cr  Cr19  1  0.438083  0.683784  0.876166  1
  Cr  Cr20  1  0.561917  0.316216  0.123834  1
  Cr  Cr21  1  0.440609  0.690593  0.381214  1
