# generated using pymatgen
data_Sr3Y(BO3)3
_symmetry_space_group_name_H-M   'P 1'
_cell_length_a   7.92928998
_cell_length_b   7.92928998
_cell_length_c   7.92928998
_cell_angle_alpha   105.02345772
_cell_angle_beta   105.02345772
_cell_angle_gamma   105.02345770
_symmetry_Int_Tables_number   1
_chemical_formula_structural   Sr3Y(BO3)3
_chemical_formula_sum   'Sr6 Y2 B6 O18'
_cell_volume   435.64505386
_cell_formula_units_Z   2
loop_
 _symmetry_equiv_pos_site_id
 _symmetry_equiv_pos_as_xyz
  1  'x, y, z'
loop_
 _atom_site_type_symbol
 _atom_site_label
 _atom_site_symmetry_multiplicity
 _atom_site_fract_x
 _atom_site_fract_y
 _atom_site_fract_z
 _atom_site_occupancy
  B  B0  1  0.610938  0.707413  0.959933  1
  B  B1  1  0.707413  0.959933  0.610938  1
  B  B2  1  0.959933  0.610938  0.707413  1
  B  B3  1  0.292587  0.040067  0.389062  1
  B  B4  1  0.040067  0.389062  0.292587  1
  B  B5  1  0.389062  0.292587  0.040067  1
  O  O6  1  0.811819  0.044956  0.522281  1
  O  O7  1  0.044956  0.522281  0.811819  1
  O  O8  1  0.493152  0.445528  0.204855  1
  O  O9  1  0.204855  0.493152  0.445528  1
  O  O10  1  0.445528  0.204855  0.493152  1
  O  O11  1  0.554472  0.795145  0.506848  1
  O  O12  1  0.506848  0.554472  0.795145  1
  O  O13  1  0.795145  0.506848  0.554472  1
  O  O14  1  0.197212  0.252299  0.967961  1
  O  O15  1  0.967961  0.197212  0.252299  1
  O  O16  1  0.252299  0.967961  0.197212  1
  O  O17  1  0.802788  0.747701  0.032039  1
  O  O18  1  0.032039  0.802788  0.747701  1
  O  O19  1  0.747701  0.032039  0.802788  1
  O  O20  1  0.477719  0.188181  0.955044  1
  O  O21  1  0.955044  0.477719  0.188181  1
  O  O22  1  0.188181  0.955044  0.477719  1
  O  O23  1  0.522281  0.811819  0.044956  1
  Sr  Sr24  1  0.735177  0.360109  0.861092  1
  Sr  Sr25  1  0.360109  0.861092  0.735177  1
  Sr  Sr26  1  0.861092  0.735177  0.360109  1
  Sr  Sr27  1  0.264823  0.639891  0.138908  1
  Sr  Sr28  1  0.639891  0.138908  0.264823  1
  Sr  Sr29  1  0.138908  0.264823  0.639891  1
  Y  Y30  1  0.500000  0.500000  0.500000  1
  Y  Y31  1  0.000000  0.000000  0.000000  1
