# generated using pymatgen
data_Sr4Li2Si4N8O
_symmetry_space_group_name_H-M   'P 1'
_cell_length_a   9.38014951
_cell_length_b   9.38014951
_cell_length_c   5.61598865
_cell_angle_alpha   90.00000000
_cell_angle_beta   90.00000000
_cell_angle_gamma   90.00000000
_symmetry_Int_Tables_number   1
_chemical_formula_structural   Sr4Li2Si4N8O
_chemical_formula_sum   'Sr8 Li4 Si8 N16 O2'
_cell_volume   494.13514367
_cell_formula_units_Z   2
loop_
 _symmetry_equiv_pos_site_id
 _symmetry_equiv_pos_as_xyz
  1  'x, y, z'
loop_
 _atom_site_type_symbol
 _atom_site_label
 _atom_site_symmetry_multiplicity
 _atom_site_fract_x
 _atom_site_fract_y
 _atom_site_fract_z
 _atom_site_occupancy
  Sr  Sr0  1  0.734625  0.944871  0.500000  1
  Sr  Sr1  1  0.265375  0.055129  0.500000  1
  Sr  Sr2  1  0.765375  0.444871  0.000000  1
  Sr  Sr3  1  0.234625  0.555129  0.000000  1
  Sr  Sr4  1  0.944871  0.265375  0.500000  1
  Sr  Sr5  1  0.055129  0.734625  0.500000  1
  Sr  Sr6  1  0.444871  0.234625  0.000000  1
  Sr  Sr7  1  0.555129  0.765375  0.000000  1
  Li  Li8  1  -0.000000  0.000000  0.182214  1
  Li  Li9  1  0.500000  0.500000  0.682214  1
  Li  Li10  1  -0.000000  0.000000  0.817786  1
  Li  Li11  1  0.500000  0.500000  0.317786  1
  Si  Si12  1  0.730872  0.620423  0.500000  1
  Si  Si13  1  0.269128  0.379577  0.500000  1
  Si  Si14  1  0.769128  0.120423  0.000000  1
  Si  Si15  1  0.230872  0.879577  0.000000  1
  Si  Si16  1  0.620423  0.269128  0.500000  1
  Si  Si17  1  0.379577  0.730872  0.500000  1
  Si  Si18  1  0.120423  0.230872  0.000000  1
  Si  Si19  1  0.879577  0.769128  0.000000  1
  N  N20  1  0.704620  0.436989  0.500000  1
  N  N21  1  0.295380  0.563011  0.500000  1
  N  N22  1  0.795380  0.936989  0.000000  1
  N  N23  1  0.204620  0.063011  0.000000  1
  N  N24  1  0.436989  0.295380  0.500000  1
  N  N25  1  0.563011  0.704620  0.500000  1
  N  N26  1  0.936989  0.204620  0.000000  1
  N  N27  1  0.063011  0.795380  0.000000  1
  N  N28  1  0.825825  0.674175  0.250000  1
  N  N29  1  0.174175  0.325825  0.250000  1
  N  N30  1  0.674175  0.174175  0.750000  1
  N  N31  1  0.325825  0.825825  0.750000  1
  N  N32  1  0.674175  0.174175  0.250000  1
  N  N33  1  0.325825  0.825825  0.250000  1
  N  N34  1  0.174175  0.325825  0.750000  1
  N  N35  1  0.825825  0.674175  0.750000  1
  O  O36  1  -0.000000  0.000000  0.500000  1
  O  O37  1  0.500000  0.500000  0.000000  1
