# generated using pymatgen
data_LiTmSiO4
_symmetry_space_group_name_H-M   'P 1'
_cell_length_a   4.94093711
_cell_length_b   6.26965514
_cell_length_c   10.85040927
_cell_angle_alpha   90.00000000
_cell_angle_beta   90.00000000
_cell_angle_gamma   90.00000000
_symmetry_Int_Tables_number   1
_chemical_formula_structural   LiTmSiO4
_chemical_formula_sum   'Li4 Tm4 Si4 O16'
_cell_volume   336.12367182
_cell_formula_units_Z   4
loop_
 _symmetry_equiv_pos_site_id
 _symmetry_equiv_pos_as_xyz
  1  'x, y, z'
loop_
 _atom_site_type_symbol
 _atom_site_label
 _atom_site_symmetry_multiplicity
 _atom_site_fract_x
 _atom_site_fract_y
 _atom_site_fract_z
 _atom_site_occupancy
  Li  Li0  1  0.000000  0.000000  0.000000  1
  Li  Li1  1  0.500000  0.000000  0.500000  1
  Li  Li2  1  0.000000  0.500000  0.000000  1
  Li  Li3  1  0.500000  0.500000  0.500000  1
  O  O4  1  0.225963  0.545526  0.336976  1
  O  O5  1  0.774037  0.454474  0.663024  1
  O  O6  1  0.274037  0.545526  0.836976  1
  O  O7  1  0.225963  0.954474  0.336976  1
  O  O8  1  0.725963  0.045526  0.163024  1
  O  O9  1  0.254837  0.250000  0.097880  1
  O  O10  1  0.725963  0.454474  0.163024  1
  O  O11  1  0.774037  0.045526  0.663024  1
  O  O12  1  0.745163  0.750000  0.902120  1
  O  O13  1  0.245163  0.250000  0.597880  1
  O  O14  1  0.712230  0.250000  0.949359  1
  O  O15  1  0.754837  0.750000  0.402120  1
  O  O16  1  0.787770  0.250000  0.449359  1
  O  O17  1  0.212230  0.750000  0.550641  1
  O  O18  1  0.287770  0.750000  0.050641  1
  O  O19  1  0.274037  0.954474  0.836976  1
  Si  Si20  1  0.417415  0.750000  0.912003  1
  Si  Si21  1  0.082585  0.750000  0.412003  1
  Si  Si22  1  0.582585  0.250000  0.087997  1
  Si  Si23  1  0.917415  0.250000  0.587997  1
  Tm  Tm24  1  0.980368  0.750000  0.723206  1
  Tm  Tm25  1  0.519632  0.750000  0.223206  1
  Tm  Tm26  1  0.019632  0.250000  0.276794  1
  Tm  Tm27  1  0.480368  0.250000  0.776794  1
