# generated using pymatgen
data_Sr5Sb3
_symmetry_space_group_name_H-M   'P 1'
_cell_length_a   8.82326167
_cell_length_b   10.10374428
_cell_length_c   13.51678380
_cell_angle_alpha   90.00000000
_cell_angle_beta   90.00000000
_cell_angle_gamma   90.00000000
_symmetry_Int_Tables_number   1
_chemical_formula_structural   Sr5Sb3
_chemical_formula_sum   'Sr20 Sb12'
_cell_volume   1204.99396685
_cell_formula_units_Z   4
loop_
 _symmetry_equiv_pos_site_id
 _symmetry_equiv_pos_as_xyz
  1  'x, y, z'
loop_
 _atom_site_type_symbol
 _atom_site_label
 _atom_site_symmetry_multiplicity
 _atom_site_fract_x
 _atom_site_fract_y
 _atom_site_fract_z
 _atom_site_occupancy
  Sr  Sr0  1  0.313366  0.960562  0.916301  1
  Sr  Sr1  1  0.813366  0.039438  0.583699  1
  Sr  Sr2  1  0.686634  0.460562  0.083699  1
  Sr  Sr3  1  0.186634  0.539438  0.416301  1
  Sr  Sr4  1  0.686634  0.039438  0.083699  1
  Sr  Sr5  1  0.186634  0.960562  0.416301  1
  Sr  Sr6  1  0.313366  0.539438  0.916301  1
  Sr  Sr7  1  0.813366  0.460562  0.583699  1
  Sr  Sr8  1  0.681474  0.750000  0.775565  1
  Sr  Sr9  1  0.181474  0.250000  0.724435  1
  Sr  Sr10  1  0.318526  0.250000  0.224435  1
  Sr  Sr11  1  0.818526  0.750000  0.275565  1
  Sr  Sr12  1  0.156053  0.750000  0.702023  1
  Sr  Sr13  1  0.656053  0.250000  0.797977  1
  Sr  Sr14  1  0.843947  0.250000  0.297977  1
  Sr  Sr15  1  0.343947  0.750000  0.202023  1
  Sr  Sr16  1  0.535588  0.750000  0.496275  1
  Sr  Sr17  1  0.035588  0.250000  0.003725  1
  Sr  Sr18  1  0.464412  0.250000  0.503725  1
  Sr  Sr19  1  0.964412  0.750000  0.996275  1
  Sb  Sb20  1  0.943231  0.009990  0.828082  1
  Sb  Sb21  1  0.443231  0.990010  0.671918  1
  Sb  Sb22  1  0.056769  0.509990  0.171918  1
  Sb  Sb23  1  0.556769  0.490010  0.328082  1
  Sb  Sb24  1  0.056769  0.990010  0.171918  1
  Sb  Sb25  1  0.556769  0.009990  0.328082  1
  Sb  Sb26  1  0.943231  0.490010  0.828082  1
  Sb  Sb27  1  0.443231  0.509990  0.671918  1
  Sb  Sb28  1  0.576275  0.750000  0.013598  1
  Sb  Sb29  1  0.076275  0.250000  0.486402  1
  Sb  Sb30  1  0.423725  0.250000  0.986402  1
  Sb  Sb31  1  0.923725  0.750000  0.513598  1
