# generated using pymatgen
data_Na2CoP2O7
_symmetry_space_group_name_H-M   'P 1'
_cell_length_a   5.85057016
_cell_length_b   8.00768143
_cell_length_c   8.22440948
_cell_angle_alpha   113.30260443
_cell_angle_beta   90.00000002
_cell_angle_gamma   111.42665606
_symmetry_Int_Tables_number   1
_chemical_formula_structural   Na2CoP2O7
_chemical_formula_sum   'Na4 Co2 P4 O14'
_cell_volume   324.68112704
_cell_formula_units_Z   2
loop_
 _symmetry_equiv_pos_site_id
 _symmetry_equiv_pos_as_xyz
  1  'x, y, z'
loop_
 _atom_site_type_symbol
 _atom_site_label
 _atom_site_symmetry_multiplicity
 _atom_site_fract_x
 _atom_site_fract_y
 _atom_site_fract_z
 _atom_site_occupancy
  Na  Na0  1  0.910531  0.540960  0.200410  1
  Na  Na1  1  0.369571  0.459040  0.299590  1
  Na  Na2  1  0.089469  0.459040  0.799590  1
  Na  Na3  1  0.630429  0.540960  0.700410  1
  Co  Co4  1  0.000000  0.000000  0.500000  1
  Co  Co5  1  0.000000  0.000000  0.000000  1
  P  P6  1  0.764638  0.211229  0.344821  1
  P  P7  1  0.553408  0.788771  0.155179  1
  P  P8  1  0.235362  0.788771  0.655179  1
  P  P9  1  0.446592  0.211229  0.844821  1
  O  O10  1  0.523501  0.000000  0.250000  1
  O  O11  1  0.476499  1.000000  0.750000  1
  O  O12  1  0.295145  0.626602  0.102914  1
  O  O13  1  0.668542  0.373398  0.397086  1
  O  O14  1  0.704855  0.373398  0.897086  1
  O  O15  1  0.331458  0.626602  0.602914  1
  O  O16  1  0.940967  0.219578  0.204114  1
  O  O17  1  0.721388  0.780422  0.295886  1
  O  O18  1  0.059033  0.780422  0.795886  1
  O  O19  1  0.278612  0.219578  0.704114  1
  O  O20  1  0.111512  0.793789  0.492390  1
  O  O21  1  0.317723  0.206211  0.007610  1
  O  O22  1  0.888488  0.206211  0.507610  1
  O  O23  1  0.682277  0.793789  0.992390  1
