# generated using pymatgen
data_MoW(SeS)2
_symmetry_space_group_name_H-M   'P 1'
_cell_length_a   3.25366468
_cell_length_b   3.25362909
_cell_length_c   36.87740234
_cell_angle_alpha   89.99967848
_cell_angle_beta   90.00000000
_cell_angle_gamma   120.00036187
_symmetry_Int_Tables_number   1
_chemical_formula_structural   MoW(SeS)2
_chemical_formula_sum   'Mo2 W2 Se4 S4'
_cell_volume   338.08834897
_cell_formula_units_Z   2
loop_
 _symmetry_equiv_pos_site_id
 _symmetry_equiv_pos_as_xyz
  1  'x, y, z'
loop_
 _atom_site_type_symbol
 _atom_site_label
 _atom_site_symmetry_multiplicity
 _atom_site_fract_x
 _atom_site_fract_y
 _atom_site_fract_z
 _atom_site_occupancy
  Mo  Mo0  1  0.333310  0.666619  0.093907  1
  Mo  Mo1  1  0.666689  0.333378  0.281796  1
  W  W2  1  0.333311  0.666622  0.469664  1
  W  W3  1  0.666690  0.333381  0.657541  1
  Se  Se4  1  0.666637  0.333273  0.047880  1
  Se  Se5  1  0.666648  0.333295  0.423325  1
  Se  Se6  1  0.666647  0.333294  0.139956  1
  Se  Se7  1  0.666649  0.333296  0.516005  1
  S  S8  1  0.333354  0.666709  0.323688  1
  S  S9  1  0.333357  0.666715  0.699550  1
  S  S10  1  0.333354  0.666708  0.239901  1
  S  S11  1  0.333354  0.666709  0.615536  1
