# generated using pymatgen
data_Li6Ca12Mo4N16O3
_symmetry_space_group_name_H-M   'P 1'
_cell_length_a   11.37071089
_cell_length_b   11.37071089
_cell_length_c   11.37071089
_cell_angle_alpha   109.47122061
_cell_angle_beta   109.47122061
_cell_angle_gamma   109.47122065
_symmetry_Int_Tables_number   1
_chemical_formula_structural   Li6Ca12Mo4N16O3
_chemical_formula_sum   'Li12 Ca24 Mo8 N32 O6'
_cell_volume   1131.72513583
_cell_formula_units_Z   2
loop_
 _symmetry_equiv_pos_site_id
 _symmetry_equiv_pos_as_xyz
  1  'x, y, z'
loop_
 _atom_site_type_symbol
 _atom_site_label
 _atom_site_symmetry_multiplicity
 _atom_site_fract_x
 _atom_site_fract_y
 _atom_site_fract_z
 _atom_site_occupancy
  Li  Li0  1  0.250000  0.275180  0.025181  1
  Li  Li1  1  0.250000  0.974820  0.724819  1
  Li  Li2  1  0.775181  0.750000  0.525181  1
  Li  Li3  1  0.525181  0.775180  0.750000  1
  Li  Li4  1  0.724819  0.250000  0.974820  1
  Li  Li5  1  0.974820  0.724819  0.250000  1
  Li  Li6  1  0.750000  0.224819  0.474819  1
  Li  Li7  1  0.224820  0.474820  0.750000  1
  Li  Li8  1  0.275181  0.025181  0.250000  1
  Li  Li9  1  0.025181  0.250000  0.275181  1
  Li  Li10  1  0.474819  0.750000  0.224820  1
  Li  Li11  1  0.750001  0.525181  0.775181  1
  N  N12  1  0.110734  0.110734  0.110734  1
  N  N13  1  0.889266  0.500000  0.000000  1
  N  N14  1  0.500000  0.000000  0.889267  1
  N  N15  1  0.000001  0.889267  0.500000  1
  N  N16  1  0.500000  0.000000  0.389267  1
  N  N17  1  0.000000  0.389267  0.500000  1
  N  N18  1  0.389266  0.500000  1.000000  1
  N  N19  1  0.610733  0.610734  0.610734  1
  N  N20  1  0.418333  0.367120  0.234770  1
  N  N21  1  0.132881  0.551213  0.867650  1
  N  N22  1  0.265230  0.632349  0.183562  1
  N  N23  1  0.081667  0.316437  0.948787  1
  N  N24  1  0.316437  0.948786  0.081667  1
  N  N25  1  0.948787  0.081668  0.316437  1
  N  N26  1  0.918332  0.734770  0.867119  1
  N  N27  1  0.367651  0.051213  0.632881  1
  N  N28  1  0.132350  0.765230  0.683563  1
  N  N29  1  0.448786  0.816437  0.581667  1
  N  N30  1  0.816437  0.581667  0.448787  1
  N  N31  1  0.867120  0.918333  0.734770  1
  N  N32  1  0.051213  0.632881  0.367650  1
  N  N33  1  0.683563  0.132349  0.765230  1
  N  N34  1  0.734770  0.867120  0.918333  1
  N  N35  1  0.632880  0.367650  0.051213  1
  N  N36  1  0.765230  0.683563  0.132350  1
  N  N37  1  0.867651  0.132881  0.551214  1
  N  N38  1  0.632350  0.183563  0.265230  1
  N  N39  1  0.183563  0.265231  0.632349  1
  N  N40  1  0.367119  0.234769  0.418333  1
  N  N41  1  0.234770  0.418332  0.367119  1
  N  N42  1  0.551213  0.867650  0.132880  1
  N  N43  1  0.581667  0.448786  0.816437  1
  O  O44  1  0.125000  0.875000  0.250000  1
  O  O45  1  0.625000  0.750000  0.375000  1
  O  O46  1  0.875000  0.250000  0.125000  1
  O  O47  1  0.250000  0.125000  0.874999  1
  O  O48  1  0.750000  0.375000  0.625000  1
  O  O49  1  0.375000  0.624999  0.750000  1
  Ca  Ca50  1  0.595011  0.538450  0.208227  1
  Ca  Ca51  1  0.961551  0.556562  0.669777  1
  Ca  Ca52  1  0.291773  0.830223  0.386785  1
  Ca  Ca53  1  0.904988  0.113215  0.943438  1
  Ca  Ca54  1  0.113216  0.943438  0.904988  1
  Ca  Ca55  1  0.943437  0.904988  0.113215  1
  Ca  Ca56  1  0.095012  0.708227  0.038450  1
  Ca  Ca57  1  0.169778  0.056563  0.461551  1
  Ca  Ca58  1  0.330222  0.791773  0.886785  1
  Ca  Ca59  1  0.443438  0.613215  0.404988  1
  Ca  Ca60  1  0.613215  0.404988  0.443438  1
  Ca  Ca61  1  0.038450  0.095012  0.708227  1
  Ca  Ca62  1  0.056562  0.461551  0.169777  1
  Ca  Ca63  1  0.886785  0.330223  0.791773  1
  Ca  Ca64  1  0.708228  0.038450  0.095012  1
  Ca  Ca65  1  0.461550  0.169778  0.056563  1
  Ca  Ca66  1  0.791773  0.886784  0.330223  1
  Ca  Ca67  1  0.669778  0.961551  0.556562  1
  Ca  Ca68  1  0.830223  0.386785  0.291773  1
  Ca  Ca69  1  0.386785  0.291773  0.830223  1
  Ca  Ca70  1  0.538449  0.208227  0.595012  1
  Ca  Ca71  1  0.208227  0.595011  0.538449  1
  Ca  Ca72  1  0.556562  0.669778  0.961551  1
  Ca  Ca73  1  0.404988  0.443438  0.613216  1
  Mo  Mo74  1  0.275802  0.275802  0.275802  1
  Mo  Mo75  1  0.724198  0.500000  1.000000  1
  Mo  Mo76  1  0.500000  0.000000  0.724199  1
  Mo  Mo77  1  0.000000  0.724198  0.500000  1
  Mo  Mo78  1  0.500000  0.000000  0.224199  1
  Mo  Mo79  1  1.000000  0.224199  0.500000  1
  Mo  Mo80  1  0.224198  0.500000  1.000000  1
  Mo  Mo81  1  0.775802  0.775802  0.775802  1
