# generated using pymatgen
data_Te6MoW3S2
_symmetry_space_group_name_H-M   'P 1'
_cell_length_a   3.46347906
_cell_length_b   3.46350309
_cell_length_c   39.29933615
_cell_angle_alpha   90.00032504
_cell_angle_beta   89.99999445
_cell_angle_gamma   119.99976782
_symmetry_Int_Tables_number   1
_chemical_formula_structural   Te6MoW3S2
_chemical_formula_sum   'Te6 Mo1 W3 S2'
_cell_volume   408.26768647
_cell_formula_units_Z   1
loop_
 _symmetry_equiv_pos_site_id
 _symmetry_equiv_pos_as_xyz
  1  'x, y, z'
loop_
 _atom_site_type_symbol
 _atom_site_label
 _atom_site_symmetry_multiplicity
 _atom_site_fract_x
 _atom_site_fract_y
 _atom_site_fract_z
 _atom_site_occupancy
  Te  Te0  1  0.333349  0.666699  0.704745  1
  Te  Te1  1  0.666642  0.333283  0.046733  1
  Te  Te2  1  0.666641  0.333282  0.422402  1
  Te  Te3  1  0.666647  0.333294  0.141171  1
  Te  Te4  1  0.666649  0.333298  0.516819  1
  Te  Te5  1  0.333355  0.666711  0.610376  1
  Mo  Mo6  1  0.666691  0.333383  0.281787  1
  W  W7  1  0.333310  0.666621  0.093914  1
  W  W8  1  0.333313  0.666627  0.469626  1
  W  W9  1  0.666686  0.333372  0.657591  1
  S  S10  1  0.333360  0.666721  0.319607  1
  S  S11  1  0.333354  0.666709  0.243977  1
