# generated using pymatgen
data_HoHg2
_symmetry_space_group_name_H-M   'P 1'
_cell_length_a   5.33143325
_cell_length_b   5.33202381
_cell_length_c   3.38425792
_cell_angle_alpha   89.99999994
_cell_angle_beta   90.04634567
_cell_angle_gamma   120.00366271
_symmetry_Int_Tables_number   1
_chemical_formula_structural   HoHg2
_chemical_formula_sum   'Ho1 Hg2'
_cell_volume   83.31322034
_cell_formula_units_Z   1
loop_
 _symmetry_equiv_pos_site_id
 _symmetry_equiv_pos_as_xyz
  1  'x, y, z'
loop_
 _atom_site_type_symbol
 _atom_site_label
 _atom_site_symmetry_multiplicity
 _atom_site_fract_x
 _atom_site_fract_y
 _atom_site_fract_z
 _atom_site_occupancy
  Ho  Ho0  1  0.000000  0.000000  0.000000  1
  Hg  Hg1  1  0.666700  0.333350  0.917383  1
  Hg  Hg2  1  0.333300  0.666650  0.082617  1
