# generated using pymatgen
data_Y3CuSnS7
_symmetry_space_group_name_H-M   'P 1'
_cell_length_a   9.76877974
_cell_length_b   9.76877974
_cell_length_c   6.28132017
_cell_angle_alpha   90.00000000
_cell_angle_beta   90.00000000
_cell_angle_gamma   120.00000002
_symmetry_Int_Tables_number   1
_chemical_formula_structural   Y3CuSnS7
_chemical_formula_sum   'Y6 Cu2 Sn2 S14'
_cell_volume   519.11334976
_cell_formula_units_Z   2
loop_
 _symmetry_equiv_pos_site_id
 _symmetry_equiv_pos_as_xyz
  1  'x, y, z'
loop_
 _atom_site_type_symbol
 _atom_site_label
 _atom_site_symmetry_multiplicity
 _atom_site_fract_x
 _atom_site_fract_y
 _atom_site_fract_z
 _atom_site_occupancy
  S  S0  1  0.666667  0.333333  0.191863  1
  S  S1  1  0.333333  0.666667  0.691863  1
  S  S2  1  0.480064  0.562349  0.126665  1
  S  S3  1  0.917715  0.480064  0.626665  1
  S  S4  1  0.562349  0.082285  0.626665  1
  S  S5  1  0.437651  0.917715  0.126665  1
  S  S6  1  0.082285  0.519936  0.126665  1
  S  S7  1  0.519936  0.437651  0.626665  1
  S  S8  1  0.738084  0.884308  0.456057  1
  S  S9  1  0.853776  0.738084  0.956057  1
  S  S10  1  0.261916  0.115692  0.956057  1
  S  S11  1  0.146224  0.261916  0.456057  1
  S  S12  1  0.115692  0.853776  0.456057  1
  S  S13  1  0.884308  0.146224  0.956057  1
  Cu  Cu14  1  0.000000  0.000000  0.989838  1
  Cu  Cu15  1  0.000000  0.000000  0.489838  1
  Y  Y16  1  0.208625  0.359709  0.873848  1
  Y  Y17  1  0.359709  0.151083  0.373848  1
  Y  Y18  1  0.640291  0.848917  0.873848  1
  Y  Y19  1  0.791375  0.640291  0.373848  1
  Y  Y20  1  0.848917  0.208625  0.373848  1
  Y  Y21  1  0.151083  0.791375  0.873848  1
  Sn  Sn22  1  0.333333  0.666667  0.308788  1
  Sn  Sn23  1  0.666667  0.333333  0.808788  1
