# generated using pymatgen
data_Te3MoWSe
_symmetry_space_group_name_H-M   'P 1'
_cell_length_a   3.50046308
_cell_length_b   3.50043144
_cell_length_c   39.63005261
_cell_angle_alpha   90.00035172
_cell_angle_beta   90.00000000
_cell_angle_gamma   120.00029898
_symmetry_Int_Tables_number   1
_chemical_formula_structural   Te3MoWSe
_chemical_formula_sum   'Te6 Mo2 W2 Se2'
_cell_volume   420.53393770
_cell_formula_units_Z   2
loop_
 _symmetry_equiv_pos_site_id
 _symmetry_equiv_pos_as_xyz
  1  'x, y, z'
loop_
 _atom_site_type_symbol
 _atom_site_label
 _atom_site_symmetry_multiplicity
 _atom_site_fract_x
 _atom_site_fract_y
 _atom_site_fract_z
 _atom_site_occupancy
  Te  Te0  1  0.333363  0.666727  0.328265  1
  Te  Te1  1  0.333357  0.666716  0.703733  1
  Te  Te2  1  0.666642  0.333282  0.423190  1
  Te  Te3  1  0.666648  0.333296  0.516152  1
  Te  Te4  1  0.333352  0.666705  0.235297  1
  Te  Te5  1  0.333361  0.666723  0.611334  1
  Mo  Mo6  1  0.333310  0.666620  0.093912  1
  Mo  Mo7  1  0.666693  0.333386  0.657549  1
  W  W8  1  0.333311  0.666622  0.469661  1
  W  W9  1  0.666691  0.333383  0.281770  1
  Se  Se10  1  0.666629  0.333257  0.053112  1
  Se  Se11  1  0.666642  0.333283  0.134771  1
