# generated using pymatgen
data_WSeS
_symmetry_space_group_name_H-M   'P 1'
_cell_length_a   3.25413990
_cell_length_b   3.25415061
_cell_length_c   36.90232973
_cell_angle_alpha   89.99982085
_cell_angle_beta   90.00000000
_cell_angle_gamma   119.99989111
_symmetry_Int_Tables_number   1
_chemical_formula_structural   WSeS
_chemical_formula_sum   'W4 Se4 S4'
_cell_volume   338.42213638
_cell_formula_units_Z   4
loop_
 _symmetry_equiv_pos_site_id
 _symmetry_equiv_pos_as_xyz
  1  'x, y, z'
loop_
 _atom_site_type_symbol
 _atom_site_label
 _atom_site_symmetry_multiplicity
 _atom_site_fract_x
 _atom_site_fract_y
 _atom_site_fract_z
 _atom_site_occupancy
  W  W0  1  0.333309  0.666618  0.093912  1
  W  W1  1  0.333310  0.666621  0.469691  1
  W  W2  1  0.666690  0.333379  0.281767  1
  W  W3  1  0.666691  0.333382  0.657546  1
  Se  Se4  1  0.333349  0.666700  0.328004  1
  Se  Se5  1  0.666651  0.333300  0.423454  1
  Se  Se6  1  0.666647  0.333293  0.515919  1
  Se  Se7  1  0.333353  0.666707  0.235539  1
  S  S8  1  0.333352  0.666705  0.699522  1
  S  S9  1  0.666648  0.333295  0.051936  1
  S  S10  1  0.666646  0.333292  0.135896  1
  S  S11  1  0.333354  0.666708  0.615562  1
