# generated using pymatgen
data_Rb4Ge3B6O17
_symmetry_space_group_name_H-M   'P 1'
_cell_length_a   6.97880580
_cell_length_b   6.97880580
_cell_length_c   20.36001365
_cell_angle_alpha   97.45527123
_cell_angle_beta   92.63483789
_cell_angle_gamma   119.16628175
_symmetry_Int_Tables_number   1
_chemical_formula_structural   Rb4Ge3B6O17
_chemical_formula_sum   'Rb8 Ge6 B12 O34'
_cell_volume   851.70539431
_cell_formula_units_Z   2
loop_
 _symmetry_equiv_pos_site_id
 _symmetry_equiv_pos_as_xyz
  1  'x, y, z'
loop_
 _atom_site_type_symbol
 _atom_site_label
 _atom_site_symmetry_multiplicity
 _atom_site_fract_x
 _atom_site_fract_y
 _atom_site_fract_z
 _atom_site_occupancy
  Rb  Rb0  1  0.347648  0.734991  0.921374  1
  Rb  Rb1  1  0.686383  0.573727  0.421374  1
  Rb  Rb2  1  0.064027  0.105593  0.158749  1
  Rb  Rb3  1  0.553156  0.094722  0.658749  1
  Rb  Rb4  1  0.876785  0.766863  0.607011  1
  Rb  Rb5  1  0.340148  0.730226  0.107011  1
  Rb  Rb6  1  0.578144  0.283923  0.843919  1
  Rb  Rb7  1  0.059995  0.265775  0.343919  1
  Ge  Ge8  1  0.042275  0.104851  0.962894  1
  Ge  Ge9  1  0.358043  0.920619  0.462894  1
  Ge  Ge10  1  0.911599  0.935933  0.804057  1
  Ge  Ge11  1  0.368124  0.892459  0.304057  1
  Ge  Ge12  1  0.710396  0.372722  0.134518  1
  Ge  Ge13  1  0.261796  0.424122  0.634518  1
  B  B14  1  0.916931  0.693225  0.249645  1
  B  B15  1  0.056419  0.332714  0.749645  1
  B  B16  1  0.637688  0.315093  0.263221  1
  B  B17  1  0.448128  0.625532  0.763221  1
  B  B18  1  0.488922  0.395909  0.021401  1
  B  B19  1  0.125493  0.532479  0.521401  1
  B  B20  1  0.770105  0.285582  0.003264  1
  B  B21  1  0.217682  0.233159  0.503264  1
  B  B22  1  0.144391  0.722167  0.756573  1
  B  B23  1  0.534406  0.612182  0.256573  1
  B  B24  1  0.865748  0.683600  0.006827  1
  B  B25  1  0.823227  0.141079  0.506827  1
  O  O26  1  0.814328  0.254686  0.073212  1
  O  O27  1  0.318526  0.258883  0.573212  1
  O  O28  1  0.595148  0.163358  0.312049  1
  O  O29  1  0.648690  0.716900  0.812048  1
  O  O30  1  0.081748  0.882520  0.750088  1
  O  O31  1  0.367568  0.668340  0.250088  1
  O  O32  1  0.485859  0.387955  0.095189  1
  O  O33  1  0.207234  0.609330  0.595189  1
  O  O34  1  0.611377  0.192116  0.194151  1
  O  O35  1  0.502036  0.582775  0.694151  1
  O  O36  1  0.930452  0.636099  0.176097  1
  O  O37  1  0.039998  0.245646  0.676098  1
  O  O38  1  0.126861  0.894869  0.279162  1
  O  O39  1  0.884294  0.152302  0.779162  1
  O  O40  1  0.075618  -0.002247  0.882212  1
  O  O41  1  0.384459  0.806594  0.382212  1
  O  O42  1  0.278203  0.426265  0.784191  1
  O  O43  1  0.857926  0.505988  0.284191  1
  O  O44  1  0.544929  0.238383  0.986470  1
  O  O45  1  0.248087  0.441541  0.486470  1
  O  O46  1  0.931831  0.527114  0.997900  1
  O  O47  1  0.970786  0.066069  0.497900  1
  O  O48  1  0.653537  0.633004  0.014294  1
  O  O49  1  0.881290  0.360757  0.514294  1
  O  O50  1  0.367521  0.794961  0.763550  1
  O  O51  1  0.468589  0.396029  0.263550  1
  O  O52  1  0.748357  0.769175  0.253830  1
  O  O53  1  0.984656  0.505473  0.753830  1
  O  O54  1  0.033256  0.907140  0.012082  1
  O  O55  1  0.604942  0.978826  0.512082  1
  O  O56  1  0.273949  0.364037  0.994370  1
  O  O57  1  0.130332  0.720420  0.494370  1
  O  O58  1  0.805935  0.132589  0.954469  1
  O  O59  1  0.321880  0.148534  0.454469  1
