# generated using pymatgen
data_CsTb(PO3)4
_symmetry_space_group_name_H-M   'P 1'
_cell_length_a   7.11061049
_cell_length_b   8.80939340
_cell_length_c   9.17285924
_cell_angle_alpha   90.00000000
_cell_angle_beta   90.00000000
_cell_angle_gamma   99.98301551
_symmetry_Int_Tables_number   1
_chemical_formula_structural   CsTb(PO3)4
_chemical_formula_sum   'Cs2 Tb2 P8 O24'
_cell_volume   565.88966494
_cell_formula_units_Z   2
loop_
 _symmetry_equiv_pos_site_id
 _symmetry_equiv_pos_as_xyz
  1  'x, y, z'
loop_
 _atom_site_type_symbol
 _atom_site_label
 _atom_site_symmetry_multiplicity
 _atom_site_fract_x
 _atom_site_fract_y
 _atom_site_fract_z
 _atom_site_occupancy
  O  O0  1  0.151083  0.407120  0.744771  1
  O  O1  1  0.848917  0.592880  0.244771  1
  O  O2  1  0.788344  0.634062  0.517851  1
  O  O3  1  0.211656  0.365938  0.017851  1
  O  O4  1  0.719361  0.381954  0.667775  1
  O  O5  1  0.280639  0.618046  0.167775  1
  O  O6  1  0.451537  0.503257  0.558712  1
  O  O7  1  0.548463  0.496743  0.058712  1
  O  O8  1  0.481749  0.181540  0.528209  1
  O  O9  1  0.518251  0.818460  0.028209  1
  O  O10  1  0.947885  0.200224  0.900470  1
  O  O11  1  0.052115  0.799776  0.400470  1
  O  O12  1  0.921501  0.904108  0.167200  1
  O  O13  1  0.078499  0.095892  0.667200  1
  O  O14  1  0.868052  0.917081  0.849209  1
  O  O15  1  0.131948  0.082919  0.349209  1
  O  O16  1  0.077893  0.522751  0.445297  1
  O  O17  1  0.922107  0.477249  0.945297  1
  O  O18  1  0.282003  0.899428  0.200541  1
  O  O19  1  0.717997  0.100572  0.700541  1
  O  O20  1  0.659349  0.632950  0.770007  1
  O  O21  1  0.340651  0.367050  0.270008  1
  O  O22  1  0.155851  0.766577  0.964470  1
  O  O23  1  0.844149  0.233423  0.464470  1
  P  P24  1  0.358495  0.460303  0.133013  1
  P  P25  1  0.641505  0.539697  0.633013  1
  P  P26  1  0.941355  0.621304  0.391022  1
  P  P27  1  0.058645  0.378696  0.891022  1
  P  P28  1  0.686938  0.223129  0.575042  1
  P  P29  1  0.313062  0.776871  0.075042  1
  P  P30  1  0.917278  0.068594  0.775191  1
  P  P31  1  0.082722  0.931406  0.275191  1
  Cs  Cs32  1  0.331066  0.826304  0.665973  1
  Cs  Cs33  1  0.668934  0.173696  0.165973  1
  Tb  Tb34  1  0.198591  0.302651  0.501247  1
  Tb  Tb35  1  0.801409  0.697349  0.001247  1
