# generated using pymatgen
data_V5SiB2
_symmetry_space_group_name_H-M   'P 1'
_cell_length_a   5.78159385
_cell_length_b   5.78159116
_cell_length_c   6.76105268
_cell_angle_alpha   115.31236016
_cell_angle_beta   115.31319753
_cell_angle_gamma   90.00000002
_symmetry_Int_Tables_number   1
_chemical_formula_structural   V5SiB2
_chemical_formula_sum   'V10 Si2 B4'
_cell_volume   180.00558899
_cell_formula_units_Z   2
loop_
 _symmetry_equiv_pos_site_id
 _symmetry_equiv_pos_as_xyz
  1  'x, y, z'
loop_
 _atom_site_type_symbol
 _atom_site_label
 _atom_site_symmetry_multiplicity
 _atom_site_fract_x
 _atom_site_fract_y
 _atom_site_fract_z
 _atom_site_occupancy
  B  B0  1  0.614906  0.114906  0.000013  1
  B  B1  1  0.885107  0.614906  0.000013  1
  B  B2  1  0.114893  0.385094  0.999987  1
  B  B3  1  0.385094  0.885094  0.999987  1
  Si  Si4  1  0.749996  0.750000  0.500000  1
  Si  Si5  1  0.250004  0.250000  0.500000  1
  V  V6  1  0.193279  0.032910  0.726189  1
  V  V7  1  0.032910  0.532910  0.726189  1
  V  V8  1  0.693282  0.193281  0.726196  1
  V  V9  1  0.967090  0.467090  0.273811  1
  V  V10  1  0.532914  0.693281  0.726196  1
  V  V11  1  0.806721  0.967090  0.273811  1
  V  V12  1  0.467086  0.306719  0.273804  1
  V  V13  1  0.306718  0.806719  0.273804  1
  V  V14  1  0.500000  0.500000  0.000000  1
  V  V15  1  0.000000  0.000000  0.000000  1
