# generated using pymatgen
data_C3N
_symmetry_space_group_name_H-M   'P 1'
_cell_length_a   2.42759289
_cell_length_b   2.42759289
_cell_length_c   12.06138401
_cell_angle_alpha   90.00000000
_cell_angle_beta   90.00000000
_cell_angle_gamma   119.94637907
_symmetry_Int_Tables_number   1
_chemical_formula_structural   C3N
_chemical_formula_sum   'C6 N2'
_cell_volume   61.59052339
_cell_formula_units_Z   2
loop_
 _symmetry_equiv_pos_site_id
 _symmetry_equiv_pos_as_xyz
  1  'x, y, z'
loop_
 _atom_site_type_symbol
 _atom_site_label
 _atom_site_symmetry_multiplicity
 _atom_site_fract_x
 _atom_site_fract_y
 _atom_site_fract_z
 _atom_site_occupancy
  C  C0  1  0.038268  0.961732  0.750000  1
  C  C1  1  0.961732  0.038268  0.250000  1
  C  C2  1  0.666070  0.333930  0.000241  1
  C  C3  1  0.333930  0.666070  -0.000241  1
  C  C4  1  0.333930  0.666070  0.500241  1
  C  C5  1  0.666070  0.333930  0.499759  1
  N  N6  1  0.704892  0.295108  0.750000  1
  N  N7  1  0.295108  0.704892  0.250000  1
