# generated using pymatgen
data_In6ReO12
_symmetry_space_group_name_H-M   'P 1'
_cell_length_a   6.34523226
_cell_length_b   6.34523227
_cell_length_c   6.34523227
_cell_angle_alpha   99.20831592
_cell_angle_beta   99.20831598
_cell_angle_gamma   99.20831594
_symmetry_Int_Tables_number   1
_chemical_formula_structural   In6ReO12
_chemical_formula_sum   'In6 Re1 O12'
_cell_volume   244.37037371
_cell_formula_units_Z   1
loop_
 _symmetry_equiv_pos_site_id
 _symmetry_equiv_pos_as_xyz
  1  'x, y, z'
loop_
 _atom_site_type_symbol
 _atom_site_label
 _atom_site_symmetry_multiplicity
 _atom_site_fract_x
 _atom_site_fract_y
 _atom_site_fract_z
 _atom_site_occupancy
  O  O0  1  0.594032  0.414081  0.175982  1
  O  O1  1  0.414081  0.175982  0.594032  1
  O  O2  1  0.175982  0.594032  0.414081  1
  O  O3  1  0.405968  0.585919  0.824018  1
  O  O4  1  0.585919  0.824018  0.405968  1
  O  O5  1  0.824018  0.405968  0.585919  1
  O  O6  1  0.045075  0.896808  0.708276  1
  O  O7  1  0.291724  0.954925  0.103192  1
  O  O8  1  0.103192  0.291724  0.954925  1
  O  O9  1  0.954925  0.103192  0.291724  1
  O  O10  1  0.708276  0.045075  0.896808  1
  O  O11  1  0.896808  0.708276  0.045075  1
  In  In12  1  0.860231  0.677226  0.396895  1
  In  In13  1  0.677226  0.396895  0.860231  1
  In  In14  1  0.396895  0.860231  0.677226  1
  In  In15  1  0.139769  0.322774  0.603105  1
  In  In16  1  0.322774  0.603105  0.139769  1
  In  In17  1  0.603105  0.139769  0.322774  1
  Re  Re18  1  0.000000  0.000000  0.000000  1
