# generated using pymatgen
data_MoWS4
_symmetry_space_group_name_H-M   'P 1'
_cell_length_a   3.18969602
_cell_length_b   3.18961925
_cell_length_c   35.79230946
_cell_angle_alpha   89.99991260
_cell_angle_beta   90.00000000
_cell_angle_gamma   120.00079616
_symmetry_Int_Tables_number   1
_chemical_formula_structural   MoWS4
_chemical_formula_sum   'Mo2 W2 S8'
_cell_volume   315.35884018
_cell_formula_units_Z   2
loop_
 _symmetry_equiv_pos_site_id
 _symmetry_equiv_pos_as_xyz
  1  'x, y, z'
loop_
 _atom_site_type_symbol
 _atom_site_label
 _atom_site_symmetry_multiplicity
 _atom_site_fract_x
 _atom_site_fract_y
 _atom_site_fract_z
 _atom_site_occupancy
  Mo  Mo0  1  0.333307  0.666614  0.469649  1
  Mo  Mo1  1  0.666693  0.333386  0.281809  1
  W  W2  1  0.333310  0.666620  0.093921  1
  W  W3  1  0.666690  0.333380  0.657537  1
  S  S4  1  0.333354  0.666709  0.325534  1
  S  S5  1  0.333354  0.666710  0.701484  1
  S  S6  1  0.666646  0.333290  0.049974  1
  S  S7  1  0.666646  0.333291  0.425924  1
  S  S8  1  0.666646  0.333291  0.137858  1
  S  S9  1  0.666645  0.333289  0.513389  1
  S  S10  1  0.333355  0.666711  0.238069  1
  S  S11  1  0.333354  0.666709  0.613600  1
