# generated using pymatgen
data_Ba2FeWO6
_symmetry_space_group_name_H-M   'P 1'
_cell_length_a   5.83064499
_cell_length_b   5.83064499
_cell_length_c   5.83064499
_cell_angle_alpha   89.59826555
_cell_angle_beta   120.23221193
_cell_angle_gamma   120.23221196
_symmetry_Int_Tables_number   1
_chemical_formula_structural   Ba2FeWO6
_chemical_formula_sum   'Ba2 Fe1 W1 O6'
_cell_volume   139.66777903
_cell_formula_units_Z   1
loop_
 _symmetry_equiv_pos_site_id
 _symmetry_equiv_pos_as_xyz
  1  'x, y, z'
loop_
 _atom_site_type_symbol
 _atom_site_label
 _atom_site_symmetry_multiplicity
 _atom_site_fract_x
 _atom_site_fract_y
 _atom_site_fract_z
 _atom_site_occupancy
  O  O0  1  0.519578  0.759794  0.759784  1
  O  O1  1  0.999990  0.759784  0.240206  1
  O  O2  1  0.000010  0.240216  0.759794  1
  O  O3  1  0.480422  0.240206  0.240216  1
  O  O4  1  0.000000  0.239401  0.239401  1
  O  O5  1  0.000000  0.760599  0.760599  1
  Fe  Fe6  1  0.000000  0.500000  0.500000  1
  Ba  Ba7  1  0.500000  0.750000  0.250000  1
  Ba  Ba8  1  0.500000  0.250000  0.750000  1
  W  W9  1  0.000000  0.000000  0.000000  1
