# generated using pymatgen
data_Te2Mo(WS2)3
_symmetry_space_group_name_H-M   'P 1'
_cell_length_a   3.27517674
_cell_length_b   3.27520260
_cell_length_c   37.26617643
_cell_angle_alpha   90.00092031
_cell_angle_beta   90.00000000
_cell_angle_gamma   119.99973881
_symmetry_Int_Tables_number   1
_chemical_formula_structural   Te2Mo(WS2)3
_chemical_formula_sum   'Te2 Mo1 W3 S6'
_cell_volume   346.19398796
_cell_formula_units_Z   1
loop_
 _symmetry_equiv_pos_site_id
 _symmetry_equiv_pos_as_xyz
  1  'x, y, z'
loop_
 _atom_site_type_symbol
 _atom_site_label
 _atom_site_symmetry_multiplicity
 _atom_site_fract_x
 _atom_site_fract_y
 _atom_site_fract_z
 _atom_site_occupancy
  Te  Te0  1  0.333366  0.666733  0.709707  1
  Te  Te1  1  0.333353  0.666708  0.605541  1
  Mo  Mo2  1  0.666700  0.333400  0.281798  1
  W  W3  1  0.333309  0.666617  0.093904  1
  W  W4  1  0.333311  0.666623  0.469571  1
  W  W5  1  0.666699  0.333398  0.657624  1
  S  S6  1  0.333344  0.666688  0.323093  1
  S  S7  1  0.666649  0.333296  0.052450  1
  S  S8  1  0.666643  0.333285  0.428137  1
  S  S9  1  0.666641  0.333281  0.135374  1
  S  S10  1  0.666638  0.333276  0.511034  1
  S  S11  1  0.333348  0.666696  0.240514  1
