# generated using pymatgen
data_Ba3Er4O9
_symmetry_space_group_name_H-M   'P 1'
_cell_length_a   9.16862361
_cell_length_b   9.16862361
_cell_length_c   9.16862361
_cell_angle_alpha   38.88120097
_cell_angle_beta   38.88120094
_cell_angle_gamma   38.88120092
_symmetry_Int_Tables_number   1
_chemical_formula_structural   Ba3Er4O9
_chemical_formula_sum   'Ba3 Er4 O9'
_cell_volume   273.05025783
_cell_formula_units_Z   1
loop_
 _symmetry_equiv_pos_site_id
 _symmetry_equiv_pos_as_xyz
  1  'x, y, z'
loop_
 _atom_site_type_symbol
 _atom_site_label
 _atom_site_symmetry_multiplicity
 _atom_site_fract_x
 _atom_site_fract_y
 _atom_site_fract_z
 _atom_site_occupancy
  O  O0  1  0.462321  0.578057  0.042367  1
  O  O1  1  0.578057  0.042367  0.462321  1
  O  O2  1  0.042367  0.462321  0.578057  1
  O  O3  1  0.596899  0.694892  0.127698  1
  O  O4  1  0.694892  0.127698  0.596899  1
  O  O5  1  0.127698  0.596899  0.694892  1
  O  O6  1  0.026820  0.581696  0.140045  1
  O  O7  1  0.140045  0.026820  0.581696  1
  O  O8  1  0.581696  0.140045  0.026820  1
  Ba  Ba9  1  0.000148  0.000148  0.000148  1
  Ba  Ba10  1  0.165180  0.165180  0.165180  1
  Ba  Ba11  1  0.578447  0.578447  0.578447  1
  Er  Er12  1  0.426179  0.426179  0.426179  1
  Er  Er13  1  0.864836  0.864836  0.864836  1
  Er  Er14  1  0.739378  0.739378  0.739378  1
  Er  Er15  1  0.301237  0.301237  0.301237  1
