# generated using pymatgen
data_NdCrS3
_symmetry_space_group_name_H-M   'P 1'
_cell_length_a   3.79012561
_cell_length_b   7.80370075
_cell_length_c   13.04086210
_cell_angle_alpha   90.00000000
_cell_angle_beta   90.00000000
_cell_angle_gamma   90.00000000
_symmetry_Int_Tables_number   1
_chemical_formula_structural   NdCrS3
_chemical_formula_sum   'Nd4 Cr4 S12'
_cell_volume   385.70965743
_cell_formula_units_Z   4
loop_
 _symmetry_equiv_pos_site_id
 _symmetry_equiv_pos_as_xyz
  1  'x, y, z'
loop_
 _atom_site_type_symbol
 _atom_site_label
 _atom_site_symmetry_multiplicity
 _atom_site_fract_x
 _atom_site_fract_y
 _atom_site_fract_z
 _atom_site_occupancy
  S  S0  1  0.250000  0.989761  0.393890  1
  S  S1  1  0.750000  0.010239  0.606110  1
  S  S2  1  0.250000  0.489761  0.106110  1
  S  S3  1  0.750000  0.510239  0.893890  1
  S  S4  1  0.250000  0.840705  0.994130  1
  S  S5  1  0.750000  0.159295  0.005870  1
  S  S6  1  0.250000  0.340705  0.505870  1
  S  S7  1  0.750000  0.659295  0.494130  1
  S  S8  1  0.750000  0.806360  0.212625  1
  S  S9  1  0.250000  0.193640  0.787375  1
  S  S10  1  0.750000  0.306360  0.287375  1
  S  S11  1  0.250000  0.693640  0.712625  1
  Cr  Cr12  1  0.250000  0.837235  0.551305  1
  Cr  Cr13  1  0.750000  0.162765  0.448695  1
  Cr  Cr14  1  0.250000  0.337235  0.948695  1
  Cr  Cr15  1  0.750000  0.662765  0.051305  1
  Nd  Nd16  1  0.250000  0.588999  0.327858  1
  Nd  Nd17  1  0.750000  0.411001  0.672142  1
  Nd  Nd18  1  0.250000  0.088999  0.172142  1
  Nd  Nd19  1  0.750000  0.911001  0.827858  1
