# generated using pymatgen
data_CrN2
_symmetry_space_group_name_H-M   'P 1'
_cell_length_a   5.27094334
_cell_length_b   5.61738098
_cell_length_c   7.52522885
_cell_angle_alpha   109.43427764
_cell_angle_beta   106.21752375
_cell_angle_gamma   87.18174948
_symmetry_Int_Tables_number   1
_chemical_formula_structural   CrN2
_chemical_formula_sum   'Cr4 N8'
_cell_volume   201.52195424
_cell_formula_units_Z   4
loop_
 _symmetry_equiv_pos_site_id
 _symmetry_equiv_pos_as_xyz
  1  'x, y, z'
loop_
 _atom_site_type_symbol
 _atom_site_label
 _atom_site_symmetry_multiplicity
 _atom_site_fract_x
 _atom_site_fract_y
 _atom_site_fract_z
 _atom_site_occupancy
  Cr  Cr0  1  0.433620  0.087916  0.874634  1
  Cr  Cr1  1  0.893515  0.050744  0.216830  1
  Cr  Cr2  1  0.500593  0.150365  0.522743  1
  Cr  Cr3  1  0.884494  0.430380  0.938315  1
  N  N4  1  0.184328  0.189641  0.363965  1
  N  N5  1  0.362949  0.871838  0.945545  1
  N  N6  1  0.434014  0.935826  0.615346  1
  N  N7  1  0.709773  0.052588  0.374929  1
  N  N8  1  0.167114  0.293760  0.905885  1
  N  N9  1  0.942252  0.733389  0.097148  1
  N  N10  1  0.755408  0.231176  0.050479  1
  N  N11  1  0.654993  0.417879  0.717432  1
