# generated using pymatgen
data_CrN2
_symmetry_space_group_name_H-M   'P 1'
_cell_length_a   8.13698376
_cell_length_b   8.13698376
_cell_length_c   9.31234589
_cell_angle_alpha   90.00000000
_cell_angle_beta   90.00000000
_cell_angle_gamma   90.00000000
_symmetry_Int_Tables_number   1
_chemical_formula_structural   CrN2
_chemical_formula_sum   'Cr12 N24'
_cell_volume   616.57512142
_cell_formula_units_Z   12
loop_
 _symmetry_equiv_pos_site_id
 _symmetry_equiv_pos_as_xyz
  1  'x, y, z'
loop_
 _atom_site_type_symbol
 _atom_site_label
 _atom_site_symmetry_multiplicity
 _atom_site_fract_x
 _atom_site_fract_y
 _atom_site_fract_z
 _atom_site_occupancy
  Cr  Cr0  1  0.823308  0.379609  0.997273  1
  Cr  Cr1  1  0.176692  0.620391  0.497273  1
  Cr  Cr2  1  0.879609  0.676692  0.247273  1
  Cr  Cr3  1  0.120391  0.323308  0.747273  1
  Cr  Cr4  1  0.620391  0.176692  0.502727  1
  Cr  Cr5  1  0.379609  0.823308  0.002727  1
  Cr  Cr6  1  0.676692  0.879609  0.752727  1
  Cr  Cr7  1  0.323308  0.120391  0.252727  1
  Cr  Cr8  1  0.910910  0.089090  0.250000  1
  Cr  Cr9  1  0.089090  0.910910  0.750000  1
  Cr  Cr10  1  0.589090  0.589090  0.500000  1
  Cr  Cr11  1  0.410910  0.410910  -0.000000  1
  N  N12  1  0.947969  0.369467  0.843573  1
  N  N13  1  0.052031  0.630533  0.343573  1
  N  N14  1  0.869467  0.552031  0.093573  1
  N  N15  1  0.130533  0.447969  0.593573  1
  N  N16  1  0.630533  0.052031  0.656427  1
  N  N17  1  0.369467  0.947969  0.156427  1
  N  N18  1  0.552031  0.869467  0.906427  1
  N  N19  1  0.447969  0.130533  0.406427  1
  N  N20  1  0.615035  0.384996  0.956541  1
  N  N21  1  0.384965  0.615004  0.456541  1
  N  N22  1  0.884996  0.884965  0.206541  1
  N  N23  1  0.115004  0.115035  0.706541  1
  N  N24  1  0.615004  0.384965  0.543459  1
  N  N25  1  0.384996  0.615035  0.043459  1
  N  N26  1  0.884965  0.884996  0.793459  1
  N  N27  1  0.115035  0.115004  0.293459  1
  N  N28  1  0.861213  0.211714  0.104241  1
  N  N29  1  0.138787  0.788286  0.604241  1
  N  N30  1  0.711714  0.638787  0.354241  1
  N  N31  1  0.288286  0.361213  0.854241  1
  N  N32  1  0.788286  0.138787  0.395759  1
  N  N33  1  0.211714  0.861213  0.895759  1
  N  N34  1  0.638787  0.711714  0.645759  1
  N  N35  1  0.361213  0.288286  0.145759  1
