# generated using pymatgen
data_Li6Ca12Re4N16O3
_symmetry_space_group_name_H-M   'P 1'
_cell_length_a   11.35528322
_cell_length_b   11.35528322
_cell_length_c   11.35528322
_cell_angle_alpha   109.47122066
_cell_angle_beta   109.47122065
_cell_angle_gamma   109.47122061
_symmetry_Int_Tables_number   1
_chemical_formula_structural   Li6Ca12Re4N16O3
_chemical_formula_sum   'Li12 Ca24 Re8 N32 O6'
_cell_volume   1127.12484055
_cell_formula_units_Z   2
loop_
 _symmetry_equiv_pos_site_id
 _symmetry_equiv_pos_as_xyz
  1  'x, y, z'
loop_
 _atom_site_type_symbol
 _atom_site_label
 _atom_site_symmetry_multiplicity
 _atom_site_fract_x
 _atom_site_fract_y
 _atom_site_fract_z
 _atom_site_occupancy
  Li  Li0  1  0.250000  0.276272  0.026272  1
  Li  Li1  1  0.250000  0.973728  0.723728  1
  Li  Li2  1  0.776272  0.750000  0.526272  1
  Li  Li3  1  0.526272  0.776272  0.750000  1
  Li  Li4  1  0.723728  0.250000  0.973728  1
  Li  Li5  1  0.973728  0.723728  0.250000  1
  Li  Li6  1  0.750000  0.223728  0.473728  1
  Li  Li7  1  0.223728  0.473728  0.750000  1
  Li  Li8  1  0.276272  0.026272  0.250000  1
  Li  Li9  1  0.026272  0.250000  0.276272  1
  Li  Li10  1  0.473728  0.750000  0.223728  1
  Li  Li11  1  0.750000  0.526272  0.776272  1
  N  N12  1  0.456520  0.820585  0.582551  1
  N  N13  1  0.126032  0.543480  0.864065  1
  N  N14  1  0.373968  0.238033  0.417449  1
  N  N15  1  0.082551  0.320585  0.956520  1
  N  N16  1  0.320585  0.956520  0.082551  1
  N  N17  1  0.956520  0.082551  0.320585  1
  N  N18  1  0.917449  0.738033  0.873968  1
  N  N19  1  0.364065  0.043480  0.626032  1
  N  N20  1  0.135935  0.761967  0.679415  1
  N  N21  1  0.417449  0.373968  0.238033  1
  N  N22  1  0.820585  0.582551  0.456520  1
  N  N23  1  0.873968  0.917449  0.738033  1
  N  N24  1  0.043480  0.626032  0.364065  1
  N  N25  1  0.679415  0.135935  0.761967  1
  N  N26  1  0.738033  0.873968  0.917449  1
  N  N27  1  0.626032  0.364065  0.043480  1
  N  N28  1  0.761967  0.679415  0.135935  1
  N  N29  1  0.864065  0.126032  0.543480  1
  N  N30  1  0.635935  0.179415  0.261967  1
  N  N31  1  0.179415  0.261967  0.635935  1
  N  N32  1  0.615405  0.615405  0.615405  1
  N  N33  1  0.384595  0.500000  0.000000  1
  N  N34  1  0.000000  0.384595  0.500000  1
  N  N35  1  0.500000  0.000000  0.384595  1
  N  N36  1  0.000000  0.884595  0.500000  1
  N  N37  1  0.500000  0.000000  0.884595  1
  N  N38  1  0.884595  0.500000  0.000000  1
  N  N39  1  0.115405  0.115405  0.115405  1
  N  N40  1  0.582551  0.456520  0.820585  1
  N  N41  1  0.543480  0.864065  0.126032  1
  N  N42  1  0.238033  0.417449  0.373968  1
  N  N43  1  0.261967  0.635935  0.179415  1
  O  O44  1  0.375000  0.625000  0.750000  1
  O  O45  1  0.125000  0.875000  0.250000  1
  O  O46  1  0.625000  0.750000  0.375000  1
  O  O47  1  0.875000  0.250000  0.125000  1
  O  O48  1  0.250000  0.125000  0.875000  1
  O  O49  1  0.750000  0.375000  0.625000  1
  Ca  Ca50  1  0.708243  0.037970  0.095226  1
  Ca  Ca51  1  0.170273  0.057257  0.462030  1
  Ca  Ca52  1  0.329727  0.791757  0.886983  1
  Ca  Ca53  1  0.442743  0.613017  0.404774  1
  Ca  Ca54  1  0.613017  0.404774  0.442743  1
  Ca  Ca55  1  0.037970  0.095226  0.708243  1
  Ca  Ca56  1  0.057257  0.462030  0.170273  1
  Ca  Ca57  1  0.886983  0.329727  0.791757  1
  Ca  Ca58  1  0.095226  0.708243  0.037970  1
  Ca  Ca59  1  0.462030  0.170273  0.057257  1
  Ca  Ca60  1  0.791757  0.886983  0.329727  1
  Ca  Ca61  1  0.670273  0.962030  0.557257  1
  Ca  Ca62  1  0.829727  0.386983  0.291757  1
  Ca  Ca63  1  0.404774  0.442743  0.613017  1
  Ca  Ca64  1  0.595226  0.537970  0.208243  1
  Ca  Ca65  1  0.942743  0.904774  0.113017  1
  Ca  Ca66  1  0.113017  0.942743  0.904774  1
  Ca  Ca67  1  0.904774  0.113017  0.942743  1
  Ca  Ca68  1  0.291757  0.829727  0.386983  1
  Ca  Ca69  1  0.962030  0.557257  0.670273  1
  Ca  Ca70  1  0.537970  0.208243  0.595226  1
  Ca  Ca71  1  0.208243  0.595226  0.537970  1
  Ca  Ca72  1  0.557257  0.670273  0.962030  1
  Ca  Ca73  1  0.386983  0.291757  0.829727  1
  Re  Re74  1  0.278793  0.278793  0.278793  1
  Re  Re75  1  0.721207  0.500000  0.000000  1
  Re  Re76  1  0.500000  0.000000  0.721207  1
  Re  Re77  1  0.000000  0.721207  0.500000  1
  Re  Re78  1  0.500000  0.000000  0.221207  1
  Re  Re79  1  0.000000  0.221207  0.500000  1
  Re  Re80  1  0.221207  0.500000  0.000000  1
  Re  Re81  1  0.778793  0.778793  0.778793  1
