# generated using pymatgen
data_KNb(PO4)2
_symmetry_space_group_name_H-M   'P 1'
_cell_length_a   5.26797097
_cell_length_b   12.02440483
_cell_length_c   12.03575680
_cell_angle_alpha   90.00000000
_cell_angle_beta   90.00000000
_cell_angle_gamma   91.22016577
_symmetry_Int_Tables_number   1
_chemical_formula_structural   KNb(PO4)2
_chemical_formula_sum   'K4 Nb4 P8 O32'
_cell_volume   762.22270075
_cell_formula_units_Z   4
loop_
 _symmetry_equiv_pos_site_id
 _symmetry_equiv_pos_as_xyz
  1  'x, y, z'
loop_
 _atom_site_type_symbol
 _atom_site_label
 _atom_site_symmetry_multiplicity
 _atom_site_fract_x
 _atom_site_fract_y
 _atom_site_fract_z
 _atom_site_occupancy
  O  O0  1  0.015404  0.347575  0.485517  1
  O  O1  1  0.484596  0.152424  0.985517  1
  O  O2  1  0.984596  0.652425  0.514483  1
  O  O3  1  0.515404  0.847575  0.014483  1
  O  O4  1  0.729647  0.285740  0.328023  1
  O  O5  1  0.770353  0.214260  0.828023  1
  O  O6  1  0.270353  0.714260  0.671977  1
  O  O7  1  0.229647  0.785740  0.171977  1
  O  O8  1  0.949053  0.376544  0.722964  1
  O  O9  1  0.550947  0.123456  0.222964  1
  O  O10  1  0.050947  0.623456  0.277035  1
  O  O11  1  0.449053  0.876544  0.777035  1
  O  O12  1  0.775809  0.411439  0.916662  1
  O  O13  1  0.724192  0.088561  0.416662  1
  O  O14  1  0.224192  0.588561  0.083338  1
  O  O15  1  0.275809  0.911439  0.583337  1
  O  O16  1  0.207352  0.979713  0.108648  1
  O  O17  1  0.292648  0.520287  0.608648  1
  O  O18  1  0.792648  0.020287  0.891352  1
  O  O19  1  0.707352  0.479713  0.391352  1
  O  O20  1  0.049241  0.822455  0.980534  1
  O  O21  1  0.450757  0.677545  0.480534  1
  O  O22  1  0.950757  0.177545  0.019466  1
  O  O23  1  0.549241  0.322455  0.519466  1
  O  O24  1  0.479485  0.361234  0.756732  1
  O  O25  1  0.704756  0.686428  0.859196  1
  O  O26  1  0.204755  0.186428  0.640804  1
  O  O27  1  0.295245  0.313572  0.140804  1
  O  O28  1  0.979485  0.861234  0.743268  1
  O  O29  1  0.520515  0.638766  0.243268  1
  O  O30  1  0.020515  0.138766  0.256732  1
  O  O31  1  0.795245  0.813572  0.359196  1
  P  P32  1  0.750354  0.365208  0.436210  1
  P  P33  1  0.250354  0.865208  0.063790  1
  P  P34  1  0.249646  0.634792  0.563789  1
  P  P35  1  0.749646  0.134792  0.936210  1
  P  P36  1  0.742924  0.348317  0.810970  1
  P  P37  1  0.757075  0.151684  0.310971  1
  P  P38  1  0.257075  0.651683  0.189029  1
  P  P39  1  0.242924  0.848316  0.689029  1
  K  K40  1  0.763309  0.447270  0.133398  1
  K  K41  1  0.263309  0.947270  0.366602  1
  K  K42  1  0.236691  0.552730  0.866602  1
  K  K43  1  0.736691  0.052730  0.633398  1
  Nb  Nb44  1  0.242740  0.331452  0.622635  1
  Nb  Nb45  1  0.257260  0.168547  0.122634  1
  Nb  Nb46  1  0.757260  0.668548  0.377366  1
  Nb  Nb47  1  0.742740  0.831453  0.877366  1
