# generated using pymatgen
data_UOF4
_symmetry_space_group_name_H-M   'P 1'
_cell_length_a   5.86756385
_cell_length_b   8.88267772
_cell_length_c   8.88267772
_cell_angle_alpha   83.73738676
_cell_angle_beta   70.71415274
_cell_angle_gamma   70.71415275
_symmetry_Int_Tables_number   1
_chemical_formula_structural   UOF4
_chemical_formula_sum   'U4 O4 F16'
_cell_volume   412.45973848
_cell_formula_units_Z   4
loop_
 _symmetry_equiv_pos_site_id
 _symmetry_equiv_pos_as_xyz
  1  'x, y, z'
loop_
 _atom_site_type_symbol
 _atom_site_label
 _atom_site_symmetry_multiplicity
 _atom_site_fract_x
 _atom_site_fract_y
 _atom_site_fract_z
 _atom_site_occupancy
  O  O0  1  0.355055  0.019945  0.519945  1
  O  O1  1  0.894945  0.980055  0.480055  1
  O  O2  1  0.625000  0.480055  0.019945  1
  O  O3  1  0.125000  0.519945  0.980055  1
  F  F4  1  0.509422  0.606451  0.735003  1
  F  F5  1  0.755575  0.735003  0.393549  1
  F  F6  1  0.884126  0.264997  0.606451  1
  F  F7  1  0.850877  0.393549  0.264997  1
  F  F8  1  0.118037  0.919627  0.789768  1
  F  F9  1  0.092196  0.789768  0.080373  1
  F  F10  1  0.962336  0.210232  0.919627  1
  F  F11  1  0.827431  0.080373  0.210232  1
  F  F12  1  0.131963  0.710232  0.580373  1
  F  F13  1  0.422569  0.289768  0.419627  1
  F  F14  1  0.287664  0.580373  0.289768  1
  F  F15  1  0.157804  0.419627  0.710232  1
  F  F16  1  0.494425  0.106451  0.764997  1
  F  F17  1  0.740578  0.764997  0.893549  1
  F  F18  1  0.399123  0.235003  0.106451  1
  F  F19  1  0.365874  0.893549  0.235003  1
  U  U20  1  0.048326  0.826674  0.326674  1
  U  U21  1  0.625000  0.326674  0.173326  1
  U  U22  1  0.125000  0.673326  0.826674  1
  U  U23  1  0.201674  0.173326  0.673326  1
