# generated using pymatgen
data_Te2MoWS2
_symmetry_space_group_name_H-M   'P 1'
_cell_length_a   3.36092741
_cell_length_b   3.36101711
_cell_length_c   40.19480546
_cell_angle_alpha   90.00299569
_cell_angle_beta   90.00000000
_cell_angle_gamma   119.99911702
_symmetry_Int_Tables_number   1
_chemical_formula_structural   Te2MoWS2
_chemical_formula_sum   'Te4 Mo2 W2 S4'
_cell_volume   393.21880813
_cell_formula_units_Z   2
loop_
 _symmetry_equiv_pos_site_id
 _symmetry_equiv_pos_as_xyz
  1  'x, y, z'
loop_
 _atom_site_type_symbol
 _atom_site_label
 _atom_site_symmetry_multiplicity
 _atom_site_fract_x
 _atom_site_fract_y
 _atom_site_fract_z
 _atom_site_occupancy
  Te  Te0  1  0.333355  0.666712  0.331110  1
  Te  Te1  1  0.666661  0.333322  0.044698  1
  Te  Te2  1  0.666691  0.333381  0.138669  1
  Te  Te3  1  0.333288  0.666578  0.236477  1
  Mo  Mo4  1  0.333359  0.666717  0.091671  1
  Mo  Mo5  1  0.333391  0.666782  0.469907  1
  W  W6  1  0.666641  0.333281  0.283820  1
  W  W7  1  0.666636  0.333272  0.657546  1
  S  S8  1  0.333322  0.666645  0.695288  1
  S  S9  1  0.666660  0.333318  0.432252  1
  S  S10  1  0.666696  0.333391  0.507511  1
  S  S11  1  0.333300  0.666601  0.619798  1
