# generated using pymatgen
data_LiLa2OsO6
_symmetry_space_group_name_H-M   'P 1'
_cell_length_a   5.58151613
_cell_length_b   5.82047643
_cell_length_c   7.91362634
_cell_angle_alpha   90.00000000
_cell_angle_beta   90.27612937
_cell_angle_gamma   90.00000000
_symmetry_Int_Tables_number   1
_chemical_formula_structural   LiLa2OsO6
_chemical_formula_sum   'Li2 La4 Os2 O12'
_cell_volume   257.08765078
_cell_formula_units_Z   2
loop_
 _symmetry_equiv_pos_site_id
 _symmetry_equiv_pos_as_xyz
  1  'x, y, z'
loop_
 _atom_site_type_symbol
 _atom_site_label
 _atom_site_symmetry_multiplicity
 _atom_site_fract_x
 _atom_site_fract_y
 _atom_site_fract_z
 _atom_site_occupancy
  Li  Li0  1  0.000000  0.000000  0.000000  1
  Li  Li1  1  0.500000  0.500000  0.500000  1
  O  O2  1  0.185955  0.284858  0.449611  1
  O  O3  1  0.314045  0.784858  0.050389  1
  O  O4  1  0.814045  0.715142  0.550389  1
  O  O5  1  0.685955  0.215142  0.949611  1
  O  O6  1  0.091421  0.028630  0.742230  1
  O  O7  1  0.408579  0.528630  0.757770  1
  O  O8  1  0.210416  0.310464  0.045476  1
  O  O9  1  0.289584  0.810464  0.454524  1
  O  O10  1  0.789584  0.689536  0.954524  1
  O  O11  1  0.710416  0.189536  0.545476  1
  O  O12  1  0.591421  0.471370  0.242230  1
  O  O13  1  0.908579  0.971370  0.257770  1
  La  La14  1  0.487506  0.059658  0.251329  1
  La  La15  1  0.012494  0.559658  0.248671  1
  La  La16  1  0.987506  0.440342  0.751329  1
  La  La17  1  0.512494  0.940342  0.748671  1
  Os  Os18  1  0.500000  0.500000  0.000000  1
  Os  Os19  1  0.000000  0.000000  0.500000  1
