# generated using pymatgen
data_Na2ZnSe2
_symmetry_space_group_name_H-M   'P 1'
_cell_length_a   6.22114104
_cell_length_b   6.75724762
_cell_length_c   7.45616377
_cell_angle_alpha   116.94478445
_cell_angle_beta   114.65675036
_cell_angle_gamma   89.99999660
_symmetry_Int_Tables_number   1
_chemical_formula_structural   Na2ZnSe2
_chemical_formula_sum   'Na4 Zn2 Se4'
_cell_volume   246.92909754
_cell_formula_units_Z   2
loop_
 _symmetry_equiv_pos_site_id
 _symmetry_equiv_pos_as_xyz
  1  'x, y, z'
loop_
 _atom_site_type_symbol
 _atom_site_label
 _atom_site_symmetry_multiplicity
 _atom_site_fract_x
 _atom_site_fract_y
 _atom_site_fract_z
 _atom_site_occupancy
  Na  Na0  1  0.139661  0.484763  0.279321  1
  Na  Na1  1  0.860339  0.515237  0.720679  1
  Na  Na2  1  0.360339  0.205442  0.720679  1
  Na  Na3  1  0.639661  0.794558  0.279321  1
  Zn  Zn4  1  0.250000  -0.000000  -0.000000  1
  Zn  Zn5  1  0.750000  0.000000  0.000000  1
  Se  Se6  1  0.613237  0.328170  0.226476  1
  Se  Se7  1  0.386763  0.671830  0.773524  1
  Se  Se8  1  0.886763  0.101694  0.773524  1
  Se  Se9  1  0.113237  0.898306  0.226476  1
