# generated using pymatgen
data_Ho2Si5Ni3
_symmetry_space_group_name_H-M   'P 1'
_cell_length_a   5.63401809
_cell_length_b   7.84993747
_cell_length_c   7.84993748
_cell_angle_alpha   75.12420208
_cell_angle_beta   68.96995140
_cell_angle_gamma   68.96995145
_symmetry_Int_Tables_number   1
_chemical_formula_structural   Ho2Si5Ni3
_chemical_formula_sum   'Ho4 Si10 Ni6'
_cell_volume   299.18829052
_cell_formula_units_Z   2
loop_
 _symmetry_equiv_pos_site_id
 _symmetry_equiv_pos_as_xyz
  1  'x, y, z'
loop_
 _atom_site_type_symbol
 _atom_site_label
 _atom_site_symmetry_multiplicity
 _atom_site_fract_x
 _atom_site_fract_y
 _atom_site_fract_z
 _atom_site_occupancy
  Si  Si0  1  0.250000  0.000000  0.000000  1
  Si  Si1  1  0.750000  0.000000  0.000000  1
  Si  Si2  1  0.982978  0.267022  0.267022  1
  Si  Si3  1  0.517022  0.732978  0.732978  1
  Si  Si4  1  0.017022  0.732978  0.732978  1
  Si  Si5  1  0.482978  0.267022  0.267022  1
  Si  Si6  1  0.392836  0.454070  0.760259  1
  Si  Si7  1  0.892836  0.760259  0.454070  1
  Si  Si8  1  0.107164  0.239741  0.545930  1
  Si  Si9  1  0.607164  0.545930  0.239741  1
  Ni  Ni10  1  0.865418  0.022138  0.247026  1
  Ni  Ni11  1  0.750000  0.500000  0.500000  1
  Ni  Ni12  1  0.365418  0.247026  0.022138  1
  Ni  Ni13  1  0.634582  0.752974  0.977862  1
  Ni  Ni14  1  0.134582  0.977862  0.752974  1
  Ni  Ni15  1  0.250000  0.500000  0.500000  1
  Ho  Ho16  1  0.131393  0.632280  0.104933  1
  Ho  Ho17  1  0.868607  0.367720  0.895067  1
  Ho  Ho18  1  0.368607  0.895067  0.367720  1
  Ho  Ho19  1  0.631393  0.104933  0.632280  1
