# generated using pymatgen
data_Cs2SrV4O12
_symmetry_space_group_name_H-M   'P 1'
_cell_length_a   5.70706835
_cell_length_b   11.40699400
_cell_length_c   11.40699400
_cell_angle_alpha   90.00000000
_cell_angle_beta   90.00000000
_cell_angle_gamma   90.00000000
_symmetry_Int_Tables_number   1
_chemical_formula_structural   Cs2SrV4O12
_chemical_formula_sum   'Cs4 Sr2 V8 O24'
_cell_volume   742.60094931
_cell_formula_units_Z   2
loop_
 _symmetry_equiv_pos_site_id
 _symmetry_equiv_pos_as_xyz
  1  'x, y, z'
loop_
 _atom_site_type_symbol
 _atom_site_label
 _atom_site_symmetry_multiplicity
 _atom_site_fract_x
 _atom_site_fract_y
 _atom_site_fract_z
 _atom_site_occupancy
  O  O0  1  0.241697  0.556206  0.750027  1
  O  O1  1  0.241697  0.943794  0.749973  1
  O  O2  1  0.241697  0.750027  0.943794  1
  O  O3  1  0.241697  0.749973  0.556206  1
  O  O4  1  0.758303  0.750027  0.556206  1
  O  O5  1  0.758303  0.943794  0.750027  1
  O  O6  1  0.758303  0.556206  0.749973  1
  O  O7  1  0.758303  0.749973  0.943794  1
  O  O8  1  0.758303  0.443794  0.249973  1
  O  O9  1  0.758303  0.056206  0.250027  1
  O  O10  1  0.758303  0.249973  0.056206  1
  O  O11  1  0.758303  0.250027  0.443794  1
  O  O12  1  0.241697  0.249973  0.443794  1
  O  O13  1  0.241697  0.056206  0.249973  1
  O  O14  1  0.999934  0.618789  0.381211  1
  O  O15  1  0.999934  0.118789  0.618789  1
  O  O16  1  0.999934  0.381211  0.881211  1
  O  O17  1  0.999934  0.881211  0.118789  1
  O  O18  1  0.000066  0.618789  0.118789  1
  O  O19  1  0.000066  0.881211  0.381211  1
  O  O20  1  0.000066  0.381211  0.618789  1
  O  O21  1  0.000066  0.118789  0.881211  1
  O  O22  1  0.241697  0.250027  0.056206  1
  O  O23  1  0.241697  0.443794  0.250027  1
  V  V24  1  0.000000  0.027471  0.750000  1
  V  V25  1  0.000000  0.750000  0.027471  1
  V  V26  1  0.000000  0.750000  0.472529  1
  V  V27  1  0.000000  0.472529  0.750000  1
  V  V28  1  0.000000  0.972529  0.250000  1
  V  V29  1  0.000000  0.250000  0.972529  1
  V  V30  1  0.000000  0.250000  0.527471  1
  V  V31  1  0.000000  0.527471  0.250000  1
  Sr  Sr32  1  0.500000  0.750000  0.750000  1
  Sr  Sr33  1  0.500000  0.250000  0.250000  1
  Cs  Cs34  1  0.500000  0.500000  0.500000  1
  Cs  Cs35  1  0.500000  0.000000  0.500000  1
  Cs  Cs36  1  0.500000  0.500000  0.000000  1
  Cs  Cs37  1  0.500000  0.000000  0.000000  1
