# generated using pymatgen
data_Te4Mo2WSe2
_symmetry_space_group_name_H-M   'P 1'
_cell_length_a   3.47864528
_cell_length_b   3.47863839
_cell_length_c   31.99332815
_cell_angle_alpha   90.00016059
_cell_angle_beta   90.00000000
_cell_angle_gamma   120.00006550
_symmetry_Int_Tables_number   1
_chemical_formula_structural   Te4Mo2WSe2
_chemical_formula_sum   'Te4 Mo2 W1 Se2'
_cell_volume   335.28119601
_cell_formula_units_Z   1
loop_
 _symmetry_equiv_pos_site_id
 _symmetry_equiv_pos_as_xyz
  1  'x, y, z'
loop_
 _atom_site_type_symbol
 _atom_site_label
 _atom_site_symmetry_multiplicity
 _atom_site_fract_x
 _atom_site_fract_y
 _atom_site_fract_z
 _atom_site_occupancy
  Te  Te0  1  0.333352  0.666705  0.404797  1
  Te  Te1  1  0.666648  0.333295  0.520836  1
  Te  Te2  1  0.666648  0.333295  0.635823  1
  Te  Te3  1  0.333350  0.666701  0.289090  1
  Mo  Mo4  1  0.333311  0.666622  0.115664  1
  Mo  Mo5  1  0.333312  0.666624  0.578366  1
  W  W6  1  0.666688  0.333376  0.346968  1
  Se  Se7  1  0.666644  0.333286  0.064921  1
  Se  Se8  1  0.666648  0.333295  0.166378  1
