# generated using pymatgen
data_Sr3ScRhO6
_symmetry_space_group_name_H-M   'P 1'
_cell_length_a   6.76117594
_cell_length_b   6.76117594
_cell_length_c   6.76117593
_cell_angle_alpha   92.63615762
_cell_angle_beta   92.63615759
_cell_angle_gamma   92.63615765
_symmetry_Int_Tables_number   1
_chemical_formula_structural   Sr3ScRhO6
_chemical_formula_sum   'Sr6 Sc2 Rh2 O12'
_cell_volume   308.06455775
_cell_formula_units_Z   2
loop_
 _symmetry_equiv_pos_site_id
 _symmetry_equiv_pos_as_xyz
  1  'x, y, z'
loop_
 _atom_site_type_symbol
 _atom_site_label
 _atom_site_symmetry_multiplicity
 _atom_site_fract_x
 _atom_site_fract_y
 _atom_site_fract_z
 _atom_site_occupancy
  O  O0  1  0.792847  0.599262  0.466416  1
  O  O1  1  0.599262  0.466416  0.792847  1
  O  O2  1  0.466416  0.792847  0.599262  1
  O  O3  1  0.033584  0.900738  0.707153  1
  O  O4  1  0.900738  0.707153  0.033584  1
  O  O5  1  0.707153  0.033584  0.900738  1
  O  O6  1  0.207153  0.400738  0.533584  1
  O  O7  1  0.400738  0.533584  0.207153  1
  O  O8  1  0.533584  0.207153  0.400738  1
  O  O9  1  0.966416  0.099262  0.292847  1
  O  O10  1  0.292847  0.966416  0.099262  1
  O  O11  1  0.099262  0.292847  0.966416  1
  Sc  Sc12  1  0.750000  0.750000  0.750000  1
  Sc  Sc13  1  0.250000  0.250000  0.250000  1
  Sr  Sr14  1  0.118907  0.750000  0.381093  1
  Sr  Sr15  1  0.750000  0.381093  0.118907  1
  Sr  Sr16  1  0.381093  0.118907  0.750000  1
  Sr  Sr17  1  0.881093  0.250000  0.618907  1
  Sr  Sr18  1  0.250000  0.618907  0.881093  1
  Sr  Sr19  1  0.618907  0.881093  0.250000  1
  Rh  Rh20  1  0.500000  0.500000  0.500000  1
  Rh  Rh21  1  0.000000  0.000000  0.000000  1
