# generated using pymatgen
data_Te4Mo2WS2
_symmetry_space_group_name_H-M   'P 1'
_cell_length_a   3.42277365
_cell_length_b   3.42273851
_cell_length_c   31.60515853
_cell_angle_alpha   90.00000000
_cell_angle_beta   90.00000000
_cell_angle_gamma   120.00033951
_symmetry_Int_Tables_number   1
_chemical_formula_structural   Te4Mo2WS2
_chemical_formula_sum   'Te4 Mo2 W1 S2'
_cell_volume   320.65574126
_cell_formula_units_Z   1
loop_
 _symmetry_equiv_pos_site_id
 _symmetry_equiv_pos_as_xyz
  1  'x, y, z'
loop_
 _atom_site_type_symbol
 _atom_site_label
 _atom_site_symmetry_multiplicity
 _atom_site_fract_x
 _atom_site_fract_y
 _atom_site_fract_z
 _atom_site_occupancy
  Te  Te0  1  0.666647  0.333294  0.056823  1
  Te  Te1  1  0.666639  0.333278  0.519456  1
  Te  Te2  1  0.666639  0.333278  0.174509  1
  Te  Te3  1  0.666647  0.333294  0.637141  1
  Mo  Mo4  1  0.333310  0.666621  0.115665  1
  Mo  Mo5  1  0.333310  0.666621  0.578300  1
  W  W6  1  0.666692  0.333384  0.346982  1
  S  S7  1  0.333357  0.666716  0.394491  1
  S  S8  1  0.333357  0.666716  0.299474  1
