# generated using pymatgen
data_Ca3ZnGe5O14
_symmetry_space_group_name_H-M   'P 1'
_cell_length_a   5.14415788
_cell_length_b   8.06198071
_cell_length_c   8.12582115
_cell_angle_alpha   119.74044793
_cell_angle_beta   90.35259709
_cell_angle_gamma   90.00000000
_symmetry_Int_Tables_number   1
_chemical_formula_structural   Ca3ZnGe5O14
_chemical_formula_sum   'Ca3 Zn1 Ge5 O14'
_cell_volume   292.59908077
_cell_formula_units_Z   1
loop_
 _symmetry_equiv_pos_site_id
 _symmetry_equiv_pos_as_xyz
  1  'x, y, z'
loop_
 _atom_site_type_symbol
 _atom_site_label
 _atom_site_symmetry_multiplicity
 _atom_site_fract_x
 _atom_site_fract_y
 _atom_site_fract_z
 _atom_site_occupancy
  Ca  Ca0  1  0.000000  0.731764  0.000000  1
  Ca  Ca1  1  0.999920  0.901841  0.588287  1
  Ca  Ca2  1  0.000080  0.313554  0.411713  1
  Zn  Zn3  1  0.000000  0.316524  0.000000  1
  Ge  Ge4  1  0.494068  0.554189  0.242608  1
  Ge  Ge5  1  0.505932  0.311581  0.757392  1
  Ge  Ge6  1  0.477983  0.647536  0.667407  1
  Ge  Ge7  1  0.522017  0.980130  0.332593  1
  Ge  Ge8  1  0.500000  0.078461  0.000000  1
  O  O9  1  0.732455  0.392561  0.227147  1
  O  O10  1  0.267545  0.165414  0.772853  1
  O  O11  1  0.683219  0.777136  0.323233  1
  O  O12  1  0.316781  0.453903  0.676767  1
  O  O13  1  0.317071  0.849936  0.856292  1
  O  O14  1  0.682929  0.993643  0.143708  1
  O  O15  1  0.747140  0.081358  0.853893  1
  O  O16  1  0.252860  0.227465  0.146107  1
  O  O17  1  0.812806  0.647118  0.663535  1
  O  O18  1  0.187194  0.983583  0.336465  1
  O  O19  1  0.255474  0.550015  0.087092  1
  O  O20  1  0.744526  0.462924  0.912908  1
  O  O21  1  0.310504  0.632946  0.464639  1
  O  O22  1  0.689496  0.168307  0.535361  1
