# generated using pymatgen
data_CsRbAs
_symmetry_space_group_name_H-M   'P 1'
_cell_length_a   6.02596915
_cell_length_b   6.05948054
_cell_length_c   6.04520407
_cell_angle_alpha   59.84377027
_cell_angle_beta   60.26010282
_cell_angle_gamma   59.92046614
_symmetry_Int_Tables_number   1
_chemical_formula_structural   CsRbAs
_chemical_formula_sum   'Cs1 Rb1 As1'
_cell_volume   156.10798759
_cell_formula_units_Z   1
loop_
 _symmetry_equiv_pos_site_id
 _symmetry_equiv_pos_as_xyz
  1  'x, y, z'
loop_
 _atom_site_type_symbol
 _atom_site_label
 _atom_site_symmetry_multiplicity
 _atom_site_fract_x
 _atom_site_fract_y
 _atom_site_fract_z
 _atom_site_occupancy
  Cs  Cs0  1  0.250034  0.250055  0.249956  1
  Rb  Rb1  1  0.749929  0.749946  0.750086  1
  As  As2  1  0.000038  0.999999  0.999958  1
