# generated using pymatgen
data_Ba2VN3
_symmetry_space_group_name_H-M   'P 1'
_cell_length_a   5.93961640
_cell_length_b   6.57357328
_cell_length_c   13.08796989
_cell_angle_alpha   90.00000000
_cell_angle_beta   90.00000000
_cell_angle_gamma   116.85793719
_symmetry_Int_Tables_number   1
_chemical_formula_structural   Ba2VN3
_chemical_formula_sum   'Ba8 V4 N12'
_cell_volume   455.88999722
_cell_formula_units_Z   4
loop_
 _symmetry_equiv_pos_site_id
 _symmetry_equiv_pos_as_xyz
  1  'x, y, z'
loop_
 _atom_site_type_symbol
 _atom_site_label
 _atom_site_symmetry_multiplicity
 _atom_site_fract_x
 _atom_site_fract_y
 _atom_site_fract_z
 _atom_site_occupancy
  N  N0  1  0.524299  0.548597  0.750000  1
  N  N1  1  0.975701  0.451403  0.250000  1
  N  N2  1  0.475701  0.451403  0.250000  1
  N  N3  1  0.024299  0.548597  0.750000  1
  N  N4  1  0.595019  0.190037  0.866470  1
  N  N5  1  0.404981  0.809963  0.133530  1
  N  N6  1  0.904981  0.809963  0.366470  1
  N  N7  1  0.333159  0.666317  0.557203  1
  N  N8  1  0.833159  0.666317  0.942797  1
  N  N9  1  0.166841  0.333683  0.057203  1
  N  N10  1  0.666841  0.333683  0.442797  1
  N  N11  1  0.095019  0.190037  0.633530  1
  V  V12  1  0.243719  0.487438  0.667620  1
  V  V13  1  0.256281  0.512562  0.167620  1
  V  V14  1  0.756281  0.512562  0.332380  1
  V  V15  1  0.743719  0.487438  0.832380  1
  Ba  Ba16  1  0.141633  0.283267  0.421768  1
  Ba  Ba17  1  0.641633  0.283267  0.078232  1
  Ba  Ba18  1  0.358367  0.716733  0.921768  1
  Ba  Ba19  1  0.858367  0.716733  0.578232  1
  Ba  Ba20  1  0.556301  0.112602  0.645061  1
  Ba  Ba21  1  0.443699  0.887398  0.354939  1
  Ba  Ba22  1  0.943699  0.887398  0.145061  1
  Ba  Ba23  1  0.056301  0.112602  0.854939  1
