# generated using pymatgen
data_K3NaTh2O6
_symmetry_space_group_name_H-M   'P 1'
_cell_length_a   6.34505036
_cell_length_b   6.34505037
_cell_length_c   12.76951533
_cell_angle_alpha   94.76189548
_cell_angle_beta   94.76189549
_cell_angle_gamma   120.02696930
_symmetry_Int_Tables_number   1
_chemical_formula_structural   K3NaTh2O6
_chemical_formula_sum   'K6 Na2 Th4 O12'
_cell_volume   438.91673801
_cell_formula_units_Z   2
loop_
 _symmetry_equiv_pos_site_id
 _symmetry_equiv_pos_as_xyz
  1  'x, y, z'
loop_
 _atom_site_type_symbol
 _atom_site_label
 _atom_site_symmetry_multiplicity
 _atom_site_fract_x
 _atom_site_fract_y
 _atom_site_fract_z
 _atom_site_occupancy
  O  O0  1  0.116461  0.578314  0.346889  1
  O  O1  1  0.421686  0.883539  0.153111  1
  O  O2  1  0.883539  0.421686  0.653111  1
  O  O3  1  0.578314  0.116461  0.846889  1
  O  O4  1  0.487166  0.319357  0.347282  1
  O  O5  1  0.680643  0.512834  0.152718  1
  O  O6  1  0.948680  0.747732  0.846971  1
  O  O7  1  0.319357  0.487166  0.847282  1
  O  O8  1  0.747732  0.948680  0.346971  1
  O  O9  1  0.051320  0.252268  0.153029  1
  O  O10  1  0.252268  0.051320  0.653029  1
  O  O11  1  0.512834  0.680643  0.652718  1
  Na  Na12  1  0.915737  0.084263  0.750000  1
  Na  Na13  1  0.084263  0.915737  0.250000  1
  K  K14  1  0.500000  0.000000  0.500000  1
  K  K15  1  0.000000  0.500000  0.000000  1
  K  K16  1  0.156434  0.312720  0.499812  1
  K  K17  1  0.687280  0.843566  0.000188  1
  K  K18  1  0.312720  0.156434  0.999812  1
  K  K19  1  0.843566  0.687280  0.500188  1
  Th  Th20  1  0.750094  0.249906  0.250000  1
  Th  Th21  1  0.249906  0.750094  0.750000  1
  Th  Th22  1  0.417310  0.582690  0.250000  1
  Th  Th23  1  0.582690  0.417310  0.750000  1
