# generated using pymatgen
data_Te2Mo3W(Se2S)2
_symmetry_space_group_name_H-M   'P 1'
_cell_length_a   3.34407314
_cell_length_b   3.34412350
_cell_length_c   38.02701303
_cell_angle_alpha   89.99952514
_cell_angle_beta   90.00000000
_cell_angle_gamma   119.99950186
_symmetry_Int_Tables_number   1
_chemical_formula_structural   Te2Mo3W(Se2S)2
_chemical_formula_sum   'Te2 Mo3 W1 Se4 S2'
_cell_volume   368.28421097
_cell_formula_units_Z   1
loop_
 _symmetry_equiv_pos_site_id
 _symmetry_equiv_pos_as_xyz
  1  'x, y, z'
loop_
 _atom_site_type_symbol
 _atom_site_label
 _atom_site_symmetry_multiplicity
 _atom_site_fract_x
 _atom_site_fract_y
 _atom_site_fract_z
 _atom_site_occupancy
  Te  Te0  1  0.666646  0.333292  0.044015  1
  Te  Te1  1  0.666645  0.333288  0.143823  1
  Mo  Mo2  1  0.333309  0.666618  0.093897  1
  Mo  Mo3  1  0.333313  0.666625  0.469656  1
  Mo  Mo4  1  0.666707  0.333414  0.281799  1
  W  W5  1  0.666693  0.333387  0.657550  1
  Se  Se6  1  0.333351  0.666703  0.701581  1
  Se  Se7  1  0.666648  0.333294  0.425812  1
  Se  Se8  1  0.666647  0.333293  0.513512  1
  Se  Se9  1  0.333355  0.666712  0.613495  1
  S  S10  1  0.333343  0.666687  0.321685  1
  S  S11  1  0.333343  0.666687  0.241923  1
