# generated using pymatgen
data_Te2Mo3(SeS)2
_symmetry_space_group_name_H-M   'P 1'
_cell_length_a   3.34957840
_cell_length_b   3.34974315
_cell_length_c   30.90225347
_cell_angle_alpha   90.00072365
_cell_angle_beta   90.00000000
_cell_angle_gamma   119.99837307
_symmetry_Int_Tables_number   1
_chemical_formula_structural   Te2Mo3(SeS)2
_chemical_formula_sum   'Te2 Mo3 Se2 S2'
_cell_volume   300.28217750
_cell_formula_units_Z   1
loop_
 _symmetry_equiv_pos_site_id
 _symmetry_equiv_pos_as_xyz
  1  'x, y, z'
loop_
 _atom_site_type_symbol
 _atom_site_label
 _atom_site_symmetry_multiplicity
 _atom_site_fract_x
 _atom_site_fract_y
 _atom_site_fract_z
 _atom_site_occupancy
  Te  Te0  1  0.666659  0.333316  0.517090  1
  Te  Te1  1  0.666653  0.333305  0.639521  1
  Mo  Mo2  1  0.333300  0.666600  0.115663  1
  Mo  Mo3  1  0.333314  0.666628  0.578332  1
  Mo  Mo4  1  0.666708  0.333416  0.346993  1
  Se  Se5  1  0.666630  0.333259  0.061851  1
  Se  Se6  1  0.666641  0.333281  0.169449  1
  S  S7  1  0.333347  0.666694  0.396032  1
  S  S8  1  0.333350  0.666702  0.297911  1
