# generated using pymatgen
data_TeMoWSe2S
_symmetry_space_group_name_H-M   'P 1'
_cell_length_a   3.34119652
_cell_length_b   3.34119045
_cell_length_c   38.06457296
_cell_angle_alpha   90.00008970
_cell_angle_beta   89.99999868
_cell_angle_gamma   120.00003754
_symmetry_Int_Tables_number   1
_chemical_formula_structural   TeMoWSe2S
_chemical_formula_sum   'Te2 Mo2 W2 Se4 S2'
_cell_volume   368.00581442
_cell_formula_units_Z   2
loop_
 _symmetry_equiv_pos_site_id
 _symmetry_equiv_pos_as_xyz
  1  'x, y, z'
loop_
 _atom_site_type_symbol
 _atom_site_label
 _atom_site_symmetry_multiplicity
 _atom_site_fract_x
 _atom_site_fract_y
 _atom_site_fract_z
 _atom_site_occupancy
  Te  Te0  1  0.666647  0.333294  0.044070  1
  Te  Te1  1  0.666649  0.333298  0.143716  1
  Mo  Mo2  1  0.333307  0.666613  0.093877  1
  Mo  Mo3  1  0.333312  0.666623  0.469652  1
  W  W4  1  0.666686  0.333373  0.281819  1
  W  W5  1  0.666690  0.333382  0.657536  1
  Se  Se6  1  0.333350  0.666700  0.325818  1
  Se  Se7  1  0.666646  0.333292  0.425877  1
  Se  Se8  1  0.666650  0.333300  0.513482  1
  Se  Se9  1  0.333349  0.666698  0.237842  1
  S  S10  1  0.333358  0.666717  0.697540  1
  S  S11  1  0.333355  0.666710  0.617521  1
