# generated using pymatgen
data_Te6Mo3WSe2
_symmetry_space_group_name_H-M   'P 1'
_cell_length_a   3.49919451
_cell_length_b   3.49919305
_cell_length_c   39.59251625
_cell_angle_alpha   90.00009435
_cell_angle_beta   90.00000000
_cell_angle_gamma   120.00001367
_symmetry_Int_Tables_number   1
_chemical_formula_structural   Te6Mo3WSe2
_chemical_formula_sum   'Te6 Mo3 W1 Se2'
_cell_volume   419.83598820
_cell_formula_units_Z   1
loop_
 _symmetry_equiv_pos_site_id
 _symmetry_equiv_pos_as_xyz
  1  'x, y, z'
loop_
 _atom_site_type_symbol
 _atom_site_label
 _atom_site_symmetry_multiplicity
 _atom_site_fract_x
 _atom_site_fract_y
 _atom_site_fract_z
 _atom_site_occupancy
  Te  Te0  1  0.333356  0.666713  0.328074  1
  Te  Te1  1  0.333354  0.666709  0.703822  1
  Te  Te2  1  0.666640  0.333279  0.423088  1
  Te  Te3  1  0.666649  0.333296  0.516235  1
  Te  Te4  1  0.333356  0.666712  0.235495  1
  Te  Te5  1  0.333356  0.666714  0.611245  1
  Mo  Mo6  1  0.333311  0.666621  0.093918  1
  Mo  Mo7  1  0.666692  0.333385  0.281772  1
  Mo  Mo8  1  0.666691  0.333382  0.657550  1
  W  W9  1  0.333311  0.666621  0.469659  1
  Se  Se10  1  0.666639  0.333278  0.053056  1
  Se  Se11  1  0.666645  0.333290  0.134833  1
