# generated using pymatgen
data_Te2MoW3(Se2S)2
_symmetry_space_group_name_H-M   'P 1'
_cell_length_a   3.34519136
_cell_length_b   3.34520500
_cell_length_c   38.09247782
_cell_angle_alpha   90.00015678
_cell_angle_beta   90.00000000
_cell_angle_gamma   119.99986510
_symmetry_Int_Tables_number   1
_chemical_formula_structural   Te2MoW3(Se2S)2
_chemical_formula_sum   'Te2 Mo1 W3 Se4 S2'
_cell_volume   369.15958510
_cell_formula_units_Z   1
loop_
 _symmetry_equiv_pos_site_id
 _symmetry_equiv_pos_as_xyz
  1  'x, y, z'
loop_
 _atom_site_type_symbol
 _atom_site_label
 _atom_site_symmetry_multiplicity
 _atom_site_fract_x
 _atom_site_fract_y
 _atom_site_fract_z
 _atom_site_occupancy
  Te  Te0  1  0.333354  0.666708  0.707608  1
  Te  Te1  1  0.333355  0.666712  0.607465  1
  Mo  Mo2  1  0.333296  0.666592  0.469664  1
  W  W3  1  0.333312  0.666623  0.093892  1
  W  W4  1  0.666691  0.333383  0.281813  1
  W  W5  1  0.666691  0.333382  0.657565  1
  Se  Se6  1  0.333357  0.666714  0.325779  1
  Se  Se7  1  0.666649  0.333297  0.049944  1
  Se  Se8  1  0.666632  0.333262  0.137865  1
  Se  Se9  1  0.333351  0.666704  0.237832  1
  S  S10  1  0.666655  0.333308  0.429883  1
  S  S11  1  0.666657  0.333313  0.509438  1
