# generated using pymatgen
data_Mn3TeO6
_symmetry_space_group_name_H-M   'P 1'
_cell_length_a   6.33350816
_cell_length_b   6.33350817
_cell_length_c   6.33350817
_cell_angle_alpha   90.56165017
_cell_angle_beta   90.56165017
_cell_angle_gamma   90.56165014
_symmetry_Int_Tables_number   1
_chemical_formula_structural   Mn3TeO6
_chemical_formula_sum   'Mn6 Te2 O12'
_cell_volume   254.02121576
_cell_formula_units_Z   2
loop_
 _symmetry_equiv_pos_site_id
 _symmetry_equiv_pos_as_xyz
  1  'x, y, z'
loop_
 _atom_site_type_symbol
 _atom_site_label
 _atom_site_symmetry_multiplicity
 _atom_site_fract_x
 _atom_site_fract_y
 _atom_site_fract_z
 _atom_site_occupancy
  O  O0  1  0.916054  0.044893  0.705018  1
  O  O1  1  0.044892  0.705020  0.916055  1
  O  O2  1  0.705019  0.916054  0.044892  1
  O  O3  1  0.083946  0.955107  0.294981  1
  O  O4  1  0.955108  0.294981  0.083946  1
  O  O5  1  0.294981  0.083946  0.955107  1
  O  O6  1  0.431651  0.795387  0.563989  1
  O  O7  1  0.795386  0.563989  0.431652  1
  O  O8  1  0.436010  0.568348  0.204614  1
  O  O9  1  0.204613  0.436011  0.568348  1
  O  O10  1  0.563989  0.431653  0.795386  1
  O  O11  1  0.568347  0.204613  0.436011  1
  Mn  Mn12  1  0.251541  0.437999  0.948817  1
  Mn  Mn13  1  0.948817  0.251541  0.437999  1
  Mn  Mn14  1  0.562000  0.051183  0.748460  1
  Mn  Mn15  1  0.051184  0.748460  0.562001  1
  Mn  Mn16  1  0.437999  0.948817  0.251540  1
  Mn  Mn17  1  0.748460  0.562001  0.051183  1
  Te  Te18  1  0.500000  0.499999  0.500001  1
  Te  Te19  1  0.000000  0.000000  0.000000  1
