# generated using pymatgen
data_Na2B4O7
_symmetry_space_group_name_H-M   'P 1'
_cell_length_a   7.72900102
_cell_length_b   7.72900557
_cell_length_c   21.69243800
_cell_angle_alpha   89.99968238
_cell_angle_beta   90.00032216
_cell_angle_gamma   119.99986311
_symmetry_Int_Tables_number   1
_chemical_formula_structural   Na2B4O7
_chemical_formula_sum   'Na18 B36 O63'
_cell_volume   1122.24216059
_cell_formula_units_Z   9
loop_
 _symmetry_equiv_pos_site_id
 _symmetry_equiv_pos_as_xyz
  1  'x, y, z'
loop_
 _atom_site_type_symbol
 _atom_site_label
 _atom_site_symmetry_multiplicity
 _atom_site_fract_x
 _atom_site_fract_y
 _atom_site_fract_z
 _atom_site_occupancy
  Na  Na0  1  0.994656  0.350013  0.505836  1
  Na  Na1  1  0.649986  0.644567  0.172502  1
  Na  Na2  1  0.355413  0.005402  0.839159  1
  Na  Na3  1  0.350009  0.994658  0.494168  1
  Na  Na4  1  0.644571  0.649994  0.827501  1
  Na  Na5  1  0.005401  0.355408  0.160845  1
  Na  Na6  1  0.293892  0.981382  0.332425  1
  Na  Na7  1  0.018616  0.312535  0.999099  1
  Na  Na8  1  0.687467  0.706100  0.665761  1
  Na  Na9  1  0.981382  0.293892  0.667571  1
  Na  Na10  1  0.312537  0.018614  0.000895  1
  Na  Na11  1  0.706098  0.687467  0.334233  1
  Na  Na12  1  0.999996  0.323513  0.333346  1
  Na  Na13  1  0.676515  0.676506  0.000016  1
  Na  Na14  1  0.323521  0.000011  0.666682  1
  Na  Na15  1  0.630647  0.630666  0.499982  1
  Na  Na16  1  0.369393  0.999974  0.166663  1
  Na  Na17  1  0.000023  0.369414  0.833302  1
  B  B18  1  0.015299  0.005032  0.436576  1
  B  B19  1  0.994979  0.010266  0.103241  1
  B  B20  1  0.989732  0.984690  0.769915  1
  B  B21  1  0.005034  0.015295  0.563421  1
  B  B22  1  0.010260  0.994977  0.896756  1
  B  B23  1  0.984694  0.989738  0.230082  1
  B  B24  1  0.685867  0.337638  0.407190  1
  B  B25  1  0.662350  0.348223  0.073852  1
  B  B26  1  0.651779  0.314137  0.740522  1
  B  B27  1  0.337638  0.685866  0.592810  1
  B  B28  1  0.348223  0.662351  0.926147  1
  B  B29  1  0.314138  0.651780  0.259478  1
  B  B30  1  0.325240  0.658124  0.387133  1
  B  B31  1  0.341880  0.667115  0.053794  1
  B  B32  1  0.332886  0.674757  0.720457  1
  B  B33  1  0.658125  0.325241  0.612866  1
  B  B34  1  0.667115  0.341881  0.946205  1
  B  B35  1  0.674756  0.332886  0.279542  1
  B  B36  1  0.671561  0.989374  0.417447  1
  B  B37  1  0.010628  0.682187  0.084104  1
  B  B38  1  0.317803  0.328422  0.750786  1
  B  B39  1  0.989374  0.671563  0.582551  1
  B  B40  1  0.682189  0.010629  0.915894  1
  B  B41  1  0.328421  0.317801  0.249212  1
  B  B42  1  0.339382  0.326219  0.406310  1
  B  B43  1  0.673780  0.013159  0.072976  1
  B  B44  1  0.986837  0.660611  0.739646  1
  B  B45  1  0.326221  0.339376  0.593688  1
  B  B46  1  0.013150  0.673779  0.927023  1
  B  B47  1  0.660616  0.986845  0.260353  1
  B  B48  1  0.008834  0.656167  0.428256  1
  B  B49  1  0.343827  0.352670  0.094930  1
  B  B50  1  0.647345  0.991156  0.761580  1
  B  B51  1  0.656172  0.008834  0.571743  1
  B  B52  1  0.352665  0.343822  0.905068  1
  B  B53  1  0.991157  0.647352  0.238419  1
  O  O54  1  0.798718  0.912055  0.421530  1
  O  O55  1  0.087970  0.886670  0.088199  1
  O  O56  1  0.113334  0.201283  0.754881  1
  O  O57  1  0.912056  0.798713  0.578464  1
  O  O58  1  0.886666  0.087971  0.911795  1
  O  O59  1  0.201287  0.113338  0.245112  1
  O  O60  1  0.138428  0.189392  0.398110  1
  O  O61  1  0.810635  0.949067  0.064756  1
  O  O62  1  0.050965  0.861564  0.731439  1
  O  O63  1  0.189401  0.138423  0.601886  1
  O  O64  1  0.949053  0.810626  0.935239  1
  O  O65  1  0.861570  0.050979  0.268556  1
  O  O66  1  0.078445  0.856321  0.418712  1
  O  O67  1  0.143679  0.222130  0.085388  1
  O  O68  1  0.777888  0.921552  0.752032  1
  O  O69  1  0.856320  0.078442  0.581285  1
  O  O70  1  0.222128  0.143680  0.914609  1
  O  O71  1  0.921555  0.777890  0.247966  1
  O  O72  1  0.066736  0.066738  0.499997  1
  O  O73  1  0.933230  0.999969  0.166661  1
  O  O74  1  -0.000026  0.933233  0.833334  1
  O  O75  1  0.744961  0.189647  0.428099  1
  O  O76  1  0.810349  0.555324  0.094747  1
  O  O77  1  0.444689  0.255032  0.761438  1
  O  O78  1  0.189649  0.744957  0.571899  1
  O  O79  1  0.555319  0.810348  0.905251  1
  O  O80  1  0.255037  0.444695  0.238559  1
  O  O81  1  0.738564  0.391515  0.343019  1
  O  O82  1  0.608475  0.347035  0.009684  1
  O  O83  1  0.652960  0.261472  0.676348  1
  O  O84  1  0.391514  0.738567  0.656981  1
  O  O85  1  0.347039  0.608477  0.990316  1
  O  O86  1  0.261470  0.652957  0.323652  1
  O  O87  1  0.469616  0.257407  0.420298  1
  O  O88  1  0.742562  0.212190  0.086986  1
  O  O89  1  0.787806  0.530374  0.753658  1
  O  O90  1  0.257406  0.469614  0.579704  1
  O  O91  1  0.212188  0.742563  0.913015  1
  O  O92  1  0.530377  0.787808  0.246344  1
  O  O93  1  0.810995  0.524867  0.444158  1
  O  O94  1  0.475138  0.286147  0.110837  1
  O  O95  1  0.713867  0.188987  0.777485  1
  O  O96  1  0.524869  0.810990  0.555841  1
  O  O97  1  0.286142  0.475137  0.889162  1
  O  O98  1  0.188991  0.713873  0.222515  1
  O  O99  1  0.472702  0.868636  0.403988  1
  O  O100  1  0.131351  0.604061  0.070629  1
  O  O101  1  0.395915  0.527271  0.737306  1
  O  O102  1  0.868638  0.472704  0.596013  1
  O  O103  1  0.604061  0.131350  0.929372  1
  O  O104  1  0.527269  0.395915  0.262695  1
  O  O105  1  0.415402  0.529369  0.399360  1
  O  O106  1  0.470627  0.886021  0.066025  1
  O  O107  1  0.113969  0.584594  0.732681  1
  O  O108  1  0.529372  0.415402  0.600640  1
  O  O109  1  0.886018  0.470624  0.933975  1
  O  O110  1  0.584594  0.113972  0.267319  1
  O  O111  1  0.141182  0.584865  0.425492  1
  O  O112  1  0.415114  0.556321  0.092172  1
  O  O113  1  0.443698  0.858798  0.758823  1
  O  O114  1  0.584868  0.141181  0.574508  1
  O  O115  1  0.556317  0.415111  0.907827  1
  O  O116  1  0.858800  0.443703  0.241177  1
