# generated using pymatgen
data_Te4MoW3(SeS)2
_symmetry_space_group_name_H-M   'P 1'
_cell_length_a   3.39592558
_cell_length_b   3.39591776
_cell_length_c   38.85683400
_cell_angle_alpha   90.00034142
_cell_angle_beta   89.99999702
_cell_angle_gamma   120.00005936
_symmetry_Int_Tables_number   1
_chemical_formula_structural   Te4MoW3(SeS)2
_chemical_formula_sum   'Te4 Mo1 W3 Se2 S2'
_cell_volume   388.07271810
_cell_formula_units_Z   1
loop_
 _symmetry_equiv_pos_site_id
 _symmetry_equiv_pos_as_xyz
  1  'x, y, z'
loop_
 _atom_site_type_symbol
 _atom_site_label
 _atom_site_symmetry_multiplicity
 _atom_site_fract_x
 _atom_site_fract_y
 _atom_site_fract_z
 _atom_site_occupancy
  Te  Te0  1  0.333372  0.666745  0.330445  1
  Te  Te1  1  0.666628  0.333256  0.045550  1
  Te  Te2  1  0.666654  0.333308  0.142005  1
  Te  Te3  1  0.333357  0.666714  0.233447  1
  Mo  Mo4  1  0.333315  0.666629  0.093758  1
  W  W5  1  0.333309  0.666616  0.469661  1
  W  W6  1  0.666693  0.333387  0.281946  1
  W  W7  1  0.666686  0.333374  0.657537  1
  Se  Se8  1  0.333353  0.666706  0.700186  1
  Se  Se9  1  0.333352  0.666704  0.614890  1
  S  S10  1  0.666640  0.333280  0.430854  1
  S  S11  1  0.666641  0.333282  0.508469  1
