# generated using pymatgen
data_La2SiSeO4
_symmetry_space_group_name_H-M   'P 1'
_cell_length_a   6.34057083
_cell_length_b   7.37623766
_cell_length_c   11.28834065
_cell_angle_alpha   90.00000000
_cell_angle_beta   90.00000000
_cell_angle_gamma   90.00000000
_symmetry_Int_Tables_number   1
_chemical_formula_structural   La2SiSeO4
_chemical_formula_sum   'La8 Si4 Se4 O16'
_cell_volume   527.95069533
_cell_formula_units_Z   4
loop_
 _symmetry_equiv_pos_site_id
 _symmetry_equiv_pos_as_xyz
  1  'x, y, z'
loop_
 _atom_site_type_symbol
 _atom_site_label
 _atom_site_symmetry_multiplicity
 _atom_site_fract_x
 _atom_site_fract_y
 _atom_site_fract_z
 _atom_site_occupancy
  O  O0  1  0.269472  0.077880  0.467682  1
  O  O1  1  0.269472  0.422120  0.532318  1
  O  O2  1  0.730528  0.577880  0.032318  1
  O  O3  1  0.730528  0.922120  0.967682  1
  O  O4  1  0.730528  0.922120  0.532318  1
  O  O5  1  0.730528  0.577880  0.467682  1
  O  O6  1  0.269472  0.422120  0.967682  1
  O  O7  1  0.269472  0.077880  0.032318  1
  O  O8  1  0.045144  0.768167  0.384032  1
  O  O9  1  0.045144  0.768167  0.115968  1
  O  O10  1  0.954856  0.268167  0.115968  1
  O  O11  1  0.954856  0.231833  0.884032  1
  O  O12  1  0.954856  0.231833  0.615968  1
  O  O13  1  0.954856  0.268167  0.384032  1
  O  O14  1  0.045144  0.731833  0.884032  1
  O  O15  1  0.045144  0.731833  0.615968  1
  Si  Si16  1  0.113980  0.250000  0.000000  1
  Si  Si17  1  0.886020  0.750000  0.000000  1
  Si  Si18  1  0.886020  0.750000  0.500000  1
  Si  Si19  1  0.113980  0.250000  0.500000  1
  Se  Se20  1  0.573784  0.610314  0.750000  1
  Se  Se21  1  0.573784  0.889686  0.250000  1
  Se  Se22  1  0.426216  0.110314  0.750000  1
  Se  Se23  1  0.426216  0.389686  0.250000  1
  La  La24  1  0.391331  0.750000  0.500000  1
  La  La25  1  0.391331  0.750000  0.000000  1
  La  La26  1  0.608669  0.250000  0.500000  1
  La  La27  1  0.608669  0.250000  0.000000  1
  La  La28  1  0.872042  0.962237  0.750000  1
  La  La29  1  0.872042  0.537763  0.250000  1
  La  La30  1  0.127958  0.462237  0.750000  1
  La  La31  1  0.127958  0.037763  0.250000  1
