# generated using pymatgen
data_Ba3NiSb2O9
_symmetry_space_group_name_H-M   'P 1'
_cell_length_a   5.87735887
_cell_length_b   5.87735887
_cell_length_c   14.52395367
_cell_angle_alpha   90.00000000
_cell_angle_beta   90.00000000
_cell_angle_gamma   119.99999995
_symmetry_Int_Tables_number   1
_chemical_formula_structural   Ba3NiSb2O9
_chemical_formula_sum   'Ba6 Ni2 Sb4 O18'
_cell_volume   434.49012022
_cell_formula_units_Z   2
loop_
 _symmetry_equiv_pos_site_id
 _symmetry_equiv_pos_as_xyz
  1  'x, y, z'
loop_
 _atom_site_type_symbol
 _atom_site_label
 _atom_site_symmetry_multiplicity
 _atom_site_fract_x
 _atom_site_fract_y
 _atom_site_fract_z
 _atom_site_occupancy
  O  O0  1  0.835192  0.164806  0.415458  1
  O  O1  1  0.670386  0.835194  0.915458  1
  O  O2  1  0.164806  0.329613  0.915458  1
  O  O3  1  0.835193  0.670386  0.415458  1
  O  O4  1  0.329614  0.164806  0.415458  1
  O  O5  1  0.164808  0.835194  0.915458  1
  O  O6  1  0.511431  0.488569  0.253387  1
  O  O7  1  0.022862  0.511431  0.753386  1
  O  O8  1  0.488568  0.977136  0.753386  1
  O  O9  1  0.511432  0.022864  0.253387  1
  O  O10  1  0.977138  0.488569  0.253387  1
  O  O11  1  0.488569  0.511431  0.753386  1
  O  O12  1  0.161324  0.838675  0.575476  1
  O  O13  1  0.322649  0.161325  0.075477  1
  O  O14  1  0.838675  0.677350  0.075477  1
  O  O15  1  0.838676  0.161325  0.075477  1
  O  O16  1  0.677351  0.838675  0.575476  1
  O  O17  1  0.161325  0.322650  0.575476  1
  Ni  Ni18  1  0.333333  0.666667  0.650063  1
  Ni  Ni19  1  0.666667  0.333333  0.150062  1
  Sb  Sb20  1  0.000000  0.000000  0.501472  1
  Sb  Sb21  1  0.000000  0.000000  0.001472  1
  Sb  Sb22  1  0.333333  0.666667  0.836411  1
  Sb  Sb23  1  0.666667  0.333333  0.336410  1
  Ba  Ba24  1  0.666667  0.333333  0.909824  1
  Ba  Ba25  1  0.333333  0.666667  0.409824  1
  Ba  Ba26  1  0.666667  0.333333  0.606350  1
  Ba  Ba27  1  0.333333  0.666667  0.106350  1
  Ba  Ba28  1  0.000000  0.000000  0.743907  1
  Ba  Ba29  1  0.000000  0.000000  0.243907  1
