# generated using pymatgen
data_LaPd
_symmetry_space_group_name_H-M   'P 1'
_cell_length_a   3.95462691
_cell_length_b   4.71384405
_cell_length_c   5.88732102
_cell_angle_alpha   90.00000000
_cell_angle_beta   109.62482007
_cell_angle_gamma   90.00000000
_symmetry_Int_Tables_number   1
_chemical_formula_structural   LaPd
_chemical_formula_sum   'La2 Pd2'
_cell_volume   103.37339936
_cell_formula_units_Z   2
loop_
 _symmetry_equiv_pos_site_id
 _symmetry_equiv_pos_as_xyz
  1  'x, y, z'
loop_
 _atom_site_type_symbol
 _atom_site_label
 _atom_site_symmetry_multiplicity
 _atom_site_fract_x
 _atom_site_fract_y
 _atom_site_fract_z
 _atom_site_occupancy
  La  La0  1  0.864463  0.750000  0.728926  1
  La  La1  1  0.135537  0.250000  0.271074  1
  Pd  Pd2  1  0.587077  0.750000  0.174153  1
  Pd  Pd3  1  0.412923  0.250000  0.825847  1
