# generated using pymatgen
data_Te4MoW3(SeS)2
_symmetry_space_group_name_H-M   'P 1'
_cell_length_a   3.39629094
_cell_length_b   3.39631822
_cell_length_c   38.74608824
_cell_angle_alpha   90.00069564
_cell_angle_beta   89.99999860
_cell_angle_gamma   119.99975474
_symmetry_Int_Tables_number   1
_chemical_formula_structural   Te4MoW3(SeS)2
_chemical_formula_sum   'Te4 Mo1 W3 Se2 S2'
_cell_volume   387.05513132
_cell_formula_units_Z   1
loop_
 _symmetry_equiv_pos_site_id
 _symmetry_equiv_pos_as_xyz
  1  'x, y, z'
loop_
 _atom_site_type_symbol
 _atom_site_label
 _atom_site_symmetry_multiplicity
 _atom_site_fract_x
 _atom_site_fract_y
 _atom_site_fract_z
 _atom_site_occupancy
  Te  Te0  1  0.333367  0.666734  0.706197  1
  Te  Te1  1  0.666637  0.333274  0.045523  1
  Te  Te2  1  0.666648  0.333295  0.142290  1
  Te  Te3  1  0.333353  0.666706  0.608859  1
  Mo  Mo4  1  0.333308  0.666616  0.093897  1
  W  W5  1  0.333294  0.666588  0.469653  1
  W  W6  1  0.666693  0.333387  0.281837  1
  W  W7  1  0.666693  0.333386  0.657550  1
  Se  Se8  1  0.333359  0.666718  0.324596  1
  Se  Se9  1  0.333352  0.666704  0.239037  1
  S  S10  1  0.666643  0.333285  0.430762  1
  S  S11  1  0.666654  0.333308  0.508546  1
