# generated using pymatgen
data_Te4MoW3S4
_symmetry_space_group_name_H-M   'P 1'
_cell_length_a   3.36175718
_cell_length_b   3.36174784
_cell_length_c   38.32632629
_cell_angle_alpha   89.99997156
_cell_angle_beta   90.00000000
_cell_angle_gamma   120.00009186
_symmetry_Int_Tables_number   1
_chemical_formula_structural   Te4MoW3S4
_chemical_formula_sum   'Te4 Mo1 W3 S4'
_cell_volume   375.11022154
_cell_formula_units_Z   1
loop_
 _symmetry_equiv_pos_site_id
 _symmetry_equiv_pos_as_xyz
  1  'x, y, z'
loop_
 _atom_site_type_symbol
 _atom_site_label
 _atom_site_symmetry_multiplicity
 _atom_site_fract_x
 _atom_site_fract_y
 _atom_site_fract_z
 _atom_site_occupancy
  Te  Te0  1  0.333357  0.666715  0.331430  1
  Te  Te1  1  0.333351  0.666704  0.707180  1
  Te  Te2  1  0.333355  0.666710  0.232185  1
  Te  Te3  1  0.333351  0.666702  0.607885  1
  Mo  Mo4  1  0.333315  0.666630  0.469674  1
  W  W5  1  0.333309  0.666619  0.093891  1
  W  W6  1  0.666688  0.333377  0.281793  1
  W  W7  1  0.666690  0.333379  0.657556  1
  S  S8  1  0.666644  0.333287  0.054301  1
  S  S9  1  0.666646  0.333291  0.430341  1
  S  S10  1  0.666647  0.333294  0.133503  1
  S  S11  1  0.666646  0.333292  0.509010  1
