# generated using pymatgen
data_Na2LiY(Si2O5)3
_symmetry_space_group_name_H-M   'P 1'
_cell_length_a   10.48056875
_cell_length_b   11.54710206
_cell_length_c   11.54710206
_cell_angle_alpha   100.26441983
_cell_angle_beta   90.00000000
_cell_angle_gamma   90.00000000
_symmetry_Int_Tables_number   1
_chemical_formula_structural   Na2LiY(Si2O5)3
_chemical_formula_sum   'Na8 Li4 Y4 Si24 O60'
_cell_volume   1375.06789088
_cell_formula_units_Z   4
loop_
 _symmetry_equiv_pos_site_id
 _symmetry_equiv_pos_as_xyz
  1  'x, y, z'
loop_
 _atom_site_type_symbol
 _atom_site_label
 _atom_site_symmetry_multiplicity
 _atom_site_fract_x
 _atom_site_fract_y
 _atom_site_fract_z
 _atom_site_occupancy
  Li  Li0  1  0.000000  0.244778  0.244778  1
  Li  Li1  1  0.500000  0.744778  0.744778  1
  Li  Li2  1  0.000000  0.755222  0.755222  1
  Li  Li3  1  0.500000  0.255222  0.255222  1
  O  O4  1  0.008463  0.828923  0.396216  1
  O  O5  1  0.316952  0.440579  0.559421  1
  O  O6  1  0.183048  0.940579  0.059421  1
  O  O7  1  0.683048  0.559421  0.440579  1
  O  O8  1  0.073257  0.172922  0.827078  1
  O  O9  1  0.426743  0.672922  0.327078  1
  O  O10  1  0.926743  0.827078  0.172922  1
  O  O11  1  0.573257  0.327078  0.672922  1
  O  O12  1  0.498836  0.099933  0.900067  1
  O  O13  1  0.998836  0.400067  0.599933  1
  O  O14  1  0.501164  0.900067  0.099933  1
  O  O15  1  0.001164  0.599933  0.400067  1
  O  O16  1  0.835920  0.654055  0.015019  1
  O  O17  1  0.335920  0.845945  0.484981  1
  O  O18  1  0.164080  0.015019  0.654055  1
  O  O19  1  0.664080  0.484981  0.845945  1
  O  O20  1  0.164080  0.345945  0.984981  1
  O  O21  1  0.664080  0.154055  0.515019  1
  O  O22  1  0.835920  0.984981  0.345945  1
  O  O23  1  0.335920  0.515019  0.154055  1
  O  O24  1  0.086081  0.717265  0.009836  1
  O  O25  1  0.586081  0.782735  0.490164  1
  O  O26  1  0.913919  0.009836  0.717265  1
  O  O27  1  0.413919  0.490164  0.782735  1
  O  O28  1  0.325420  0.749973  0.982154  1
  O  O29  1  0.413919  0.217265  0.509836  1
  O  O30  1  0.086081  0.990164  0.282735  1
  O  O31  1  0.586081  0.509836  0.217265  1
  O  O32  1  0.156325  0.835683  0.839155  1
  O  O33  1  0.656325  0.664317  0.660845  1
  O  O34  1  0.843675  0.839155  0.835683  1
  O  O35  1  0.343675  0.660845  0.664317  1
  O  O36  1  0.843675  0.164317  0.160845  1
  O  O37  1  0.343675  0.335683  0.339155  1
  O  O38  1  0.156325  0.160845  0.164317  1
  O  O39  1  0.656325  0.339155  0.335683  1
  O  O40  1  0.008463  0.603784  0.171077  1
  O  O41  1  0.508463  0.896216  0.328923  1
  O  O42  1  0.991537  0.171077  0.603784  1
  O  O43  1  0.491537  0.328923  0.896216  1
  O  O44  1  0.991537  0.396216  0.828923  1
  O  O45  1  0.491537  0.103784  0.671077  1
  O  O46  1  0.816952  0.059421  0.940579  1
  O  O47  1  0.508463  0.671077  0.103784  1
  O  O48  1  0.069253  0.408085  0.252892  1
  O  O49  1  0.569253  0.091915  0.247108  1
  O  O50  1  0.930747  0.252892  0.408085  1
  O  O51  1  0.430747  0.247108  0.091915  1
  O  O52  1  0.930747  0.591915  0.747108  1
  O  O53  1  0.430747  0.908085  0.752892  1
  O  O54  1  0.069253  0.747108  0.591915  1
  O  O55  1  0.569253  0.752892  0.908085  1
  O  O56  1  0.825420  0.482154  0.249973  1
  O  O57  1  0.325420  0.017846  0.250027  1
  O  O58  1  0.174580  0.249973  0.482154  1
  O  O59  1  0.674580  0.250027  0.017846  1
  O  O60  1  0.174580  0.517846  0.750027  1
  O  O61  1  0.674580  0.982154  0.749973  1
  O  O62  1  0.825420  0.750027  0.517846  1
  O  O63  1  0.913919  0.282735  0.990164  1
  Na  Na64  1  0.743573  0.421505  0.578495  1
  Na  Na65  1  0.243573  0.078495  0.921505  1
  Na  Na66  1  0.256427  0.578495  0.421505  1
  Na  Na67  1  0.756427  0.921505  0.078495  1
  Na  Na68  1  0.750000  0.467647  0.032353  1
  Na  Na69  1  0.250000  0.032353  0.467647  1
  Na  Na70  1  0.250000  0.532353  0.967647  1
  Na  Na71  1  0.750000  0.967647  0.532353  1
  Si  Si72  1  0.522947  0.019876  0.768268  1
  Si  Si73  1  0.685650  0.687427  0.530856  1
  Si  Si74  1  0.814350  0.969144  0.812573  1
  Si  Si75  1  0.314350  0.530856  0.687427  1
  Si  Si76  1  0.814350  0.187427  0.030856  1
  Si  Si77  1  0.314350  0.312573  0.469144  1
  Si  Si78  1  0.185650  0.030856  0.187427  1
  Si  Si79  1  0.685650  0.469144  0.312573  1
  Si  Si80  1  0.477053  0.768268  0.019876  1
  Si  Si81  1  0.977053  0.731732  0.480124  1
  Si  Si82  1  0.185650  0.812573  0.969144  1
  Si  Si83  1  0.022947  0.480124  0.731732  1
  Si  Si84  1  0.522947  0.231732  0.980124  1
  Si  Si85  1  0.022947  0.268268  0.519876  1
  Si  Si86  1  0.039873  0.301950  0.909739  1
  Si  Si87  1  0.977053  0.519876  0.268268  1
  Si  Si88  1  0.960127  0.698050  0.090261  1
  Si  Si89  1  0.460127  0.801950  0.409739  1
  Si  Si90  1  0.039873  0.090261  0.698050  1
  Si  Si91  1  0.539873  0.409739  0.801950  1
  Si  Si92  1  0.460127  0.590261  0.198050  1
  Si  Si93  1  0.960127  0.909739  0.301950  1
  Si  Si94  1  0.539873  0.198050  0.590261  1
  Si  Si95  1  0.477053  0.980124  0.231732  1
  Y  Y96  1  0.750000  0.161108  0.338892  1
  Y  Y97  1  0.250000  0.338892  0.161108  1
  Y  Y98  1  0.250000  0.838892  0.661108  1
  Y  Y99  1  0.750000  0.661108  0.838892  1
