# generated using pymatgen
data_Te4Mo2WS2
_symmetry_space_group_name_H-M   'P 1'
_cell_length_a   3.42866408
_cell_length_b   3.42865135
_cell_length_c   31.65237064
_cell_angle_alpha   90.00016151
_cell_angle_beta   90.00000000
_cell_angle_gamma   120.00012286
_symmetry_Int_Tables_number   1
_chemical_formula_structural   Te4Mo2WS2
_chemical_formula_sum   'Te4 Mo2 W1 S2'
_cell_volume   322.24382120
_cell_formula_units_Z   1
loop_
 _symmetry_equiv_pos_site_id
 _symmetry_equiv_pos_as_xyz
  1  'x, y, z'
loop_
 _atom_site_type_symbol
 _atom_site_label
 _atom_site_symmetry_multiplicity
 _atom_site_fract_x
 _atom_site_fract_y
 _atom_site_fract_z
 _atom_site_occupancy
  Te  Te0  1  0.333355  0.666712  0.405594  1
  Te  Te1  1  0.666646  0.333291  0.519236  1
  Te  Te2  1  0.666638  0.333276  0.637440  1
  Te  Te3  1  0.333351  0.666703  0.288246  1
  Mo  Mo4  1  0.333317  0.666633  0.115665  1
  Mo  Mo5  1  0.666689  0.333378  0.346944  1
  W  W6  1  0.333311  0.666622  0.578382  1
  S  S7  1  0.666648  0.333296  0.068377  1
  S  S8  1  0.666645  0.333290  0.162957  1
