# generated using pymatgen
data_Sr3Fe2O5
_symmetry_space_group_name_H-M   'P 1'
_cell_length_a   3.53529489
_cell_length_b   4.02824764
_cell_length_c   10.95910729
_cell_angle_alpha   100.58847925
_cell_angle_beta   99.28213765
_cell_angle_gamma   90.00033094
_symmetry_Int_Tables_number   1
_chemical_formula_structural   Sr3Fe2O5
_chemical_formula_sum   'Sr3 Fe2 O5'
_cell_volume   151.33215507
_cell_formula_units_Z   1
loop_
 _symmetry_equiv_pos_site_id
 _symmetry_equiv_pos_as_xyz
  1  'x, y, z'
loop_
 _atom_site_type_symbol
 _atom_site_label
 _atom_site_symmetry_multiplicity
 _atom_site_fract_x
 _atom_site_fract_y
 _atom_site_fract_z
 _atom_site_occupancy
  O  O0  1  0.193211  0.193154  0.386485  1
  O  O1  1  0.806793  0.806844  0.613516  1
  O  O2  1  0.096189  0.596164  0.192399  1
  O  O3  1  0.903816  0.403838  0.807602  1
  O  O4  1  0.000004  -0.000002  -0.000001  1
  Fe  Fe5  1  0.096857  0.096935  0.193894  1
  Fe  Fe6  1  0.903127  0.903066  0.806102  1
  Sr  Sr7  1  0.311658  0.311646  0.623285  1
  Sr  Sr8  1  0.688346  0.688353  0.376715  1
  Sr  Sr9  1  0.500003  0.500000  0.000001  1
