# generated using pymatgen
data_Ta5Ge3
_symmetry_space_group_name_H-M   'P 1'
_cell_length_a   7.65459071
_cell_length_b   7.65459071
_cell_length_c   5.34656788
_cell_angle_alpha   90.00000000
_cell_angle_beta   90.00000000
_cell_angle_gamma   119.99999997
_symmetry_Int_Tables_number   1
_chemical_formula_structural   Ta5Ge3
_chemical_formula_sum   'Ta10 Ge6'
_cell_volume   271.29991933
_cell_formula_units_Z   2
loop_
 _symmetry_equiv_pos_site_id
 _symmetry_equiv_pos_as_xyz
  1  'x, y, z'
loop_
 _atom_site_type_symbol
 _atom_site_label
 _atom_site_symmetry_multiplicity
 _atom_site_fract_x
 _atom_site_fract_y
 _atom_site_fract_z
 _atom_site_occupancy
  Ge  Ge0  1  0.397040  0.000000  0.750000  1
  Ge  Ge1  1  0.397040  0.397040  0.250000  1
  Ge  Ge2  1  0.000000  0.602960  0.250000  1
  Ge  Ge3  1  0.000000  0.397040  0.750000  1
  Ge  Ge4  1  0.602960  0.602960  0.750000  1
  Ge  Ge5  1  0.602960  0.000000  0.250000  1
  Ta  Ta6  1  0.000000  0.762506  0.750000  1
  Ta  Ta7  1  0.000000  0.237494  0.250000  1
  Ta  Ta8  1  0.762506  0.762506  0.250000  1
  Ta  Ta9  1  0.762506  0.000000  0.750000  1
  Ta  Ta10  1  0.237494  0.237494  0.750000  1
  Ta  Ta11  1  0.237494  0.000000  0.250000  1
  Ta  Ta12  1  0.333333  0.666667  0.500000  1
  Ta  Ta13  1  0.666667  0.333333  0.000000  1
  Ta  Ta14  1  0.666667  0.333333  0.500000  1
  Ta  Ta15  1  0.333333  0.666667  0.000000  1
