# generated using pymatgen
data_U(BRu)4
_symmetry_space_group_name_H-M   'P 1'
_cell_length_a   7.48640157
_cell_length_b   7.48640157
_cell_length_c   9.20502188
_cell_angle_alpha   113.99442051
_cell_angle_beta   113.99442056
_cell_angle_gamma   89.99999997
_symmetry_Int_Tables_number   1
_chemical_formula_structural   U(BRu)4
_chemical_formula_sum   'U4 B16 Ru16'
_cell_volume   422.05929738
_cell_formula_units_Z   4
loop_
 _symmetry_equiv_pos_site_id
 _symmetry_equiv_pos_as_xyz
  1  'x, y, z'
loop_
 _atom_site_type_symbol
 _atom_site_label
 _atom_site_symmetry_multiplicity
 _atom_site_fract_x
 _atom_site_fract_y
 _atom_site_fract_z
 _atom_site_occupancy
  B  B0  1  0.873001  0.651855  0.084524  1
  B  B1  1  0.567331  0.288477  0.415476  1
  B  B2  1  0.848145  0.626999  0.415476  1
  B  B3  1  0.288477  0.848145  0.915476  1
  B  B4  1  0.651855  0.211523  0.584524  1
  B  B5  1  0.211523  0.932669  0.084524  1
  B  B6  1  0.126999  0.348145  0.915476  1
  B  B7  1  0.432669  0.711523  0.584524  1
  B  B8  1  0.151855  0.373001  0.584524  1
  B  B9  1  0.711523  0.151855  0.084524  1
  B  B10  1  0.373001  0.432669  0.084524  1
  B  B11  1  0.067331  0.126999  0.415476  1
  B  B12  1  0.348145  0.788477  0.415476  1
  B  B13  1  0.788477  0.067331  0.915476  1
  B  B14  1  0.626999  0.567331  0.915476  1
  B  B15  1  0.932669  0.873001  0.584524  1
  Ru  Ru16  1  0.550900  0.839649  0.873863  1
  Ru  Ru17  1  0.839649  0.322963  0.373863  1
  Ru  Ru18  1  0.534213  0.550900  0.373863  1
  Ru  Ru19  1  0.177037  0.660351  0.126137  1
  Ru  Ru20  1  0.660351  0.949100  0.626137  1
  Ru  Ru21  1  0.949100  0.965787  0.126137  1
  Ru  Ru22  1  0.822963  0.339649  0.873863  1
  Ru  Ru23  1  0.465787  0.449100  0.626137  1
  Ru  Ru24  1  0.160351  0.677037  0.626137  1
  Ru  Ru25  1  0.449100  0.160351  0.126137  1
  Ru  Ru26  1  0.677037  0.465787  0.126137  1
  Ru  Ru27  1  0.034213  0.822963  0.373863  1
  Ru  Ru28  1  0.339649  0.050900  0.373863  1
  Ru  Ru29  1  0.050900  0.034213  0.873863  1
  Ru  Ru30  1  0.322963  0.534213  0.873863  1
  Ru  Ru31  1  0.965787  0.177037  0.626137  1
  U  U32  1  0.625000  0.875000  0.250000  1
  U  U33  1  0.875000  0.625000  0.750000  1
  U  U34  1  0.375000  0.125000  0.750000  1
  U  U35  1  0.125000  0.375000  0.250000  1
