# generated using pymatgen
data_Ba2YIrO6
_symmetry_space_group_name_H-M   'P 1'
_cell_length_a   5.97597477
_cell_length_b   5.97569963
_cell_length_c   8.45261068
_cell_angle_alpha   90.00000000
_cell_angle_beta   89.99324992
_cell_angle_gamma   90.00000000
_symmetry_Int_Tables_number   1
_chemical_formula_structural   Ba2YIrO6
_chemical_formula_sum   'Ba4 Y2 Ir2 O12'
_cell_volume   301.84805247
_cell_formula_units_Z   2
loop_
 _symmetry_equiv_pos_site_id
 _symmetry_equiv_pos_as_xyz
  1  'x, y, z'
loop_
 _atom_site_type_symbol
 _atom_site_label
 _atom_site_symmetry_multiplicity
 _atom_site_fract_x
 _atom_site_fract_y
 _atom_site_fract_z
 _atom_site_occupancy
  O  O0  1  0.998054  0.499971  0.735533  1
  O  O1  1  0.501946  0.999971  0.764467  1
  O  O2  1  0.001946  0.500029  0.264467  1
  O  O3  1  0.498054  0.000029  0.235533  1
  O  O4  1  0.765249  0.736298  0.498988  1
  O  O5  1  0.734751  0.236298  0.001012  1
  O  O6  1  0.234751  0.263702  0.501012  1
  O  O7  1  0.265249  0.763702  0.998988  1
  O  O8  1  0.263708  0.234756  0.999081  1
  O  O9  1  0.236292  0.734756  0.500919  1
  O  O10  1  0.736292  0.765244  0.000919  1
  O  O11  1  0.763708  0.265244  0.499081  1
  Y  Y12  1  0.000000  0.500000  0.000000  1
  Y  Y13  1  0.500000  0.000000  0.500000  1
  Ba  Ba14  1  0.500127  0.499967  0.750022  1
  Ba  Ba15  1  0.499873  0.500033  0.249978  1
  Ba  Ba16  1  0.999873  0.999967  0.749978  1
  Ba  Ba17  1  0.000127  0.000033  0.250022  1
  Ir  Ir18  1  0.500000  0.000000  0.000000  1
  Ir  Ir19  1  0.000000  0.500000  0.500000  1
