# generated using pymatgen
data_Te2MoW3(Se2S)2
_symmetry_space_group_name_H-M   'P 1'
_cell_length_a   3.33996503
_cell_length_b   3.33995488
_cell_length_c   39.66931701
_cell_angle_alpha   90.01529787
_cell_angle_beta   90.00000000
_cell_angle_gamma   120.00010043
_symmetry_Int_Tables_number   1
_chemical_formula_structural   Te2MoW3(Se2S)2
_chemical_formula_sum   'Te2 Mo1 W3 Se4 S2'
_cell_volume   383.23698456
_cell_formula_units_Z   1
loop_
 _symmetry_equiv_pos_site_id
 _symmetry_equiv_pos_as_xyz
  1  'x, y, z'
loop_
 _atom_site_type_symbol
 _atom_site_label
 _atom_site_symmetry_multiplicity
 _atom_site_fract_x
 _atom_site_fract_y
 _atom_site_fract_z
 _atom_site_occupancy
  Te  Te0  1  0.666381  0.332761  0.044583  1
  Te  Te1  1  0.666603  0.333206  0.140204  1
  Mo  Mo2  1  0.333160  0.666319  0.092384  1
  W  W3  1  0.333298  0.666596  0.470216  1
  W  W4  1  0.666827  0.333654  0.282658  1
  W  W5  1  0.666715  0.333430  0.657638  1
  Se  Se6  1  0.333589  0.667179  0.324904  1
  Se  Se7  1  0.666553  0.333105  0.428011  1
  Se  Se8  1  0.666712  0.333423  0.512453  1
  Se  Se9  1  0.333406  0.666813  0.240436  1
  S  S10  1  0.333456  0.666913  0.696009  1
  S  S11  1  0.333300  0.666601  0.619251  1
