# generated using pymatgen
data_MoW3(Se3S)2
_symmetry_space_group_name_H-M   'P 1'
_cell_length_a   3.28923569
_cell_length_b   3.28925749
_cell_length_c   37.43666620
_cell_angle_alpha   89.99985224
_cell_angle_beta   90.00000000
_cell_angle_gamma   119.99978083
_symmetry_Int_Tables_number   1
_chemical_formula_structural   MoW3(Se3S)2
_chemical_formula_sum   'Mo1 W3 Se6 S2'
_cell_volume   350.76933923
_cell_formula_units_Z   1
loop_
 _symmetry_equiv_pos_site_id
 _symmetry_equiv_pos_as_xyz
  1  'x, y, z'
loop_
 _atom_site_type_symbol
 _atom_site_label
 _atom_site_symmetry_multiplicity
 _atom_site_fract_x
 _atom_site_fract_y
 _atom_site_fract_z
 _atom_site_occupancy
  Mo  Mo0  1  0.333311  0.666622  0.093927  1
  W  W1  1  0.333310  0.666621  0.469645  1
  W  W2  1  0.666695  0.333389  0.281784  1
  W  W3  1  0.666687  0.333374  0.657553  1
  Se  Se4  1  0.333354  0.666710  0.327108  1
  Se  Se5  1  0.333351  0.666704  0.702879  1
  Se  Se6  1  0.666648  0.333295  0.424339  1
  Se  Se7  1  0.666645  0.333289  0.514980  1
  Se  Se8  1  0.333356  0.666714  0.236469  1
  Se  Se9  1  0.333350  0.666700  0.612210  1
  S  S10  1  0.666646  0.333290  0.053003  1
  S  S11  1  0.666647  0.333293  0.134850  1
