# generated using pymatgen
data_Te4MoW3Se4
_symmetry_space_group_name_H-M   'P 1'
_cell_length_a   3.43917046
_cell_length_b   3.43914752
_cell_length_c   39.20834252
_cell_angle_alpha   90.00029715
_cell_angle_beta   90.00000000
_cell_angle_gamma   120.00022063
_symmetry_Int_Tables_number   1
_chemical_formula_structural   Te4MoW3Se4
_chemical_formula_sum   'Te4 Mo1 W3 Se4'
_cell_volume   401.61752622
_cell_formula_units_Z   1
loop_
 _symmetry_equiv_pos_site_id
 _symmetry_equiv_pos_as_xyz
  1  'x, y, z'
loop_
 _atom_site_type_symbol
 _atom_site_label
 _atom_site_symmetry_multiplicity
 _atom_site_fract_x
 _atom_site_fract_y
 _atom_site_fract_z
 _atom_site_occupancy
  Te  Te0  1  0.333353  0.666706  0.329327  1
  Te  Te1  1  0.666647  0.333293  0.422120  1
  Te  Te2  1  0.666650  0.333298  0.517262  1
  Te  Te3  1  0.333351  0.666703  0.234189  1
  Mo  Mo4  1  0.333312  0.666625  0.093915  1
  W  W5  1  0.333313  0.666625  0.469718  1
  W  W6  1  0.666689  0.333377  0.281751  1
  W  W7  1  0.666691  0.333382  0.657554  1
  Se  Se8  1  0.333354  0.666710  0.699390  1
  Se  Se9  1  0.666647  0.333294  0.052184  1
  Se  Se10  1  0.666641  0.333281  0.135656  1
  Se  Se11  1  0.333352  0.666706  0.615682  1
