# generated using pymatgen
data_Lu2Al3Co
_symmetry_space_group_name_H-M   'P 1'
_cell_length_a   5.42566376
_cell_length_b   5.42566376
_cell_length_c   8.46776256
_cell_angle_alpha   90.00000000
_cell_angle_beta   90.00000000
_cell_angle_gamma   119.99999999
_symmetry_Int_Tables_number   1
_chemical_formula_structural   Lu2Al3Co
_chemical_formula_sum   'Lu4 Al6 Co2'
_cell_volume   215.87634466
_cell_formula_units_Z   2
loop_
 _symmetry_equiv_pos_site_id
 _symmetry_equiv_pos_as_xyz
  1  'x, y, z'
loop_
 _atom_site_type_symbol
 _atom_site_label
 _atom_site_symmetry_multiplicity
 _atom_site_fract_x
 _atom_site_fract_y
 _atom_site_fract_z
 _atom_site_occupancy
  Al  Al0  1  0.837169  0.674337  0.250000  1
  Al  Al1  1  0.162831  0.837169  0.750000  1
  Al  Al2  1  0.674337  0.837169  0.750000  1
  Al  Al3  1  0.325663  0.162831  0.250000  1
  Al  Al4  1  0.837169  0.162831  0.250000  1
  Al  Al5  1  0.162831  0.325663  0.750000  1
  Co  Co6  1  0.000000  0.000000  0.000000  1
  Co  Co7  1  0.000000  0.000000  0.500000  1
  Lu  Lu8  1  0.666667  0.333333  0.944670  1
  Lu  Lu9  1  0.333333  0.666667  0.444670  1
  Lu  Lu10  1  0.333333  0.666667  0.055330  1
  Lu  Lu11  1  0.666667  0.333333  0.555330  1
