# generated using pymatgen
data_BaV2O6
_symmetry_space_group_name_H-M   'P 1'
_cell_length_a   7.77286123
_cell_length_b   7.77286123
_cell_length_c   8.07465132
_cell_angle_alpha   90.00000000
_cell_angle_beta   90.00000000
_cell_angle_gamma   112.52877767
_symmetry_Int_Tables_number   1
_chemical_formula_structural   BaV2O6
_chemical_formula_sum   'Ba3 V6 O18'
_cell_volume   450.62007450
_cell_formula_units_Z   3
loop_
 _symmetry_equiv_pos_site_id
 _symmetry_equiv_pos_as_xyz
  1  'x, y, z'
loop_
 _atom_site_type_symbol
 _atom_site_label
 _atom_site_symmetry_multiplicity
 _atom_site_fract_x
 _atom_site_fract_y
 _atom_site_fract_z
 _atom_site_occupancy
  O  O0  1  0.856308  0.589201  0.060449  1
  O  O1  1  0.143692  0.410799  0.060449  1
  O  O2  1  0.589201  0.856308  0.939551  1
  O  O3  1  0.410800  0.143693  0.939551  1
  O  O4  1  0.829044  0.507164  0.411417  1
  O  O5  1  0.170956  0.492836  0.411417  1
  O  O6  1  0.507164  0.829045  0.588583  1
  O  O7  1  0.492836  0.170956  0.588583  1
  O  O8  1  0.129581  0.681870  0.816614  1
  O  O9  1  0.500000  0.500000  0.752854  1
  O  O10  1  0.500000  0.500000  0.247146  1
  O  O11  1  0.166520  0.165500  0.701355  1
  O  O12  1  0.833480  0.834499  0.701355  1
  O  O13  1  0.870419  0.318130  0.816614  1
  O  O14  1  0.834499  0.833480  0.298645  1
  O  O15  1  0.318130  0.870419  0.183386  1
  O  O16  1  0.681871  0.129582  0.183386  1
  O  O17  1  0.165501  0.166519  0.298645  1
  V  V18  1  1.000000  0.500000  0.933880  1
  V  V19  1  0.500000  1.000000  0.066120  1
  V  V20  1  0.250518  0.398591  0.258943  1
  V  V21  1  0.749483  0.601410  0.258943  1
  V  V22  1  0.601410  0.749482  0.741057  1
  V  V23  1  0.398591  0.250519  0.741057  1
  Ba  Ba24  1  0.835465  0.164535  0.499999  1
  Ba  Ba25  1  0.164535  0.835464  0.499999  1
  Ba  Ba26  1  0.000000  0.000000  0.000000  1
