# generated using pymatgen
data_Tl4GeS4
_symmetry_space_group_name_H-M   'P 1'
_cell_length_a   7.83423189
_cell_length_b   8.77234383
_cell_length_c   8.77234383
_cell_angle_alpha   83.52405401
_cell_angle_beta   72.76142636
_cell_angle_gamma   72.76142634
_symmetry_Int_Tables_number   1
_chemical_formula_structural   Tl4GeS4
_chemical_formula_sum   'Tl8 Ge2 S8'
_cell_volume   549.72272199
_cell_formula_units_Z   2
loop_
 _symmetry_equiv_pos_site_id
 _symmetry_equiv_pos_as_xyz
  1  'x, y, z'
loop_
 _atom_site_type_symbol
 _atom_site_label
 _atom_site_symmetry_multiplicity
 _atom_site_fract_x
 _atom_site_fract_y
 _atom_site_fract_z
 _atom_site_occupancy
  S  S0  1  0.203350  0.795835  0.088741  1
  S  S1  1  0.703350  0.088741  0.795835  1
  S  S2  1  0.224015  0.380556  0.235505  1
  S  S3  1  0.724015  0.235505  0.380556  1
  S  S4  1  0.347372  0.439206  0.715320  1
  S  S5  1  0.847372  0.715320  0.439206  1
  S  S6  1  0.358074  0.048574  0.608841  1
  S  S7  1  0.858074  0.608841  0.048574  1
  Ge  Ge8  1  0.536587  0.201147  0.624195  1
  Ge  Ge9  1  0.036587  0.624195  0.201147  1
  Tl  Tl10  1  0.080461  0.794971  0.800224  1
  Tl  Tl11  1  0.580461  0.800224  0.794971  1
  Tl  Tl12  1  0.055251  0.963442  0.413606  1
  Tl  Tl13  1  0.555251  0.413606  0.963442  1
  Tl  Tl14  1  0.089377  0.267446  0.989799  1
  Tl  Tl15  1  0.589377  0.989799  0.267446  1
  Tl  Tl16  1  0.018813  0.364336  0.579857  1
  Tl  Tl17  1  0.518813  0.579857  0.364336  1
