# generated using pymatgen
data_Ta2PtSe7
_symmetry_space_group_name_H-M   'P 1'
_cell_length_a   3.57388920
_cell_length_b   8.04898663
_cell_length_c   18.07415585
_cell_angle_alpha   83.95953214
_cell_angle_beta   84.32604658
_cell_angle_gamma   77.17296229
_symmetry_Int_Tables_number   1
_chemical_formula_structural   Ta2PtSe7
_chemical_formula_sum   'Ta4 Pt2 Se14'
_cell_volume   502.60418871
_cell_formula_units_Z   2
loop_
 _symmetry_equiv_pos_site_id
 _symmetry_equiv_pos_as_xyz
  1  'x, y, z'
loop_
 _atom_site_type_symbol
 _atom_site_label
 _atom_site_symmetry_multiplicity
 _atom_site_fract_x
 _atom_site_fract_y
 _atom_site_fract_z
 _atom_site_occupancy
  Se  Se0  1  0.266934  0.773091  0.693041  1
  Se  Se1  1  0.733066  0.226909  0.306959  1
  Se  Se2  1  0.205629  0.140806  0.447937  1
  Se  Se3  1  0.794371  0.859194  0.552063  1
  Se  Se4  1  0.546388  0.325000  0.582223  1
  Se  Se5  1  0.453612  0.675000  0.417777  1
  Se  Se6  1  0.652624  0.684783  0.009968  1
  Se  Se7  1  0.347376  0.315217  0.990032  1
  Se  Se8  1  0.413530  0.879597  0.293343  1
  Se  Se9  1  0.586470  0.120403  0.706657  1
  Se  Se10  1  0.904565  0.061091  0.129779  1
  Se  Se11  1  0.095435  0.938909  0.870221  1
  Se  Se12  1  0.155540  0.518175  0.170745  1
  Se  Se13  1  0.844460  0.481825  0.829255  1
  Ta  Ta14  1  0.839165  0.923227  0.398442  1
  Ta  Ta15  1  0.160835  0.076773  0.601558  1
  Ta  Ta16  1  0.234827  0.623476  0.906870  1
  Ta  Ta17  1  0.765173  0.376524  0.093130  1
  Pt  Pt18  1  0.301542  0.186303  0.210614  1
  Pt  Pt19  1  0.698458  0.813697  0.789386  1
