# generated using pymatgen
data_Nd3Co29(Si2B5)2
_symmetry_space_group_name_H-M   'P 1'
_cell_length_a   7.85426705
_cell_length_b   11.18206117
_cell_length_c   11.18206117
_cell_angle_alpha   90.00000000
_cell_angle_beta   90.00000000
_cell_angle_gamma   90.00000000
_symmetry_Int_Tables_number   1
_chemical_formula_structural   Nd3Co29(Si2B5)2
_chemical_formula_sum   'Nd6 Co58 Si8 B20'
_cell_volume   982.08570777
_cell_formula_units_Z   2
loop_
 _symmetry_equiv_pos_site_id
 _symmetry_equiv_pos_as_xyz
  1  'x, y, z'
loop_
 _atom_site_type_symbol
 _atom_site_label
 _atom_site_symmetry_multiplicity
 _atom_site_fract_x
 _atom_site_fract_y
 _atom_site_fract_z
 _atom_site_occupancy
  B  B0  1  0.517571  0.936094  0.936094  1
  B  B1  1  0.517571  0.563906  0.563906  1
  B  B2  1  0.517571  0.936094  0.563906  1
  B  B3  1  0.517571  0.563906  0.936094  1
  B  B4  1  0.482429  0.436094  0.436094  1
  B  B5  1  0.482429  0.063906  0.436094  1
  B  B6  1  0.261910  0.005939  0.750000  1
  B  B7  1  0.261910  0.494061  0.750000  1
  B  B8  1  0.261910  0.750000  0.494061  1
  B  B9  1  0.261910  0.750000  0.005939  1
  B  B10  1  0.738090  0.250000  0.505939  1
  B  B11  1  0.738090  0.994061  0.250000  1
  B  B12  1  0.738090  0.505939  0.250000  1
  B  B13  1  0.738090  0.250000  0.994061  1
  B  B14  1  0.147842  0.750000  0.750000  1
  B  B15  1  0.852158  0.250000  0.250000  1
  B  B16  1  0.893205  0.750000  0.750000  1
  B  B17  1  0.106795  0.250000  0.250000  1
  B  B18  1  0.482429  0.436094  0.063906  1
  B  B19  1  0.482429  0.063906  0.063906  1
  Si  Si20  1  0.824403  0.431439  0.750000  1
  Si  Si21  1  0.175597  0.250000  0.568561  1
  Si  Si22  1  0.175597  0.931439  0.250000  1
  Si  Si23  1  0.175597  0.568561  0.250000  1
  Si  Si24  1  0.175597  0.250000  0.931439  1
  Si  Si25  1  0.824403  0.750000  0.431439  1
  Si  Si26  1  0.824403  0.750000  0.068561  1
  Si  Si27  1  0.824403  0.068561  0.750000  1
  Co  Co28  1  0.337267  0.424837  0.588209  1
  Co  Co29  1  0.525338  0.750000  0.524263  1
  Co  Co30  1  0.525338  0.524263  0.750000  1
  Co  Co31  1  0.525338  0.975737  0.750000  1
  Co  Co32  1  0.971401  0.250000  0.085998  1
  Co  Co33  1  0.971401  0.414002  0.250000  1
  Co  Co34  1  0.971401  0.085998  0.250000  1
  Co  Co35  1  0.971401  0.250000  0.414002  1
  Co  Co36  1  0.028599  0.750000  0.914002  1
  Co  Co37  1  0.028599  0.750000  0.585998  1
  Co  Co38  1  0.028599  0.585998  0.750000  1
  Co  Co39  1  0.028599  0.914002  0.750000  1
  Co  Co40  1  0.252522  0.136083  0.136083  1
  Co  Co41  1  0.252522  0.363917  0.136083  1
  Co  Co42  1  0.252522  0.136083  0.363917  1
  Co  Co43  1  0.252522  0.363917  0.363917  1
  Co  Co44  1  0.747478  0.636083  0.863917  1
  Co  Co45  1  0.747478  0.863917  0.636083  1
  Co  Co46  1  0.747478  0.636083  0.636083  1
  Co  Co47  1  0.747478  0.863917  0.863917  1
  Co  Co48  1  0.698086  0.140536  0.140536  1
  Co  Co49  1  0.698086  0.359464  0.140536  1
  Co  Co50  1  0.698086  0.140536  0.359464  1
  Co  Co51  1  0.698086  0.359464  0.359464  1
  Co  Co52  1  0.301914  0.640536  0.859464  1
  Co  Co53  1  0.301914  0.859464  0.640536  1
  Co  Co54  1  0.301914  0.640536  0.640536  1
  Co  Co55  1  0.301914  0.859464  0.859464  1
  Co  Co56  1  0.337267  0.075163  0.588209  1
  Co  Co57  1  0.337267  0.911791  0.075163  1
  Co  Co58  1  0.337267  0.588209  0.424837  1
  Co  Co59  1  0.337267  0.424837  0.911791  1
  Co  Co60  1  0.662733  0.575163  0.411791  1
  Co  Co61  1  0.662733  0.924837  0.088209  1
  Co  Co62  1  0.662733  0.088209  0.575163  1
  Co  Co63  1  0.888770  0.250000  0.860101  1
  Co  Co64  1  0.662733  0.924837  0.411791  1
  Co  Co65  1  0.662733  0.088209  0.924837  1
  Co  Co66  1  0.662733  0.411791  0.575163  1
  Co  Co67  1  0.662733  0.575163  0.088209  1
  Co  Co68  1  0.525338  0.750000  0.975737  1
  Co  Co69  1  0.888770  0.639899  0.250000  1
  Co  Co70  1  0.337267  0.911791  0.424837  1
  Co  Co71  1  0.337267  0.588209  0.075163  1
  Co  Co72  1  0.888770  0.860101  0.250000  1
  Co  Co73  1  0.888770  0.250000  0.639899  1
  Co  Co74  1  0.531350  0.750000  0.750000  1
  Co  Co75  1  0.468650  0.250000  0.250000  1
  Co  Co76  1  0.111230  0.750000  0.360101  1
  Co  Co77  1  0.474662  0.250000  0.475737  1
  Co  Co78  1  0.474662  0.024263  0.250000  1
  Co  Co79  1  0.474662  0.475737  0.250000  1
  Co  Co80  1  0.474662  0.250000  0.024263  1
  Co  Co81  1  0.111230  0.360101  0.750000  1
  Co  Co82  1  0.111230  0.139899  0.750000  1
  Co  Co83  1  0.111230  0.750000  0.139899  1
  Co  Co84  1  0.662733  0.411791  0.924837  1
  Co  Co85  1  0.337267  0.075163  0.911791  1
  Nd  Nd86  1  0.000000  0.500000  0.500000  1
  Nd  Nd87  1  0.000000  0.000000  0.500000  1
  Nd  Nd88  1  0.000000  0.500000  0.000000  1
  Nd  Nd89  1  0.000000  0.000000  0.000000  1
  Nd  Nd90  1  0.500000  0.750000  0.250000  1
  Nd  Nd91  1  0.500000  0.250000  0.750000  1
