# generated using pymatgen
data_La2ZnGa2S6O
_symmetry_space_group_name_H-M   'P 1'
_cell_length_a   6.11983288
_cell_length_b   9.41772473
_cell_length_c   9.41772473
_cell_angle_alpha   90.00000000
_cell_angle_beta   90.00000000
_cell_angle_gamma   90.00000000
_symmetry_Int_Tables_number   1
_chemical_formula_structural   La2ZnGa2S6O
_chemical_formula_sum   'La4 Zn2 Ga4 S12 O2'
_cell_volume   542.78963677
_cell_formula_units_Z   2
loop_
 _symmetry_equiv_pos_site_id
 _symmetry_equiv_pos_as_xyz
  1  'x, y, z'
loop_
 _atom_site_type_symbol
 _atom_site_label
 _atom_site_symmetry_multiplicity
 _atom_site_fract_x
 _atom_site_fract_y
 _atom_site_fract_z
 _atom_site_occupancy
  O  O0  1  0.763898  0.500000  0.000000  1
  O  O1  1  0.236102  0.000000  0.500000  1
  S  S2  1  0.258974  0.935467  0.831785  1
  S  S3  1  0.258974  0.064533  0.168215  1
  S  S4  1  0.741026  0.168215  0.935467  1
  S  S5  1  0.741026  0.831785  0.064533  1
  S  S6  1  0.258974  0.668215  0.564533  1
  S  S7  1  0.741026  0.564533  0.331785  1
  S  S8  1  0.741026  0.435467  0.668215  1
  S  S9  1  0.258974  0.331785  0.435467  1
  S  S10  1  0.280331  0.368450  0.868450  1
  S  S11  1  0.719669  0.868450  0.631550  1
  S  S12  1  0.719669  0.131550  0.368450  1
  S  S13  1  0.280331  0.631550  0.131550  1
  Zn  Zn14  1  0.000000  0.000000  0.000000  1
  Zn  Zn15  1  0.000000  0.500000  0.500000  1
  Ga  Ga16  1  0.913682  0.628309  0.128309  1
  Ga  Ga17  1  0.913682  0.371691  0.871691  1
  Ga  Ga18  1  0.086318  0.128309  0.371691  1
  Ga  Ga19  1  0.086318  0.871691  0.628309  1
  La  La20  1  0.491895  0.844659  0.344659  1
  La  La21  1  0.508105  0.344659  0.155341  1
  La  La22  1  0.508105  0.655341  0.844659  1
  La  La23  1  0.491895  0.155341  0.655341  1
