# generated using pymatgen
data_AlF3
_symmetry_space_group_name_H-M   'P 1'
_cell_length_a   7.27578749
_cell_length_b   10.32658372
_cell_length_c   10.32658372
_cell_angle_alpha   90.00000000
_cell_angle_beta   90.00000000
_cell_angle_gamma   90.00000000
_symmetry_Int_Tables_number   1
_chemical_formula_structural   AlF3
_chemical_formula_sum   'Al16 F48'
_cell_volume   775.87783702
_cell_formula_units_Z   16
loop_
 _symmetry_equiv_pos_site_id
 _symmetry_equiv_pos_as_xyz
  1  'x, y, z'
loop_
 _atom_site_type_symbol
 _atom_site_label
 _atom_site_symmetry_multiplicity
 _atom_site_fract_x
 _atom_site_fract_y
 _atom_site_fract_z
 _atom_site_occupancy
  F  F0  1  0.755063  0.250000  0.750000  1
  F  F1  1  0.755063  0.750000  0.250000  1
  F  F2  1  0.244937  0.750000  0.250000  1
  F  F3  1  0.244937  0.250000  0.750000  1
  F  F4  1  0.500000  0.626568  0.373432  1
  F  F5  1  0.500000  0.126568  0.626568  1
  F  F6  1  0.500000  0.373432  0.873432  1
  F  F7  1  0.500000  0.873432  0.126568  1
  F  F8  1  0.500000  0.373432  0.626568  1
  F  F9  1  0.500000  0.873432  0.373432  1
  F  F10  1  0.500000  0.626568  0.126568  1
  F  F11  1  0.500000  0.126568  0.873432  1
  F  F12  1  0.589195  0.923594  0.750000  1
  F  F13  1  0.589195  0.576406  0.750000  1
  F  F14  1  0.589195  0.750000  0.576406  1
  F  F15  1  0.410805  0.250000  0.423594  1
  F  F16  1  0.589195  0.750000  0.923594  1
  F  F17  1  0.909254  0.378749  0.121251  1
  F  F18  1  0.909254  0.121251  0.378749  1
  F  F19  1  0.909254  0.378749  0.378749  1
  F  F20  1  0.090746  0.621251  0.878749  1
  F  F21  1  0.090746  0.878749  0.621251  1
  F  F22  1  0.090746  0.621251  0.621251  1
  F  F23  1  0.090746  0.878749  0.878749  1
  F  F24  1  0.162987  0.122211  0.948063  1
  F  F25  1  0.162987  0.551937  0.122211  1
  F  F26  1  0.162987  0.948063  0.377789  1
  F  F27  1  0.162987  0.377789  0.551937  1
  F  F28  1  0.837013  0.622211  0.051937  1
  F  F29  1  0.837013  0.877789  0.448063  1
  F  F30  1  0.837013  0.448063  0.622211  1
  F  F31  1  0.837013  0.051937  0.877789  1
  F  F32  1  0.837013  0.877789  0.051937  1
  F  F33  1  0.837013  0.448063  0.877789  1
  F  F34  1  0.837013  0.051937  0.622211  1
  F  F35  1  0.837013  0.622211  0.448063  1
  F  F36  1  0.162987  0.377789  0.948063  1
  F  F37  1  0.162987  0.122211  0.551937  1
  F  F38  1  0.162987  0.551937  0.377789  1
  F  F39  1  0.162987  0.948063  0.122211  1
  F  F40  1  0.158613  0.250000  0.250000  1
  F  F41  1  0.841387  0.750000  0.750000  1
  F  F42  1  0.662110  0.250000  0.250000  1
  F  F43  1  0.337890  0.750000  0.750000  1
  F  F44  1  0.410805  0.250000  0.076406  1
  F  F45  1  0.410805  0.423594  0.250000  1
  F  F46  1  0.410805  0.076406  0.250000  1
  F  F47  1  0.909254  0.121251  0.121251  1
  Al  Al48  1  0.671597  0.086444  0.750000  1
  Al  Al49  1  0.671597  0.413556  0.750000  1
  Al  Al50  1  0.671597  0.750000  0.413556  1
  Al  Al51  1  0.671597  0.750000  0.086444  1
  Al  Al52  1  0.328403  0.250000  0.586444  1
  Al  Al53  1  0.328403  0.913556  0.250000  1
  Al  Al54  1  0.328403  0.586444  0.250000  1
  Al  Al55  1  0.328403  0.250000  0.913556  1
  Al  Al56  1  0.587734  0.750000  0.750000  1
  Al  Al57  1  0.412266  0.250000  0.250000  1
  Al  Al58  1  0.090699  0.750000  0.750000  1
  Al  Al59  1  0.909301  0.250000  0.250000  1
  Al  Al60  1  0.000000  0.500000  0.500000  1
  Al  Al61  1  0.000000  0.000000  0.500000  1
  Al  Al62  1  0.000000  0.500000  0.000000  1
  Al  Al63  1  0.000000  0.000000  0.000000  1
