# generated using pymatgen
data_NaAlAsO4F
_symmetry_space_group_name_H-M   'P 1'
_cell_length_a   5.45665338
_cell_length_b   5.45665338
_cell_length_c   7.14089424
_cell_angle_alpha   105.47409362
_cell_angle_beta   105.47409361
_cell_angle_gamma   104.34096051
_symmetry_Int_Tables_number   1
_chemical_formula_structural   NaAlAsO4F
_chemical_formula_sum   'Na2 Al2 As2 O8 F2'
_cell_volume   185.48247965
_cell_formula_units_Z   2
loop_
 _symmetry_equiv_pos_site_id
 _symmetry_equiv_pos_as_xyz
  1  'x, y, z'
loop_
 _atom_site_type_symbol
 _atom_site_label
 _atom_site_symmetry_multiplicity
 _atom_site_fract_x
 _atom_site_fract_y
 _atom_site_fract_z
 _atom_site_occupancy
  O  O0  1  0.100686  0.696359  0.390071  1
  O  O1  1  0.303641  0.899314  0.109929  1
  O  O2  1  0.899314  0.303641  0.609929  1
  O  O3  1  0.696359  0.100686  0.890071  1
  O  O4  1  0.362661  0.236835  0.585791  1
  O  O5  1  0.637339  0.763165  0.414209  1
  O  O6  1  0.763165  0.637339  0.914209  1
  O  O7  1  0.236835  0.362661  0.085791  1
  F  F8  1  0.065162  0.934838  0.750000  1
  F  F9  1  0.934838  0.065162  0.250000  1
  Na  Na10  1  0.328578  0.671422  0.750000  1
  Na  Na11  1  0.671422  0.328578  0.250000  1
  Al  Al12  1  0.000000  0.000000  0.000000  1
  Al  Al13  1  0.000000  0.000000  0.500000  1
  As  As14  1  0.313516  0.686484  0.250000  1
  As  As15  1  0.686484  0.313516  0.750000  1
