# generated using pymatgen
data_CsLi(B3O5)2
_symmetry_space_group_name_H-M   'P 1'
_cell_length_a   10.56614525
_cell_length_b   10.58921245
_cell_length_c   9.10653826
_cell_angle_alpha   90.00000000
_cell_angle_beta   90.00000000
_cell_angle_gamma   90.00000000
_symmetry_Int_Tables_number   1
_chemical_formula_structural   CsLi(B3O5)2
_chemical_formula_sum   'Cs4 Li4 B24 O40'
_cell_volume   1018.90467447
_cell_formula_units_Z   4
loop_
 _symmetry_equiv_pos_site_id
 _symmetry_equiv_pos_as_xyz
  1  'x, y, z'
loop_
 _atom_site_type_symbol
 _atom_site_label
 _atom_site_symmetry_multiplicity
 _atom_site_fract_x
 _atom_site_fract_y
 _atom_site_fract_z
 _atom_site_occupancy
  Cs  Cs0  1  0.248738  0.251556  0.376854  1
  Cs  Cs1  1  0.248738  0.748444  0.623146  1
  Cs  Cs2  1  0.751262  0.748444  0.876854  1
  Cs  Cs3  1  0.751262  0.251556  0.123146  1
  Li  Li4  1  0.249842  0.249033  0.878645  1
  Li  Li5  1  0.249842  0.750967  0.121355  1
  Li  Li6  1  0.750158  0.750967  0.378645  1
  Li  Li7  1  0.750158  0.249033  0.621355  1
  B  B8  1  0.016721  0.100392  0.935361  1
  B  B9  1  0.016721  0.899608  0.064640  1
  B  B10  1  0.983279  0.899608  0.435360  1
  B  B11  1  0.983279  0.100392  0.564639  1
  B  B12  1  0.500000  0.226454  0.750000  1
  B  B13  1  0.500000  0.773546  0.250000  1
  B  B14  1  0.274154  0.500000  -0.000000  1
  B  B15  1  0.725846  0.500000  0.500000  1
  B  B16  1  0.225857  -0.000000  -0.000000  1
  B  B17  1  0.774143  -0.000000  0.500000  1
  B  B18  1  -0.000000  0.273488  0.750000  1
  B  B19  1  -0.000000  0.726512  0.250000  1
  B  B20  1  0.100543  0.518228  0.185177  1
  B  B21  1  0.100543  0.481772  0.814823  1
  B  B22  1  0.899456  0.481772  0.685177  1
  B  B23  1  0.899456  0.518228  0.314823  1
  B  B24  1  0.517295  0.399493  0.564321  1
  B  B25  1  0.517295  0.600507  0.435679  1
  B  B26  1  0.482705  0.600507  0.064321  1
  B  B27  1  0.482705  0.399493  0.935679  1
  B  B28  1  0.399216  0.017905  0.814371  1
  B  B29  1  0.399216  0.982095  0.185629  1
  B  B30  1  0.600784  0.982095  0.314371  1
  B  B31  1  0.600784  0.017905  0.685629  1
  O  O32  1  0.192843  0.448862  0.118649  1
  O  O33  1  0.192843  0.551138  0.881351  1
  O  O34  1  0.807157  0.551138  0.618649  1
  O  O35  1  0.807157  0.448862  0.381351  1
  O  O36  1  0.306868  0.051253  0.118819  1
  O  O37  1  0.306868  0.948747  0.881181  1
  O  O38  1  0.693132  0.948747  0.618819  1
  O  O39  1  0.693132  0.051253  0.381181  1
  O  O40  1  0.353227  0.394493  0.946043  1
  O  O41  1  0.353227  0.605507  0.053957  1
  O  O42  1  0.646773  0.605507  0.446043  1
  O  O43  1  0.646773  0.394493  0.553957  1
  O  O44  1  0.448144  0.307645  0.631612  1
  O  O45  1  0.448144  0.692355  0.368388  1
  O  O46  1  0.551856  0.692355  0.131612  1
  O  O47  1  0.551856  0.307645  0.868388  1
  O  O48  1  0.146180  0.105248  0.946197  1
  O  O49  1  0.146180  0.894752  0.053803  1
  O  O50  1  0.853820  0.894752  0.446197  1
  O  O51  1  0.853820  0.105248  0.553803  1
  O  O52  1  0.105027  0.352477  0.805742  1
  O  O53  1  0.105027  0.647523  0.194258  1
  O  O54  1  0.894973  0.647523  0.305742  1
  O  O55  1  0.894973  0.352477  0.694258  1
  O  O56  1  0.052429  0.192302  0.632017  1
  O  O57  1  0.052429  0.807698  0.367983  1
  O  O58  1  0.947571  0.807698  0.132017  1
  O  O59  1  0.947571  0.192302  0.867983  1
  O  O60  1  0.394652  0.147172  0.804682  1
  O  O61  1  0.394652  0.852828  0.195318  1
  O  O62  1  0.605348  0.852828  0.304682  1
  O  O63  1  0.605348  0.147172  0.695318  1
  O  O64  1  -0.000000  0.451634  0.250000  1
  O  O65  1  -0.000000  0.548366  0.750000  1
  O  O66  1  0.949897  -0.000000  -0.000000  1
  O  O67  1  0.050103  -0.000000  0.500000  1
  O  O68  1  0.450450  0.500000  0.500000  1
  O  O69  1  0.549550  0.500000  -0.000000  1
  O  O70  1  0.500000  0.951472  0.750000  1
  O  O71  1  0.500000  0.048528  0.250000  1
