# generated using pymatgen
data_Na3GaP8O23
_symmetry_space_group_name_H-M   'P 1'
_cell_length_a   12.12027429
_cell_length_b   12.12027429
_cell_length_c   12.12027429
_cell_angle_alpha   90.00000000
_cell_angle_beta   90.00000000
_cell_angle_gamma   90.00000000
_symmetry_Int_Tables_number   1
_chemical_formula_structural   Na3GaP8O23
_chemical_formula_sum   'Na12 Ga4 P32 O92'
_cell_volume   1780.48100573
_cell_formula_units_Z   4
loop_
 _symmetry_equiv_pos_site_id
 _symmetry_equiv_pos_as_xyz
  1  'x, y, z'
loop_
 _atom_site_type_symbol
 _atom_site_label
 _atom_site_symmetry_multiplicity
 _atom_site_fract_x
 _atom_site_fract_y
 _atom_site_fract_z
 _atom_site_occupancy
  O  O0  1  0.661659  0.661659  0.661659  1
  O  O1  1  0.911659  0.588341  0.411659  1
  O  O2  1  0.588341  0.411659  0.911659  1
  O  O3  1  0.411659  0.911659  0.588341  1
  O  O4  1  0.161659  0.838341  0.338341  1
  O  O5  1  0.838341  0.338341  0.161659  1
  O  O6  1  0.338341  0.161659  0.838341  1
  O  O7  1  0.088341  0.088341  0.088341  1
  O  O8  1  0.437283  0.511425  0.679500  1
  O  O9  1  0.937283  0.988575  0.320500  1
  O  O10  1  0.511425  0.679500  0.437283  1
  O  O11  1  0.488575  0.179500  0.062717  1
  O  O12  1  0.679500  0.437283  0.511425  1
  O  O13  1  0.820500  0.562717  0.011425  1
  O  O14  1  0.187283  0.929500  0.738575  1
  O  O15  1  0.687283  0.570500  0.261425  1
  O  O16  1  0.812717  0.429500  0.761425  1
  O  O17  1  0.570500  0.261425  0.687283  1
  O  O18  1  0.761425  0.812717  0.429500  1
  O  O19  1  0.261425  0.687283  0.570500  1
  O  O20  1  0.929500  0.738575  0.187283  1
  O  O21  1  0.738575  0.187283  0.929500  1
  O  O22  1  0.429500  0.761425  0.812717  1
  O  O23  1  0.070500  0.238575  0.312717  1
  O  O24  1  0.238575  0.312717  0.070500  1
  O  O25  1  0.320500  0.937283  0.988575  1
  O  O26  1  0.179500  0.062717  0.488575  1
  O  O27  1  0.011425  0.820500  0.562717  1
  O  O28  1  0.988575  0.320500  0.937283  1
  O  O29  1  0.062717  0.488575  0.179500  1
  O  O30  1  0.562717  0.011425  0.820500  1
  O  O31  1  0.312717  0.070500  0.238575  1
  O  O32  1  0.375000  0.733238  0.016762  1
  O  O33  1  0.516762  0.125000  0.266762  1
  O  O34  1  0.738308  0.327503  0.344114  1
  O  O35  1  0.233238  0.483238  0.625000  1
  O  O36  1  0.983238  0.875000  0.766762  1
  O  O37  1  0.016762  0.375000  0.733238  1
  O  O38  1  0.483238  0.625000  0.233238  1
  O  O39  1  0.266762  0.516762  0.125000  1
  O  O40  1  0.733238  0.016762  0.375000  1
  O  O41  1  0.625000  0.233238  0.483238  1
  O  O42  1  0.125000  0.266762  0.516762  1
  O  O43  1  0.875000  0.766762  0.983238  1
  O  O44  1  0.327503  0.344114  0.738308  1
  O  O45  1  0.827503  0.155886  0.261692  1
  O  O46  1  0.344114  0.738308  0.327503  1
  O  O47  1  0.655886  0.238308  0.172497  1
  O  O48  1  0.037365  0.121277  0.636545  1
  O  O49  1  0.287365  0.613455  0.871277  1
  O  O50  1  0.787365  0.886545  0.128723  1
  O  O51  1  0.386545  0.371277  0.212635  1
  O  O52  1  0.613455  0.871277  0.287365  1
  O  O53  1  0.128723  0.787365  0.886545  1
  O  O54  1  0.371277  0.212635  0.386545  1
  O  O55  1  0.636545  0.037365  0.121277  1
  O  O56  1  0.121277  0.636545  0.037365  1
  O  O57  1  0.378723  0.363455  0.537365  1
  O  O58  1  0.136545  0.462635  0.878723  1
  O  O59  1  0.878723  0.136545  0.462635  1
  O  O60  1  0.863455  0.962635  0.621277  1
  O  O61  1  0.363455  0.537365  0.378723  1
  O  O62  1  0.621277  0.863455  0.962635  1
  O  O63  1  0.537365  0.378723  0.363455  1
  O  O64  1  0.962635  0.621277  0.863455  1
  O  O65  1  0.462635  0.878723  0.136545  1
  O  O66  1  0.871277  0.287365  0.613455  1
  O  O67  1  0.628723  0.712635  0.113455  1
  O  O68  1  0.886545  0.128723  0.787365  1
  O  O69  1  0.113455  0.628723  0.712635  1
  O  O70  1  0.212635  0.386545  0.371277  1
  O  O71  1  0.712635  0.113455  0.628723  1
  O  O72  1  0.422497  0.011692  0.405886  1
  O  O73  1  0.672497  0.844114  0.761692  1
  O  O74  1  0.172497  0.655886  0.238308  1
  O  O75  1  0.155886  0.261692  0.827503  1
  O  O76  1  0.844114  0.761692  0.672497  1
  O  O77  1  0.238308  0.172497  0.655886  1
  O  O78  1  0.261692  0.827503  0.155886  1
  O  O79  1  0.405886  0.422497  0.011692  1
  O  O80  1  0.011692  0.405886  0.422497  1
  O  O81  1  0.488308  0.594114  0.922497  1
  O  O82  1  0.905886  0.077503  0.988308  1
  O  O83  1  0.988308  0.905886  0.077503  1
  O  O84  1  0.094114  0.577503  0.511692  1
  O  O85  1  0.594114  0.922497  0.488308  1
  O  O86  1  0.511692  0.094114  0.577503  1
  O  O87  1  0.922497  0.488308  0.594114  1
  O  O88  1  0.577503  0.511692  0.094114  1
  O  O89  1  0.077503  0.988308  0.905886  1
  O  O90  1  0.761692  0.672497  0.844114  1
  O  O91  1  0.766762  0.983238  0.875000  1
  Na  Na92  1  0.125000  0.044052  0.294052  1
  Na  Na93  1  0.625000  0.455948  0.705948  1
  Na  Na94  1  0.955948  0.794052  0.375000  1
  Na  Na95  1  0.044052  0.294052  0.125000  1
  Na  Na96  1  0.705948  0.625000  0.455948  1
  Na  Na97  1  0.794052  0.375000  0.955948  1
  Na  Na98  1  0.205948  0.875000  0.544052  1
  Na  Na99  1  0.544052  0.205948  0.875000  1
  Na  Na100  1  0.455948  0.705948  0.625000  1
  Na  Na101  1  0.294052  0.125000  0.044052  1
  Na  Na102  1  0.375000  0.955948  0.794052  1
  Na  Na103  1  0.875000  0.544052  0.205948  1
  P  P104  1  0.068945  0.361566  0.854405  1
  P  P105  1  0.895595  0.388434  0.681055  1
  P  P106  1  0.361566  0.854405  0.068945  1
  P  P107  1  0.861566  0.645595  0.931055  1
  P  P108  1  0.638434  0.354405  0.431055  1
  P  P109  1  0.645595  0.931055  0.861566  1
  P  P110  1  0.431055  0.638434  0.354405  1
  P  P111  1  0.931055  0.861566  0.645595  1
  P  P112  1  0.854405  0.068945  0.361566  1
  P  P113  1  0.604405  0.611566  0.181055  1
  P  P114  1  0.354405  0.431055  0.638434  1
  P  P115  1  0.145595  0.568945  0.138434  1
  P  P116  1  0.818945  0.104405  0.888434  1
  P  P117  1  0.395595  0.111566  0.318945  1
  P  P118  1  0.104405  0.888434  0.818945  1
  P  P119  1  0.681055  0.895595  0.388434  1
  P  P120  1  0.318945  0.395595  0.111566  1
  P  P121  1  0.888434  0.818945  0.104405  1
  P  P122  1  0.388434  0.681055  0.895595  1
  P  P123  1  0.138434  0.145595  0.568945  1
  P  P124  1  0.181055  0.604405  0.611566  1
  P  P125  1  0.111566  0.318945  0.395595  1
  P  P126  1  0.611566  0.181055  0.604405  1
  P  P127  1  0.017719  0.017719  0.017719  1
  P  P128  1  0.267719  0.232281  0.767719  1
  P  P129  1  0.767719  0.267719  0.232281  1
  P  P130  1  0.232281  0.767719  0.267719  1
  P  P131  1  0.482281  0.982281  0.517719  1
  P  P132  1  0.517719  0.482281  0.982281  1
  P  P133  1  0.982281  0.517719  0.482281  1
  P  P134  1  0.732281  0.732281  0.732281  1
  P  P135  1  0.568945  0.138434  0.145595  1
  Ga  Ga136  1  0.125000  0.625000  0.875000  1
  Ga  Ga137  1  0.375000  0.375000  0.375000  1
  Ga  Ga138  1  0.875000  0.125000  0.625000  1
  Ga  Ga139  1  0.625000  0.875000  0.125000  1
