# generated using pymatgen
data_Y4AlSiNO8
_symmetry_space_group_name_H-M   'P 1'
_cell_length_a   7.66675973
_cell_length_b   10.49195647
_cell_length_c   10.97867922
_cell_angle_alpha   90.00000000
_cell_angle_beta   109.62488151
_cell_angle_gamma   90.00000000
_symmetry_Int_Tables_number   1
_chemical_formula_structural   Y4AlSiNO8
_chemical_formula_sum   'Y16 Al4 Si4 N4 O32'
_cell_volume   831.81857691
_cell_formula_units_Z   4
loop_
 _symmetry_equiv_pos_site_id
 _symmetry_equiv_pos_as_xyz
  1  'x, y, z'
loop_
 _atom_site_type_symbol
 _atom_site_label
 _atom_site_symmetry_multiplicity
 _atom_site_fract_x
 _atom_site_fract_y
 _atom_site_fract_z
 _atom_site_occupancy
  Y  Y0  1  0.826252  0.379865  0.930330  1
  Y  Y1  1  0.173748  0.879865  0.569670  1
  Y  Y2  1  0.173748  0.620135  0.069670  1
  Y  Y3  1  0.826252  0.120135  0.430330  1
  Y  Y4  1  0.343463  0.373155  0.919454  1
  Y  Y5  1  0.656537  0.873155  0.580546  1
  Y  Y6  1  0.656537  0.626845  0.080546  1
  Y  Y7  1  0.343463  0.126845  0.419454  1
  Y  Y8  1  0.529960  0.090977  0.808402  1
  Y  Y9  1  0.470040  0.590977  0.691598  1
  Y  Y10  1  0.470040  0.909023  0.191598  1
  Y  Y11  1  0.529960  0.409023  0.308402  1
  Y  Y12  1  0.020194  0.100515  0.780143  1
  Y  Y13  1  0.979806  0.600515  0.719857  1
  Y  Y14  1  0.979806  0.899485  0.219857  1
  Y  Y15  1  0.020194  0.399485  0.280143  1
  Al  Al16  1  0.734936  0.314335  0.630744  1
  Al  Al17  1  0.265064  0.814335  0.869256  1
  Al  Al18  1  0.265064  0.685665  0.369256  1
  Al  Al19  1  0.734936  0.185665  0.130744  1
  Si  Si20  1  0.153210  0.316520  0.614998  1
  Si  Si21  1  0.846790  0.816520  0.885002  1
  Si  Si22  1  0.846790  0.683480  0.385002  1
  Si  Si23  1  0.153210  0.183480  0.114998  1
  N  N24  1  0.948650  0.256179  0.612338  1
  N  N25  1  0.051350  0.756179  0.887662  1
  N  N26  1  0.051350  0.743821  0.387662  1
  N  N27  1  0.948650  0.243821  0.112338  1
  O  O28  1  0.716479  0.474204  0.675196  1
  O  O29  1  0.283521  0.974204  0.824804  1
  O  O30  1  0.283521  0.525796  0.324804  1
  O  O31  1  0.716479  0.025796  0.175196  1
  O  O32  1  0.195808  0.467927  0.663545  1
  O  O33  1  0.804192  0.967927  0.836455  1
  O  O34  1  0.804192  0.532073  0.336455  1
  O  O35  1  0.195808  0.032073  0.163545  1
  O  O36  1  0.744152  0.223850  0.771534  1
  O  O37  1  0.255848  0.723850  0.728466  1
  O  O38  1  0.255848  0.776150  0.228466  1
  O  O39  1  0.744152  0.276150  0.271534  1
  O  O40  1  0.306771  0.237763  0.735997  1
  O  O41  1  0.693229  0.737763  0.764003  1
  O  O42  1  0.693229  0.762237  0.264003  1
  O  O43  1  0.306771  0.262237  0.235997  1
  O  O44  1  0.575817  0.269145  0.479797  1
  O  O45  1  0.424183  0.769145  0.020203  1
  O  O46  1  0.424183  0.730855  0.520203  1
  O  O47  1  0.575817  0.230855  0.979797  1
  O  O48  1  0.176344  0.293476  0.472387  1
  O  O49  1  0.823656  0.793476  0.027613  1
  O  O50  1  0.823656  0.706524  0.527613  1
  O  O51  1  0.176344  0.206524  0.972387  1
  O  O52  1  0.431581  0.004891  0.606060  1
  O  O53  1  0.568419  0.504891  0.893940  1
  O  O54  1  0.568419  0.995109  0.393940  1
  O  O55  1  0.431581  0.495109  0.106060  1
  O  O56  1  0.926101  0.977062  0.601848  1
  O  O57  1  0.073899  0.477062  0.898152  1
  O  O58  1  0.073899  0.022938  0.398152  1
  O  O59  1  0.926101  0.522938  0.101848  1
