# generated using pymatgen
data_RbBSe3
_symmetry_space_group_name_H-M   'P 1'
_cell_length_a   6.28383902
_cell_length_b   7.50395859
_cell_length_c   12.70116287
_cell_angle_alpha   90.00000000
_cell_angle_beta   90.00000000
_cell_angle_gamma   104.65736614
_symmetry_Int_Tables_number   1
_chemical_formula_structural   RbBSe3
_chemical_formula_sum   'Rb4 B4 Se12'
_cell_volume   579.41578817
_cell_formula_units_Z   4
loop_
 _symmetry_equiv_pos_site_id
 _symmetry_equiv_pos_as_xyz
  1  'x, y, z'
loop_
 _atom_site_type_symbol
 _atom_site_label
 _atom_site_symmetry_multiplicity
 _atom_site_fract_x
 _atom_site_fract_y
 _atom_site_fract_z
 _atom_site_occupancy
  B  B0  1  0.690490  0.705977  0.231912  1
  B  B1  1  0.809510  0.294023  0.731912  1
  B  B2  1  0.309510  0.294023  0.768088  1
  B  B3  1  0.190490  0.705977  0.268088  1
  Se  Se4  1  0.183147  0.939661  0.179343  1
  Se  Se5  1  0.316853  0.060339  0.679343  1
  Se  Se6  1  0.816853  0.060339  0.820657  1
  Se  Se7  1  0.683147  0.939661  0.320657  1
  Se  Se8  1  0.341141  0.803983  0.407648  1
  Se  Se9  1  0.158859  0.196017  0.907648  1
  Se  Se10  1  0.658859  0.196017  0.592352  1
  Se  Se11  1  0.841141  0.803983  0.092352  1
  Se  Se12  1  0.379947  0.547750  0.196637  1
  Se  Se13  1  0.120053  0.452250  0.696637  1
  Se  Se14  1  0.620053  0.452250  0.803363  1
  Se  Se15  1  0.879947  0.547750  0.303363  1
  Rb  Rb16  1  0.709865  0.258095  0.077811  1
  Rb  Rb17  1  0.790135  0.741905  0.577811  1
  Rb  Rb18  1  0.290135  0.741905  0.922189  1
  Rb  Rb19  1  0.209865  0.258095  0.422189  1
