# generated using pymatgen
data_Te2Mo2WS4
_symmetry_space_group_name_H-M   'P 1'
_cell_length_a   3.30009453
_cell_length_b   3.30010481
_cell_length_c   30.54771958
_cell_angle_alpha   89.99984050
_cell_angle_beta   90.00000000
_cell_angle_gamma   119.99989710
_symmetry_Int_Tables_number   1
_chemical_formula_structural   Te2Mo2WS4
_chemical_formula_sum   'Te2 Mo2 W1 S4'
_cell_volume   288.11375324
_cell_formula_units_Z   1
loop_
 _symmetry_equiv_pos_site_id
 _symmetry_equiv_pos_as_xyz
  1  'x, y, z'
loop_
 _atom_site_type_symbol
 _atom_site_label
 _atom_site_symmetry_multiplicity
 _atom_site_fract_x
 _atom_site_fract_y
 _atom_site_fract_z
 _atom_site_occupancy
  Te  Te0  1  0.666647  0.333294  0.515623  1
  Te  Te1  1  0.666650  0.333300  0.641099  1
  Mo  Mo2  1  0.333293  0.666586  0.115652  1
  Mo  Mo3  1  0.333313  0.666627  0.578377  1
  W  W4  1  0.666688  0.333376  0.346923  1
  S  S5  1  0.333354  0.666710  0.397212  1
  S  S6  1  0.666647  0.333294  0.065567  1
  S  S7  1  0.666655  0.333308  0.165735  1
  S  S8  1  0.333353  0.666706  0.296653  1
