# generated using pymatgen
data_HgWO4
_symmetry_space_group_name_H-M   'P 1'
_cell_length_a   5.27317435
_cell_length_b   6.17589355
_cell_length_c   6.58623102
_cell_angle_alpha   117.95959820
_cell_angle_beta   110.88733153
_cell_angle_gamma   89.99999999
_symmetry_Int_Tables_number   1
_chemical_formula_structural   HgWO4
_chemical_formula_sum   'Hg2 W2 O8'
_cell_volume   173.33547848
_cell_formula_units_Z   2
loop_
 _symmetry_equiv_pos_site_id
 _symmetry_equiv_pos_as_xyz
  1  'x, y, z'
loop_
 _atom_site_type_symbol
 _atom_site_label
 _atom_site_symmetry_multiplicity
 _atom_site_fract_x
 _atom_site_fract_y
 _atom_site_fract_z
 _atom_site_occupancy
  O  O0  1  0.976147  0.478687  0.232999  1
  O  O1  1  0.523852  0.245688  0.767002  1
  O  O2  1  0.023852  0.521314  0.767003  1
  O  O3  1  0.476147  0.754312  0.232998  1
  O  O4  1  0.028405  0.003367  0.190856  1
  O  O5  1  0.471594  0.812511  0.809144  1
  O  O6  1  0.528405  0.187489  0.190855  1
  O  O7  1  0.971594  0.996632  0.809144  1
  W  W8  1  0.250000  0.817696  0.000000  1
  W  W9  1  0.750001  0.182305  0.000000  1
  Hg  Hg10  1  1.000000  0.999999  0.499999  1
  Hg  Hg11  1  0.499999  0.500000  0.500000  1
