# generated using pymatgen
data_MoW3(SeS)4
_symmetry_space_group_name_H-M   'P 1'
_cell_length_a   3.25558485
_cell_length_b   3.25560000
_cell_length_c   36.94458488
_cell_angle_alpha   89.99982629
_cell_angle_beta   90.00000000
_cell_angle_gamma   119.99984597
_symmetry_Int_Tables_number   1
_chemical_formula_structural   MoW3(SeS)4
_chemical_formula_sum   'Mo1 W3 Se4 S4'
_cell_volume   339.11121692
_cell_formula_units_Z   1
loop_
 _symmetry_equiv_pos_site_id
 _symmetry_equiv_pos_as_xyz
  1  'x, y, z'
loop_
 _atom_site_type_symbol
 _atom_site_label
 _atom_site_symmetry_multiplicity
 _atom_site_fract_x
 _atom_site_fract_y
 _atom_site_fract_z
 _atom_site_occupancy
  Mo  Mo0  1  0.666689  0.333377  0.281776  1
  W  W1  1  0.333309  0.666618  0.093911  1
  W  W2  1  0.333309  0.666618  0.469691  1
  W  W3  1  0.666690  0.333381  0.657557  1
  Se  Se4  1  0.333350  0.666701  0.327732  1
  Se  Se5  1  0.666651  0.333301  0.423433  1
  Se  Se6  1  0.666651  0.333301  0.515920  1
  Se  Se7  1  0.333349  0.666700  0.235796  1
  S  S8  1  0.333357  0.666715  0.699530  1
  S  S9  1  0.666646  0.333290  0.051934  1
  S  S10  1  0.666646  0.333291  0.135895  1
  S  S11  1  0.333353  0.666708  0.615572  1
