# generated using pymatgen
data_Eu2H3Cl
_symmetry_space_group_name_H-M   'P 1'
_cell_length_a   4.02603240
_cell_length_b   4.02605816
_cell_length_c   6.84540759
_cell_angle_alpha   89.99999999
_cell_angle_beta   90.00004184
_cell_angle_gamma   120.00021528
_symmetry_Int_Tables_number   1
_chemical_formula_structural   Eu2H3Cl
_chemical_formula_sum   'Eu2 H3 Cl1'
_cell_volume   96.09179621
_cell_formula_units_Z   1
loop_
 _symmetry_equiv_pos_site_id
 _symmetry_equiv_pos_as_xyz
  1  'x, y, z'
loop_
 _atom_site_type_symbol
 _atom_site_label
 _atom_site_symmetry_multiplicity
 _atom_site_fract_x
 _atom_site_fract_y
 _atom_site_fract_z
 _atom_site_occupancy
  Eu  Eu0  1  0.666661  0.333331  0.699309  1
  Eu  Eu1  1  0.333339  0.666669  0.300691  1
  H  H2  1  0.666670  0.333335  0.350836  1
  H  H3  1  0.333330  0.666665  0.649164  1
  H  H4  1  -0.000000  -0.000000  0.500000  1
  Cl  Cl5  1  0.000000  0.000000  -0.000000  1
