# generated using pymatgen
data_SnPOF7
_symmetry_space_group_name_H-M   'P 1'
_cell_length_a   11.20784856
_cell_length_b   10.05736930
_cell_length_c   12.48672598
_cell_angle_alpha   90.00000000
_cell_angle_beta   90.00000000
_cell_angle_gamma   90.00000000
_symmetry_Int_Tables_number   1
_chemical_formula_structural   SnPOF7
_chemical_formula_sum   'Sn8 P8 O8 F56'
_cell_volume   1407.52213326
_cell_formula_units_Z   8
loop_
 _symmetry_equiv_pos_site_id
 _symmetry_equiv_pos_as_xyz
  1  'x, y, z'
loop_
 _atom_site_type_symbol
 _atom_site_label
 _atom_site_symmetry_multiplicity
 _atom_site_fract_x
 _atom_site_fract_y
 _atom_site_fract_z
 _atom_site_occupancy
  Sn  Sn0  1  0.559656  0.342119  0.000334  1
  Sn  Sn1  1  0.059656  0.157881  -0.000334  1
  Sn  Sn2  1  0.440344  0.842119  0.499666  1
  Sn  Sn3  1  0.940344  0.657881  0.500334  1
  Sn  Sn4  1  0.440344  0.657881  -0.000334  1
  Sn  Sn5  1  0.940344  0.842119  0.000334  1
  Sn  Sn6  1  0.559656  0.157881  0.500334  1
  Sn  Sn7  1  0.059656  0.342119  0.499666  1
  P  P8  1  0.698587  0.432895  0.240123  1
  P  P9  1  0.198587  0.067105  0.759877  1
  P  P10  1  0.301413  0.932895  0.259877  1
  P  P11  1  0.801413  0.567105  0.740123  1
  P  P12  1  0.301413  0.567105  0.759877  1
  P  P13  1  0.801413  0.932895  0.240123  1
  P  P14  1  0.698587  0.067105  0.740123  1
  P  P15  1  0.198587  0.432895  0.259877  1
  O  O16  1  0.602544  0.402336  0.163929  1
  O  O17  1  0.102544  0.097664  0.836071  1
  O  O18  1  0.397456  0.902336  0.336071  1
  O  O19  1  0.897456  0.597664  0.663929  1
  O  O20  1  0.397456  0.597664  0.836071  1
  O  O21  1  0.897456  0.902336  0.163929  1
  O  O22  1  0.602544  0.097664  0.663929  1
  O  O23  1  0.102544  0.402336  0.336071  1
  F  F24  1  0.595682  0.547895  0.966512  1
  F  F25  1  0.095682  0.952105  0.033488  1
  F  F26  1  0.404318  0.047895  0.533488  1
  F  F27  1  0.904318  0.452105  0.466512  1
  F  F28  1  0.404318  0.452105  0.033488  1
  F  F29  1  0.904318  0.047895  0.966512  1
  F  F30  1  0.595682  0.952105  0.466512  1
  F  F31  1  0.095682  0.547895  0.533488  1
  F  F32  1  0.729150  0.308974  0.982541  1
  F  F33  1  0.229150  0.191026  0.017459  1
  F  F34  1  0.270850  0.808974  0.517459  1
  F  F35  1  0.770850  0.691026  0.482541  1
  F  F36  1  0.270850  0.691026  0.017459  1
  F  F37  1  0.770850  0.808974  0.982541  1
  F  F38  1  0.729150  0.191026  0.482541  1
  F  F39  1  0.229150  0.308974  0.517459  1
  F  F40  1  0.502866  0.177863  0.061078  1
  F  F41  1  0.002866  0.322137  0.938922  1
  F  F42  1  0.497134  0.677863  0.438922  1
  F  F43  1  0.997134  0.822137  0.561078  1
  F  F44  1  0.497134  0.822137  0.938922  1
  F  F45  1  0.997134  0.677863  0.061078  1
  F  F46  1  0.502866  0.322137  0.561078  1
  F  F47  1  0.002866  0.177863  0.438922  1
  F  F48  1  0.511454  0.316295  0.851862  1
  F  F49  1  0.011454  0.183705  0.148138  1
  F  F50  1  0.488546  0.816295  0.648138  1
  F  F51  1  0.988546  0.683705  0.351862  1
  F  F52  1  0.488546  0.683705  0.148138  1
  F  F53  1  0.988546  0.816295  0.851862  1
  F  F54  1  0.511454  0.183705  0.351862  1
  F  F55  1  0.011454  0.316295  0.648138  1
  F  F56  1  0.780099  0.548356  0.207613  1
  F  F57  1  0.280099  0.951644  0.792387  1
  F  F58  1  0.219901  0.048356  0.292387  1
  F  F59  1  0.719901  0.451644  0.707613  1
  F  F60  1  0.219901  0.451644  0.792387  1
  F  F61  1  0.719901  0.048356  0.207613  1
  F  F62  1  0.780099  0.951644  0.707613  1
  F  F63  1  0.280099  0.548356  0.292387  1
  F  F64  1  0.785916  0.319061  0.261852  1
  F  F65  1  0.285916  0.180939  0.738148  1
  F  F66  1  0.214084  0.819061  0.238148  1
  F  F67  1  0.714084  0.680939  0.761852  1
  F  F68  1  0.214084  0.680939  0.738148  1
  F  F69  1  0.714084  0.819061  0.261852  1
  F  F70  1  0.785916  0.180939  0.761852  1
  F  F71  1  0.285916  0.319061  0.238148  1
  F  F72  1  0.652024  0.471977  0.350419  1
  F  F73  1  0.152024  0.028023  0.649581  1
  F  F74  1  0.347976  0.971977  0.149581  1
  F  F75  1  0.847976  0.528023  0.850419  1
  F  F76  1  0.347976  0.528023  0.649581  1
  F  F77  1  0.847976  0.971977  0.350419  1
  F  F78  1  0.652024  0.028023  0.850419  1
  F  F79  1  0.152024  0.471977  0.149581  1
