# generated using pymatgen
data_Fe2SiS4
_symmetry_space_group_name_H-M   'P 1'
_cell_length_a   5.49754699
_cell_length_b   6.72438257
_cell_length_c   11.94200781
_cell_angle_alpha   90.00000000
_cell_angle_beta   90.49333282
_cell_angle_gamma   90.00000000
_symmetry_Int_Tables_number   1
_chemical_formula_structural   Fe2SiS4
_chemical_formula_sum   'Fe8 Si4 S16'
_cell_volume   441.45111248
_cell_formula_units_Z   4
loop_
 _symmetry_equiv_pos_site_id
 _symmetry_equiv_pos_as_xyz
  1  'x, y, z'
loop_
 _atom_site_type_symbol
 _atom_site_label
 _atom_site_symmetry_multiplicity
 _atom_site_fract_x
 _atom_site_fract_y
 _atom_site_fract_z
 _atom_site_occupancy
  Fe  Fe0  1  0.500000  0.000000  -0.000000  1
  Fe  Fe1  1  0.500000  0.500000  -0.000000  1
  Fe  Fe2  1  0.499746  0.739618  0.740850  1
  Fe  Fe3  1  0.499746  0.260382  0.740850  1
  Fe  Fe4  1  0.500000  0.000000  0.500000  1
  Fe  Fe5  1  0.000000  0.500000  0.500000  1
  Fe  Fe6  1  0.500254  0.739618  0.259150  1
  Fe  Fe7  1  0.500254  0.260382  0.259150  1
  Si  Si8  1  0.907312  0.500000  0.827502  1
  Si  Si9  1  0.083934  0.000000  0.663976  1
  Si  Si10  1  0.916066  -0.000000  0.336024  1
  Si  Si11  1  0.092688  0.500000  0.172498  1
  S  S12  1  0.717694  0.743529  0.908290  1
  S  S13  1  0.717694  0.256471  0.908290  1
  S  S14  1  0.299676  0.500000  0.835017  1
  S  S15  1  0.283247  -0.000000  0.822182  1
  S  S16  1  0.754102  0.500000  0.662048  1
  S  S17  1  0.686725  -0.000000  0.665299  1
  S  S18  1  0.250723  0.751439  0.580358  1
  S  S19  1  0.250723  0.248561  0.580358  1
  S  S20  1  0.749277  0.751439  0.419642  1
  S  S21  1  0.749277  0.248561  0.419642  1
  S  S22  1  0.313275  -0.000000  0.334701  1
  S  S23  1  0.245898  0.500000  0.337952  1
  S  S24  1  0.716753  0.000000  0.177818  1
  S  S25  1  0.700324  0.500000  0.164983  1
  S  S26  1  0.282306  0.743529  0.091710  1
  S  S27  1  0.282306  0.256471  0.091710  1
