# generated using pymatgen
data_Na2SrV4O12
_symmetry_space_group_name_H-M   'P 1'
_cell_length_a   5.09283942
_cell_length_b   10.76081104
_cell_length_c   10.76081104
_cell_angle_alpha   90.00000000
_cell_angle_beta   90.00000000
_cell_angle_gamma   90.00000000
_symmetry_Int_Tables_number   1
_chemical_formula_structural   Na2SrV4O12
_chemical_formula_sum   'Na4 Sr2 V8 O24'
_cell_volume   589.72561687
_cell_formula_units_Z   2
loop_
 _symmetry_equiv_pos_site_id
 _symmetry_equiv_pos_as_xyz
  1  'x, y, z'
loop_
 _atom_site_type_symbol
 _atom_site_label
 _atom_site_symmetry_multiplicity
 _atom_site_fract_x
 _atom_site_fract_y
 _atom_site_fract_z
 _atom_site_occupancy
  O  O0  1  0.236987  0.553413  0.683352  1
  O  O1  1  0.236987  0.946587  0.816648  1
  O  O2  1  0.236987  0.683352  0.946587  1
  O  O3  1  0.236987  0.816648  0.553413  1
  O  O4  1  0.763013  0.683352  0.553413  1
  O  O5  1  0.763013  0.946587  0.683352  1
  O  O6  1  0.763013  0.553413  0.816648  1
  O  O7  1  0.763013  0.816648  0.946587  1
  O  O8  1  0.763013  0.446587  0.316648  1
  O  O9  1  0.763013  0.053413  0.183352  1
  O  O10  1  0.763013  0.316648  0.053413  1
  O  O11  1  0.763013  0.183352  0.446587  1
  O  O12  1  0.236987  0.316648  0.446587  1
  O  O13  1  0.236987  0.053413  0.316648  1
  O  O14  1  0.150462  0.631614  0.368386  1
  O  O15  1  0.150462  0.131614  0.631614  1
  O  O16  1  0.150462  0.368386  0.868386  1
  O  O17  1  0.150462  0.868386  0.131614  1
  O  O18  1  0.849538  0.631614  0.131614  1
  O  O19  1  0.849538  0.868386  0.368386  1
  O  O20  1  0.849538  0.368386  0.631614  1
  O  O21  1  0.849538  0.131614  0.868386  1
  O  O22  1  0.236987  0.183352  0.053413  1
  O  O23  1  0.236987  0.446587  0.183352  1
  Na  Na24  1  0.500000  0.000000  0.000000  1
  Na  Na25  1  0.500000  0.500000  0.000000  1
  Na  Na26  1  0.500000  0.000000  0.500000  1
  Na  Na27  1  0.500000  0.500000  0.500000  1
  V  V28  1  0.000000  0.250000  0.967389  1
  V  V29  1  0.000000  0.532611  0.250000  1
  V  V30  1  0.000000  0.250000  0.532611  1
  V  V31  1  0.000000  0.032611  0.750000  1
  V  V32  1  0.000000  0.750000  0.032611  1
  V  V33  1  0.000000  0.750000  0.467389  1
  V  V34  1  0.000000  0.467389  0.750000  1
  V  V35  1  0.000000  0.967389  0.250000  1
  Sr  Sr36  1  0.500000  0.750000  0.750000  1
  Sr  Sr37  1  0.500000  0.250000  0.250000  1
