# generated using pymatgen
data_Rb2NbCuS4
_symmetry_space_group_name_H-M   'P 1'
_cell_length_a   5.60702668
_cell_length_b   7.46683392
_cell_length_c   12.47726357
_cell_angle_alpha   85.16063314
_cell_angle_beta   77.01536440
_cell_angle_gamma   67.94712200
_symmetry_Int_Tables_number   1
_chemical_formula_structural   Rb2NbCuS4
_chemical_formula_sum   'Rb4 Nb2 Cu2 S8'
_cell_volume   471.78374684
_cell_formula_units_Z   2
loop_
 _symmetry_equiv_pos_site_id
 _symmetry_equiv_pos_as_xyz
  1  'x, y, z'
loop_
 _atom_site_type_symbol
 _atom_site_label
 _atom_site_symmetry_multiplicity
 _atom_site_fract_x
 _atom_site_fract_y
 _atom_site_fract_z
 _atom_site_occupancy
  S  S0  1  0.231749  0.941340  0.856993  1
  S  S1  1  0.530082  0.558660  0.643007  1
  S  S2  1  0.826911  0.941340  0.643007  1
  S  S3  1  0.911257  0.558660  0.856993  1
  S  S4  1  0.088743  0.441340  0.143007  1
  S  S5  1  0.469918  0.441340  0.356993  1
  S  S6  1  0.173089  0.058660  0.356993  1
  S  S7  1  0.768251  0.058660  0.143007  1
  Cu  Cu8  1  0.875000  0.250000  0.250000  1
  Cu  Cu9  1  0.125000  0.750000  0.750000  1
  Rb  Rb10  1  0.802489  0.750000  0.395022  1
  Rb  Rb11  1  0.447511  0.750000  0.104978  1
  Rb  Rb12  1  0.197511  0.250000  0.604978  1
  Rb  Rb13  1  0.552489  0.250000  0.895022  1
  Nb  Nb14  1  0.375000  0.250000  0.250000  1
  Nb  Nb15  1  0.625000  0.750000  0.750000  1
