# generated using pymatgen
data_Te2Mo2W(SeS)2
_symmetry_space_group_name_H-M   'P 1'
_cell_length_a   3.34581123
_cell_length_b   3.34576747
_cell_length_c   30.97280455
_cell_angle_alpha   90.00140146
_cell_angle_beta   90.00000000
_cell_angle_gamma   120.00043251
_symmetry_Int_Tables_number   1
_chemical_formula_structural   Te2Mo2W(SeS)2
_chemical_formula_sum   'Te2 Mo2 W1 Se2 S2'
_cell_volume   300.26620859
_cell_formula_units_Z   1
loop_
 _symmetry_equiv_pos_site_id
 _symmetry_equiv_pos_as_xyz
  1  'x, y, z'
loop_
 _atom_site_type_symbol
 _atom_site_label
 _atom_site_symmetry_multiplicity
 _atom_site_fract_x
 _atom_site_fract_y
 _atom_site_fract_z
 _atom_site_occupancy
  Te  Te0  1  0.333362  0.666725  0.408137  1
  Te  Te1  1  0.333352  0.666704  0.285861  1
  Mo  Mo2  1  0.333309  0.666618  0.115603  1
  Mo  Mo3  1  0.666695  0.333390  0.346990  1
  W  W4  1  0.333308  0.666616  0.578332  1
  Se  Se5  1  0.666643  0.333285  0.061873  1
  Se  Se6  1  0.666641  0.333281  0.169397  1
  S  S7  1  0.666647  0.333294  0.529182  1
  S  S8  1  0.666644  0.333287  0.627467  1
