# generated using pymatgen
data_Te2Mo(WS2)3
_symmetry_space_group_name_H-M   'P 1'
_cell_length_a   3.27414564
_cell_length_b   3.27415519
_cell_length_c   38.98438624
_cell_angle_alpha   89.99658934
_cell_angle_beta   90.00000000
_cell_angle_gamma   119.99990348
_symmetry_Int_Tables_number   1
_chemical_formula_structural   Te2Mo(WS2)3
_chemical_formula_sum   'Te2 Mo1 W3 S6'
_cell_volume   361.92535495
_cell_formula_units_Z   1
loop_
 _symmetry_equiv_pos_site_id
 _symmetry_equiv_pos_as_xyz
  1  'x, y, z'
loop_
 _atom_site_type_symbol
 _atom_site_label
 _atom_site_symmetry_multiplicity
 _atom_site_fract_x
 _atom_site_fract_y
 _atom_site_fract_z
 _atom_site_occupancy
  Te  Te0  1  0.333315  0.666631  0.331349  1
  Te  Te1  1  0.333336  0.666674  0.231823  1
  Mo  Mo2  1  0.333362  0.666724  0.092725  1
  W  W3  1  0.333170  0.666340  0.470833  1
  W  W4  1  0.666660  0.333320  0.281619  1
  W  W5  1  0.666800  0.333599  0.657770  1
  S  S6  1  0.333437  0.666875  0.697361  1
  S  S7  1  0.666745  0.333488  0.053314  1
  S  S8  1  0.666516  0.333031  0.431221  1
  S  S9  1  0.666713  0.333425  0.132147  1
  S  S10  1  0.666482  0.332964  0.510424  1
  S  S11  1  0.333465  0.666930  0.618161  1
