# generated using pymatgen
data_Rb3SiF7
_symmetry_space_group_name_H-M   'P 1'
_cell_length_a   5.90475660
_cell_length_b   8.10579930
_cell_length_c   8.10579930
_cell_angle_alpha   90.00000000
_cell_angle_beta   90.00000000
_cell_angle_gamma   90.00000000
_symmetry_Int_Tables_number   1
_chemical_formula_structural   Rb3SiF7
_chemical_formula_sum   'Rb6 Si2 F14'
_cell_volume   387.96602308
_cell_formula_units_Z   2
loop_
 _symmetry_equiv_pos_site_id
 _symmetry_equiv_pos_as_xyz
  1  'x, y, z'
loop_
 _atom_site_type_symbol
 _atom_site_label
 _atom_site_symmetry_multiplicity
 _atom_site_fract_x
 _atom_site_fract_y
 _atom_site_fract_z
 _atom_site_occupancy
  F  F0  1  0.792380  0.894505  0.394505  1
  F  F1  1  0.792380  0.105495  0.605495  1
  F  F2  1  0.792380  0.394505  0.105495  1
  F  F3  1  0.792380  0.605495  0.894505  1
  F  F4  1  0.207620  0.894505  0.394505  1
  F  F5  1  0.207620  0.605495  0.894505  1
  F  F6  1  0.207620  0.394505  0.105495  1
  F  F7  1  0.207620  0.105495  0.605495  1
  F  F8  1  0.500000  0.000000  0.000000  1
  F  F9  1  0.500000  0.500000  0.500000  1
  F  F10  1  0.000000  0.350095  0.850095  1
  F  F11  1  0.000000  0.149905  0.350095  1
  F  F12  1  0.000000  0.850095  0.649905  1
  F  F13  1  0.000000  0.649905  0.149905  1
  Si  Si14  1  0.000000  0.500000  0.000000  1
  Si  Si15  1  0.000000  0.000000  0.500000  1
  Rb  Rb16  1  0.500000  0.695071  0.195071  1
  Rb  Rb17  1  0.500000  0.804929  0.695071  1
  Rb  Rb18  1  0.500000  0.195071  0.304929  1
  Rb  Rb19  1  0.500000  0.304929  0.804929  1
  Rb  Rb20  1  0.000000  0.500000  0.500000  1
  Rb  Rb21  1  0.000000  0.000000  0.000000  1
