# generated using pymatgen
data_Na3In2(PO4)3
_symmetry_space_group_name_H-M   'P 1'
_cell_length_a   6.70580506
_cell_length_b   9.05353735
_cell_length_c   9.05353735
_cell_angle_alpha   91.58217166
_cell_angle_beta   106.71426328
_cell_angle_gamma   106.71426330
_symmetry_Int_Tables_number   1
_chemical_formula_structural   Na3In2(PO4)3
_chemical_formula_sum   'Na6 In4 P6 O24'
_cell_volume   500.52830484
_cell_formula_units_Z   2
loop_
 _symmetry_equiv_pos_site_id
 _symmetry_equiv_pos_as_xyz
  1  'x, y, z'
loop_
 _atom_site_type_symbol
 _atom_site_label
 _atom_site_symmetry_multiplicity
 _atom_site_fract_x
 _atom_site_fract_y
 _atom_site_fract_z
 _atom_site_occupancy
  O  O0  1  0.781630  0.260053  0.562385  1
  O  O1  1  0.718370  0.437615  0.739947  1
  O  O2  1  0.218370  0.739947  0.437615  1
  O  O3  1  0.281630  0.562385  0.260053  1
  O  O4  1  0.544308  0.153437  0.744917  1
  O  O5  1  0.955692  0.255083  0.846563  1
  O  O6  1  0.455692  0.846563  0.255083  1
  O  O7  1  0.044308  0.744917  0.153437  1
  O  O8  1  0.584227  0.666189  0.989862  1
  O  O9  1  0.915773  0.010138  0.333811  1
  O  O10  1  0.415773  0.333811  0.010138  1
  O  O11  1  0.084227  0.989862  0.666189  1
  O  O12  1  0.379817  0.832418  0.835850  1
  O  O13  1  0.120183  0.164150  0.167582  1
  O  O14  1  0.620183  0.167582  0.164150  1
  O  O15  1  0.879817  0.835850  0.832418  1
  O  O16  1  0.827644  0.713088  0.558065  1
  O  O17  1  0.672356  0.441935  0.286912  1
  O  O18  1  0.172356  0.286912  0.441935  1
  O  O19  1  0.327644  0.558065  0.713088  1
  O  O20  1  0.675543  0.935154  0.593721  1
  O  O21  1  0.824457  0.406279  0.064846  1
  O  O22  1  0.324457  0.064846  0.406279  1
  O  O23  1  0.175543  0.593721  0.935154  1
  Na  Na24  1  0.750000  0.724753  0.275247  1
  Na  Na25  1  0.750000  0.016780  0.983220  1
  Na  Na26  1  0.500000  0.500000  0.500000  1
  Na  Na27  1  0.250000  0.983220  0.016780  1
  Na  Na28  1  0.250000  0.275247  0.724753  1
  Na  Na29  1  0.000000  0.500000  0.500000  1
  P  P30  1  0.633354  0.341120  0.137914  1
  P  P31  1  0.133354  0.137914  0.341120  1
  P  P32  1  0.750000  0.274534  0.725466  1
  P  P33  1  0.250000  0.725466  0.274534  1
  P  P34  1  0.866646  0.862086  0.658880  1
  P  P35  1  0.366646  0.658880  0.862086  1
  In  In36  1  0.845797  0.616140  0.928918  1
  In  In37  1  0.154203  0.383860  0.071082  1
  In  In38  1  0.345797  0.928918  0.616140  1
  In  In39  1  0.654203  0.071082  0.383860  1
