# generated using pymatgen
data_Te2MoWSeS
_symmetry_space_group_name_H-M   'P 1'
_cell_length_a   3.39958348
_cell_length_b   3.39958300
_cell_length_c   38.72243436
_cell_angle_alpha   90.00022722
_cell_angle_beta   89.99999533
_cell_angle_gamma   120.00000468
_symmetry_Int_Tables_number   1
_chemical_formula_structural   Te2MoWSeS
_chemical_formula_sum   'Te4 Mo2 W2 Se2 S2'
_cell_volume   387.56506435
_cell_formula_units_Z   2
loop_
 _symmetry_equiv_pos_site_id
 _symmetry_equiv_pos_as_xyz
  1  'x, y, z'
loop_
 _atom_site_type_symbol
 _atom_site_label
 _atom_site_symmetry_multiplicity
 _atom_site_fract_x
 _atom_site_fract_y
 _atom_site_fract_z
 _atom_site_occupancy
  Te  Te0  1  0.333355  0.666710  0.706209  1
  Te  Te1  1  0.666646  0.333291  0.045539  1
  Te  Te2  1  0.666646  0.333291  0.142335  1
  Te  Te3  1  0.333348  0.666695  0.608891  1
  Mo  Mo4  1  0.333309  0.666618  0.093903  1
  Mo  Mo5  1  0.666695  0.333391  0.281788  1
  W  W6  1  0.333309  0.666617  0.469647  1
  W  W7  1  0.666691  0.333382  0.657578  1
  Se  Se8  1  0.666647  0.333295  0.426847  1
  Se  Se9  1  0.666645  0.333290  0.512432  1
  S  S10  1  0.333356  0.666713  0.320538  1
  S  S11  1  0.333354  0.666708  0.243041  1
