# generated using pymatgen
data_Te4Mo2WS2
_symmetry_space_group_name_H-M   'P 1'
_cell_length_a   3.42322554
_cell_length_b   3.42323173
_cell_length_c   31.71924433
_cell_angle_alpha   89.99976115
_cell_angle_beta   90.00000000
_cell_angle_gamma   119.99994017
_symmetry_Int_Tables_number   1
_chemical_formula_structural   Te4Mo2WS2
_chemical_formula_sum   'Te4 Mo2 W1 S2'
_cell_volume   321.90338136
_cell_formula_units_Z   1
loop_
 _symmetry_equiv_pos_site_id
 _symmetry_equiv_pos_as_xyz
  1  'x, y, z'
loop_
 _atom_site_type_symbol
 _atom_site_label
 _atom_site_symmetry_multiplicity
 _atom_site_fract_x
 _atom_site_fract_y
 _atom_site_fract_z
 _atom_site_occupancy
  Te  Te0  1  0.333357  0.666716  0.405950  1
  Te  Te1  1  0.666649  0.333297  0.519646  1
  Te  Te2  1  0.666643  0.333284  0.637114  1
  Te  Te3  1  0.333352  0.666704  0.287821  1
  Mo  Mo4  1  0.333311  0.666621  0.115679  1
  Mo  Mo5  1  0.333312  0.666625  0.578410  1
  W  W6  1  0.666691  0.333381  0.346891  1
  S  S7  1  0.666645  0.333288  0.068420  1
  S  S8  1  0.666642  0.333283  0.162910  1
