# generated using pymatgen
data_Mo2W(Se2S)2
_symmetry_space_group_name_H-M   'P 1'
_cell_length_a   3.27896314
_cell_length_b   3.27896149
_cell_length_c   30.19732504
_cell_angle_alpha   89.99999701
_cell_angle_beta   90.00000000
_cell_angle_gamma   120.00001666
_symmetry_Int_Tables_number   1
_chemical_formula_structural   Mo2W(Se2S)2
_chemical_formula_sum   'Mo2 W1 Se4 S2'
_cell_volume   281.17187885
_cell_formula_units_Z   1
loop_
 _symmetry_equiv_pos_site_id
 _symmetry_equiv_pos_as_xyz
  1  'x, y, z'
loop_
 _atom_site_type_symbol
 _atom_site_label
 _atom_site_symmetry_multiplicity
 _atom_site_fract_x
 _atom_site_fract_y
 _atom_site_fract_z
 _atom_site_occupancy
  Mo  Mo0  1  0.333310  0.666620  0.115633  1
  Mo  Mo1  1  0.333310  0.666620  0.578355  1
  W  W2  1  0.666690  0.333379  0.346999  1
  Se  Se3  1  0.333351  0.666703  0.403233  1
  Se  Se4  1  0.666648  0.333295  0.522392  1
  Se  Se5  1  0.666648  0.333295  0.634259  1
  Se  Se6  1  0.333351  0.666702  0.290691  1
  S  S7  1  0.666647  0.333292  0.064731  1
  S  S8  1  0.666646  0.333292  0.166547  1
