# generated using pymatgen
data_TeMoWSe2S
_symmetry_space_group_name_H-M   'P 1'
_cell_length_a   3.34620897
_cell_length_b   3.34617666
_cell_length_c   38.07110788
_cell_angle_alpha   89.99989582
_cell_angle_beta   90.00000000
_cell_angle_gamma   120.00031954
_symmetry_Int_Tables_number   1
_chemical_formula_structural   TeMoWSe2S
_chemical_formula_sum   'Te2 Mo2 W2 Se4 S2'
_cell_volume   369.17023054
_cell_formula_units_Z   2
loop_
 _symmetry_equiv_pos_site_id
 _symmetry_equiv_pos_as_xyz
  1  'x, y, z'
loop_
 _atom_site_type_symbol
 _atom_site_label
 _atom_site_symmetry_multiplicity
 _atom_site_fract_x
 _atom_site_fract_y
 _atom_site_fract_z
 _atom_site_occupancy
  Te  Te0  1  0.333352  0.666706  0.707659  1
  Te  Te1  1  0.333355  0.666711  0.607420  1
  Mo  Mo2  1  0.333291  0.666582  0.469651  1
  Mo  Mo3  1  0.666692  0.333384  0.281804  1
  W  W4  1  0.333308  0.666616  0.093903  1
  W  W5  1  0.666691  0.333382  0.657570  1
  Se  Se6  1  0.333352  0.666706  0.325574  1
  Se  Se7  1  0.666646  0.333291  0.049925  1
  Se  Se8  1  0.666632  0.333263  0.137897  1
  Se  Se9  1  0.333372  0.666745  0.238034  1
  S  S10  1  0.666654  0.333307  0.429830  1
  S  S11  1  0.666655  0.333308  0.509482  1
