# generated using pymatgen
data_Sr2ScF7
_symmetry_space_group_name_H-M   'P 1'
_cell_length_a   5.54602737
_cell_length_b   8.33671800
_cell_length_c   12.32388263
_cell_angle_alpha   90.00000000
_cell_angle_beta   90.00000000
_cell_angle_gamma   90.43423771
_symmetry_Int_Tables_number   1
_chemical_formula_structural   Sr2ScF7
_chemical_formula_sum   'Sr8 Sc4 F28'
_cell_volume   569.78655942
_cell_formula_units_Z   4
loop_
 _symmetry_equiv_pos_site_id
 _symmetry_equiv_pos_as_xyz
  1  'x, y, z'
loop_
 _atom_site_type_symbol
 _atom_site_label
 _atom_site_symmetry_multiplicity
 _atom_site_fract_x
 _atom_site_fract_y
 _atom_site_fract_z
 _atom_site_occupancy
  F  F0  1  0.199319  0.523751  0.136313  1
  F  F1  1  0.800681  0.976249  0.636313  1
  F  F2  1  0.800681  0.476249  0.863687  1
  F  F3  1  0.199319  0.023751  0.363687  1
  F  F4  1  0.014916  0.303081  0.254917  1
  F  F5  1  0.985084  0.196919  0.754917  1
  F  F6  1  0.985084  0.696919  0.745083  1
  F  F7  1  0.014916  0.803081  0.245083  1
  F  F8  1  0.801477  0.710040  0.036662  1
  F  F9  1  0.198523  0.789960  0.536662  1
  F  F10  1  0.198523  0.289960  0.963338  1
  F  F11  1  0.801477  0.210040  0.463338  1
  F  F12  1  0.487993  0.075059  0.105223  1
  F  F13  1  0.512007  0.424941  0.605223  1
  F  F14  1  0.512007  0.924941  0.894777  1
  F  F15  1  0.487993  0.575059  0.394777  1
  F  F16  1  0.487233  0.792383  0.229645  1
  F  F17  1  0.512767  0.707617  0.729645  1
  F  F18  1  0.512767  0.207617  0.770355  1
  F  F19  1  0.487233  0.292383  0.270355  1
  F  F20  1  0.613633  0.870997  0.424934  1
  F  F21  1  0.386367  0.629003  0.924934  1
  F  F22  1  0.386367  0.129003  0.575066  1
  F  F23  1  0.613633  0.370997  0.075066  1
  F  F24  1  0.016475  0.090967  0.105029  1
  F  F25  1  0.983525  0.409033  0.605029  1
  F  F26  1  0.983525  0.909033  0.894971  1
  F  F27  1  0.016475  0.590967  0.394971  1
  Sc  Sc28  1  0.278166  0.283865  0.126192  1
  Sc  Sc29  1  0.721834  0.216135  0.626192  1
  Sc  Sc30  1  0.721834  0.716135  0.873808  1
  Sc  Sc31  1  0.278166  0.783865  0.373808  1
  Sr  Sr32  1  0.764981  0.677255  0.561099  1
  Sr  Sr33  1  0.235019  0.822745  0.061099  1
  Sr  Sr34  1  0.235019  0.322745  0.438901  1
  Sr  Sr35  1  0.764981  0.177255  0.938901  1
  Sr  Sr36  1  0.765404  0.551898  0.219985  1
  Sr  Sr37  1  0.234596  0.948102  0.719985  1
  Sr  Sr38  1  0.234596  0.448102  0.780015  1
  Sr  Sr39  1  0.765404  0.051898  0.280015  1
