# generated using pymatgen
data_ErPu3
_symmetry_space_group_name_H-M   'P 1'
_cell_length_a   6.84495756
_cell_length_b   6.84495927
_cell_length_c   5.49816159
_cell_angle_alpha   90.00000000
_cell_angle_beta   90.00000000
_cell_angle_gamma   119.99999646
_symmetry_Int_Tables_number   1
_chemical_formula_structural   ErPu3
_chemical_formula_sum   'Er2 Pu6'
_cell_volume   223.09496814
_cell_formula_units_Z   2
loop_
 _symmetry_equiv_pos_site_id
 _symmetry_equiv_pos_as_xyz
  1  'x, y, z'
loop_
 _atom_site_type_symbol
 _atom_site_label
 _atom_site_symmetry_multiplicity
 _atom_site_fract_x
 _atom_site_fract_y
 _atom_site_fract_z
 _atom_site_occupancy
  Er  Er0  1  0.333333  0.666666  0.750000  1
  Er  Er1  1  0.666665  0.333332  0.250000  1
  Pu  Pu2  1  0.164005  0.328009  0.250000  1
  Pu  Pu3  1  0.671992  0.835995  0.250000  1
  Pu  Pu4  1  0.164005  0.835995  0.250000  1
  Pu  Pu5  1  0.835994  0.671989  0.750000  1
  Pu  Pu6  1  0.328010  0.164005  0.750000  1
  Pu  Pu7  1  0.835996  0.164005  0.750000  1
