# generated using pymatgen
data_Te2Mo3WSe6
_symmetry_space_group_name_H-M   'P 1'
_cell_length_a   3.38103705
_cell_length_b   3.38086363
_cell_length_c   40.64808257
_cell_angle_alpha   90.01186947
_cell_angle_beta   90.00014404
_cell_angle_gamma   120.00188345
_symmetry_Int_Tables_number   1
_chemical_formula_structural   Te2Mo3WSe6
_chemical_formula_sum   'Te2 Mo3 W1 Se6'
_cell_volume   402.38337005
_cell_formula_units_Z   1
loop_
 _symmetry_equiv_pos_site_id
 _symmetry_equiv_pos_as_xyz
  1  'x, y, z'
loop_
 _atom_site_type_symbol
 _atom_site_label
 _atom_site_symmetry_multiplicity
 _atom_site_fract_x
 _atom_site_fract_y
 _atom_site_fract_z
 _atom_site_occupancy
  Te  Te0  1  0.666748  0.333503  0.423105  1
  Te  Te1  1  0.666930  0.333864  0.516174  1
  Mo  Mo2  1  0.332951  0.665905  0.093421  1
  Mo  Mo3  1  0.666695  0.333382  0.280723  1
  Mo  Mo4  1  0.666829  0.333656  0.659107  1
  W  W5  1  0.333522  0.667050  0.469693  1
  Se  Se6  1  0.333467  0.666920  0.321419  1
  Se  Se7  1  0.333541  0.667081  0.699812  1
  Se  Se8  1  0.666129  0.332261  0.052717  1
  Se  Se9  1  0.666343  0.332686  0.134151  1
  Se  Se10  1  0.333348  0.666695  0.240016  1
  Se  Se11  1  0.333497  0.666997  0.618410  1
