# generated using pymatgen
data_Tm3Sb
_symmetry_space_group_name_H-M   'P 1'
_cell_length_a   6.11243293
_cell_length_b   12.21396061
_cell_length_c   12.21396061
_cell_angle_alpha   90.00000000
_cell_angle_beta   90.00000000
_cell_angle_gamma   90.00000000
_symmetry_Int_Tables_number   1
_chemical_formula_structural   Tm3Sb
_chemical_formula_sum   'Tm24 Sb8'
_cell_volume   911.85784094
_cell_formula_units_Z   8
loop_
 _symmetry_equiv_pos_site_id
 _symmetry_equiv_pos_as_xyz
  1  'x, y, z'
loop_
 _atom_site_type_symbol
 _atom_site_label
 _atom_site_symmetry_multiplicity
 _atom_site_fract_x
 _atom_site_fract_y
 _atom_site_fract_z
 _atom_site_occupancy
  Sb  Sb0  1  0.040421  0.292687  0.050592  1
  Sb  Sb1  1  0.540421  0.949408  0.792687  1
  Sb  Sb2  1  0.540421  0.550592  0.707313  1
  Sb  Sb3  1  0.040421  0.207313  0.449408  1
  Sb  Sb4  1  0.959579  0.707313  0.949408  1
  Sb  Sb5  1  0.459579  0.050592  0.207313  1
  Sb  Sb6  1  0.459579  0.449408  0.292687  1
  Sb  Sb7  1  0.959579  0.792687  0.550592  1
  Tm  Tm8  1  0.266709  0.423676  0.536211  1
  Tm  Tm9  1  0.766709  0.463789  0.923676  1
  Tm  Tm10  1  0.766709  0.036211  0.576324  1
  Tm  Tm11  1  0.266709  0.076324  0.963789  1
  Tm  Tm12  1  0.733291  0.576324  0.463789  1
  Tm  Tm13  1  0.233291  0.536211  0.076324  1
  Tm  Tm14  1  0.233291  0.963789  0.423676  1
  Tm  Tm15  1  0.733291  0.923676  0.036211  1
  Tm  Tm16  1  0.963605  0.395277  0.281162  1
  Tm  Tm17  1  0.463605  0.718838  0.895277  1
  Tm  Tm18  1  0.463605  0.781162  0.604723  1
  Tm  Tm19  1  0.963605  0.104723  0.218838  1
  Tm  Tm20  1  0.036395  0.604723  0.718838  1
  Tm  Tm21  1  0.536395  0.281162  0.104723  1
  Tm  Tm22  1  0.536395  0.218838  0.395277  1
  Tm  Tm23  1  0.036395  0.895277  0.781162  1
  Tm  Tm24  1  0.786660  0.166684  0.858363  1
  Tm  Tm25  1  0.286660  0.141637  0.666684  1
  Tm  Tm26  1  0.286660  0.358363  0.833316  1
  Tm  Tm27  1  0.786660  0.333316  0.641637  1
  Tm  Tm28  1  0.213340  0.833316  0.141637  1
  Tm  Tm29  1  0.713340  0.858363  0.333316  1
  Tm  Tm30  1  0.713340  0.641637  0.166684  1
  Tm  Tm31  1  0.213340  0.666684  0.358363  1
