# generated using pymatgen
data_Lu2Cr2C3
_symmetry_space_group_name_H-M   'P 1'
_cell_length_a   3.27334661
_cell_length_b   5.47175573
_cell_length_c   5.47683107
_cell_angle_alpha   105.99395636
_cell_angle_beta   107.38769316
_cell_angle_gamma   90.00000000
_symmetry_Int_Tables_number   1
_chemical_formula_structural   Lu2Cr2C3
_chemical_formula_sum   'Lu2 Cr2 C3'
_cell_volume   89.62585282
_cell_formula_units_Z   1
loop_
 _symmetry_equiv_pos_site_id
 _symmetry_equiv_pos_as_xyz
  1  'x, y, z'
loop_
 _atom_site_type_symbol
 _atom_site_label
 _atom_site_symmetry_multiplicity
 _atom_site_fract_x
 _atom_site_fract_y
 _atom_site_fract_z
 _atom_site_occupancy
  Lu  Lu0  1  0.609943  0.316049  0.219887  1
  Lu  Lu1  1  0.390057  0.683951  0.780114  1
  Cr  Cr2  1  0.845985  0.115432  0.691970  1
  Cr  Cr3  1  0.154015  0.884568  0.308030  1
  C  C4  1  0.278247  0.238714  0.556493  1
  C  C5  1  0.721753  0.761286  0.443507  1
  C  C6  1  -0.000000  0.000000  -0.000000  1
