# generated using pymatgen
data_Te6Mo3WSe2
_symmetry_space_group_name_H-M   'P 1'
_cell_length_a   3.49704760
_cell_length_b   3.49705137
_cell_length_c   39.56878831
_cell_angle_alpha   89.99976438
_cell_angle_beta   90.00001078
_cell_angle_gamma   119.99994151
_symmetry_Int_Tables_number   1
_chemical_formula_structural   Te6Mo3WSe2
_chemical_formula_sum   'Te6 Mo3 W1 Se2'
_cell_volume   419.07060082
_cell_formula_units_Z   1
loop_
 _symmetry_equiv_pos_site_id
 _symmetry_equiv_pos_as_xyz
  1  'x, y, z'
loop_
 _atom_site_type_symbol
 _atom_site_label
 _atom_site_symmetry_multiplicity
 _atom_site_fract_x
 _atom_site_fract_y
 _atom_site_fract_z
 _atom_site_occupancy
  Te  Te0  1  0.333356  0.666712  0.328058  1
  Te  Te1  1  0.333354  0.666709  0.704063  1
  Te  Te2  1  0.666646  0.333291  0.423369  1
  Te  Te3  1  0.666638  0.333274  0.515929  1
  Te  Te4  1  0.333352  0.666705  0.235475  1
  Te  Te5  1  0.333374  0.666748  0.611021  1
  Mo  Mo6  1  0.333307  0.666613  0.093931  1
  Mo  Mo7  1  0.333310  0.666620  0.469690  1
  Mo  Mo8  1  0.666690  0.333380  0.281787  1
  W  W9  1  0.666691  0.333382  0.657571  1
  Se  Se10  1  0.666642  0.333284  0.053054  1
  Se  Se11  1  0.666641  0.333281  0.134800  1
