# generated using pymatgen
data_Te3MoWS
_symmetry_space_group_name_H-M   'P 1'
_cell_length_a   3.45199716
_cell_length_b   3.45214265
_cell_length_c   39.44800672
_cell_angle_alpha   89.99921118
_cell_angle_beta   90.00000000
_cell_angle_gamma   119.99860587
_symmetry_Int_Tables_number   1
_chemical_formula_structural   Te3MoWS
_chemical_formula_sum   'Te6 Mo2 W2 S2'
_cell_volume   407.11861378
_cell_formula_units_Z   2
loop_
 _symmetry_equiv_pos_site_id
 _symmetry_equiv_pos_as_xyz
  1  'x, y, z'
loop_
 _atom_site_type_symbol
 _atom_site_label
 _atom_site_symmetry_multiplicity
 _atom_site_fract_x
 _atom_site_fract_y
 _atom_site_fract_z
 _atom_site_occupancy
  Te  Te0  1  0.333346  0.666693  0.329020  1
  Te  Te1  1  0.666653  0.333305  0.046941  1
  Te  Te2  1  0.666643  0.333285  0.422752  1
  Te  Te3  1  0.666642  0.333284  0.140858  1
  Te  Te4  1  0.666636  0.333272  0.516672  1
  Te  Te5  1  0.333349  0.666698  0.234622  1
  Mo  Mo6  1  0.333299  0.666598  0.093858  1
  Mo  Mo7  1  0.333291  0.666582  0.469679  1
  W  W8  1  0.666685  0.333370  0.281773  1
  W  W9  1  0.666706  0.333412  0.657519  1
  S  S10  1  0.333372  0.666744  0.695341  1
  S  S11  1  0.333378  0.666756  0.619714  1
