# generated using pymatgen
data_Cd3As2
_symmetry_space_group_name_H-M   'P 1'
_cell_length_a   9.16922992
_cell_length_b   9.16922992
_cell_length_c   12.90797991
_cell_angle_alpha   90.00000000
_cell_angle_beta   90.00000000
_cell_angle_gamma   90.00000000
_symmetry_Int_Tables_number   1
_chemical_formula_structural   Cd3As2
_chemical_formula_sum   'Cd24 As16'
_cell_volume   1085.23553666
_cell_formula_units_Z   8
loop_
 _symmetry_equiv_pos_site_id
 _symmetry_equiv_pos_as_xyz
  1  'x, y, z'
loop_
 _atom_site_type_symbol
 _atom_site_label
 _atom_site_symmetry_multiplicity
 _atom_site_fract_x
 _atom_site_fract_y
 _atom_site_fract_z
 _atom_site_occupancy
  As  As0  1  0.005908  0.505908  0.250000  1
  As  As1  1  0.994092  0.005908  0.750000  1
  As  As2  1  0.505908  0.494092  0.750000  1
  As  As3  1  0.494092  0.994092  0.250000  1
  As  As4  1  0.994092  0.494092  0.750000  1
  As  As5  1  0.005908  0.994092  0.250000  1
  As  As6  1  0.494092  0.505908  0.250000  1
  As  As7  1  0.505908  0.005908  0.750000  1
  As  As8  1  0.750000  0.750000  0.508092  1
  As  As9  1  0.750000  0.750000  0.008092  1
  As  As10  1  0.250000  0.250000  0.491908  1
  As  As11  1  0.250000  0.250000  0.991908  1
  As  As12  1  0.250000  0.750000  0.504885  1
  As  As13  1  0.750000  0.250000  0.004885  1
  As  As14  1  0.750000  0.250000  0.495115  1
  As  As15  1  0.250000  0.750000  0.995115  1
  Cd  Cd16  1  0.250000  0.994536  0.396794  1
  Cd  Cd17  1  0.505464  0.250000  0.896794  1
  Cd  Cd18  1  0.994536  0.250000  0.896794  1
  Cd  Cd19  1  0.750000  0.005464  0.603206  1
  Cd  Cd20  1  0.750000  0.494536  0.603206  1
  Cd  Cd21  1  0.250000  0.505464  0.396794  1
  Cd  Cd22  1  0.494536  0.750000  0.103206  1
  Cd  Cd23  1  0.005464  0.750000  0.103206  1
  Cd  Cd24  1  0.964907  0.750000  0.367475  1
  Cd  Cd25  1  0.535093  0.750000  0.367475  1
  Cd  Cd26  1  0.250000  0.464907  0.132525  1
  Cd  Cd27  1  0.750000  0.535093  0.867475  1
  Cd  Cd28  1  0.750000  0.964907  0.867475  1
  Cd  Cd29  1  0.035093  0.250000  0.632525  1
  Cd  Cd30  1  0.464907  0.250000  0.632525  1
  Cd  Cd31  1  0.250000  0.035093  0.132525  1
  Cd  Cd32  1  0.032386  0.750000  0.645061  1
  Cd  Cd33  1  0.467614  0.750000  0.645061  1
  Cd  Cd34  1  0.250000  0.532386  0.854939  1
  Cd  Cd35  1  0.750000  0.467614  0.145061  1
  Cd  Cd36  1  0.750000  0.032386  0.145061  1
  Cd  Cd37  1  0.967614  0.250000  0.354939  1
  Cd  Cd38  1  0.532386  0.250000  0.354939  1
  Cd  Cd39  1  0.250000  0.967614  0.854939  1
