# generated using pymatgen
data_Te4MoW3S4
_symmetry_space_group_name_H-M   'P 1'
_cell_length_a   3.36141170
_cell_length_b   3.36128983
_cell_length_c   38.37217081
_cell_angle_alpha   90.00019228
_cell_angle_beta   90.00000000
_cell_angle_gamma   120.00119938
_symmetry_Int_Tables_number   1
_chemical_formula_structural   Te4MoW3S4
_chemical_formula_sum   'Te4 Mo1 W3 S4'
_cell_volume   375.46496657
_cell_formula_units_Z   1
loop_
 _symmetry_equiv_pos_site_id
 _symmetry_equiv_pos_as_xyz
  1  'x, y, z'
loop_
 _atom_site_type_symbol
 _atom_site_label
 _atom_site_symmetry_multiplicity
 _atom_site_fract_x
 _atom_site_fract_y
 _atom_site_fract_z
 _atom_site_occupancy
  Te  Te0  1  0.333355  0.666710  0.331325  1
  Te  Te1  1  0.333355  0.666710  0.707065  1
  Te  Te2  1  0.333353  0.666706  0.232224  1
  Te  Te3  1  0.333351  0.666704  0.608023  1
  Mo  Mo4  1  0.333330  0.666660  0.093924  1
  W  W5  1  0.333311  0.666623  0.469664  1
  W  W6  1  0.666693  0.333386  0.281796  1
  W  W7  1  0.666692  0.333384  0.657552  1
  S  S8  1  0.666633  0.333265  0.054492  1
  S  S9  1  0.666644  0.333288  0.430097  1
  S  S10  1  0.666634  0.333267  0.133364  1
  S  S11  1  0.666649  0.333297  0.509222  1
