# generated using pymatgen
data_DyCoSi
_symmetry_space_group_name_H-M   'P 1'
_cell_length_a   4.18588487
_cell_length_b   6.90230790
_cell_length_c   6.89953831
_cell_angle_alpha   90.00000000
_cell_angle_beta   90.00000000
_cell_angle_gamma   90.00000000
_symmetry_Int_Tables_number   1
_chemical_formula_structural   DyCoSi
_chemical_formula_sum   'Dy4 Co4 Si4'
_cell_volume   199.34329756
_cell_formula_units_Z   4
loop_
 _symmetry_equiv_pos_site_id
 _symmetry_equiv_pos_as_xyz
  1  'x, y, z'
loop_
 _atom_site_type_symbol
 _atom_site_label
 _atom_site_symmetry_multiplicity
 _atom_site_fract_x
 _atom_site_fract_y
 _atom_site_fract_z
 _atom_site_occupancy
  Si  Si0  1  0.250000  0.805725  0.105222  1
  Si  Si1  1  0.750000  0.194275  0.894778  1
  Si  Si2  1  0.250000  0.305725  0.394778  1
  Si  Si3  1  0.750000  0.694275  0.605222  1
  Co  Co4  1  0.750000  0.854203  0.932855  1
  Co  Co5  1  0.250000  0.145797  0.067145  1
  Co  Co6  1  0.750000  0.354203  0.567145  1
  Co  Co7  1  0.250000  0.645797  0.432855  1
  Dy  Dy8  1  0.250000  0.482540  0.812429  1
  Dy  Dy9  1  0.750000  0.517460  0.187571  1
  Dy  Dy10  1  0.250000  0.982540  0.687571  1
  Dy  Dy11  1  0.750000  0.017460  0.312429  1
