# generated using pymatgen
data_Te2MoWSe2
_symmetry_space_group_name_H-M   'P 1'
_cell_length_a   3.43615621
_cell_length_b   3.43612456
_cell_length_c   39.14672137
_cell_angle_alpha   89.99994804
_cell_angle_beta   90.00000000
_cell_angle_gamma   120.00030479
_symmetry_Int_Tables_number   1
_chemical_formula_structural   Te2MoWSe2
_chemical_formula_sum   'Te4 Mo2 W2 Se4'
_cell_volume   400.28239552
_cell_formula_units_Z   2
loop_
 _symmetry_equiv_pos_site_id
 _symmetry_equiv_pos_as_xyz
  1  'x, y, z'
loop_
 _atom_site_type_symbol
 _atom_site_label
 _atom_site_symmetry_multiplicity
 _atom_site_fract_x
 _atom_site_fract_y
 _atom_site_fract_z
 _atom_site_occupancy
  Te  Te0  1  0.333353  0.666707  0.329255  1
  Te  Te1  1  0.666645  0.333290  0.046466  1
  Te  Te2  1  0.666648  0.333295  0.141359  1
  Te  Te3  1  0.333358  0.666717  0.234356  1
  Mo  Mo4  1  0.333309  0.666618  0.093895  1
  Mo  Mo5  1  0.666694  0.333387  0.281821  1
  W  W6  1  0.333312  0.666623  0.469676  1
  W  W7  1  0.666686  0.333373  0.657535  1
  Se  Se8  1  0.333353  0.666706  0.699538  1
  Se  Se9  1  0.666643  0.333286  0.427646  1
  Se  Se10  1  0.666644  0.333287  0.511674  1
  Se  Se11  1  0.333355  0.666712  0.615527  1
