# generated using pymatgen
data_CeAu
_symmetry_space_group_name_H-M   'P 1'
_cell_length_a   4.74492790
_cell_length_b   7.40921897
_cell_length_c   6.00168588
_cell_angle_alpha   90.00000000
_cell_angle_beta   90.00000000
_cell_angle_gamma   90.00000000
_symmetry_Int_Tables_number   1
_chemical_formula_structural   CeAu
_chemical_formula_sum   'Ce4 Au4'
_cell_volume   210.99652800
_cell_formula_units_Z   4
loop_
 _symmetry_equiv_pos_site_id
 _symmetry_equiv_pos_as_xyz
  1  'x, y, z'
loop_
 _atom_site_type_symbol
 _atom_site_label
 _atom_site_symmetry_multiplicity
 _atom_site_fract_x
 _atom_site_fract_y
 _atom_site_fract_z
 _atom_site_occupancy
  Ce  Ce0  1  0.750000  0.817401  0.355819  1
  Ce  Ce1  1  0.250000  0.182599  0.644181  1
  Ce  Ce2  1  0.250000  0.682599  0.855819  1
  Ce  Ce3  1  0.750000  0.317401  0.144181  1
  Au  Au4  1  0.750000  0.958765  0.846883  1
  Au  Au5  1  0.250000  0.041235  0.153117  1
  Au  Au6  1  0.250000  0.541235  0.346883  1
  Au  Au7  1  0.750000  0.458765  0.653117  1
