# generated using pymatgen
data_Rb3PS4
_symmetry_space_group_name_H-M   'P 1'
_cell_length_a   9.52946526
_cell_length_b   9.44845874
_cell_length_c   11.16653785
_cell_angle_alpha   90.00000000
_cell_angle_beta   90.00000000
_cell_angle_gamma   90.00000000
_symmetry_Int_Tables_number   1
_chemical_formula_structural   Rb3PS4
_chemical_formula_sum   'Rb12 P4 S16'
_cell_volume   1005.42121395
_cell_formula_units_Z   4
loop_
 _symmetry_equiv_pos_site_id
 _symmetry_equiv_pos_as_xyz
  1  'x, y, z'
loop_
 _atom_site_type_symbol
 _atom_site_label
 _atom_site_symmetry_multiplicity
 _atom_site_fract_x
 _atom_site_fract_y
 _atom_site_fract_z
 _atom_site_occupancy
  P  P0  1  0.481983  0.775791  0.750000  1
  P  P1  1  0.981983  0.724209  0.250000  1
  P  P2  1  0.018017  0.275791  0.750000  1
  P  P3  1  0.518017  0.224209  0.250000  1
  S  S4  1  0.266171  0.795267  0.750000  1
  S  S5  1  0.766171  0.704733  0.250000  1
  S  S6  1  0.233829  0.295267  0.750000  1
  S  S7  1  0.733829  0.204733  0.250000  1
  S  S8  1  0.457818  0.330669  0.402647  1
  S  S9  1  0.957818  0.169331  0.597353  1
  S  S10  1  0.042182  0.830669  0.097353  1
  S  S11  1  0.542182  0.669331  0.902647  1
  S  S12  1  0.426670  0.025274  0.250000  1
  S  S13  1  0.926670  0.474726  0.750000  1
  S  S14  1  0.073330  0.525274  0.250000  1
  S  S15  1  0.573330  0.974726  0.750000  1
  S  S16  1  0.457818  0.330669  0.097353  1
  S  S17  1  0.957818  0.169331  0.902647  1
  S  S18  1  0.042182  0.830669  0.402647  1
  S  S19  1  0.542182  0.669331  0.597353  1
  Rb  Rb20  1  0.917244  0.852251  0.750000  1
  Rb  Rb21  1  0.417244  0.647749  0.250000  1
  Rb  Rb22  1  0.582756  0.352251  0.750000  1
  Rb  Rb23  1  0.082756  0.147749  0.250000  1
  Rb  Rb24  1  0.295206  0.046232  0.956724  1
  Rb  Rb25  1  0.795206  0.453768  0.043276  1
  Rb  Rb26  1  0.204794  0.546232  0.543276  1
  Rb  Rb27  1  0.704794  0.953768  0.456724  1
  Rb  Rb28  1  0.704794  0.953768  0.043276  1
  Rb  Rb29  1  0.204794  0.546232  0.956724  1
  Rb  Rb30  1  0.795206  0.453768  0.456724  1
  Rb  Rb31  1  0.295206  0.046232  0.543276  1
