# generated using pymatgen
data_Sm5Si3O13
_symmetry_space_group_name_H-M   'P 1'
_cell_length_a   9.61256368
_cell_length_b   9.61256368
_cell_length_c   6.99588876
_cell_angle_alpha   90.00000000
_cell_angle_beta   90.00000000
_cell_angle_gamma   120.00000000
_symmetry_Int_Tables_number   1
_chemical_formula_structural   Sm5Si3O13
_chemical_formula_sum   'Sm10 Si6 O26'
_cell_volume   559.82461078
_cell_formula_units_Z   2
loop_
 _symmetry_equiv_pos_site_id
 _symmetry_equiv_pos_as_xyz
  1  'x, y, z'
loop_
 _atom_site_type_symbol
 _atom_site_label
 _atom_site_symmetry_multiplicity
 _atom_site_fract_x
 _atom_site_fract_y
 _atom_site_fract_z
 _atom_site_occupancy
  O  O0  1  0.000000  0.000000  0.750000  1
  O  O1  1  0.000000  0.000000  0.250000  1
  O  O2  1  0.516926  0.831856  0.750000  1
  O  O3  1  0.685071  0.516926  0.250000  1
  O  O4  1  0.831856  0.314929  0.250000  1
  O  O5  1  0.168144  0.685071  0.750000  1
  O  O6  1  0.314929  0.483074  0.750000  1
  O  O7  1  0.483074  0.168144  0.250000  1
  O  O8  1  0.877114  0.404315  0.750000  1
  O  O9  1  0.472798  0.877114  0.250000  1
  O  O10  1  0.404315  0.527202  0.250000  1
  O  O11  1  0.595685  0.472798  0.750000  1
  O  O12  1  0.527202  0.122886  0.750000  1
  O  O13  1  0.122886  0.595685  0.250000  1
  O  O14  1  0.092126  0.341128  0.436477  1
  O  O15  1  0.750998  0.092126  0.936477  1
  O  O16  1  0.092126  0.341128  0.063523  1
  O  O17  1  0.750998  0.092126  0.563523  1
  O  O18  1  0.341128  0.249002  0.563523  1
  O  O19  1  0.658872  0.750998  0.063523  1
  O  O20  1  0.249002  0.907874  0.063523  1
  O  O21  1  0.907874  0.658872  0.563523  1
  O  O22  1  0.907874  0.658872  0.936477  1
  O  O23  1  0.249002  0.907874  0.436477  1
  O  O24  1  0.658872  0.750998  0.436477  1
  O  O25  1  0.341128  0.249002  0.936477  1
  Si  Si26  1  0.972205  0.602300  0.750000  1
  Si  Si27  1  0.369904  0.972205  0.250000  1
  Si  Si28  1  0.602300  0.630096  0.250000  1
  Si  Si29  1  0.397700  0.369904  0.750000  1
  Si  Si30  1  0.630096  0.027795  0.750000  1
  Si  Si31  1  0.027795  0.397700  0.250000  1
  Sm  Sm32  1  0.333333  0.666667  0.502083  1
  Sm  Sm33  1  0.666667  0.333333  0.002083  1
  Sm  Sm34  1  0.666667  0.333333  0.497917  1
  Sm  Sm35  1  0.333333  0.666667  0.997917  1
  Sm  Sm36  1  0.761021  0.767871  0.750000  1
  Sm  Sm37  1  0.993150  0.761021  0.250000  1
  Sm  Sm38  1  0.767871  0.006850  0.250000  1
  Sm  Sm39  1  0.232129  0.993150  0.750000  1
  Sm  Sm40  1  0.006850  0.238979  0.750000  1
  Sm  Sm41  1  0.238979  0.232129  0.250000  1
