# generated using pymatgen
data_Te2MoW3(SeS2)2
_symmetry_space_group_name_H-M   'P 1'
_cell_length_a   3.30633306
_cell_length_b   3.30625528
_cell_length_c   42.73530442
_cell_angle_alpha   90.00873374
_cell_angle_beta   90.00000000
_cell_angle_gamma   120.00077819
_symmetry_Int_Tables_number   1
_chemical_formula_structural   Te2MoW3(SeS2)2
_chemical_formula_sum   'Te2 Mo1 W3 Se2 S4'
_cell_volume   404.57310081
_cell_formula_units_Z   1
loop_
 _symmetry_equiv_pos_site_id
 _symmetry_equiv_pos_as_xyz
  1  'x, y, z'
loop_
 _atom_site_type_symbol
 _atom_site_label
 _atom_site_symmetry_multiplicity
 _atom_site_fract_x
 _atom_site_fract_y
 _atom_site_fract_z
 _atom_site_occupancy
  Te  Te0  1  0.333448  0.666897  0.324704  1
  Te  Te1  1  0.333306  0.666614  0.235141  1
  Mo  Mo2  1  0.666713  0.333425  0.279924  1
  W  W3  1  0.333295  0.666590  0.092410  1
  W  W4  1  0.333421  0.666843  0.472437  1
  W  W5  1  0.666575  0.333150  0.658148  1
  Se  Se6  1  0.666714  0.333427  0.432898  1
  Se  Se7  1  0.666791  0.333581  0.511967  1
  S  S8  1  0.333267  0.666535  0.694054  1
  S  S9  1  0.666604  0.333207  0.056503  1
  S  S10  1  0.666656  0.333311  0.128318  1
  S  S11  1  0.333209  0.666420  0.622245  1
