# generated using pymatgen
data_TeMoWSe2S
_symmetry_space_group_name_H-M   'P 1'
_cell_length_a   3.34536922
_cell_length_b   3.34559492
_cell_length_c   39.19699588
_cell_angle_alpha   90.00025173
_cell_angle_beta   90.00000000
_cell_angle_gamma   119.99776843
_symmetry_Int_Tables_number   1
_chemical_formula_structural   TeMoWSe2S
_chemical_formula_sum   'Te2 Mo2 W2 Se4 S2'
_cell_volume   379.93612842
_cell_formula_units_Z   2
loop_
 _symmetry_equiv_pos_site_id
 _symmetry_equiv_pos_as_xyz
  1  'x, y, z'
loop_
 _atom_site_type_symbol
 _atom_site_label
 _atom_site_symmetry_multiplicity
 _atom_site_fract_x
 _atom_site_fract_y
 _atom_site_fract_z
 _atom_site_occupancy
  Te  Te0  1  0.666691  0.333381  0.421041  1
  Te  Te1  1  0.666651  0.333300  0.518284  1
  Mo  Mo2  1  0.333271  0.666542  0.093863  1
  Mo  Mo3  1  0.666802  0.333603  0.658308  1
  W  W4  1  0.333324  0.666648  0.469640  1
  W  W5  1  0.666642  0.333285  0.281111  1
  Se  Se6  1  0.333282  0.666564  0.323809  1
  Se  Se7  1  0.333392  0.666785  0.700765  1
  Se  Se8  1  0.333292  0.666584  0.238417  1
  Se  Se9  1  0.333402  0.666804  0.615808  1
  S  S10  1  0.666609  0.333218  0.055223  1
  S  S11  1  0.666643  0.333285  0.132479  1
