# generated using pymatgen
data_Zr2Ga(PO4)3
_symmetry_space_group_name_H-M   'P 1'
_cell_length_a   8.87680883
_cell_length_b   8.87680907
_cell_length_c   9.54693028
_cell_angle_alpha   62.29600119
_cell_angle_beta   62.29599941
_cell_angle_gamma   59.99999916
_symmetry_Int_Tables_number   1
_chemical_formula_structural   Zr2Ga(PO4)3
_chemical_formula_sum   'Zr4 Ga2 P6 O24'
_cell_volume   549.65853762
_cell_formula_units_Z   2
loop_
 _symmetry_equiv_pos_site_id
 _symmetry_equiv_pos_as_xyz
  1  'x, y, z'
loop_
 _atom_site_type_symbol
 _atom_site_label
 _atom_site_symmetry_multiplicity
 _atom_site_fract_x
 _atom_site_fract_y
 _atom_site_fract_z
 _atom_site_occupancy
  Zr  Zr0  1  0.350689  0.350689  0.947934  1
  Zr  Zr1  1  0.850689  0.850689  0.447934  1
  Zr  Zr2  1  0.649311  0.649311  0.052066  1
  Zr  Zr3  1  0.149311  0.149311  0.552066  1
  Ga  Ga4  1  0.500000  0.500000  0.500000  1
  Ga  Ga5  1  -0.000000  -0.000000  -0.000000  1
  P  P6  1  0.250000  0.962504  0.250000  1
  P  P7  1  0.537496  0.250000  0.250000  1
  P  P8  1  0.962504  0.537496  0.250000  1
  P  P9  1  0.462504  0.750000  0.750000  1
  P  P10  1  0.037496  0.462504  0.750000  1
  P  P11  1  0.750000  0.037496  0.750000  1
  O  O12  1  0.260953  0.131808  0.096301  1
  O  O13  1  0.510938  0.260953  0.096301  1
  O  O14  1  0.131808  0.510938  0.096301  1
  O  O15  1  0.631808  0.760953  0.596301  1
  O  O16  1  0.010938  0.631808  0.596301  1
  O  O17  1  0.760953  0.010938  0.596301  1
  O  O18  1  0.739047  0.868192  0.903699  1
  O  O19  1  0.489062  0.739047  0.903699  1
  O  O20  1  0.868192  0.489062  0.903699  1
  O  O21  1  0.368192  0.239047  0.403699  1
  O  O22  1  0.989062  0.368192  0.403699  1
  O  O23  1  0.239047  0.989062  0.403699  1
  O  O24  1  0.578042  0.206200  0.785534  1
  O  O25  1  0.430223  0.578042  0.785534  1
  O  O26  1  0.206200  0.430223  0.785534  1
  O  O27  1  0.706200  0.078042  0.285534  1
  O  O28  1  0.930223  0.706200  0.285534  1
  O  O29  1  0.078042  0.930223  0.285534  1
  O  O30  1  0.421958  0.793800  0.214466  1
  O  O31  1  0.569777  0.421958  0.214466  1
  O  O32  1  0.793800  0.569777  0.214466  1
  O  O33  1  0.293800  0.921958  0.714466  1
  O  O34  1  0.069777  0.293800  0.714466  1
  O  O35  1  0.921958  0.069777  0.714466  1
