# generated using pymatgen
data_La5Cu19P12
_symmetry_space_group_name_H-M   'P 1'
_cell_length_a   12.72838021
_cell_length_b   12.72838021
_cell_length_c   3.97896174
_cell_angle_alpha   90.00000000
_cell_angle_beta   90.00000000
_cell_angle_gamma   119.99999998
_symmetry_Int_Tables_number   1
_chemical_formula_structural   La5Cu19P12
_chemical_formula_sum   'La5 Cu19 P12'
_cell_volume   558.27306398
_cell_formula_units_Z   1
loop_
 _symmetry_equiv_pos_site_id
 _symmetry_equiv_pos_as_xyz
  1  'x, y, z'
loop_
 _atom_site_type_symbol
 _atom_site_label
 _atom_site_symmetry_multiplicity
 _atom_site_fract_x
 _atom_site_fract_y
 _atom_site_fract_z
 _atom_site_occupancy
  P  P0  1  0.172599  0.479570  0.500000  1
  P  P1  1  0.520430  0.693029  0.500000  1
  P  P2  1  0.306971  0.827401  0.500000  1
  P  P3  1  0.827401  0.306971  0.500000  1
  P  P4  1  0.693029  0.520430  0.500000  1
  P  P5  1  0.000000  0.630915  0.000000  1
  P  P6  1  0.369085  0.369085  0.000000  1
  P  P7  1  0.176831  0.000000  0.000000  1
  P  P8  1  0.000000  0.176831  0.000000  1
  P  P9  1  0.823169  0.823169  0.000000  1
  P  P10  1  0.479570  0.172599  0.500000  1
  P  P11  1  0.630915  0.000000  0.000000  1
  Cu  Cu12  1  0.828230  0.207149  0.000000  1
  Cu  Cu13  1  0.621081  0.792851  0.000000  1
  Cu  Cu14  1  0.171770  0.378919  0.000000  1
  Cu  Cu15  1  0.207149  0.828230  0.000000  1
  Cu  Cu16  1  0.483292  0.365612  0.500000  1
  Cu  Cu17  1  0.882320  0.516708  0.500000  1
  Cu  Cu18  1  0.516708  0.882320  0.500000  1
  Cu  Cu19  1  0.365612  0.483292  0.500000  1
  Cu  Cu20  1  0.117680  0.634388  0.500000  1
  Cu  Cu21  1  0.549574  0.549574  0.000000  1
  Cu  Cu22  1  0.000000  0.450426  0.000000  1
  Cu  Cu23  1  0.450426  0.000000  0.000000  1
  Cu  Cu24  1  0.378919  0.171770  0.000000  1
  Cu  Cu25  1  0.288641  0.000000  0.500000  1
  Cu  Cu26  1  0.000000  0.288641  0.500000  1
  Cu  Cu27  1  0.711359  0.711359  0.500000  1
  Cu  Cu28  1  0.000000  0.000000  0.000000  1
  Cu  Cu29  1  0.634388  0.117680  0.500000  1
  Cu  Cu30  1  0.792851  0.621081  0.000000  1
  La  La31  1  0.807488  0.000000  0.500000  1
  La  La32  1  0.000000  0.807488  0.500000  1
  La  La33  1  0.192512  0.192512  0.500000  1
  La  La34  1  0.333333  0.666667  0.000000  1
  La  La35  1  0.666667  0.333333  0.000000  1
