# generated using pymatgen
data_Te2Mo3W(SeS2)2
_symmetry_space_group_name_H-M   'P 1'
_cell_length_a   3.31065176
_cell_length_b   3.31071800
_cell_length_c   37.61577396
_cell_angle_alpha   89.99993722
_cell_angle_beta   90.00000000
_cell_angle_gamma   119.99933810
_symmetry_Int_Tables_number   1
_chemical_formula_structural   Te2Mo3W(SeS2)2
_chemical_formula_sum   'Te2 Mo3 W1 Se2 S4'
_cell_volume   357.05837298
_cell_formula_units_Z   1
loop_
 _symmetry_equiv_pos_site_id
 _symmetry_equiv_pos_as_xyz
  1  'x, y, z'
loop_
 _atom_site_type_symbol
 _atom_site_label
 _atom_site_symmetry_multiplicity
 _atom_site_fract_x
 _atom_site_fract_y
 _atom_site_fract_z
 _atom_site_occupancy
  Te  Te0  1  0.333358  0.666716  0.708702  1
  Te  Te1  1  0.333353  0.666707  0.606374  1
  Mo  Mo2  1  0.333309  0.666618  0.093920  1
  Mo  Mo3  1  0.333295  0.666589  0.469637  1
  Mo  Mo4  1  0.666692  0.333384  0.281796  1
  W  W5  1  0.666690  0.333380  0.657575  1
  Se  Se6  1  0.666645  0.333289  0.049284  1
  Se  Se7  1  0.666645  0.333290  0.138575  1
  S  S8  1  0.333352  0.666705  0.322389  1
  S  S9  1  0.666656  0.333311  0.429033  1
  S  S10  1  0.666651  0.333300  0.510257  1
  S  S11  1  0.333354  0.666710  0.241205  1
