# generated using pymatgen
data_Te2MoWSeS
_symmetry_space_group_name_H-M   'P 1'
_cell_length_a   3.39761089
_cell_length_b   3.39761027
_cell_length_c   38.71278539
_cell_angle_alpha   90.00060396
_cell_angle_beta   89.99998053
_cell_angle_gamma   119.99993692
_symmetry_Int_Tables_number   1
_chemical_formula_structural   Te2MoWSeS
_chemical_formula_sum   'Te4 Mo2 W2 Se2 S2'
_cell_volume   387.01921548
_cell_formula_units_Z   2
loop_
 _symmetry_equiv_pos_site_id
 _symmetry_equiv_pos_as_xyz
  1  'x, y, z'
loop_
 _atom_site_type_symbol
 _atom_site_label
 _atom_site_symmetry_multiplicity
 _atom_site_fract_x
 _atom_site_fract_y
 _atom_site_fract_z
 _atom_site_occupancy
  Te  Te0  1  0.333354  0.666709  0.706193  1
  Te  Te1  1  0.666632  0.333264  0.045526  1
  Te  Te2  1  0.666645  0.333290  0.142335  1
  Te  Te3  1  0.333352  0.666704  0.608874  1
  Mo  Mo4  1  0.333312  0.666623  0.093902  1
  Mo  Mo5  1  0.333312  0.666623  0.469650  1
  W  W6  1  0.666693  0.333387  0.281793  1
  W  W7  1  0.666688  0.333376  0.657578  1
  Se  Se8  1  0.666651  0.333301  0.427048  1
  Se  Se9  1  0.666649  0.333297  0.512252  1
  S  S10  1  0.333356  0.666717  0.320699  1
  S  S11  1  0.333354  0.666709  0.242899  1
