# generated using pymatgen
data_RbLa(WO4)2
_symmetry_space_group_name_H-M   'P 1'
_cell_length_a   7.62186540
_cell_length_b   7.62186540
_cell_length_c   7.75960484
_cell_angle_alpha   113.67446190
_cell_angle_beta   113.67446188
_cell_angle_gamma   92.25369869
_symmetry_Int_Tables_number   1
_chemical_formula_structural   RbLa(WO4)2
_chemical_formula_sum   'Rb2 La2 W4 O16'
_cell_volume   367.12898801
_cell_formula_units_Z   2
loop_
 _symmetry_equiv_pos_site_id
 _symmetry_equiv_pos_as_xyz
  1  'x, y, z'
loop_
 _atom_site_type_symbol
 _atom_site_label
 _atom_site_symmetry_multiplicity
 _atom_site_fract_x
 _atom_site_fract_y
 _atom_site_fract_z
 _atom_site_occupancy
  O  O0  1  0.015322  0.015322  0.347481  1
  O  O1  1  0.984679  0.984679  0.652519  1
  O  O2  1  0.961929  0.708909  0.949185  1
  O  O3  1  0.291091  0.038072  0.050815  1
  O  O4  1  0.038071  0.291091  0.050815  1
  O  O5  1  0.708909  0.961929  0.949185  1
  O  O6  1  0.418504  0.418504  0.094594  1
  O  O7  1  0.581496  0.581495  0.905405  1
  O  O8  1  0.343131  0.089586  0.733819  1
  O  O9  1  0.910414  0.656869  0.266183  1
  O  O10  1  0.656868  0.910414  0.266182  1
  O  O11  1  0.089587  0.343131  0.733819  1
  O  O12  1  0.217299  0.693618  0.644123  1
  O  O13  1  0.782700  0.306381  0.355876  1
  O  O14  1  0.306382  0.782700  0.355877  1
  O  O15  1  0.693617  0.217299  0.644122  1
  Rb  Rb16  1  0.686066  0.686066  0.533627  1
  Rb  Rb17  1  0.313935  0.313935  0.466373  1
  La  La18  1  0.299088  0.700913  0.000000  1
  La  La19  1  0.700913  0.299088  0.000000  1
  W  W20  1  0.798926  0.798925  0.068204  1
  W  W21  1  0.201075  0.201074  0.931796  1
  W  W22  1  0.838739  0.161261  0.500000  1
  W  W23  1  0.161262  0.838738  0.500001  1
