# generated using pymatgen
data_SrZn11
_symmetry_space_group_name_H-M   'P 1'
_cell_length_a   6.90257767
_cell_length_b   8.37366976
_cell_length_c   8.37366976
_cell_angle_alpha   80.21941483
_cell_angle_beta   65.65942669
_cell_angle_gamma   65.65942666
_symmetry_Int_Tables_number   1
_chemical_formula_structural   SrZn11
_chemical_formula_sum   'Sr2 Zn22'
_cell_volume   401.77799727
_cell_formula_units_Z   2
loop_
 _symmetry_equiv_pos_site_id
 _symmetry_equiv_pos_as_xyz
  1  'x, y, z'
loop_
 _atom_site_type_symbol
 _atom_site_label
 _atom_site_symmetry_multiplicity
 _atom_site_fract_x
 _atom_site_fract_y
 _atom_site_fract_z
 _atom_site_occupancy
  Zn  Zn0  1  0.558236  0.578321  0.666063  1
  Zn  Zn1  1  0.802620  0.921679  0.833937  1
  Zn  Zn2  1  0.875000  0.250000  0.750000  1
  Zn  Zn3  1  0.125000  0.750000  0.250000  1
  Zn  Zn4  1  0.000000  0.500000  0.500000  1
  Zn  Zn5  1  0.000000  0.000000  0.500000  1
  Zn  Zn6  1  0.500000  0.500000  0.000000  1
  Zn  Zn7  1  0.000000  0.000000  0.000000  1
  Zn  Zn8  1  0.802620  0.333937  0.421679  1
  Zn  Zn9  1  0.724299  0.078321  0.333937  1
  Zn  Zn10  1  0.136557  0.421679  0.166063  1
  Zn  Zn11  1  0.558236  0.166063  0.078321  1
  Zn  Zn12  1  0.863443  0.333937  0.078321  1
  Zn  Zn13  1  0.275701  0.166063  0.421679  1
  Zn  Zn14  1  0.197380  0.078321  0.166063  1
  Zn  Zn15  1  0.441764  0.421679  0.333937  1
  Zn  Zn16  1  0.197380  0.666063  0.578321  1
  Zn  Zn17  1  0.275701  0.921679  0.666063  1
  Zn  Zn18  1  0.863443  0.578321  0.833937  1
  Zn  Zn19  1  0.441764  0.833937  0.921679  1
  Zn  Zn20  1  0.136557  0.666063  0.921679  1
  Zn  Zn21  1  0.724299  0.833937  0.578321  1
  Sr  Sr22  1  0.625000  0.750000  0.250000  1
  Sr  Sr23  1  0.375000  0.250000  0.750000  1
