# generated using pymatgen
data_Rb2LiFe(CN)6
_symmetry_space_group_name_H-M   'P 1'
_cell_length_a   7.27682589
_cell_length_b   7.47994801
_cell_length_c   10.36821749
_cell_angle_alpha   90.00000000
_cell_angle_beta   90.22000396
_cell_angle_gamma   90.00000000
_symmetry_Int_Tables_number   1
_chemical_formula_structural   Rb2LiFe(CN)6
_chemical_formula_sum   'Rb4 Li2 Fe2 C12 N12'
_cell_volume   564.34081374
_cell_formula_units_Z   2
loop_
 _symmetry_equiv_pos_site_id
 _symmetry_equiv_pos_as_xyz
  1  'x, y, z'
loop_
 _atom_site_type_symbol
 _atom_site_label
 _atom_site_symmetry_multiplicity
 _atom_site_fract_x
 _atom_site_fract_y
 _atom_site_fract_z
 _atom_site_occupancy
  Li  Li0  1  0.000000  0.000000  0.500000  1
  Li  Li1  1  0.500000  0.500000  0.000000  1
  C  C2  1  0.214062  0.855560  0.977732  1
  C  C3  1  0.714062  0.644440  0.477732  1
  C  C4  1  0.785938  0.144440  0.022268  1
  C  C5  1  0.285938  0.355560  0.522268  1
  C  C6  1  0.646224  0.292013  0.469857  1
  C  C7  1  0.853776  0.792013  0.030143  1
  C  C8  1  0.051742  0.007140  0.180472  1
  C  C9  1  0.448258  0.507140  0.319528  1
  C  C10  1  0.948258  0.992860  0.819528  1
  C  C11  1  0.551742  0.492860  0.680472  1
  C  C12  1  0.146224  0.207987  0.969857  1
  C  C13  1  0.353776  0.707987  0.530143  1
  N  N14  1  0.919221  0.985729  0.707873  1
  N  N15  1  0.580779  0.485729  0.792127  1
  N  N16  1  0.736497  0.163849  0.451693  1
  N  N17  1  0.236497  0.336151  0.951693  1
  N  N18  1  0.263503  0.836151  0.548307  1
  N  N19  1  0.763503  0.663849  0.048307  1
  N  N20  1  0.655681  0.235591  0.036781  1
  N  N21  1  0.844319  0.735591  0.463219  1
  N  N22  1  0.344319  0.764409  0.963219  1
  N  N23  1  0.155681  0.264409  0.536781  1
  N  N24  1  0.080779  0.014271  0.292127  1
  N  N25  1  0.419221  0.514271  0.207873  1
  Fe  Fe26  1  0.500000  0.500000  0.500000  1
  Fe  Fe27  1  0.000000  0.000000  0.000000  1
  Rb  Rb28  1  0.013004  0.555357  0.748731  1
  Rb  Rb29  1  0.486996  0.055357  0.751269  1
  Rb  Rb30  1  0.986996  0.444643  0.251269  1
  Rb  Rb31  1  0.513004  0.944643  0.248731  1
