# generated using pymatgen
data_K2Li14Zr3O14
_symmetry_space_group_name_H-M   'P 1'
_cell_length_a   7.35848185
_cell_length_b   7.90361120
_cell_length_c   8.31551800
_cell_angle_alpha   118.37449853
_cell_angle_beta   116.26061279
_cell_angle_gamma   89.99999995
_symmetry_Int_Tables_number   1
_chemical_formula_structural   K2Li14Zr3O14
_chemical_formula_sum   'K2 Li14 Zr3 O14'
_cell_volume   367.80075347
_cell_formula_units_Z   1
loop_
 _symmetry_equiv_pos_site_id
 _symmetry_equiv_pos_as_xyz
  1  'x, y, z'
loop_
 _atom_site_type_symbol
 _atom_site_label
 _atom_site_symmetry_multiplicity
 _atom_site_fract_x
 _atom_site_fract_y
 _atom_site_fract_z
 _atom_site_occupancy
  Li  Li0  1  0.136223  0.705766  0.729047  1
  Li  Li1  1  0.863777  0.976720  0.270953  1
  Li  Li2  1  0.592823  0.023280  0.729047  1
  Li  Li3  1  0.407177  0.294234  0.270953  1
  Li  Li4  1  0.136223  0.023280  0.729047  1
  Li  Li5  1  0.500000  0.845552  0.000000  1
  Li  Li6  1  0.500000  0.154448  0.000000  1
  Li  Li7  1  0.770924  0.413454  0.541848  1
  Li  Li8  1  0.229076  0.586546  0.458152  1
  Li  Li9  1  0.229076  0.871606  0.458152  1
  Li  Li10  1  0.770924  0.128394  0.541848  1
  Li  Li11  1  0.592823  0.705766  0.729047  1
  Li  Li12  1  0.863777  0.294234  0.270953  1
  Li  Li13  1  0.407177  0.976720  0.270953  1
  O  O14  1  0.872430  0.051721  0.744861  1
  O  O15  1  0.629337  0.420659  0.258674  1
  O  O16  1  0.629337  0.838015  0.258674  1
  O  O17  1  0.370663  0.579341  0.741326  1
  O  O18  1  0.370663  0.161985  0.741326  1
  O  O19  1  0.030416  0.744665  0.489329  1
  O  O20  1  0.541087  0.255335  0.510671  1
  O  O21  1  0.969584  0.255335  0.510671  1
  O  O22  1  0.458913  0.744665  0.489329  1
  O  O23  1  0.712257  0.000000  0.000000  1
  O  O24  1  0.287743  0.000000  0.000000  1
  O  O25  1  0.872430  0.693139  0.744861  1
  O  O26  1  0.127570  0.306861  0.255139  1
  O  O27  1  0.127570  0.948279  0.255139  1
  K  K28  1  0.759221  0.500000  0.000000  1
  K  K29  1  0.240779  0.500000  0.000000  1
  Zr  Zr30  1  0.000000  0.000000  0.000000  1
  Zr  Zr31  1  0.272148  0.272148  0.544296  1
  Zr  Zr32  1  0.727852  0.727852  0.455704  1
