# generated using pymatgen
data_K2ZnTe2
_symmetry_space_group_name_H-M   'P 1'
_cell_length_a   7.04846120
_cell_length_b   7.37180275
_cell_length_c   8.74000636
_cell_angle_alpha   114.94370234
_cell_angle_beta   113.78024173
_cell_angle_gamma   89.99999998
_symmetry_Int_Tables_number   1
_chemical_formula_structural   K2ZnTe2
_chemical_formula_sum   'K4 Zn2 Te4'
_cell_volume   368.81126181
_cell_formula_units_Z   2
loop_
 _symmetry_equiv_pos_site_id
 _symmetry_equiv_pos_as_xyz
  1  'x, y, z'
loop_
 _atom_site_type_symbol
 _atom_site_label
 _atom_site_symmetry_multiplicity
 _atom_site_fract_x
 _atom_site_fract_y
 _atom_site_fract_z
 _atom_site_occupancy
  K  K0  1  0.859448  0.176362  0.718895  1
  K  K1  1  0.140552  0.823638  0.281105  1
  K  K2  1  0.640552  0.457466  0.281105  1
  K  K3  1  0.359448  0.542534  0.718895  1
  Zn  Zn4  1  0.250000  0.000000  0.000000  1
  Zn  Zn5  1  0.750000  0.000000  0.000000  1
  Te  Te6  1  0.606768  0.913469  0.213535  1
  Te  Te7  1  0.393232  0.086531  0.786465  1
  Te  Te8  1  0.893232  0.699934  0.786465  1
  Te  Te9  1  0.106768  0.300066  0.213535  1
