# generated using pymatgen
data_Tb2Ge2Ru
_symmetry_space_group_name_H-M   'P 1'
_cell_length_a   4.30480190
_cell_length_b   5.84136153
_cell_length_c   9.28766531
_cell_angle_alpha   82.03685466
_cell_angle_beta   76.59997470
_cell_angle_gamma   68.37834730
_symmetry_Int_Tables_number   1
_chemical_formula_structural   Tb2Ge2Ru
_chemical_formula_sum   'Tb4 Ge4 Ru2'
_cell_volume   210.83802395
_cell_formula_units_Z   2
loop_
 _symmetry_equiv_pos_site_id
 _symmetry_equiv_pos_as_xyz
  1  'x, y, z'
loop_
 _atom_site_type_symbol
 _atom_site_label
 _atom_site_symmetry_multiplicity
 _atom_site_fract_x
 _atom_site_fract_y
 _atom_site_fract_z
 _atom_site_occupancy
  Ge  Ge0  1  0.145844  0.772752  0.935561  1
  Ge  Ge1  1  0.854156  0.227248  0.064439  1
  Ge  Ge2  1  0.010526  0.353994  0.624953  1
  Ge  Ge3  1  0.989474  0.646006  0.375047  1
  Ru  Ru4  1  0.228551  0.414963  0.127934  1
  Ru  Ru5  1  0.771449  0.585037  0.872066  1
  Tb  Tb6  1  0.315782  0.756387  0.612048  1
  Tb  Tb7  1  0.684218  0.243613  0.387952  1
  Tb  Tb8  1  0.501955  0.169766  0.826324  1
  Tb  Tb9  1  0.498045  0.830234  0.173676  1
