# generated using pymatgen
data_Na4FeO4
_symmetry_space_group_name_H-M   'P 1'
_cell_length_a   5.82906255
_cell_length_b   5.82861782
_cell_length_c   8.37229889
_cell_angle_alpha   71.82090474
_cell_angle_beta   87.83341309
_cell_angle_gamma   69.21931002
_symmetry_Int_Tables_number   1
_chemical_formula_structural   Na4FeO4
_chemical_formula_sum   'Na8 Fe2 O8'
_cell_volume   251.82056265
_cell_formula_units_Z   2
loop_
 _symmetry_equiv_pos_site_id
 _symmetry_equiv_pos_as_xyz
  1  'x, y, z'
loop_
 _atom_site_type_symbol
 _atom_site_label
 _atom_site_symmetry_multiplicity
 _atom_site_fract_x
 _atom_site_fract_y
 _atom_site_fract_z
 _atom_site_occupancy
  O  O0  1  0.892470  0.761992  0.101608  1
  O  O1  1  0.107530  0.238008  0.898392  1
  O  O2  1  0.971786  0.312809  0.383279  1
  O  O3  1  0.028214  0.687191  0.616721  1
  O  O4  1  0.474585  0.563417  0.801453  1
  O  O5  1  0.525415  0.436583  0.198547  1
  O  O6  1  0.501507  0.828617  0.337695  1
  O  O7  1  0.498493  0.171383  0.662305  1
  Na  Na8  1  0.216172  0.586015  0.371473  1
  Na  Na9  1  0.783828  0.413985  0.628527  1
  Na  Na10  1  0.743738  0.208168  0.018972  1
  Na  Na11  1  0.256262  0.791832  0.981028  1
  Na  Na12  1  0.724449  0.049446  0.432324  1
  Na  Na13  1  0.275551  0.950554  0.567676  1
  Na  Na14  1  0.236972  0.240433  0.169322  1
  Na  Na15  1  0.763028  0.759567  0.830678  1
  Fe  Fe16  1  0.279742  0.405996  0.749910  1
  Fe  Fe17  1  0.720258  0.594004  0.250090  1
