# generated using pymatgen
data_Mg2B2O5
_symmetry_space_group_name_H-M   'P 1'
_cell_length_a   3.16215193
_cell_length_b   9.29319998
_cell_length_c   12.43499396
_cell_angle_alpha   104.49605489
_cell_angle_beta   90.00000000
_cell_angle_gamma   90.00000000
_symmetry_Int_Tables_number   1
_chemical_formula_structural   Mg2B2O5
_chemical_formula_sum   'Mg8 B8 O20'
_cell_volume   353.78785288
_cell_formula_units_Z   4
loop_
 _symmetry_equiv_pos_site_id
 _symmetry_equiv_pos_as_xyz
  1  'x, y, z'
loop_
 _atom_site_type_symbol
 _atom_site_label
 _atom_site_symmetry_multiplicity
 _atom_site_fract_x
 _atom_site_fract_y
 _atom_site_fract_z
 _atom_site_occupancy
  B  B0  1  0.849711  0.830725  0.560453  1
  B  B1  1  0.349711  0.169275  0.939547  1
  B  B2  1  0.150289  0.169275  0.439547  1
  B  B3  1  0.650289  0.830725  0.060453  1
  B  B4  1  0.275589  0.643815  0.159344  1
  B  B5  1  0.775589  0.356185  0.340656  1
  B  B6  1  0.724411  0.356185  0.840656  1
  B  B7  1  0.224411  0.643815  0.659344  1
  O  O8  1  0.799412  0.503738  0.862993  1
  O  O9  1  0.299412  0.496262  0.637007  1
  O  O10  1  0.200588  0.496262  0.137007  1
  O  O11  1  0.700588  0.503738  0.362993  1
  O  O12  1  0.272026  0.741354  0.762049  1
  O  O13  1  0.772026  0.258646  0.737951  1
  O  O14  1  0.727974  0.258646  0.237951  1
  O  O15  1  0.227974  0.741354  0.262049  1
  O  O16  1  0.771964  0.819129  0.953519  1
  O  O17  1  0.271964  0.180871  0.546481  1
  O  O18  1  0.228036  0.180871  0.046481  1
  O  O19  1  0.728036  0.819129  0.453519  1
  O  O20  1  0.287846  0.053745  0.847943  1
  O  O21  1  0.787846  0.946255  0.652057  1
  O  O22  1  0.712154  0.946255  0.152057  1
  O  O23  1  0.212154  0.053745  0.347943  1
  O  O24  1  0.422504  0.700558  0.069547  1
  O  O25  1  0.922504  0.299442  0.430453  1
  O  O26  1  0.577496  0.299442  0.930453  1
  O  O27  1  0.077496  0.700558  0.569547  1
  Mg  Mg28  1  0.790791  0.356301  0.605066  1
  Mg  Mg29  1  0.290791  0.643699  0.894934  1
  Mg  Mg30  1  0.209209  0.643699  0.394934  1
  Mg  Mg31  1  0.709209  0.356301  0.105066  1
  Mg  Mg32  1  0.713843  0.897550  0.314149  1
  Mg  Mg33  1  0.213843  0.102450  0.185851  1
  Mg  Mg34  1  0.286157  0.102450  0.685851  1
  Mg  Mg35  1  0.786157  0.897550  0.814149  1
