# generated using pymatgen
data_Mn(AlS2)2
_symmetry_space_group_name_H-M   'P 1'
_cell_length_a   3.66649326
_cell_length_b   3.66649326
_cell_length_c   12.47060361
_cell_angle_alpha   81.54657048
_cell_angle_beta   81.54657048
_cell_angle_gamma   60.00000653
_symmetry_Int_Tables_number   1
_chemical_formula_structural   Mn(AlS2)2
_chemical_formula_sum   'Mn1 Al2 S4'
_cell_volume   143.07741650
_cell_formula_units_Z   1
loop_
 _symmetry_equiv_pos_site_id
 _symmetry_equiv_pos_as_xyz
  1  'x, y, z'
loop_
 _atom_site_type_symbol
 _atom_site_label
 _atom_site_symmetry_multiplicity
 _atom_site_fract_x
 _atom_site_fract_y
 _atom_site_fract_z
 _atom_site_occupancy
  Mn  Mn0  1  0.937550  0.937550  0.187350  1
  Al  Al1  1  0.703567  0.703567  0.889300  1
  Al  Al2  1  0.468490  0.468490  0.594531  1
  S  S3  1  0.004954  0.004954  0.985138  1
  S  S4  1  0.826517  0.826517  0.520449  1
  S  S5  1  0.578530  0.578530  0.264411  1
  S  S6  1  0.407593  0.407593  0.777221  1
