# generated using pymatgen
data_ErAgTe2
_symmetry_space_group_name_H-M   'P 1'
_cell_length_a   4.70479134
_cell_length_b   7.08493682
_cell_length_c   7.08493682
_cell_angle_alpha   90.00000000
_cell_angle_beta   90.00000000
_cell_angle_gamma   90.00000000
_symmetry_Int_Tables_number   1
_chemical_formula_structural   ErAgTe2
_chemical_formula_sum   'Er2 Ag2 Te4'
_cell_volume   236.16325748
_cell_formula_units_Z   2
loop_
 _symmetry_equiv_pos_site_id
 _symmetry_equiv_pos_as_xyz
  1  'x, y, z'
loop_
 _atom_site_type_symbol
 _atom_site_label
 _atom_site_symmetry_multiplicity
 _atom_site_fract_x
 _atom_site_fract_y
 _atom_site_fract_z
 _atom_site_occupancy
  Ag  Ag0  1  0.000000  0.000000  0.000000  1
  Ag  Ag1  1  0.000000  0.500000  0.500000  1
  Te  Te2  1  0.291008  0.201495  0.701495  1
  Te  Te3  1  0.708992  0.701495  0.798505  1
  Te  Te4  1  0.291008  0.798505  0.298505  1
  Te  Te5  1  0.708992  0.298505  0.201495  1
  Er  Er6  1  0.192079  0.500000  0.000000  1
  Er  Er7  1  0.807921  0.000000  0.500000  1
