# generated using pymatgen
data_Si(Hg2Se3)2
_symmetry_space_group_name_H-M   'P 1'
_cell_length_a   7.63242705
_cell_length_b   7.63242705
_cell_length_c   13.12523956
_cell_angle_alpha   90.40459907
_cell_angle_beta   106.43963903
_cell_angle_gamma   120.07821730
_symmetry_Int_Tables_number   1
_chemical_formula_structural   Si(Hg2Se3)2
_chemical_formula_sum   'Si2 Hg8 Se12'
_cell_volume   624.29325191
_cell_formula_units_Z   2
loop_
 _symmetry_equiv_pos_site_id
 _symmetry_equiv_pos_as_xyz
  1  'x, y, z'
loop_
 _atom_site_type_symbol
 _atom_site_label
 _atom_site_symmetry_multiplicity
 _atom_site_fract_x
 _atom_site_fract_y
 _atom_site_fract_z
 _atom_site_occupancy
  Si  Si0  1  0.462917  0.677711  0.602967  1
  Si  Si1  1  0.425257  0.140051  0.102967  1
  Se  Se2  1  0.201321  0.542791  0.232033  1
  Se  Se3  1  0.189242  0.030711  0.732033  1
  Se  Se4  1  0.581871  0.992090  0.553249  1
  Se  Se5  1  0.061159  0.971378  0.053249  1
  Se  Se6  1  0.573524  0.970353  0.054617  1
  Se  Se7  1  0.584264  0.481093  0.554617  1
  Se  Se8  1  0.535713  0.707805  0.786619  1
  Se  Se9  1  0.578813  0.250905  0.286619  1
  Se  Se10  1  0.943583  0.423327  0.852204  1
  Se  Se11  1  0.928877  0.908622  0.352204  1
  Se  Se12  1  0.094300  0.479215  0.523435  1
  Se  Se13  1  0.544220  0.429135  0.023435  1
  Hg  Hg14  1  0.017160  0.275110  0.691002  1
  Hg  Hg15  1  0.915892  0.673842  0.191002  1
  Hg  Hg16  1  0.947590  0.795670  0.845211  1
  Hg  Hg17  1  0.549541  0.897620  0.345211  1
  Hg  Hg18  1  0.268956  0.547311  0.041540  1
  Hg  Hg19  1  0.994229  0.772583  0.541540  1
  Hg  Hg20  1  0.586970  0.081623  0.857624  1
  Hg  Hg21  1  0.276001  0.270654  0.357624  1
