# generated using pymatgen
data_Ba3Ho4O9
_symmetry_space_group_name_H-M   'P 1'
_cell_length_a   9.21345494
_cell_length_b   9.21345493
_cell_length_c   9.21345494
_cell_angle_alpha   38.83506969
_cell_angle_beta   38.83506970
_cell_angle_gamma   38.83506964
_symmetry_Int_Tables_number   1
_chemical_formula_structural   Ba3Ho4O9
_chemical_formula_sum   'Ba3 Ho4 O9'
_cell_volume   276.49810161
_cell_formula_units_Z   1
loop_
 _symmetry_equiv_pos_site_id
 _symmetry_equiv_pos_as_xyz
  1  'x, y, z'
loop_
 _atom_site_type_symbol
 _atom_site_label
 _atom_site_symmetry_multiplicity
 _atom_site_fract_x
 _atom_site_fract_y
 _atom_site_fract_z
 _atom_site_occupancy
  O  O0  1  0.455464  0.582155  0.041563  1
  O  O1  1  0.582155  0.041563  0.455464  1
  O  O2  1  0.041563  0.455464  0.582155  1
  O  O3  1  0.593562  0.695577  0.126693  1
  O  O4  1  0.695577  0.126693  0.593562  1
  O  O5  1  0.126693  0.593562  0.695577  1
  O  O6  1  0.022327  0.579789  0.142179  1
  O  O7  1  0.142179  0.022327  0.579789  1
  O  O8  1  0.579789  0.142179  0.022327  1
  Ba  Ba9  1  0.998393  0.998393  0.998393  1
  Ba  Ba10  1  0.164007  0.164007  0.164007  1
  Ba  Ba11  1  0.576112  0.576112  0.576112  1
  Ho  Ho12  1  0.424957  0.424957  0.424957  1
  Ho  Ho13  1  0.863487  0.863487  0.863487  1
  Ho  Ho14  1  0.737751  0.737751  0.737751  1
  Ho  Ho15  1  0.299886  0.299886  0.299886  1
