# generated using pymatgen
data_Dy5Si3B
_symmetry_space_group_name_H-M   'P 1'
_cell_length_a   8.55250946
_cell_length_b   8.55250946
_cell_length_c   6.33655144
_cell_angle_alpha   90.00000000
_cell_angle_beta   90.00000000
_cell_angle_gamma   119.99999999
_symmetry_Int_Tables_number   1
_chemical_formula_structural   Dy5Si3B
_chemical_formula_sum   'Dy10 Si6 B2'
_cell_volume   401.39385828
_cell_formula_units_Z   2
loop_
 _symmetry_equiv_pos_site_id
 _symmetry_equiv_pos_as_xyz
  1  'x, y, z'
loop_
 _atom_site_type_symbol
 _atom_site_label
 _atom_site_symmetry_multiplicity
 _atom_site_fract_x
 _atom_site_fract_y
 _atom_site_fract_z
 _atom_site_occupancy
  B  B0  1  0.000000  0.000000  0.500000  1
  B  B1  1  0.000000  0.000000  0.000000  1
  Si  Si2  1  0.398985  0.000000  0.750000  1
  Si  Si3  1  0.398985  0.398985  0.250000  1
  Si  Si4  1  0.000000  0.601015  0.250000  1
  Si  Si5  1  0.000000  0.398985  0.750000  1
  Si  Si6  1  0.601015  0.601015  0.750000  1
  Si  Si7  1  0.601015  0.000000  0.250000  1
  Dy  Dy8  1  0.760198  0.760198  0.250000  1
  Dy  Dy9  1  0.760198  0.000000  0.750000  1
  Dy  Dy10  1  0.000000  0.239802  0.250000  1
  Dy  Dy11  1  0.000000  0.760198  0.750000  1
  Dy  Dy12  1  0.239802  0.239802  0.750000  1
  Dy  Dy13  1  0.239802  0.000000  0.250000  1
  Dy  Dy14  1  0.666667  0.333333  0.000000  1
  Dy  Dy15  1  0.333333  0.666667  0.500000  1
  Dy  Dy16  1  0.333333  0.666667  0.000000  1
  Dy  Dy17  1  0.666667  0.333333  0.500000  1
