# generated using pymatgen
data_Te3MoWS
_symmetry_space_group_name_H-M   'P 1'
_cell_length_a   3.45797875
_cell_length_b   3.45798005
_cell_length_c   39.31681923
_cell_angle_alpha   89.99990611
_cell_angle_beta   90.00000000
_cell_angle_gamma   119.99998745
_symmetry_Int_Tables_number   1
_chemical_formula_structural   Te3MoWS
_chemical_formula_sum   'Te6 Mo2 W2 S2'
_cell_volume   407.14946285
_cell_formula_units_Z   2
loop_
 _symmetry_equiv_pos_site_id
 _symmetry_equiv_pos_as_xyz
  1  'x, y, z'
loop_
 _atom_site_type_symbol
 _atom_site_label
 _atom_site_symmetry_multiplicity
 _atom_site_fract_x
 _atom_site_fract_y
 _atom_site_fract_z
 _atom_site_occupancy
  Te  Te0  1  0.333356  0.666713  0.328707  1
  Te  Te1  1  0.333355  0.666711  0.704789  1
  Te  Te2  1  0.666649  0.333298  0.422413  1
  Te  Te3  1  0.666631  0.333260  0.516873  1
  Te  Te4  1  0.333357  0.666715  0.234765  1
  Te  Te5  1  0.333353  0.666707  0.610320  1
  Mo  Mo6  1  0.333312  0.666624  0.093962  1
  Mo  Mo7  1  0.666689  0.333378  0.281755  1
  W  W8  1  0.333315  0.666631  0.469672  1
  W  W9  1  0.666688  0.333376  0.657584  1
  S  S10  1  0.666647  0.333293  0.056056  1
  S  S11  1  0.666648  0.333295  0.131852  1
