# generated using pymatgen
data_Te6MoW3Se2
_symmetry_space_group_name_H-M   'P 1'
_cell_length_a   3.49799849
_cell_length_b   3.49799362
_cell_length_c   39.67631991
_cell_angle_alpha   89.99999300
_cell_angle_beta   90.00000000
_cell_angle_gamma   120.00004591
_symmetry_Int_Tables_number   1
_chemical_formula_structural   Te6MoW3Se2
_chemical_formula_sum   'Te6 Mo1 W3 Se2'
_cell_volume   420.43653228
_cell_formula_units_Z   1
loop_
 _symmetry_equiv_pos_site_id
 _symmetry_equiv_pos_as_xyz
  1  'x, y, z'
loop_
 _atom_site_type_symbol
 _atom_site_label
 _atom_site_symmetry_multiplicity
 _atom_site_fract_x
 _atom_site_fract_y
 _atom_site_fract_z
 _atom_site_occupancy
  Te  Te0  1  0.333356  0.666713  0.328239  1
  Te  Te1  1  0.666639  0.333278  0.047752  1
  Te  Te2  1  0.666649  0.333297  0.423224  1
  Te  Te3  1  0.666650  0.333299  0.140094  1
  Te  Te4  1  0.666638  0.333275  0.516120  1
  Te  Te5  1  0.333355  0.666711  0.235343  1
  Mo  Mo6  1  0.333310  0.666619  0.093903  1
  W  W7  1  0.333309  0.666619  0.469685  1
  W  W8  1  0.666692  0.333384  0.281798  1
  W  W9  1  0.666690  0.333380  0.657543  1
  Se  Se10  1  0.333356  0.666712  0.698433  1
  Se  Se11  1  0.333355  0.666712  0.616614  1
