# generated using pymatgen
data_Ce(PO3)4
_symmetry_space_group_name_H-M   'P 1'
_cell_length_a   9.13782300
_cell_length_b   14.00086018
_cell_length_c   16.64961662
_cell_angle_alpha   65.13662254
_cell_angle_beta   90.03728803
_cell_angle_gamma   90.08868846
_symmetry_Int_Tables_number   1
_chemical_formula_structural   Ce(PO3)4
_chemical_formula_sum   'Ce8 P32 O96'
_cell_volume   1932.67258464
_cell_formula_units_Z   8
loop_
 _symmetry_equiv_pos_site_id
 _symmetry_equiv_pos_as_xyz
  1  'x, y, z'
loop_
 _atom_site_type_symbol
 _atom_site_label
 _atom_site_symmetry_multiplicity
 _atom_site_fract_x
 _atom_site_fract_y
 _atom_site_fract_z
 _atom_site_occupancy
  Ce  Ce0  1  0.250000  0.069459  0.861081  1
  Ce  Ce1  1  0.750000  0.930541  0.138919  1
  Ce  Ce2  1  0.250365  0.579092  0.361387  1
  Ce  Ce3  1  0.249635  0.059521  0.361387  1
  Ce  Ce4  1  0.749635  0.420908  0.638613  1
  Ce  Ce5  1  0.750365  0.940479  0.638613  1
  Ce  Ce6  1  0.250000  0.568151  0.863698  1
  Ce  Ce7  1  0.750000  0.431849  0.136302  1
  P  P8  1  0.011942  0.635067  0.518031  1
  P  P9  1  0.488058  0.846902  0.518031  1
  P  P10  1  0.988058  0.364933  0.481969  1
  P  P11  1  0.511942  0.153098  0.481969  1
  P  P12  1  0.027449  0.134335  0.517571  1
  P  P13  1  0.472551  0.348094  0.517571  1
  P  P14  1  0.972551  0.865665  0.482429  1
  P  P15  1  0.527449  0.651906  0.482429  1
  P  P16  1  0.017050  0.849567  0.013275  1
  P  P17  1  0.482950  0.137157  0.013275  1
  P  P18  1  0.982950  0.150433  0.986725  1
  P  P19  1  0.517050  0.862843  0.986725  1
  P  P20  1  0.022126  0.344443  0.022530  1
  P  P21  1  0.477874  0.633027  0.022530  1
  P  P22  1  0.977874  0.655557  0.977470  1
  P  P23  1  0.522126  0.366973  0.977470  1
  P  P24  1  0.639865  0.669671  0.313853  1
  P  P25  1  0.860135  0.016476  0.313853  1
  P  P26  1  0.360135  0.330329  0.686147  1
  P  P27  1  0.139865  0.983524  0.686147  1
  P  P28  1  0.633449  0.170743  0.313716  1
  P  P29  1  0.866551  0.515541  0.313716  1
  P  P30  1  0.366551  0.829257  0.686284  1
  P  P31  1  0.133449  0.484459  0.686284  1
  P  P32  1  0.361880  0.483511  0.189968  1
  P  P33  1  0.138120  0.326521  0.189968  1
  P  P34  1  0.638120  0.516489  0.810032  1
  P  P35  1  0.861880  0.673479  0.810032  1
  P  P36  1  0.365151  0.984972  0.181575  1
  P  P37  1  0.134849  0.833453  0.181575  1
  P  P38  1  0.634849  0.015028  0.818425  1
  P  P39  1  0.865151  0.166547  0.818425  1
  O  O40  1  0.048352  0.258405  0.481237  1
  O  O41  1  0.451648  0.260358  0.481237  1
  O  O42  1  0.951648  0.741595  0.518763  1
  O  O43  1  0.548352  0.739642  0.518763  1
  O  O44  1  0.244109  0.919801  0.648043  1
  O  O45  1  0.255891  0.432157  0.648043  1
  O  O46  1  0.755891  0.080199  0.351957  1
  O  O47  1  0.744109  0.567843  0.351957  1
  O  O48  1  0.250000  0.928509  0.142981  1
  O  O49  1  0.750000  0.071491  0.857019  1
  O  O50  1  0.250000  0.424598  0.150804  1
  O  O51  1  0.750000  0.575402  0.849196  1
  O  O52  1  0.632681  0.402896  0.894175  1
  O  O53  1  0.867319  0.702929  0.894175  1
  O  O54  1  0.367319  0.597104  0.105825  1
  O  O55  1  0.132681  0.297071  0.105825  1
  O  O56  1  0.624738  0.902530  0.901905  1
  O  O57  1  0.875262  0.195565  0.901905  1
  O  O58  1  0.375262  0.097470  0.098095  1
  O  O59  1  0.124738  0.804435  0.098095  1
  O  O60  1  0.878163  0.402673  0.398119  1
  O  O61  1  0.621837  0.199208  0.398119  1
  O  O62  1  0.121837  0.597327  0.601881  1
  O  O63  1  0.378163  0.800792  0.601881  1
  O  O64  1  0.862372  0.904093  0.398924  1
  O  O65  1  0.637628  0.696983  0.398924  1
  O  O66  1  0.137628  0.095907  0.601076  1
  O  O67  1  0.362372  0.303017  0.601076  1
  O  O68  1  0.956579  0.740728  0.016790  1
  O  O69  1  0.543421  0.242481  0.016790  1
  O  O70  1  0.043421  0.259272  0.983209  1
  O  O71  1  0.456579  0.757519  0.983209  1
  O  O72  1  0.882622  0.561413  0.540183  1
  O  O73  1  0.617378  0.898405  0.540183  1
  O  O74  1  0.117378  0.438587  0.459817  1
  O  O75  1  0.382622  0.101595  0.459817  1
  O  O76  1  0.909187  0.344296  0.566125  1
  O  O77  1  0.590813  0.089579  0.566125  1
  O  O78  1  0.090813  0.655704  0.433875  1
  O  O79  1  0.409187  0.910421  0.433875  1
  O  O80  1  0.875002  0.099241  0.550608  1
  O  O81  1  0.624998  0.350151  0.550608  1
  O  O82  1  0.124998  0.900759  0.449392  1
  O  O83  1  0.375002  0.649849  0.449392  1
  O  O84  1  0.083933  0.105984  0.445868  1
  O  O85  1  0.416067  0.448148  0.445868  1
  O  O86  1  0.916067  0.894016  0.554132  1
  O  O87  1  0.583933  0.551852  0.554132  1
  O  O88  1  0.610781  0.062395  0.033870  1
  O  O89  1  0.889219  0.903735  0.033870  1
  O  O90  1  0.389219  0.937605  0.966130  1
  O  O91  1  0.110781  0.096265  0.966130  1
  O  O92  1  0.398879  0.159571  0.930355  1
  O  O93  1  0.101121  0.910073  0.930355  1
  O  O94  1  0.601121  0.840429  0.069645  1
  O  O95  1  0.898879  0.089927  0.069645  1
  O  O96  1  0.631520  0.600115  0.054348  1
  O  O97  1  0.868480  0.345537  0.054348  1
  O  O98  1  0.368480  0.399885  0.945652  1
  O  O99  1  0.131520  0.654463  0.945652  1
  O  O100  1  0.419395  0.600476  0.953148  1
  O  O101  1  0.080605  0.446376  0.953148  1
  O  O102  1  0.580605  0.399524  0.046852  1
  O  O103  1  0.919395  0.553624  0.046852  1
  O  O104  1  0.490557  0.639865  0.294977  1
  O  O105  1  0.009443  0.065158  0.294977  1
  O  O106  1  0.509443  0.360135  0.705023  1
  O  O107  1  0.990557  0.934842  0.705023  1
  O  O108  1  0.779746  0.999262  0.242017  1
  O  O109  1  0.720254  0.758721  0.242017  1
  O  O110  1  0.220254  0.000738  0.757983  1
  O  O111  1  0.279746  0.241279  0.757983  1
  O  O112  1  0.491613  0.128568  0.297350  1
  O  O113  1  0.008387  0.574082  0.297350  1
  O  O114  1  0.508387  0.871432  0.702650  1
  O  O115  1  0.991613  0.425918  0.702650  1
  O  O116  1  0.798694  0.497944  0.238478  1
  O  O117  1  0.701306  0.263577  0.238478  1
  O  O118  1  0.201306  0.502056  0.761522  1
  O  O119  1  0.298694  0.736423  0.761522  1
  O  O120  1  0.009324  0.637311  0.794716  1
  O  O121  1  0.490676  0.567973  0.794716  1
  O  O122  1  0.990676  0.362689  0.205284  1
  O  O123  1  0.509324  0.432027  0.205284  1
  O  O124  1  0.711907  0.501154  0.735472  1
  O  O125  1  0.788093  0.763374  0.735472  1
  O  O126  1  0.288093  0.498846  0.264528  1
  O  O127  1  0.211907  0.236626  0.264528  1
  O  O128  1  0.009743  0.129735  0.799685  1
  O  O129  1  0.490257  0.070580  0.799685  1
  O  O130  1  0.990257  0.870265  0.200315  1
  O  O131  1  0.509743  0.929420  0.200315  1
  O  O132  1  0.709334  0.997222  0.745446  1
  O  O133  1  0.790666  0.257332  0.745446  1
  O  O134  1  0.290666  0.002778  0.254554  1
  O  O135  1  0.209334  0.742668  0.254554  1
