# generated using pymatgen
data_Ho5Ni19P12
_symmetry_space_group_name_H-M   'P 1'
_cell_length_a   12.05114143
_cell_length_b   12.05114143
_cell_length_c   3.72990277
_cell_angle_alpha   90.00000000
_cell_angle_beta   90.00000000
_cell_angle_gamma   120.00000003
_symmetry_Int_Tables_number   1
_chemical_formula_structural   Ho5Ni19P12
_chemical_formula_sum   'Ho5 Ni19 P12'
_cell_volume   469.12060535
_cell_formula_units_Z   1
loop_
 _symmetry_equiv_pos_site_id
 _symmetry_equiv_pos_as_xyz
  1  'x, y, z'
loop_
 _atom_site_type_symbol
 _atom_site_label
 _atom_site_symmetry_multiplicity
 _atom_site_fract_x
 _atom_site_fract_y
 _atom_site_fract_z
 _atom_site_occupancy
  P  P0  1  0.687329  0.520593  0.500000  1
  P  P1  1  0.479407  0.166736  0.500000  1
  P  P2  1  0.833264  0.312671  0.500000  1
  P  P3  1  0.312671  0.833264  0.500000  1
  P  P4  1  0.166736  0.479407  0.500000  1
  P  P5  1  0.821848  0.821848  0.000000  1
  P  P6  1  0.178152  0.000000  0.000000  1
  P  P7  1  0.000000  0.632623  0.000000  1
  P  P8  1  0.367377  0.367377  0.000000  1
  P  P9  1  0.632623  0.000000  0.000000  1
  P  P10  1  0.520593  0.687329  0.500000  1
  P  P11  1  0.000000  0.178152  0.000000  1
  Ni  Ni12  1  0.000000  0.284574  0.500000  1
  Ni  Ni13  1  0.379986  0.182595  0.000000  1
  Ni  Ni14  1  0.802608  0.620014  0.000000  1
  Ni  Ni15  1  0.817405  0.197392  0.000000  1
  Ni  Ni16  1  0.182595  0.379986  0.000000  1
  Ni  Ni17  1  0.197392  0.817405  0.000000  1
  Ni  Ni18  1  0.874822  0.514663  0.500000  1
  Ni  Ni19  1  0.639841  0.125178  0.500000  1
  Ni  Ni20  1  0.485337  0.360159  0.500000  1
  Ni  Ni21  1  0.360159  0.485337  0.500000  1
  Ni  Ni22  1  0.125178  0.639841  0.500000  1
  Ni  Ni23  1  0.514663  0.874822  0.500000  1
  Ni  Ni24  1  0.284574  0.000000  0.500000  1
  Ni  Ni25  1  0.000000  0.447007  0.000000  1
  Ni  Ni26  1  0.552993  0.552993  0.000000  1
  Ni  Ni27  1  0.447007  0.000000  0.000000  1
  Ni  Ni28  1  0.000000  0.000000  0.000000  1
  Ni  Ni29  1  0.620014  0.802608  0.000000  1
  Ni  Ni30  1  0.715426  0.715426  0.500000  1
  Ho  Ho31  1  0.000000  0.812210  0.500000  1
  Ho  Ho32  1  0.187790  0.187790  0.500000  1
  Ho  Ho33  1  0.812210  0.000000  0.500000  1
  Ho  Ho34  1  0.666667  0.333333  0.000000  1
  Ho  Ho35  1  0.333333  0.666667  0.000000  1
