# generated using pymatgen
data_Sr2YbNbO6
_symmetry_space_group_name_H-M   'P 1'
_cell_length_a   5.85021291
_cell_length_b   6.01788688
_cell_length_c   8.33439874
_cell_angle_alpha   90.00000000
_cell_angle_beta   89.75412189
_cell_angle_gamma   90.00000000
_symmetry_Int_Tables_number   1
_chemical_formula_structural   Sr2YbNbO6
_chemical_formula_sum   'Sr4 Yb2 Nb2 O12'
_cell_volume   293.41746927
_cell_formula_units_Z   2
loop_
 _symmetry_equiv_pos_site_id
 _symmetry_equiv_pos_as_xyz
  1  'x, y, z'
loop_
 _atom_site_type_symbol
 _atom_site_label
 _atom_site_symmetry_multiplicity
 _atom_site_fract_x
 _atom_site_fract_y
 _atom_site_fract_z
 _atom_site_occupancy
  O  O0  1  0.907343  0.465699  0.233404  1
  O  O1  1  0.592656  0.965699  0.266597  1
  O  O2  1  0.092656  0.534301  0.766596  1
  O  O3  1  0.407343  0.034302  0.733403  1
  O  O4  1  0.776555  0.192891  0.543764  1
  O  O5  1  0.723445  0.692891  0.956236  1
  O  O6  1  0.223445  0.807108  0.456236  1
  O  O7  1  0.276554  0.307108  0.043765  1
  O  O8  1  0.190040  0.772904  0.054029  1
  O  O9  1  0.309961  0.272904  0.445970  1
  O  O10  1  0.690039  0.727096  0.554029  1
  O  O11  1  0.809961  0.227095  0.945971  1
  Sr  Sr12  1  0.013728  0.047806  0.253357  1
  Sr  Sr13  1  0.486273  0.547806  0.246642  1
  Sr  Sr14  1  0.986273  0.952194  0.746643  1
  Sr  Sr15  1  0.513727  0.452195  0.753358  1
  Nb  Nb16  1  0.500001  0.000000  0.500001  1
  Nb  Nb17  1  0.000000  0.499999  0.000000  1
  Yb  Yb18  1  0.999999  0.499999  0.499999  1
  Yb  Yb19  1  0.500000  0.000000  1.000000  1
