# generated using pymatgen
data_Cs4Si3O8
_symmetry_space_group_name_H-M   'P 1'
_cell_length_a   9.49535565
_cell_length_b   11.28766570
_cell_length_c   13.70061564
_cell_angle_alpha   101.32912104
_cell_angle_beta   100.90197918
_cell_angle_gamma   114.10934519
_symmetry_Int_Tables_number   1
_chemical_formula_structural   Cs4Si3O8
_chemical_formula_sum   'Cs16 Si12 O32'
_cell_volume   1253.28487771
_cell_formula_units_Z   4
loop_
 _symmetry_equiv_pos_site_id
 _symmetry_equiv_pos_as_xyz
  1  'x, y, z'
loop_
 _atom_site_type_symbol
 _atom_site_label
 _atom_site_symmetry_multiplicity
 _atom_site_fract_x
 _atom_site_fract_y
 _atom_site_fract_z
 _atom_site_occupancy
  Cs  Cs0  1  0.604433  0.268952  0.748854  1
  Cs  Cs1  1  0.395567  0.731048  0.251146  1
  Cs  Cs2  1  0.958959  0.728596  0.243662  1
  Cs  Cs3  1  0.041041  0.271404  0.756338  1
  Cs  Cs4  1  0.383297  0.900918  0.829338  1
  Cs  Cs5  1  0.616703  0.099082  0.170662  1
  Cs  Cs6  1  0.931954  0.900893  0.827013  1
  Cs  Cs7  1  0.068046  0.099107  0.172987  1
  Cs  Cs8  1  0.608501  0.924201  0.591705  1
  Cs  Cs9  1  0.391499  0.075799  0.408295  1
  Cs  Cs10  1  0.376157  0.260855  0.992465  1
  Cs  Cs11  1  0.623843  0.739145  0.007535  1
  Cs  Cs12  1  0.927155  0.545192  0.642641  1
  Cs  Cs13  1  0.072845  0.454808  0.357359  1
  Cs  Cs14  1  0.433756  0.557816  0.658228  1
  Cs  Cs15  1  0.566244  0.442184  0.341772  1
  Si  Si16  1  0.818039  0.951182  0.357547  1
  Si  Si17  1  0.181961  0.048818  0.642453  1
  Si  Si18  1  0.190850  0.789822  0.521922  1
  Si  Si19  1  0.809150  0.210178  0.478078  1
  Si  Si20  1  0.864014  0.794782  0.515987  1
  Si  Si21  1  0.135986  0.205218  0.484013  1
  Si  Si22  1  0.195598  0.597981  0.934306  1
  Si  Si23  1  0.804402  0.402019  0.065694  1
  Si  Si24  1  0.807147  0.140630  0.942852  1
  Si  Si25  1  0.192853  0.859370  0.057148  1
  Si  Si26  1  0.872149  0.598056  0.927246  1
  Si  Si27  1  0.127851  0.401944  0.072754  1
  O  O28  1  0.981840  0.949491  0.603207  1
  O  O29  1  0.018160  0.050509  0.396793  1
  O  O30  1  0.780614  0.822016  0.408777  1
  O  O31  1  0.219386  0.177984  0.591223  1
  O  O32  1  0.748548  0.892524  0.233560  1
  O  O33  1  0.251452  0.107476  0.766440  1
  O  O34  1  0.264089  0.958467  0.589028  1
  O  O35  1  0.735911  0.041533  0.410972  1
  O  O36  1  0.750672  0.218164  0.581123  1
  O  O37  1  0.249328  0.781836  0.418877  1
  O  O38  1  0.239273  0.713048  0.599331  1
  O  O39  1  0.760727  0.286952  0.400669  1
  O  O40  1  0.985828  0.731848  0.484986  1
  O  O41  1  0.014172  0.268152  0.515014  1
  O  O42  1  0.729409  0.698480  0.558069  1
  O  O43  1  0.270591  0.301520  0.441931  1
  O  O44  1  0.995199  0.539461  0.889242  1
  O  O45  1  0.004801  0.460539  0.110758  1
  O  O46  1  0.774923  0.499047  0.993781  1
  O  O47  1  0.225077  0.500953  0.006219  1
  O  O48  1  0.275695  0.592896  0.842492  1
  O  O49  1  0.724305  0.407104  0.157508  1
  O  O50  1  0.727852  0.246351  0.982904  1
  O  O51  1  0.272148  0.753649  0.017096  1
  O  O52  1  0.750202  0.088115  0.817085  1
  O  O53  1  0.249798  0.911885  0.182915  1
  O  O54  1  0.765460  0.024247  0.000050  1
  O  O55  1  0.234540  0.975753  0.999950  1
  O  O56  1  0.988762  0.752411  0.012964  1
  O  O57  1  0.011238  0.247589  0.987036  1
  O  O58  1  0.746932  0.596230  0.830543  1
  O  O59  1  0.253068  0.403770  0.169457  1
