# generated using pymatgen
data_Yb15C19
_symmetry_space_group_name_H-M   'P 1'
_cell_length_a   8.22618889
_cell_length_b   8.22618889
_cell_length_c   15.77713439
_cell_angle_alpha   90.00000000
_cell_angle_beta   90.00000000
_cell_angle_gamma   90.00000000
_symmetry_Int_Tables_number   1
_chemical_formula_structural   Yb15C19
_chemical_formula_sum   'Yb30 C38'
_cell_volume   1067.64158170
_cell_formula_units_Z   2
loop_
 _symmetry_equiv_pos_site_id
 _symmetry_equiv_pos_as_xyz
  1  'x, y, z'
loop_
 _atom_site_type_symbol
 _atom_site_label
 _atom_site_symmetry_multiplicity
 _atom_site_fract_x
 _atom_site_fract_y
 _atom_site_fract_z
 _atom_site_occupancy
  C  C0  1  0.500000  0.500000  0.000000  1
  C  C1  1  0.000000  0.000000  0.500000  1
  C  C2  1  0.500000  0.500000  0.660072  1
  C  C3  1  0.500000  0.500000  0.339928  1
  C  C4  1  0.000000  0.000000  0.839928  1
  C  C5  1  0.000000  0.000000  0.160072  1
  C  C6  1  0.907691  0.298453  0.676733  1
  C  C7  1  0.092309  0.701547  0.676733  1
  C  C8  1  0.201547  0.592309  0.176733  1
  C  C9  1  0.701547  0.907691  0.323267  1
  C  C10  1  0.298453  0.092309  0.323267  1
  C  C11  1  0.592309  0.798453  0.823267  1
  C  C12  1  0.407691  0.201547  0.823267  1
  C  C13  1  0.798453  0.407691  0.176733  1
  C  C14  1  0.649770  0.851180  0.749198  1
  C  C15  1  0.350230  0.148820  0.749198  1
  C  C16  1  0.598429  0.201758  0.499620  1
  C  C17  1  0.648820  0.850230  0.249198  1
  C  C18  1  0.851180  0.350230  0.250802  1
  C  C19  1  0.850230  0.351180  0.750802  1
  C  C20  1  0.149770  0.648820  0.750802  1
  C  C21  1  0.351180  0.149770  0.249198  1
  C  C22  1  0.701243  0.908657  0.674915  1
  C  C23  1  0.298757  0.091343  0.674915  1
  C  C24  1  0.591343  0.798757  0.174915  1
  C  C25  1  0.091343  0.701243  0.325085  1
  C  C26  1  0.908657  0.298757  0.325085  1
  C  C27  1  0.798757  0.408657  0.825085  1
  C  C28  1  0.201243  0.591343  0.825085  1
  C  C29  1  0.408657  0.201243  0.174915  1
  C  C30  1  0.701758  0.098429  0.999620  1
  C  C31  1  0.098429  0.298242  0.000380  1
  C  C32  1  0.901571  0.701758  0.000380  1
  C  C33  1  0.201758  0.401571  0.500380  1
  C  C34  1  0.798242  0.598429  0.500380  1
  C  C35  1  0.298242  0.901571  0.999620  1
  C  C36  1  0.401571  0.798242  0.499620  1
  C  C37  1  0.148820  0.649770  0.250802  1
  Yb  Yb38  1  0.500000  0.500000  0.500000  1
  Yb  Yb39  1  0.000000  0.000000  0.000000  1
  Yb  Yb40  1  0.000000  0.000000  0.332108  1
  Yb  Yb41  1  0.000000  0.000000  0.667892  1
  Yb  Yb42  1  0.500000  0.500000  0.167892  1
  Yb  Yb43  1  0.500000  0.500000  0.832108  1
  Yb  Yb44  1  0.601832  0.208494  0.656654  1
  Yb  Yb45  1  0.398168  0.791506  0.656654  1
  Yb  Yb46  1  0.291506  0.898168  0.156654  1
  Yb  Yb47  1  0.791506  0.601832  0.343346  1
  Yb  Yb48  1  0.208494  0.398168  0.343346  1
  Yb  Yb49  1  0.898168  0.708494  0.843346  1
  Yb  Yb50  1  0.101832  0.291506  0.843346  1
  Yb  Yb51  1  0.708494  0.101832  0.156654  1
  Yb  Yb52  1  0.791847  0.602151  0.657307  1
  Yb  Yb53  1  0.208153  0.397849  0.657307  1
  Yb  Yb54  1  0.897849  0.708153  0.157307  1
  Yb  Yb55  1  0.397849  0.791847  0.342693  1
  Yb  Yb56  1  0.602151  0.208153  0.342693  1
  Yb  Yb57  1  0.708153  0.102151  0.842693  1
  Yb  Yb58  1  0.291847  0.897849  0.842693  1
  Yb  Yb59  1  0.102151  0.291847  0.157307  1
  Yb  Yb60  1  0.701378  0.905399  0.499932  1
  Yb  Yb61  1  0.298622  0.094601  0.499932  1
  Yb  Yb62  1  0.594601  0.798622  0.999932  1
  Yb  Yb63  1  0.094601  0.701378  0.500068  1
  Yb  Yb64  1  0.905399  0.298622  0.500068  1
  Yb  Yb65  1  0.798622  0.405399  0.000068  1
  Yb  Yb66  1  0.201378  0.594601  0.000068  1
  Yb  Yb67  1  0.405399  0.201378  0.999932  1
