# generated using pymatgen
data_MoWSe3S
_symmetry_space_group_name_H-M   'P 1'
_cell_length_a   3.28676287
_cell_length_b   3.28670887
_cell_length_c   37.36497836
_cell_angle_alpha   89.99996372
_cell_angle_beta   90.00000000
_cell_angle_gamma   120.00054340
_symmetry_Int_Tables_number   1
_chemical_formula_structural   MoWSe3S
_chemical_formula_sum   'Mo2 W2 Se6 S2'
_cell_volume   349.56069784
_cell_formula_units_Z   2
loop_
 _symmetry_equiv_pos_site_id
 _symmetry_equiv_pos_as_xyz
  1  'x, y, z'
loop_
 _atom_site_type_symbol
 _atom_site_label
 _atom_site_symmetry_multiplicity
 _atom_site_fract_x
 _atom_site_fract_y
 _atom_site_fract_z
 _atom_site_occupancy
  Mo  Mo0  1  0.333312  0.666623  0.093908  1
  Mo  Mo1  1  0.333310  0.666621  0.469652  1
  W  W2  1  0.666686  0.333372  0.281788  1
  W  W3  1  0.666690  0.333381  0.657537  1
  Se  Se4  1  0.333347  0.666694  0.327209  1
  Se  Se5  1  0.666644  0.333287  0.048785  1
  Se  Se6  1  0.666649  0.333296  0.424545  1
  Se  Se7  1  0.666653  0.333305  0.139048  1
  Se  Se8  1  0.666642  0.333283  0.514804  1
  Se  Se9  1  0.333352  0.666704  0.236396  1
  S  S10  1  0.333357  0.666716  0.698792  1
  S  S11  1  0.333358  0.666718  0.616284  1
