# generated using pymatgen
data_KCd6P7O24
_symmetry_space_group_name_H-M   'P 1'
_cell_length_a   5.59139680
_cell_length_b   6.88437689
_cell_length_c   27.64271484
_cell_angle_alpha   90.00000000
_cell_angle_beta   90.00000000
_cell_angle_gamma   107.16405376
_symmetry_Int_Tables_number   1
_chemical_formula_structural   KCd6P7O24
_chemical_formula_sum   'K2 Cd12 P14 O48'
_cell_volume   1016.66959397
_cell_formula_units_Z   2
loop_
 _symmetry_equiv_pos_site_id
 _symmetry_equiv_pos_as_xyz
  1  'x, y, z'
loop_
 _atom_site_type_symbol
 _atom_site_label
 _atom_site_symmetry_multiplicity
 _atom_site_fract_x
 _atom_site_fract_y
 _atom_site_fract_z
 _atom_site_occupancy
  O  O0  1  0.861289  0.638042  0.020922  1
  O  O1  1  0.138711  0.361958  0.520922  1
  O  O2  1  0.138711  0.361958  0.979078  1
  O  O3  1  0.861289  0.638042  0.479078  1
  O  O4  1  0.589981  0.824309  0.976733  1
  O  O5  1  0.410019  0.175691  0.476733  1
  O  O6  1  0.410019  0.175691  0.023267  1
  O  O7  1  0.589981  0.824309  0.523267  1
  O  O8  1  0.862684  0.989374  0.048646  1
  O  O9  1  0.137316  0.010626  0.548646  1
  O  O10  1  0.137316  0.010626  0.951354  1
  O  O11  1  0.862684  0.989374  0.451354  1
  O  O12  1  0.464797  0.693080  0.057893  1
  O  O13  1  0.535203  0.306920  0.557893  1
  O  O14  1  0.151599  0.396624  0.095419  1
  O  O15  1  0.464797  0.693080  0.442107  1
  O  O16  1  0.802152  0.220893  0.750000  1
  O  O17  1  0.197848  0.779107  0.250000  1
  O  O18  1  0.344385  0.230868  0.750000  1
  O  O19  1  0.535203  0.306920  0.942107  1
  O  O20  1  0.481098  0.955556  0.704335  1
  O  O21  1  0.518902  0.044444  0.204335  1
  O  O22  1  0.518902  0.044444  0.295665  1
  O  O23  1  0.481098  0.955556  0.795665  1
  O  O24  1  0.514011  0.597856  0.147102  1
  O  O25  1  0.485989  0.402144  0.647102  1
  O  O26  1  0.485989  0.402144  0.852898  1
  O  O27  1  0.514011  0.597856  0.352898  1
  O  O28  1  0.057104  0.949720  0.667408  1
  O  O29  1  0.942896  0.050280  0.167408  1
  O  O30  1  0.942896  0.050280  0.332592  1
  O  O31  1  0.057104  0.949720  0.832592  1
  O  O32  1  0.376786  0.810045  0.622118  1
  O  O33  1  0.623214  0.189955  0.122118  1
  O  O34  1  0.623214  0.189955  0.377882  1
  O  O35  1  0.376786  0.810045  0.877882  1
  O  O36  1  0.132886  0.623346  0.696103  1
  O  O37  1  0.867114  0.376654  0.196103  1
  O  O38  1  0.867114  0.376654  0.303897  1
  O  O39  1  0.132886  0.623346  0.803897  1
  O  O40  1  0.173689  0.754814  0.120684  1
  O  O41  1  0.826311  0.245186  0.620684  1
  O  O42  1  0.826311  0.245186  0.879316  1
  O  O43  1  0.173689  0.754814  0.379316  1
  O  O44  1  0.151599  0.396624  0.404581  1
  O  O45  1  0.848401  0.603376  0.904581  1
  O  O46  1  0.848401  0.603376  0.595419  1
  O  O47  1  0.655615  0.769132  0.250000  1
  P  P48  1  0.327973  0.607805  0.108462  1
  P  P49  1  0.672027  0.392195  0.608462  1
  P  P50  1  0.672027  0.392195  0.891538  1
  P  P51  1  0.327973  0.607805  0.391538  1
  P  P52  1  0.243267  0.823273  0.830344  1
  P  P53  1  0.756733  0.176727  0.330344  1
  P  P54  1  0.756733  0.176727  0.169656  1
  P  P55  1  0.243267  0.823273  0.669656  1
  P  P56  1  0.474700  0.896833  0.250000  1
  P  P57  1  0.525300  0.103167  0.750000  1
  P  P58  1  0.708922  0.790252  0.025104  1
  P  P59  1  0.291078  0.209748  0.974896  1
  P  P60  1  0.708922  0.790252  0.474896  1
  P  P61  1  0.291078  0.209748  0.525104  1
  K  K62  1  0.718533  0.633254  0.750000  1
  K  K63  1  0.281467  0.366746  0.250000  1
  Cd  Cd64  1  0.890976  0.705777  0.317551  1
  Cd  Cd65  1  0.818852  0.312293  0.456791  1
  Cd  Cd66  1  0.818852  0.312293  0.043209  1
  Cd  Cd67  1  0.181148  0.687707  0.543209  1
  Cd  Cd68  1  0.109024  0.294223  0.817551  1
  Cd  Cd69  1  0.181148  0.687707  0.956791  1
  Cd  Cd70  1  0.890976  0.705777  0.182449  1
  Cd  Cd71  1  0.109024  0.294223  0.682449  1
  Cd  Cd72  1  0.784261  0.919692  0.901475  1
  Cd  Cd73  1  0.215739  0.080308  0.401475  1
  Cd  Cd74  1  0.215739  0.080308  0.098525  1
  Cd  Cd75  1  0.784261  0.919692  0.598525  1
