# generated using pymatgen
data_SrMgB2O5
_symmetry_space_group_name_H-M   'P 1'
_cell_length_a   6.60742348
_cell_length_b   5.37648928
_cell_length_c   12.13988108
_cell_angle_alpha   90.00000000
_cell_angle_beta   102.62965283
_cell_angle_gamma   90.00000000
_symmetry_Int_Tables_number   1
_chemical_formula_structural   SrMgB2O5
_chemical_formula_sum   'Sr4 Mg4 B8 O20'
_cell_volume   420.83110654
_cell_formula_units_Z   4
loop_
 _symmetry_equiv_pos_site_id
 _symmetry_equiv_pos_as_xyz
  1  'x, y, z'
loop_
 _atom_site_type_symbol
 _atom_site_label
 _atom_site_symmetry_multiplicity
 _atom_site_fract_x
 _atom_site_fract_y
 _atom_site_fract_z
 _atom_site_occupancy
  Sr  Sr0  1  0.183534  0.390419  0.689869  1
  Sr  Sr1  1  0.816466  0.890419  0.810131  1
  Sr  Sr2  1  0.816466  0.609581  0.310131  1
  Sr  Sr3  1  0.183534  0.109581  0.189869  1
  Mg  Mg4  1  0.653340  0.414509  0.605833  1
  Mg  Mg5  1  0.346660  0.914509  0.894167  1
  Mg  Mg6  1  0.346660  0.585491  0.394167  1
  Mg  Mg7  1  0.653340  0.085491  0.105833  1
  B  B8  1  0.644334  0.366694  0.882955  1
  B  B9  1  0.355666  0.866694  0.617045  1
  B  B10  1  0.355666  0.633306  0.117045  1
  B  B11  1  0.644334  0.133306  0.382955  1
  B  B12  1  0.816095  0.909325  0.567722  1
  B  B13  1  0.183905  0.409325  0.932278  1
  B  B14  1  0.183905  0.090675  0.432278  1
  B  B15  1  0.816095  0.590675  0.067722  1
  O  O16  1  0.398322  0.649439  0.566606  1
  O  O17  1  0.601678  0.149439  0.933394  1
  O  O18  1  0.601678  0.350561  0.433394  1
  O  O19  1  0.398322  0.850561  0.066606  1
  O  O20  1  0.623072  0.397353  0.770154  1
  O  O21  1  0.376928  0.897353  0.729846  1
  O  O22  1  0.376928  0.602647  0.229846  1
  O  O23  1  0.623072  0.102647  0.270154  1
  O  O24  1  0.847073  0.121507  0.630953  1
  O  O25  1  0.152927  0.621507  0.869047  1
  O  O26  1  0.152927  0.878493  0.369047  1
  O  O27  1  0.847073  0.378493  0.130953  1
  O  O28  1  0.282656  0.081197  0.549060  1
  O  O29  1  0.717344  0.581197  0.950940  1
  O  O30  1  0.717344  0.918803  0.450940  1
  O  O31  1  0.282656  0.418803  0.049060  1
  O  O32  1  0.870217  0.681069  0.615407  1
  O  O33  1  0.129783  0.181069  0.884593  1
  O  O34  1  0.129783  0.318931  0.384593  1
  O  O35  1  0.870217  0.818931  0.115407  1
