# generated using pymatgen
data_PrMn7O12
_symmetry_space_group_name_H-M   'P 1'
_cell_length_a   6.56534700
_cell_length_b   6.56534701
_cell_length_c   6.56520690
_cell_angle_alpha   109.46975866
_cell_angle_beta   109.47352859
_cell_angle_gamma   109.47123930
_symmetry_Int_Tables_number   1
_chemical_formula_structural   PrMn7O12
_chemical_formula_sum   'Pr1 Mn7 O12'
_cell_volume   217.83981638
_cell_formula_units_Z   1
loop_
 _symmetry_equiv_pos_site_id
 _symmetry_equiv_pos_as_xyz
  1  'x, y, z'
loop_
 _atom_site_type_symbol
 _atom_site_label
 _atom_site_symmetry_multiplicity
 _atom_site_fract_x
 _atom_site_fract_y
 _atom_site_fract_z
 _atom_site_occupancy
  O  O0  1  0.174952  0.867967  0.693088  1
  O  O1  1  0.174879  0.481864  0.306912  1
  O  O2  1  0.825048  0.132033  0.306912  1
  O  O3  1  0.825121  0.518136  0.693088  1
  O  O4  1  0.306963  0.825083  0.132045  1
  O  O5  1  0.693037  0.174917  0.867955  1
  O  O6  1  0.306940  0.174905  0.481845  1
  O  O7  1  0.693060  0.825095  0.518155  1
  O  O8  1  0.867959  0.693040  0.174930  1
  O  O9  1  0.518110  0.693029  0.825070  1
  O  O10  1  0.132041  0.306960  0.825070  1
  O  O11  1  0.481890  0.306971  0.174930  1
  Mn  Mn12  1  0.500000  0.000000  0.000000  1
  Mn  Mn13  1  0.000000  0.500000  0.000000  1
  Mn  Mn14  1  0.000000  0.000000  0.500000  1
  Mn  Mn15  1  0.500000  0.500000  0.500000  1
  Mn  Mn16  1  0.500000  0.500000  0.000000  1
  Mn  Mn17  1  0.000000  0.500000  0.500000  1
  Mn  Mn18  1  0.500000  0.000000  0.500000  1
  Pr  Pr19  1  0.000000  0.000000  0.000000  1
