# generated using pymatgen
data_CaCrP2O7
_symmetry_space_group_name_H-M   'P 1'
_cell_length_a   6.32629601
_cell_length_b   6.55391349
_cell_length_c   7.14720529
_cell_angle_alpha   82.73207451
_cell_angle_beta   88.19637300
_cell_angle_gamma   68.24461370
_symmetry_Int_Tables_number   1
_chemical_formula_structural   CaCrP2O7
_chemical_formula_sum   'Ca2 Cr2 P4 O14'
_cell_volume   272.98109999
_cell_formula_units_Z   2
loop_
 _symmetry_equiv_pos_site_id
 _symmetry_equiv_pos_as_xyz
  1  'x, y, z'
loop_
 _atom_site_type_symbol
 _atom_site_label
 _atom_site_symmetry_multiplicity
 _atom_site_fract_x
 _atom_site_fract_y
 _atom_site_fract_z
 _atom_site_occupancy
  Ca  Ca0  1  0.716606  0.265934  0.381545  1
  Ca  Ca1  1  0.283394  0.734066  0.618455  1
  Cr  Cr2  1  0.730824  0.884559  0.836455  1
  Cr  Cr3  1  0.269176  0.115441  0.163545  1
  P  P4  1  0.237491  0.222629  0.627873  1
  P  P5  1  0.762509  0.777371  0.372127  1
  P  P6  1  0.167445  0.650581  0.117879  1
  P  P7  1  0.832555  0.349419  0.882121  1
  O  O8  1  0.392631  0.011922  0.751554  1
  O  O9  1  0.881771  0.853673  0.517502  1
  O  O10  1  0.074439  0.747295  0.915545  1
  O  O11  1  0.251359  0.801798  0.213855  1
  O  O12  1  0.665163  0.589206  0.869813  1
  O  O13  1  0.925561  0.252705  0.084455  1
  O  O14  1  0.607369  0.988078  0.248446  1
  O  O15  1  0.118229  0.146327  0.482498  1
  O  O16  1  0.334837  0.410794  0.130187  1
  O  O17  1  0.642125  0.625393  0.455012  1
  O  O18  1  0.051065  0.369430  0.763219  1
  O  O19  1  0.948935  0.630570  0.236781  1
  O  O20  1  0.748641  0.198202  0.786145  1
  O  O21  1  0.357875  0.374607  0.544988  1
