# generated using pymatgen
data_MoW3(Se3S)2
_symmetry_space_group_name_H-M   'P 1'
_cell_length_a   3.28663834
_cell_length_b   3.28661519
_cell_length_c   37.39701026
_cell_angle_alpha   89.99984609
_cell_angle_beta   90.00000000
_cell_angle_gamma   120.00023304
_symmetry_Int_Tables_number   1
_chemical_formula_structural   MoW3(Se3S)2
_chemical_formula_sum   'Mo1 W3 Se6 S2'
_cell_volume   349.83823252
_cell_formula_units_Z   1
loop_
 _symmetry_equiv_pos_site_id
 _symmetry_equiv_pos_as_xyz
  1  'x, y, z'
loop_
 _atom_site_type_symbol
 _atom_site_label
 _atom_site_symmetry_multiplicity
 _atom_site_fract_x
 _atom_site_fract_y
 _atom_site_fract_z
 _atom_site_occupancy
  Mo  Mo0  1  0.333309  0.666618  0.093911  1
  W  W1  1  0.333311  0.666622  0.469670  1
  W  W2  1  0.666690  0.333379  0.281801  1
  W  W3  1  0.666689  0.333379  0.657537  1
  Se  Se4  1  0.333359  0.666718  0.327146  1
  Se  Se5  1  0.666642  0.333283  0.048828  1
  Se  Se6  1  0.666645  0.333289  0.424313  1
  Se  Se7  1  0.666648  0.333294  0.139002  1
  Se  Se8  1  0.666643  0.333286  0.515020  1
  Se  Se9  1  0.333352  0.666705  0.236449  1
  S  S10  1  0.333355  0.666712  0.698744  1
  S  S11  1  0.333357  0.666714  0.616328  1
