# generated using pymatgen
data_Cs2LiAsO4
_symmetry_space_group_name_H-M   'P 1'
_cell_length_a   6.06785451
_cell_length_b   6.97818186
_cell_length_c   8.32893207
_cell_angle_alpha   90.00000000
_cell_angle_beta   90.00000000
_cell_angle_gamma   115.77087044
_symmetry_Int_Tables_number   1
_chemical_formula_structural   Cs2LiAsO4
_chemical_formula_sum   'Cs4 Li2 As2 O8'
_cell_volume   317.59213338
_cell_formula_units_Z   2
loop_
 _symmetry_equiv_pos_site_id
 _symmetry_equiv_pos_as_xyz
  1  'x, y, z'
loop_
 _atom_site_type_symbol
 _atom_site_label
 _atom_site_symmetry_multiplicity
 _atom_site_fract_x
 _atom_site_fract_y
 _atom_site_fract_z
 _atom_site_occupancy
  Li  Li0  1  0.793017  0.586034  0.769290  1
  Li  Li1  1  0.206983  0.413966  0.269290  1
  O  O2  1  0.426388  0.318617  0.159064  1
  O  O3  1  0.573612  0.681383  0.659064  1
  O  O4  1  0.638193  0.276387  0.865575  1
  O  O5  1  0.361807  0.723613  0.365575  1
  O  O6  1  0.892229  0.318617  0.159064  1
  O  O7  1  0.107771  0.681383  0.659064  1
  O  O8  1  0.167466  0.334932  0.512795  1
  O  O9  1  0.832534  0.665068  0.012795  1
  As  As10  1  0.696864  0.393729  0.054350  1
  As  As11  1  0.303136  0.606271  0.554350  1
  Cs  Cs12  1  0.067793  0.135586  0.852851  1
  Cs  Cs13  1  0.932207  0.864414  0.352851  1
  Cs  Cs14  1  0.605211  0.210423  0.495512  1
  Cs  Cs15  1  0.394789  0.789577  0.995512  1
