# generated using pymatgen
data_Sr3Mn2O7
_symmetry_space_group_name_H-M   'P 1'
_cell_length_a   3.88005246
_cell_length_b   3.88005246
_cell_length_c   10.50390506
_cell_angle_alpha   100.64339234
_cell_angle_beta   100.64339235
_cell_angle_gamma   90.00000005
_symmetry_Int_Tables_number   1
_chemical_formula_structural   Sr3Mn2O7
_chemical_formula_sum   'Sr3 Mn2 O7'
_cell_volume   152.64462152
_cell_formula_units_Z   1
loop_
 _symmetry_equiv_pos_site_id
 _symmetry_equiv_pos_as_xyz
  1  'x, y, z'
loop_
 _atom_site_type_symbol
 _atom_site_label
 _atom_site_symmetry_multiplicity
 _atom_site_fract_x
 _atom_site_fract_y
 _atom_site_fract_z
 _atom_site_occupancy
  O  O0  1  0.904230  0.404231  0.808462  1
  O  O1  1  0.404231  0.904231  0.808462  1
  O  O2  1  0.095770  0.595769  0.191538  1
  O  O3  1  0.595769  0.095769  0.191538  1
  O  O4  1  0.807380  0.807382  0.614762  1
  O  O5  1  0.000000  0.000000  0.000000  1
  O  O6  1  0.192618  0.192618  0.385238  1
  Mn  Mn7  1  0.097309  0.097309  0.194617  1
  Mn  Mn8  1  0.902691  0.902691  0.805383  1
  Sr  Sr9  1  0.499999  0.500000  1.000000  1
  Sr  Sr10  1  0.317031  0.317033  0.634064  1
  Sr  Sr11  1  0.682969  0.682967  0.365935  1
