# generated using pymatgen
data_TaNiTe2
_symmetry_space_group_name_H-M   'P 1'
_cell_length_a   6.28990883
_cell_length_b   7.35374713
_cell_length_c   7.99338512
_cell_angle_alpha   90.00000000
_cell_angle_beta   90.00000000
_cell_angle_gamma   90.00000000
_symmetry_Int_Tables_number   1
_chemical_formula_structural   TaNiTe2
_chemical_formula_sum   'Ta4 Ni4 Te8'
_cell_volume   369.72922475
_cell_formula_units_Z   4
loop_
 _symmetry_equiv_pos_site_id
 _symmetry_equiv_pos_as_xyz
  1  'x, y, z'
loop_
 _atom_site_type_symbol
 _atom_site_label
 _atom_site_symmetry_multiplicity
 _atom_site_fract_x
 _atom_site_fract_y
 _atom_site_fract_z
 _atom_site_occupancy
  Ta  Ta0  1  0.000000  0.500000  0.294854  1
  Ta  Ta1  1  0.500000  0.500000  0.205146  1
  Ta  Ta2  1  0.500000  0.500000  0.794854  1
  Ta  Ta3  1  0.000000  0.500000  0.705146  1
  Ni  Ni4  1  0.645050  0.619210  0.500000  1
  Ni  Ni5  1  0.354950  0.380790  0.500000  1
  Ni  Ni6  1  0.145050  0.380790  0.000000  1
  Ni  Ni7  1  0.854950  0.619210  0.000000  1
  Te  Te8  1  0.750000  0.820514  0.250000  1
  Te  Te9  1  0.250058  0.725029  0.000000  1
  Te  Te10  1  0.250000  0.179486  0.750000  1
  Te  Te11  1  0.250000  0.179486  0.250000  1
  Te  Te12  1  0.749942  0.274971  0.000000  1
  Te  Te13  1  0.750058  0.274971  0.500000  1
  Te  Te14  1  0.750000  0.820514  0.750000  1
  Te  Te15  1  0.249942  0.725029  0.500000  1
