# generated using pymatgen
data_Ce(FeB)4
_symmetry_space_group_name_H-M   'P 1'
_cell_length_a   7.00782808
_cell_length_b   7.00782808
_cell_length_c   3.81675625
_cell_angle_alpha   90.00000000
_cell_angle_beta   90.00000000
_cell_angle_gamma   90.00000000
_symmetry_Int_Tables_number   1
_chemical_formula_structural   Ce(FeB)4
_chemical_formula_sum   'Ce2 Fe8 B8'
_cell_volume   187.43958036
_cell_formula_units_Z   2
loop_
 _symmetry_equiv_pos_site_id
 _symmetry_equiv_pos_as_xyz
  1  'x, y, z'
loop_
 _atom_site_type_symbol
 _atom_site_label
 _atom_site_symmetry_multiplicity
 _atom_site_fract_x
 _atom_site_fract_y
 _atom_site_fract_z
 _atom_site_occupancy
  Ce  Ce0  1  0.250000  0.250000  0.250000  1
  Ce  Ce1  1  0.750000  0.750000  0.750000  1
  Fe  Fe2  1  0.635239  0.118696  0.354426  1
  Fe  Fe3  1  0.864762  0.381304  0.354426  1
  Fe  Fe4  1  0.881304  0.135238  0.854426  1
  Fe  Fe5  1  0.618696  0.364762  0.854426  1
  Fe  Fe6  1  0.364762  0.881304  0.645572  1
  Fe  Fe7  1  0.135238  0.618696  0.645572  1
  Fe  Fe8  1  0.118696  0.864762  0.145571  1
  Fe  Fe9  1  0.381304  0.635237  0.145571  1
  B  B10  1  0.046843  0.585226  0.145553  1
  B  B11  1  0.453157  0.914773  0.145553  1
  B  B12  1  0.414774  0.546843  0.645553  1
  B  B13  1  0.085226  0.953157  0.645553  1
  B  B14  1  0.953157  0.414774  0.854448  1
  B  B15  1  0.546843  0.085226  0.854448  1
  B  B16  1  0.585226  0.453157  0.354447  1
  B  B17  1  0.914773  0.046843  0.354447  1
