# generated using pymatgen
data_HoCuS2
_symmetry_space_group_name_H-M   'P 1'
_cell_length_a   3.94496534
_cell_length_b   6.24253449
_cell_length_c   13.39075483
_cell_angle_alpha   90.00000000
_cell_angle_beta   90.00000000
_cell_angle_gamma   90.00000000
_symmetry_Int_Tables_number   1
_chemical_formula_structural   HoCuS2
_chemical_formula_sum   'Ho4 Cu4 S8'
_cell_volume   329.76852450
_cell_formula_units_Z   4
loop_
 _symmetry_equiv_pos_site_id
 _symmetry_equiv_pos_as_xyz
  1  'x, y, z'
loop_
 _atom_site_type_symbol
 _atom_site_label
 _atom_site_symmetry_multiplicity
 _atom_site_fract_x
 _atom_site_fract_y
 _atom_site_fract_z
 _atom_site_occupancy
  S  S0  1  0.250000  0.260841  0.795109  1
  S  S1  1  0.750000  0.739159  0.204891  1
  S  S2  1  0.750000  0.760841  0.704891  1
  S  S3  1  0.250000  0.239159  0.295109  1
  S  S4  1  0.250000  0.746520  0.960090  1
  S  S5  1  0.250000  0.753480  0.460091  1
  S  S6  1  0.750000  0.246520  0.539910  1
  S  S7  1  0.750000  0.253480  0.039910  1
  Cu  Cu8  1  0.250000  0.127088  0.955160  1
  Cu  Cu9  1  0.750000  0.627088  0.544840  1
  Cu  Cu10  1  0.750000  0.872912  0.044840  1
  Cu  Cu11  1  0.250000  0.372912  0.455160  1
  Ho  Ho12  1  0.250000  0.500701  0.133321  1
  Ho  Ho13  1  0.750000  0.499299  0.866679  1
  Ho  Ho14  1  0.750000  0.000701  0.366679  1
  Ho  Ho15  1  0.250000  0.999299  0.633321  1
