# generated using pymatgen
data_Na2Al2(SiO4)3
_symmetry_space_group_name_H-M   'P 1'
_cell_length_a   13.12502431
_cell_length_b   9.94589193
_cell_length_c   9.79889383
_cell_angle_alpha   83.39940921
_cell_angle_beta   48.70021248
_cell_angle_gamma   47.89797125
_symmetry_Int_Tables_number   1
_chemical_formula_structural   Na2Al2(SiO4)3
_chemical_formula_sum   'Na4 Al4 Si6 O24'
_cell_volume   576.90796525
_cell_formula_units_Z   2
loop_
 _symmetry_equiv_pos_site_id
 _symmetry_equiv_pos_as_xyz
  1  'x, y, z'
loop_
 _atom_site_type_symbol
 _atom_site_label
 _atom_site_symmetry_multiplicity
 _atom_site_fract_x
 _atom_site_fract_y
 _atom_site_fract_z
 _atom_site_occupancy
  Na  Na0  1  0.814503  0.623083  0.124351  1
  Na  Na1  1  0.443062  0.117334  0.619172  1
  Na  Na2  1  0.132766  0.803244  0.429320  1
  Na  Na3  1  0.633603  0.430926  0.807068  1
  Al  Al4  1  0.575988  0.734742  0.998116  1
  Al  Al5  1  0.693080  0.995250  0.732734  1
  Al  Al6  1  0.251687  0.558900  0.675298  1
  Al  Al7  1  0.514386  0.673424  0.560571  1
  Si  Si8  1  0.249378  0.250899  0.251324  1
  Si  Si9  1  0.996698  0.003748  0.002628  1
  Si  Si10  1  0.567810  0.508530  0.238517  1
  Si  Si11  1  0.686109  0.236597  0.508160  1
  Si  Si12  1  0.012737  0.562865  0.681788  1
  Si  Si13  1  0.743307  0.679043  0.563280  1
  O  O14  1  0.341223  0.023511  0.204091  1
  O  O15  1  0.432890  0.204360  0.023413  1
  O  O16  1  0.045858  0.818918  0.910873  1
  O  O17  1  0.224444  0.913515  0.819215  1
  O  O18  1  0.522347  0.610380  0.115737  1
  O  O19  1  0.758313  0.108155  0.603948  1
  O  O20  1  0.134737  0.498256  0.727328  1
  O  O21  1  0.644084  0.722059  0.493950  1
  O  O22  1  0.811583  0.616151  0.886585  1
  O  O23  1  0.686323  0.883408  0.616438  1
  O  O24  1  0.362122  0.567475  0.441570  1
  O  O25  1  0.628961  0.439883  0.568682  1
  O  O26  1  0.577744  0.617160  0.335088  1
  O  O27  1  0.471048  0.331954  0.617298  1
  O  O28  1  0.917393  0.776827  0.670324  1
  O  O29  1  0.630681  0.672326  0.780406  1
  O  O30  1  0.808702  0.234762  0.051262  1
  O  O31  1  0.904385  0.052334  0.234309  1
  O  O32  1  0.199948  0.343606  0.439470  1
  O  O33  1  0.017360  0.436693  0.344787  1
  O  O34  1  0.004835  0.116388  0.604998  1
  O  O35  1  0.280449  0.597822  0.112932  1
  O  O36  1  0.646555  0.980028  0.243406  1
  O  O37  1  0.129920  0.244658  0.977695  1
