# generated using pymatgen
data_CeNiSn2
_symmetry_space_group_name_H-M   'P 1'
_cell_length_a   4.43878603
_cell_length_b   4.54737149
_cell_length_c   9.32205343
_cell_angle_alpha   90.00000000
_cell_angle_beta   103.77323882
_cell_angle_gamma   90.00000000
_symmetry_Int_Tables_number   1
_chemical_formula_structural   CeNiSn2
_chemical_formula_sum   'Ce2 Ni2 Sn4'
_cell_volume   182.75332668
_cell_formula_units_Z   2
loop_
 _symmetry_equiv_pos_site_id
 _symmetry_equiv_pos_as_xyz
  1  'x, y, z'
loop_
 _atom_site_type_symbol
 _atom_site_label
 _atom_site_symmetry_multiplicity
 _atom_site_fract_x
 _atom_site_fract_y
 _atom_site_fract_z
 _atom_site_occupancy
  Ce  Ce0  1  0.609850  0.250000  0.219701  1
  Ce  Ce1  1  0.390150  0.750000  0.780299  1
  Ni  Ni2  1  0.818394  0.250000  0.636789  1
  Ni  Ni3  1  0.181606  0.750000  0.363211  1
  Sn  Sn4  1  0.953800  0.250000  0.907600  1
  Sn  Sn5  1  0.046200  0.750000  0.092400  1
  Sn  Sn6  1  0.249055  0.250000  0.498110  1
  Sn  Sn7  1  0.750945  0.750000  0.501890  1
