# generated using pymatgen
data_WO3
_symmetry_space_group_name_H-M   'P 1'
_cell_length_a   7.68856255
_cell_length_b   7.70989973
_cell_length_c   7.77023359
_cell_angle_alpha   90.00000000
_cell_angle_beta   90.06000299
_cell_angle_gamma   90.00000000
_symmetry_Int_Tables_number   1
_chemical_formula_structural   WO3
_chemical_formula_sum   'W8 O24'
_cell_volume   460.60401393
_cell_formula_units_Z   8
loop_
 _symmetry_equiv_pos_site_id
 _symmetry_equiv_pos_as_xyz
  1  'x, y, z'
loop_
 _atom_site_type_symbol
 _atom_site_label
 _atom_site_symmetry_multiplicity
 _atom_site_fract_x
 _atom_site_fract_y
 _atom_site_fract_z
 _atom_site_occupancy
  O  O0  1  0.001137  0.015722  0.242369  1
  O  O1  1  0.498863  0.515722  0.257631  1
  O  O2  1  0.998863  0.984278  0.757631  1
  O  O3  1  0.501137  0.484278  0.742369  1
  O  O4  1  0.998874  0.484061  0.242405  1
  O  O5  1  0.501126  0.984061  0.257595  1
  O  O6  1  0.001126  0.515939  0.757595  1
  O  O7  1  0.498874  0.015939  0.742405  1
  O  O8  1  0.266050  0.253029  0.255387  1
  O  O9  1  0.233950  0.753029  0.244613  1
  O  O10  1  0.733950  0.746971  0.744613  1
  O  O11  1  0.766050  0.246971  0.755387  1
  O  O12  1  0.233726  0.253061  0.746774  1
  O  O13  1  0.266274  0.753061  0.753226  1
  O  O14  1  0.766274  0.746939  0.253226  1
  O  O15  1  0.733726  0.246939  0.246774  1
  O  O16  1  0.257249  0.006844  0.003298  1
  O  O17  1  0.242751  0.506844  0.496702  1
  O  O18  1  0.742751  0.993156  0.996702  1
  O  O19  1  0.757249  0.493156  0.503298  1
  O  O20  1  0.257241  0.498149  0.996714  1
  O  O21  1  0.242759  0.998149  0.503286  1
  O  O22  1  0.742759  0.501851  0.003286  1
  O  O23  1  0.757241  0.001851  0.496714  1
  W  W24  1  0.255617  0.009914  0.265601  1
  W  W25  1  0.244383  0.509914  0.234399  1
  W  W26  1  0.744383  0.990086  0.734399  1
  W  W27  1  0.755617  0.490086  0.765601  1
  W  W28  1  0.244403  0.010201  0.765354  1
  W  W29  1  0.255597  0.510201  0.734646  1
  W  W30  1  0.755597  0.989799  0.234646  1
  W  W31  1  0.744403  0.489799  0.265354  1
