# generated using pymatgen
data_La4Co3O10
_symmetry_space_group_name_H-M   'P 1'
_cell_length_a   3.85380190
_cell_length_b   3.84035603
_cell_length_c   14.09388009
_cell_angle_alpha   97.83106696
_cell_angle_beta   97.85538704
_cell_angle_gamma   90.00175056
_symmetry_Int_Tables_number   1
_chemical_formula_structural   La4Co3O10
_chemical_formula_sum   'La4 Co3 O10'
_cell_volume   204.66765717
_cell_formula_units_Z   1
loop_
 _symmetry_equiv_pos_site_id
 _symmetry_equiv_pos_as_xyz
  1  'x, y, z'
loop_
 _atom_site_type_symbol
 _atom_site_label
 _atom_site_symmetry_multiplicity
 _atom_site_fract_x
 _atom_site_fract_y
 _atom_site_fract_z
 _atom_site_occupancy
  La  La0  1  0.697925  0.698004  0.395735  1
  La  La1  1  0.566799  0.566869  0.133815  1
  La  La2  1  0.433182  0.433236  0.866304  1
  La  La3  1  0.302145  0.301953  0.604293  1
  Co  Co4  1  0.859367  0.859306  0.718851  1
  Co  Co5  1  -0.000018  0.000011  0.000003  1
  Co  Co6  1  0.140656  0.140702  0.281173  1
  O  O7  1  0.859743  0.359732  0.719753  1
  O  O8  1  0.785147  0.785217  0.570443  1
  O  O9  1  0.640028  0.140121  0.279859  1
  O  O10  1  0.929524  0.929396  0.859247  1
  O  O11  1  0.214829  0.214803  0.429524  1
  O  O12  1  0.359971  0.859831  0.720110  1
  O  O13  1  0.070510  0.070592  0.140752  1
  O  O14  1  -0.000044  0.499994  -0.000028  1
  O  O15  1  0.499958  -0.000016  -0.000045  1
  O  O16  1  0.140280  0.640246  0.280212  1
