# generated using pymatgen
data_Te2Mo3W(SeS2)2
_symmetry_space_group_name_H-M   'P 1'
_cell_length_a   3.30540613
_cell_length_b   3.30553021
_cell_length_c   37.56760261
_cell_angle_alpha   90.00026685
_cell_angle_beta   90.00000000
_cell_angle_gamma   119.99875839
_symmetry_Int_Tables_number   1
_chemical_formula_structural   Te2Mo3W(SeS2)2
_chemical_formula_sum   'Te2 Mo3 W1 Se2 S4'
_cell_volume   355.48027319
_cell_formula_units_Z   1
loop_
 _symmetry_equiv_pos_site_id
 _symmetry_equiv_pos_as_xyz
  1  'x, y, z'
loop_
 _atom_site_type_symbol
 _atom_site_label
 _atom_site_symmetry_multiplicity
 _atom_site_fract_x
 _atom_site_fract_y
 _atom_site_fract_z
 _atom_site_occupancy
  Te  Te0  1  0.333354  0.666710  0.708386  1
  Te  Te1  1  0.333363  0.666726  0.606726  1
  Mo  Mo2  1  0.333310  0.666620  0.093907  1
  Mo  Mo3  1  0.666705  0.333409  0.281801  1
  Mo  Mo4  1  0.666691  0.333381  0.657561  1
  W  W5  1  0.333308  0.666616  0.469637  1
  Se  Se6  1  0.666641  0.333280  0.049272  1
  Se  Se7  1  0.666648  0.333295  0.138571  1
  S  S8  1  0.333346  0.666693  0.322480  1
  S  S9  1  0.666645  0.333289  0.428858  1
  S  S10  1  0.666646  0.333290  0.510437  1
  S  S11  1  0.333345  0.666691  0.241111  1
