# generated using pymatgen
data_CaC2(SN)2
_symmetry_space_group_name_H-M   'P 1'
_cell_length_a   6.00850047
_cell_length_b   6.00850047
_cell_length_c   7.80107291
_cell_angle_alpha   90.60828449
_cell_angle_beta   90.60828447
_cell_angle_gamma   64.17925237
_symmetry_Int_Tables_number   1
_chemical_formula_structural   CaC2(SN)2
_chemical_formula_sum   'Ca2 C4 S4 N4'
_cell_volume   253.49691697
_cell_formula_units_Z   2
loop_
 _symmetry_equiv_pos_site_id
 _symmetry_equiv_pos_as_xyz
  1  'x, y, z'
loop_
 _atom_site_type_symbol
 _atom_site_label
 _atom_site_symmetry_multiplicity
 _atom_site_fract_x
 _atom_site_fract_y
 _atom_site_fract_z
 _atom_site_occupancy
  C  C0  1  0.743208  0.022780  0.897721  1
  C  C1  1  0.022780  0.743208  0.397720  1
  C  C2  1  0.256792  0.977220  0.102279  1
  C  C3  1  0.977220  0.256792  0.602279  1
  N  N4  1  0.651166  0.230964  0.949449  1
  N  N5  1  0.230964  0.651166  0.449449  1
  N  N6  1  0.769036  0.348834  0.550551  1
  N  N7  1  0.348834  0.769036  0.050551  1
  S  S8  1  0.861294  0.741987  0.825475  1
  S  S9  1  0.258013  0.138706  0.674525  1
  S  S10  1  0.138706  0.258013  0.174525  1
  S  S11  1  0.741987  0.861294  0.325475  1
  Ca  Ca12  1  0.411789  0.588211  0.750000  1
  Ca  Ca13  1  0.588211  0.411789  0.250000  1
