# generated using pymatgen
data_NaYGeO4
_symmetry_space_group_name_H-M   'P 1'
_cell_length_a   5.33515937
_cell_length_b   6.52733203
_cell_length_c   11.53234477
_cell_angle_alpha   90.00000000
_cell_angle_beta   90.00000000
_cell_angle_gamma   90.00000000
_symmetry_Int_Tables_number   1
_chemical_formula_structural   NaYGeO4
_chemical_formula_sum   'Na4 Y4 Ge4 O16'
_cell_volume   401.60648718
_cell_formula_units_Z   4
loop_
 _symmetry_equiv_pos_site_id
 _symmetry_equiv_pos_as_xyz
  1  'x, y, z'
loop_
 _atom_site_type_symbol
 _atom_site_label
 _atom_site_symmetry_multiplicity
 _atom_site_fract_x
 _atom_site_fract_y
 _atom_site_fract_z
 _atom_site_occupancy
  O  O0  1  0.727704  0.495325  0.889466  1
  O  O1  1  0.272296  0.995325  0.110534  1
  O  O2  1  0.772296  0.495325  0.389466  1
  O  O3  1  0.227704  0.995325  0.610534  1
  O  O4  1  0.826014  0.995320  0.954828  1
  O  O5  1  0.173986  0.495320  0.045172  1
  O  O6  1  0.673986  0.995320  0.454828  1
  O  O7  1  0.326014  0.495320  0.545172  1
  O  O8  1  0.707291  0.788159  0.674047  1
  O  O9  1  0.292709  0.288159  0.325953  1
  O  O10  1  0.792709  0.788159  0.174047  1
  O  O11  1  0.207291  0.288159  0.825953  1
  O  O12  1  0.207247  0.702488  0.825943  1
  O  O13  1  0.792753  0.202488  0.174057  1
  O  O14  1  0.292753  0.702488  0.325943  1
  O  O15  1  0.707247  0.202488  0.674057  1
  Na  Na16  1  0.500121  0.745105  0.000159  1
  Na  Na17  1  0.499879  0.245105  0.999841  1
  Na  Na18  1  0.000121  0.245105  0.499841  1
  Na  Na19  1  0.999879  0.745105  0.500159  1
  Ge  Ge20  1  0.553958  0.995286  0.597356  1
  Ge  Ge21  1  0.946042  0.995286  0.097356  1
  Ge  Ge22  1  0.446042  0.495286  0.402644  1
  Ge  Ge23  1  0.053958  0.495286  0.902644  1
  Y  Y24  1  0.495721  0.495318  0.722304  1
  Y  Y25  1  0.504279  0.995318  0.277696  1
  Y  Y26  1  0.004279  0.495318  0.222304  1
  Y  Y27  1  0.995721  0.995318  0.777696  1
