# generated using pymatgen
data_CrN2
_symmetry_space_group_name_H-M   'P 1'
_cell_length_a   11.53065066
_cell_length_b   11.53065066
_cell_length_c   11.53065066
_cell_angle_alpha   60.00000000
_cell_angle_beta   60.00000000
_cell_angle_gamma   60.00000000
_symmetry_Int_Tables_number   1
_chemical_formula_structural   CrN2
_chemical_formula_sum   'Cr8 N16'
_cell_volume   1084.04284092
_cell_formula_units_Z   8
loop_
 _symmetry_equiv_pos_site_id
 _symmetry_equiv_pos_as_xyz
  1  'x, y, z'
loop_
 _atom_site_type_symbol
 _atom_site_label
 _atom_site_symmetry_multiplicity
 _atom_site_fract_x
 _atom_site_fract_y
 _atom_site_fract_z
 _atom_site_occupancy
  Cr  Cr0  1  0.435891  0.692327  0.435891  1
  Cr  Cr1  1  0.435891  0.435891  0.435891  1
  Cr  Cr2  1  0.435891  0.435891  0.692327  1
  Cr  Cr3  1  0.692327  0.435891  0.435891  1
  Cr  Cr4  1  0.314109  0.057673  0.314109  1
  Cr  Cr5  1  0.314109  0.314109  0.314109  1
  Cr  Cr6  1  0.314109  0.314109  0.057673  1
  Cr  Cr7  1  0.057673  0.314109  0.314109  1
  N  N8  1  0.378179  0.378179  0.621821  1
  N  N9  1  0.378179  0.621821  0.621821  1
  N  N10  1  0.378179  0.621821  0.378179  1
  N  N11  1  0.621821  0.378179  0.378179  1
  N  N12  1  0.621821  0.378179  0.621821  1
  N  N13  1  0.621821  0.621821  0.378179  1
  N  N14  1  0.371821  0.371821  0.128179  1
  N  N15  1  0.371821  0.128179  0.128179  1
  N  N16  1  0.371821  0.128179  0.371821  1
  N  N17  1  0.128179  0.371821  0.371821  1
  N  N18  1  0.128179  0.371821  0.128179  1
  N  N19  1  0.128179  0.128179  0.371821  1
  N  N20  1  0.375000  0.875000  0.375000  1
  N  N21  1  0.375000  0.375000  0.375000  1
  N  N22  1  0.375000  0.375000  0.875000  1
  N  N23  1  0.875000  0.375000  0.375000  1
