# generated using pymatgen
data_K2MoS4
_symmetry_space_group_name_H-M   'P 1'
_cell_length_a   6.98015953
_cell_length_b   9.58957978
_cell_length_c   12.42691868
_cell_angle_alpha   90.00000000
_cell_angle_beta   90.00000000
_cell_angle_gamma   90.00000000
_symmetry_Int_Tables_number   1
_chemical_formula_structural   K2MoS4
_chemical_formula_sum   'K8 Mo4 S16'
_cell_volume   831.81812917
_cell_formula_units_Z   4
loop_
 _symmetry_equiv_pos_site_id
 _symmetry_equiv_pos_as_xyz
  1  'x, y, z'
loop_
 _atom_site_type_symbol
 _atom_site_label
 _atom_site_symmetry_multiplicity
 _atom_site_fract_x
 _atom_site_fract_y
 _atom_site_fract_z
 _atom_site_occupancy
  S  S0  1  0.250000  0.278630  0.891125  1
  S  S1  1  0.750000  0.721370  0.108875  1
  S  S2  1  0.250000  0.778630  0.608875  1
  S  S3  1  0.750000  0.221370  0.391125  1
  S  S4  1  0.004070  0.653540  0.863835  1
  S  S5  1  0.504070  0.346460  0.136165  1
  S  S6  1  0.495930  0.153540  0.636165  1
  S  S7  1  0.995930  0.846460  0.363835  1
  S  S8  1  0.995930  0.346460  0.136165  1
  S  S9  1  0.495930  0.653540  0.863835  1
  S  S10  1  0.504070  0.846460  0.363835  1
  S  S11  1  0.004070  0.153540  0.636165  1
  S  S12  1  0.750000  0.478860  0.607168  1
  S  S13  1  0.250000  0.521140  0.392832  1
  S  S14  1  0.750000  0.978860  0.892832  1
  S  S15  1  0.250000  0.021140  0.107168  1
  K  K16  1  0.750000  0.544957  0.336451  1
  K  K17  1  0.250000  0.455043  0.663549  1
  K  K18  1  0.750000  0.044957  0.163549  1
  K  K19  1  0.250000  0.955043  0.836451  1
  K  K20  1  0.250000  0.654566  0.109461  1
  K  K21  1  0.750000  0.345434  0.890539  1
  K  K22  1  0.250000  0.154566  0.390539  1
  K  K23  1  0.750000  0.845434  0.609461  1
  Mo  Mo24  1  0.750000  0.254089  0.566816  1
  Mo  Mo25  1  0.250000  0.745911  0.433184  1
  Mo  Mo26  1  0.750000  0.754089  0.933184  1
  Mo  Mo27  1  0.250000  0.245911  0.066816  1
