# generated using pymatgen
data_MoW(SeS)2
_symmetry_space_group_name_H-M   'P 1'
_cell_length_a   3.25342127
_cell_length_b   3.25338032
_cell_length_c   36.88232865
_cell_angle_alpha   90.00059444
_cell_angle_beta   90.00000388
_cell_angle_gamma   120.00039460
_symmetry_Int_Tables_number   1
_chemical_formula_structural   MoW(SeS)2
_chemical_formula_sum   'Mo2 W2 Se4 S4'
_cell_volume   338.08225371
_cell_formula_units_Z   2
loop_
 _symmetry_equiv_pos_site_id
 _symmetry_equiv_pos_as_xyz
  1  'x, y, z'
loop_
 _atom_site_type_symbol
 _atom_site_label
 _atom_site_symmetry_multiplicity
 _atom_site_fract_x
 _atom_site_fract_y
 _atom_site_fract_z
 _atom_site_occupancy
  Mo  Mo0  1  0.333313  0.666625  0.093921  1
  Mo  Mo1  1  0.666691  0.333382  0.657540  1
  W  W2  1  0.333309  0.666618  0.469665  1
  W  W3  1  0.666688  0.333377  0.281801  1
  Se  Se4  1  0.333353  0.666707  0.328128  1
  Se  Se5  1  0.333364  0.666728  0.703583  1
  Se  Se6  1  0.333352  0.666704  0.235426  1
  Se  Se7  1  0.333351  0.666702  0.611515  1
  S  S8  1  0.666642  0.333284  0.052007  1
  S  S9  1  0.666645  0.333290  0.427670  1
  S  S10  1  0.666647  0.333293  0.135830  1
  S  S11  1  0.666646  0.333291  0.511661  1
