# generated using pymatgen
data_Rb3B(SO4)3
_symmetry_space_group_name_H-M   'P 1'
_cell_length_a   7.40094888
_cell_length_b   14.25686545
_cell_length_c   14.25686545
_cell_angle_alpha   63.75523250
_cell_angle_beta   74.95620058
_cell_angle_gamma   74.95620058
_symmetry_Int_Tables_number   1
_chemical_formula_structural   Rb3B(SO4)3
_chemical_formula_sum   'Rb12 B4 S12 O48'
_cell_volume   1284.65776014
_cell_formula_units_Z   4
loop_
 _symmetry_equiv_pos_site_id
 _symmetry_equiv_pos_as_xyz
  1  'x, y, z'
loop_
 _atom_site_type_symbol
 _atom_site_label
 _atom_site_symmetry_multiplicity
 _atom_site_fract_x
 _atom_site_fract_y
 _atom_site_fract_z
 _atom_site_occupancy
  Rb  Rb0  1  0.450799  0.293546  0.060722  1
  Rb  Rb1  1  0.305066  0.206454  0.439278  1
  Rb  Rb2  1  0.049201  0.939278  0.706454  1
  Rb  Rb3  1  0.194934  0.560722  0.793546  1
  Rb  Rb4  1  0.549201  0.706454  0.939278  1
  Rb  Rb5  1  0.694934  0.793546  0.560722  1
  Rb  Rb6  1  0.950799  0.060722  0.293546  1
  Rb  Rb7  1  0.805066  0.439278  0.206454  1
  Rb  Rb8  1  0.250000  0.556719  0.443281  1
  Rb  Rb9  1  0.750000  0.943281  0.056719  1
  Rb  Rb10  1  0.750000  0.443281  0.556719  1
  Rb  Rb11  1  0.250000  0.056719  0.943281  1
  B  B12  1  0.080834  0.669166  0.169166  1
  B  B13  1  0.419166  0.830834  0.330834  1
  B  B14  1  0.919166  0.330834  0.830834  1
  B  B15  1  0.580834  0.169166  0.669166  1
  S  S16  1  0.292340  0.468797  0.217559  1
  S  S17  1  0.478697  0.031203  0.282441  1
  S  S18  1  0.207660  0.782441  0.531203  1
  S  S19  1  0.021303  0.717559  0.968797  1
  S  S20  1  0.707660  0.531203  0.782441  1
  S  S21  1  0.521303  0.968797  0.717559  1
  S  S22  1  0.792340  0.217559  0.468797  1
  S  S23  1  0.978697  0.282441  0.031203  1
  S  S24  1  0.250000  0.811384  0.188616  1
  S  S25  1  0.750000  0.688616  0.311384  1
  S  S26  1  0.750000  0.188616  0.811384  1
  S  S27  1  0.250000  0.311384  0.688616  1
  O  O28  1  0.126435  0.719646  0.054596  1
  O  O29  1  0.400677  0.780354  0.445404  1
  O  O30  1  0.373565  0.945403  0.280354  1
  O  O31  1  0.099323  0.554597  0.219646  1
  O  O32  1  0.873565  0.280354  0.945403  1
  O  O33  1  0.599323  0.219646  0.554597  1
  O  O34  1  0.626435  0.054596  0.719646  1
  O  O35  1  0.900677  0.445404  0.780354  1
  O  O36  1  0.224856  0.381944  0.215621  1
  O  O37  1  0.322421  0.118056  0.284379  1
  O  O38  1  0.275144  0.784379  0.618056  1
  O  O39  1  0.177579  0.715621  0.881944  1
  O  O40  1  0.775144  0.618056  0.784379  1
  O  O41  1  0.677579  0.881944  0.715621  1
  O  O42  1  0.724856  0.215621  0.381944  1
  O  O43  1  0.822421  0.284379  0.118056  1
  O  O44  1  0.581402  0.164929  0.891162  1
  O  O45  1  0.137493  0.335071  0.608838  1
  O  O46  1  0.918598  0.108838  0.835071  1
  O  O47  1  0.362507  0.391162  0.664929  1
  O  O48  1  0.418598  0.835071  0.108838  1
  O  O49  1  0.862507  0.664929  0.391162  1
  O  O50  1  0.081402  0.891162  0.164929  1
  O  O51  1  0.637493  0.608838  0.335071  1
  O  O52  1  0.211391  0.700330  0.213351  1
  O  O53  1  0.625072  0.799670  0.286649  1
  O  O54  1  0.288609  0.786649  0.299670  1
  O  O55  1  0.874928  0.713351  0.200330  1
  O  O56  1  0.788609  0.299670  0.786649  1
  O  O57  1  0.374928  0.200330  0.713351  1
  O  O58  1  0.711391  0.213351  0.700330  1
  O  O59  1  0.125072  0.286649  0.799670  1
  O  O60  1  0.358885  0.438776  0.317226  1
  O  O61  1  0.614887  0.061224  0.182774  1
  O  O62  1  0.141115  0.682774  0.561224  1
  O  O63  1  0.885113  0.817226  0.938776  1
  O  O64  1  0.641115  0.561224  0.682774  1
  O  O65  1  0.385113  0.938776  0.817226  1
  O  O66  1  0.858885  0.317226  0.438776  1
  O  O67  1  0.114887  0.182774  0.061224  1
  O  O68  1  0.426369  0.519914  0.123529  1
  O  O69  1  0.569812  0.980086  0.376471  1
  O  O70  1  0.073631  0.876471  0.480086  1
  O  O71  1  0.930188  0.623529  0.019914  1
  O  O72  1  0.573631  0.480086  0.876471  1
  O  O73  1  0.430188  0.019914  0.623529  1
  O  O74  1  0.926369  0.123529  0.519914  1
  O  O75  1  0.069812  0.376471  0.980086  1
