# generated using pymatgen
data_Rb2As2Pt
_symmetry_space_group_name_H-M   'P 1'
_cell_length_a   6.39788725
_cell_length_b   6.79638121
_cell_length_c   8.07996834
_cell_angle_alpha   114.87056957
_cell_angle_beta   90.00000000
_cell_angle_gamma   90.00000000
_symmetry_Int_Tables_number   1
_chemical_formula_structural   Rb2As2Pt
_chemical_formula_sum   'Rb4 As4 Pt2'
_cell_volume   318.75412496
_cell_formula_units_Z   2
loop_
 _symmetry_equiv_pos_site_id
 _symmetry_equiv_pos_as_xyz
  1  'x, y, z'
loop_
 _atom_site_type_symbol
 _atom_site_label
 _atom_site_symmetry_multiplicity
 _atom_site_fract_x
 _atom_site_fract_y
 _atom_site_fract_z
 _atom_site_occupancy
  Rb  Rb0  1  0.750000  0.414110  0.828220  1
  Rb  Rb1  1  0.250000  0.585890  0.171780  1
  Rb  Rb2  1  0.750000  0.793773  0.587546  1
  Rb  Rb3  1  0.250000  0.206227  0.412454  1
  Pt  Pt4  1  0.000000  0.000000  0.000000  1
  Pt  Pt5  1  0.500000  0.000000  0.000000  1
  As  As6  1  0.750000  0.924726  0.210439  1
  As  As7  1  0.250000  0.075274  0.789561  1
  As  As8  1  0.250000  0.714287  0.789561  1
  As  As9  1  0.750000  0.285713  0.210439  1
