# generated using pymatgen
data_YbGa4Ni
_symmetry_space_group_name_H-M   'P 1'
_cell_length_a   4.10814501
_cell_length_b   6.57167406
_cell_length_c   7.93667885
_cell_angle_alpha   90.00000000
_cell_angle_beta   104.99931892
_cell_angle_gamma   90.00000000
_symmetry_Int_Tables_number   1
_chemical_formula_structural   YbGa4Ni
_chemical_formula_sum   'Yb2 Ga8 Ni2'
_cell_volume   206.96921319
_cell_formula_units_Z   2
loop_
 _symmetry_equiv_pos_site_id
 _symmetry_equiv_pos_as_xyz
  1  'x, y, z'
loop_
 _atom_site_type_symbol
 _atom_site_label
 _atom_site_symmetry_multiplicity
 _atom_site_fract_x
 _atom_site_fract_y
 _atom_site_fract_z
 _atom_site_occupancy
  Ni  Ni0  1  0.723090  0.250000  0.446180  1
  Ni  Ni1  1  0.276910  0.750000  0.553820  1
  Ga  Ga2  1  0.185684  0.449675  0.371369  1
  Ga  Ga3  1  0.814316  0.550325  0.628631  1
  Ga  Ga4  1  0.000000  0.000000  0.000000  1
  Ga  Ga5  1  0.000000  0.500000  0.000000  1
  Ga  Ga6  1  0.568555  0.250000  0.137110  1
  Ga  Ga7  1  0.431445  0.750000  0.862890  1
  Ga  Ga8  1  0.185684  0.050325  0.371369  1
  Ga  Ga9  1  0.814316  0.949675  0.628631  1
  Yb  Yb10  1  0.624417  0.750000  0.248835  1
  Yb  Yb11  1  0.375583  0.250000  0.751165  1
