# generated using pymatgen
data_Nb2Zn4O9
_symmetry_space_group_name_H-M   'P 1'
_cell_length_a   5.26707026
_cell_length_b   5.26707026
_cell_length_c   14.41731969
_cell_angle_alpha   90.00000000
_cell_angle_beta   90.00000000
_cell_angle_gamma   119.99999999
_symmetry_Int_Tables_number   1
_chemical_formula_structural   Nb2Zn4O9
_chemical_formula_sum   'Nb4 Zn8 O18'
_cell_volume   346.38045930
_cell_formula_units_Z   2
loop_
 _symmetry_equiv_pos_site_id
 _symmetry_equiv_pos_as_xyz
  1  'x, y, z'
loop_
 _atom_site_type_symbol
 _atom_site_label
 _atom_site_symmetry_multiplicity
 _atom_site_fract_x
 _atom_site_fract_y
 _atom_site_fract_z
 _atom_site_occupancy
  O  O0  1  0.286459  0.286460  0.750000  1
  O  O1  1  0.000000  0.713540  0.750000  1
  O  O2  1  0.713540  0.000000  0.750000  1
  O  O3  1  0.713540  0.713540  0.250000  1
  O  O4  1  0.000001  0.286460  0.250000  1
  O  O5  1  0.286461  0.000000  0.250000  1
  O  O6  1  0.679074  0.658824  0.583471  1
  O  O7  1  0.341176  0.020250  0.583471  1
  O  O8  1  0.979751  0.320927  0.583471  1
  O  O9  1  0.020248  0.341176  0.916529  1
  O  O10  1  0.320927  0.979751  0.916529  1
  O  O11  1  0.658825  0.679074  0.916529  1
  O  O12  1  0.341176  0.320927  0.083472  1
  O  O13  1  0.679073  0.020250  0.083472  1
  O  O14  1  0.979751  0.658824  0.083472  1
  O  O15  1  0.320928  0.341176  0.416528  1
  O  O16  1  0.658824  0.979751  0.416528  1
  O  O17  1  0.020248  0.679074  0.416528  1
  Zn  Zn18  1  0.333334  0.666668  0.014278  1
  Zn  Zn19  1  0.666666  0.333333  0.485723  1
  Zn  Zn20  1  0.666666  0.333333  0.985723  1
  Zn  Zn21  1  0.333334  0.666668  0.514277  1
  Zn  Zn22  1  0.333334  0.666668  0.796020  1
  Zn  Zn23  1  0.666666  0.333333  0.703980  1
  Zn  Zn24  1  0.333334  0.666668  0.296020  1
  Zn  Zn25  1  0.666666  0.333333  0.203980  1
  Nb  Nb26  1  0.000000  0.000000  0.360420  1
  Nb  Nb27  1  0.000000  0.000000  0.139580  1
  Nb  Nb28  1  0.000000  0.000000  0.639580  1
  Nb  Nb29  1  0.000000  0.000000  0.860420  1
