# generated using pymatgen
data_BaZn2(AsO4)2
_symmetry_space_group_name_H-M   'P 1'
_cell_length_a   8.96502983
_cell_length_b   9.58739280
_cell_length_c   10.19962395
_cell_angle_alpha   90.00000000
_cell_angle_beta   90.00000000
_cell_angle_gamma   91.41853363
_symmetry_Int_Tables_number   1
_chemical_formula_structural   BaZn2(AsO4)2
_chemical_formula_sum   'Ba4 Zn8 As8 O32'
_cell_volume   876.40188586
_cell_formula_units_Z   4
loop_
 _symmetry_equiv_pos_site_id
 _symmetry_equiv_pos_as_xyz
  1  'x, y, z'
loop_
 _atom_site_type_symbol
 _atom_site_label
 _atom_site_symmetry_multiplicity
 _atom_site_fract_x
 _atom_site_fract_y
 _atom_site_fract_z
 _atom_site_occupancy
  O  O0  1  0.263603  0.182719  0.419885  1
  O  O1  1  0.736397  0.317281  0.919885  1
  O  O2  1  0.736397  0.817281  0.580115  1
  O  O3  1  0.263603  0.682719  0.080115  1
  O  O4  1  0.218920  0.496797  0.642915  1
  O  O5  1  0.781080  0.003203  0.142915  1
  O  O6  1  0.781080  0.503203  0.357085  1
  O  O7  1  0.218920  0.996797  0.857085  1
  O  O8  1  0.560874  0.606803  0.696843  1
  O  O9  1  0.439126  0.893197  0.196843  1
  O  O10  1  0.439126  0.393197  0.303157  1
  O  O11  1  0.560874  0.106803  0.803157  1
  O  O12  1  0.920316  0.559704  0.697630  1
  O  O13  1  0.079684  0.940296  0.197630  1
  O  O14  1  0.079684  0.440296  0.302370  1
  O  O15  1  0.920316  0.059704  0.802370  1
  O  O16  1  0.444185  0.376168  0.869149  1
  O  O17  1  0.555815  0.123832  0.369149  1
  O  O18  1  0.555815  0.623832  0.130851  1
  O  O19  1  0.444185  0.876168  0.630851  1
  O  O20  1  0.987926  0.797312  0.898904  1
  O  O21  1  0.012074  0.702688  0.398904  1
  O  O22  1  0.012074  0.202688  0.101096  1
  O  O23  1  0.987926  0.297312  0.601096  1
  O  O24  1  0.511727  0.807821  0.936618  1
  O  O25  1  0.488273  0.692179  0.436618  1
  O  O26  1  0.488273  0.192179  0.063382  1
  O  O27  1  0.511727  0.307821  0.563382  1
  O  O28  1  0.061530  0.876413  0.637770  1
  O  O29  1  0.938470  0.623587  0.137770  1
  O  O30  1  0.938470  0.123587  0.362230  1
  O  O31  1  0.061530  0.376413  0.862230  1
  Zn  Zn32  1  0.420458  0.441726  0.685655  1
  Zn  Zn33  1  0.579542  0.058274  0.185655  1
  Zn  Zn34  1  0.579542  0.558274  0.314345  1
  Zn  Zn35  1  0.420458  0.941726  0.814345  1
  Zn  Zn36  1  0.928014  0.216836  0.923401  1
  Zn  Zn37  1  0.071986  0.283164  0.423401  1
  Zn  Zn38  1  0.071986  0.783164  0.076599  1
  Zn  Zn39  1  0.928014  0.716836  0.576599  1
  As  As40  1  0.440497  0.258161  0.413388  1
  As  As41  1  0.559503  0.241839  0.913388  1
  As  As42  1  0.559503  0.741839  0.586612  1
  As  As43  1  0.440497  0.758161  0.086612  1
  As  As44  1  0.947437  0.068208  0.201196  1
  As  As45  1  0.052563  0.431792  0.701196  1
  As  As46  1  0.052563  0.931792  0.798804  1
  As  As47  1  0.947437  0.568208  0.298804  1
  Ba  Ba48  1  0.749324  0.608997  0.915934  1
  Ba  Ba49  1  0.250676  0.891003  0.415934  1
  Ba  Ba50  1  0.250676  0.391003  0.084066  1
  Ba  Ba51  1  0.749324  0.108997  0.584066  1
