# generated using pymatgen
data_Te4Mo3W(SeS)2
_symmetry_space_group_name_H-M   'P 1'
_cell_length_a   3.39923677
_cell_length_b   3.39912221
_cell_length_c   38.70084196
_cell_angle_alpha   90.00070885
_cell_angle_beta   90.00000000
_cell_angle_gamma   120.00111475
_symmetry_Int_Tables_number   1
_chemical_formula_structural   Te4Mo3W(SeS)2
_chemical_formula_sum   'Te4 Mo3 W1 Se2 S2'
_cell_volume   387.25261776
_cell_formula_units_Z   1
loop_
 _symmetry_equiv_pos_site_id
 _symmetry_equiv_pos_as_xyz
  1  'x, y, z'
loop_
 _atom_site_type_symbol
 _atom_site_label
 _atom_site_symmetry_multiplicity
 _atom_site_fract_x
 _atom_site_fract_y
 _atom_site_fract_z
 _atom_site_occupancy
  Te  Te0  1  0.333355  0.666711  0.330223  1
  Te  Te1  1  0.333357  0.666714  0.706193  1
  Te  Te2  1  0.333348  0.666697  0.233412  1
  Te  Te3  1  0.333361  0.666722  0.608849  1
  Mo  Mo4  1  0.333301  0.666602  0.093904  1
  Mo  Mo5  1  0.333295  0.666591  0.469653  1
  Mo  Mo6  1  0.666696  0.333392  0.281818  1
  W  W7  1  0.666695  0.333391  0.657541  1
  Se  Se8  1  0.666636  0.333270  0.051293  1
  Se  Se9  1  0.666649  0.333298  0.136544  1
  S  S10  1  0.666653  0.333304  0.430831  1
  S  S11  1  0.666655  0.333308  0.508486  1
