# generated using pymatgen
data_BaTeW2O9
_symmetry_space_group_name_H-M   'P 1'
_cell_length_a   5.61084532
_cell_length_b   7.60675343
_cell_length_c   9.06798905
_cell_angle_alpha   90.00000000
_cell_angle_beta   89.97608588
_cell_angle_gamma   90.00000000
_symmetry_Int_Tables_number   1
_chemical_formula_structural   BaTeW2O9
_chemical_formula_sum   'Ba2 Te2 W4 O18'
_cell_volume   387.02461224
_cell_formula_units_Z   2
loop_
 _symmetry_equiv_pos_site_id
 _symmetry_equiv_pos_as_xyz
  1  'x, y, z'
loop_
 _atom_site_type_symbol
 _atom_site_label
 _atom_site_symmetry_multiplicity
 _atom_site_fract_x
 _atom_site_fract_y
 _atom_site_fract_z
 _atom_site_occupancy
  O  O0  1  0.707333  0.329047  0.628849  1
  O  O1  1  0.292667  0.829047  0.371151  1
  O  O2  1  0.002265  0.150007  0.828527  1
  O  O3  1  0.997735  0.650007  0.171473  1
  O  O4  1  0.528524  0.084130  0.821469  1
  O  O5  1  0.471476  0.584130  0.178531  1
  O  O6  1  0.224613  0.475825  0.587920  1
  O  O7  1  0.775387  0.975825  0.412080  1
  O  O8  1  0.559008  0.941363  0.122238  1
  O  O9  1  0.440992  0.441363  0.877762  1
  O  O10  1  0.044615  0.008470  0.143303  1
  O  O11  1  0.955385  0.508470  0.856697  1
  O  O12  1  0.971544  0.290479  0.325491  1
  O  O13  1  0.028456  0.790479  0.674509  1
  O  O14  1  0.303266  0.778318  0.944155  1
  O  O15  1  0.696734  0.278318  0.055845  1
  O  O16  1  0.481320  0.241673  0.294840  1
  O  O17  1  0.518680  0.741673  0.705160  1
  Te  Te18  1  0.371597  0.362877  0.100358  1
  Te  Te19  1  0.628403  0.862877  0.899642  1
  Ba  Ba20  1  0.241778  0.107995  0.560348  1
  Ba  Ba21  1  0.758222  0.607995  0.439652  1
  W  W22  1  0.240943  0.802283  0.176386  1
  W  W23  1  0.780925  0.118892  0.254860  1
  W  W24  1  0.759057  0.302283  0.823614  1
  W  W25  1  0.219075  0.618892  0.745140  1
