# generated using pymatgen
data_Ba3(LiAs)4
_symmetry_space_group_name_H-M   'P 1'
_cell_length_a   4.74676864
_cell_length_b   7.25704812
_cell_length_c   9.02214940
_cell_angle_alpha   113.74129054
_cell_angle_beta   105.25182591
_cell_angle_gamma   89.99999999
_symmetry_Int_Tables_number   1
_chemical_formula_structural   Ba3(LiAs)4
_chemical_formula_sum   'Ba3 Li4 As4'
_cell_volume   272.48844702
_cell_formula_units_Z   1
loop_
 _symmetry_equiv_pos_site_id
 _symmetry_equiv_pos_as_xyz
  1  'x, y, z'
loop_
 _atom_site_type_symbol
 _atom_site_label
 _atom_site_symmetry_multiplicity
 _atom_site_fract_x
 _atom_site_fract_y
 _atom_site_fract_z
 _atom_site_occupancy
  Li  Li0  1  0.677515  0.983197  0.355031  1
  Li  Li1  1  0.322485  0.016803  0.644969  1
  Li  Li2  1  0.322393  0.628016  0.644787  1
  Li  Li3  1  0.677607  0.371984  0.355213  1
  As  As4  1  0.500002  0.326484  0.000004  1
  As  As5  1  0.787160  0.787376  0.574320  1
  As  As6  1  0.212840  0.212624  0.425680  1
  As  As7  1  0.499998  0.673516  0.999996  1
  Ba  Ba8  1  0.131326  0.631428  0.262651  1
  Ba  Ba9  1  0.868674  0.368572  0.737349  1
  Ba  Ba10  1  0.000000  0.000000  0.000000  1
