# generated using pymatgen
data_PrPIr
_symmetry_space_group_name_H-M   'P 1'
_cell_length_a   4.14219698
_cell_length_b   4.14219699
_cell_length_c   7.71949214
_cell_angle_alpha   105.56281408
_cell_angle_beta   105.56281413
_cell_angle_gamma   89.99999999
_symmetry_Int_Tables_number   1
_chemical_formula_structural   PrPIr
_chemical_formula_sum   'Pr2 P2 Ir2'
_cell_volume   122.54517868
_cell_formula_units_Z   2
loop_
 _symmetry_equiv_pos_site_id
 _symmetry_equiv_pos_as_xyz
  1  'x, y, z'
loop_
 _atom_site_type_symbol
 _atom_site_label
 _atom_site_symmetry_multiplicity
 _atom_site_fract_x
 _atom_site_fract_y
 _atom_site_fract_z
 _atom_site_occupancy
  P  P0  1  0.329668  0.829668  0.659335  1
  P  P1  1  0.579668  0.579668  0.159335  1
  Pr  Pr2  1  0.751064  0.251064  0.502128  1
  Pr  Pr3  1  0.001064  0.001064  0.002128  1
  Ir  Ir4  1  0.412288  0.412288  0.824576  1
  Ir  Ir5  1  0.162288  0.662288  0.324576  1
