# generated using pymatgen
data_K2Si6GeO15
_symmetry_space_group_name_H-M   'P 1'
_cell_length_a   7.29715409
_cell_length_b   7.34943808
_cell_length_c   14.95826243
_cell_angle_alpha   76.18114068
_cell_angle_beta   75.88214911
_cell_angle_gamma   60.23505188
_symmetry_Int_Tables_number   1
_chemical_formula_structural   K2Si6GeO15
_chemical_formula_sum   'K4 Si12 Ge2 O30'
_cell_volume   668.70168286
_cell_formula_units_Z   2
loop_
 _symmetry_equiv_pos_site_id
 _symmetry_equiv_pos_as_xyz
  1  'x, y, z'
loop_
 _atom_site_type_symbol
 _atom_site_label
 _atom_site_symmetry_multiplicity
 _atom_site_fract_x
 _atom_site_fract_y
 _atom_site_fract_z
 _atom_site_occupancy
  O  O0  1  0.334110  0.169077  0.207217  1
  O  O1  1  0.789596  0.669077  0.707217  1
  O  O2  1  0.364350  0.825520  0.159664  1
  O  O3  1  0.150467  0.325520  0.659664  1
  O  O4  1  0.939812  0.093673  0.499963  1
  O  O5  1  0.966552  0.593673  -0.000037  1
  O  O6  1  0.345975  0.853502  0.460381  1
  O  O7  1  0.840142  0.353502  0.960381  1
  O  O8  1  0.064663  0.215494  0.100322  1
  O  O9  1  0.119521  0.715494  0.600322  1
  O  O10  1  0.222103  0.653817  0.074142  1
  O  O11  1  0.549938  0.153817  0.574142  1
  O  O12  1  0.621063  0.150863  0.058787  1
  O  O13  1  0.669287  0.650863  0.558787  1
  O  O14  1  0.601422  0.451199  0.450129  1
  O  O15  1  0.997251  0.951199  0.950129  1
  O  O16  1  0.750655  0.985419  0.222684  1
  O  O17  1  0.541242  0.485419  0.722684  1
  O  O18  1  0.477915  0.152550  0.759289  1
  O  O19  1  0.110246  0.652550  0.259289  1
  O  O20  1  0.661542  0.206554  0.872149  1
  O  O21  1  0.759755  0.706554  0.372149  1
  O  O22  1  0.332160  0.597454  0.897015  1
  O  O23  1  0.673371  0.097454  0.397015  1
  O  O24  1  0.269162  0.241575  0.925944  1
  O  O25  1  0.063318  0.741575  0.425944  1
  O  O26  1  0.128389  0.560860  0.780569  1
  O  O27  1  0.030181  0.060860  0.280569  1
  O  O28  1  0.388573  0.912898  0.684259  1
  O  O29  1  0.514271  0.412898  0.184259  1
  Si  Si30  1  0.564488  0.175064  0.169535  1
  Si  Si31  1  0.590913  0.675064  0.669535  1
  Si  Si32  1  0.692940  0.196454  0.477470  1
  Si  Si33  1  0.133137  0.696454  0.977470  1
  Si  Si34  1  0.119025  0.841750  0.493390  1
  Si  Si35  1  0.045835  0.341750  0.993390  1
  Si  Si36  1  0.195606  0.065844  0.187675  1
  Si  Si37  1  0.050875  0.565844  0.687675  1
  Si  Si38  1  0.292789  0.638160  0.171560  1
  Si  Si39  1  0.397491  0.138160  0.671560  1
  Si  Si40  1  0.597994  0.670941  0.459995  1
  Si  Si41  1  0.771070  0.170941  0.959995  1
  K  K42  1  0.787000  0.579882  0.211807  1
  K  K43  1  0.921311  0.079882  0.711807  1
  K  K44  1  0.209006  0.313962  0.401040  1
  K  K45  1  0.575993  0.813962  0.901040  1
  Ge  Ge46  1  0.894677  0.882990  0.326916  1
  Ge  Ge47  1  0.395417  0.382990  0.826916  1
