# generated using pymatgen
data_Te6MoW3Se2
_symmetry_space_group_name_H-M   'P 1'
_cell_length_a   3.50281675
_cell_length_b   3.50285125
_cell_length_c   39.65371637
_cell_angle_alpha   90.00002164
_cell_angle_beta   90.00000000
_cell_angle_gamma   119.99967410
_symmetry_Int_Tables_number   1
_chemical_formula_structural   Te6MoW3Se2
_chemical_formula_sum   'Te6 Mo1 W3 Se2'
_cell_volume   421.36170895
_cell_formula_units_Z   1
loop_
 _symmetry_equiv_pos_site_id
 _symmetry_equiv_pos_as_xyz
  1  'x, y, z'
loop_
 _atom_site_type_symbol
 _atom_site_label
 _atom_site_symmetry_multiplicity
 _atom_site_fract_x
 _atom_site_fract_y
 _atom_site_fract_z
 _atom_site_occupancy
  Te  Te0  1  0.333360  0.666721  0.703919  1
  Te  Te1  1  0.666640  0.333279  0.047540  1
  Te  Te2  1  0.666648  0.333296  0.423271  1
  Te  Te3  1  0.666641  0.333280  0.140321  1
  Te  Te4  1  0.666648  0.333296  0.516041  1
  Te  Te5  1  0.333355  0.666711  0.611150  1
  Mo  Mo6  1  0.666689  0.333378  0.281797  1
  W  W7  1  0.333309  0.666619  0.093922  1
  W  W8  1  0.333314  0.666627  0.469642  1
  W  W9  1  0.666690  0.333380  0.657554  1
  Se  Se10  1  0.333355  0.666712  0.322606  1
  Se  Se11  1  0.333350  0.666701  0.240985  1
