# generated using pymatgen
data_Na4W(NO)2
_symmetry_space_group_name_H-M   'P 1'
_cell_length_a   5.91952277
_cell_length_b   5.95370525
_cell_length_c   9.06552161
_cell_angle_alpha   83.35419947
_cell_angle_beta   71.44057828
_cell_angle_gamma   69.73943813
_symmetry_Int_Tables_number   1
_chemical_formula_structural   Na4W(NO)2
_chemical_formula_sum   'Na8 W2 N4 O4'
_cell_volume   284.13581400
_cell_formula_units_Z   2
loop_
 _symmetry_equiv_pos_site_id
 _symmetry_equiv_pos_as_xyz
  1  'x, y, z'
loop_
 _atom_site_type_symbol
 _atom_site_label
 _atom_site_symmetry_multiplicity
 _atom_site_fract_x
 _atom_site_fract_y
 _atom_site_fract_z
 _atom_site_occupancy
  N  N0  1  0.298420  0.037874  0.358562  1
  N  N1  1  0.159554  0.542444  0.646023  1
  N  N2  1  0.840446  0.457556  0.353977  1
  N  N3  1  0.701580  0.962126  0.641438  1
  O  O4  1  0.641889  0.512149  0.818518  1
  O  O5  1  0.149321  0.158561  0.052581  1
  O  O6  1  0.358111  0.487851  0.181482  1
  O  O7  1  0.850679  0.841439  0.947419  1
  Na  Na8  1  0.241070  0.763735  0.984647  1
  Na  Na9  1  0.758930  0.236265  0.015353  1
  Na  Na10  1  0.055257  0.758169  0.406268  1
  Na  Na11  1  0.944743  0.241831  0.593732  1
  Na  Na12  1  0.479329  0.743439  0.551207  1
  Na  Na13  1  0.520671  0.256561  0.448793  1
  Na  Na14  1  0.613796  0.721849  0.187636  1
  Na  Na15  1  0.386204  0.278151  0.812364  1
  W  W16  1  0.841522  0.718478  0.764942  1
  W  W17  1  0.158478  0.281522  0.235058  1
