# generated using pymatgen
data_NbInRu
_symmetry_space_group_name_H-M   'P 1'
_cell_length_a   4.42734261
_cell_length_b   4.43428278
_cell_length_c   4.42768011
_cell_angle_alpha   59.78292170
_cell_angle_beta   59.99001724
_cell_angle_gamma   60.07576049
_symmetry_Int_Tables_number   1
_chemical_formula_structural   NbInRu
_chemical_formula_sum   'Nb1 In1 Ru1'
_cell_volume   61.39382872
_cell_formula_units_Z   1
loop_
 _symmetry_equiv_pos_site_id
 _symmetry_equiv_pos_as_xyz
  1  'x, y, z'
loop_
 _atom_site_type_symbol
 _atom_site_label
 _atom_site_symmetry_multiplicity
 _atom_site_fract_x
 _atom_site_fract_y
 _atom_site_fract_z
 _atom_site_occupancy
  Nb  Nb0  1  0.749989  0.750011  0.750461  1
  In  In1  1  0.249966  0.249939  0.250070  1
  Ru  Ru2  1  0.500222  0.499963  0.499148  1
