# generated using pymatgen
data_TlFeS2
_symmetry_space_group_name_H-M   'P 1'
_cell_length_a   3.69567879
_cell_length_b   3.69567878
_cell_length_c   6.77745446
_cell_angle_alpha   105.82172347
_cell_angle_beta   105.82172344
_cell_angle_gamma   89.99999993
_symmetry_Int_Tables_number   1
_chemical_formula_structural   TlFeS2
_chemical_formula_sum   'Tl1 Fe1 S2'
_cell_volume   85.40904120
_cell_formula_units_Z   1
loop_
 _symmetry_equiv_pos_site_id
 _symmetry_equiv_pos_as_xyz
  1  'x, y, z'
loop_
 _atom_site_type_symbol
 _atom_site_label
 _atom_site_symmetry_multiplicity
 _atom_site_fract_x
 _atom_site_fract_y
 _atom_site_fract_z
 _atom_site_occupancy
  S  S0  1  0.665244  0.665244  0.330489  1
  S  S1  1  0.334756  0.334756  0.669511  1
  Fe  Fe2  1  0.750000  0.250000  0.500000  1
  Tl  Tl3  1  0.000000  0.000000  0.000000  1
