# generated using pymatgen
data_Ce(BRu)2
_symmetry_space_group_name_H-M   'P 1'
_cell_length_a   5.55977596
_cell_length_b   5.55977597
_cell_length_c   5.99055772
_cell_angle_alpha   108.97654440
_cell_angle_beta   108.97654441
_cell_angle_gamma   107.41235960
_symmetry_Int_Tables_number   1
_chemical_formula_structural   Ce(BRu)2
_chemical_formula_sum   'Ce2 B4 Ru4'
_cell_volume   147.63897375
_cell_formula_units_Z   2
loop_
 _symmetry_equiv_pos_site_id
 _symmetry_equiv_pos_as_xyz
  1  'x, y, z'
loop_
 _atom_site_type_symbol
 _atom_site_label
 _atom_site_symmetry_multiplicity
 _atom_site_fract_x
 _atom_site_fract_y
 _atom_site_fract_z
 _atom_site_occupancy
  B  B0  1  0.191357  0.808643  0.250000  1
  B  B1  1  0.558643  0.441357  0.250000  1
  B  B2  1  0.808643  0.191357  0.750000  1
  B  B3  1  0.441357  0.558643  0.750000  1
  Ru  Ru4  1  0.236949  0.486949  0.973899  1
  Ru  Ru5  1  0.513051  0.763051  0.526101  1
  Ru  Ru6  1  0.486949  0.236949  0.473899  1
  Ru  Ru7  1  0.763051  0.513051  0.026101  1
  Ce  Ce8  1  0.875000  0.125000  0.250000  1
  Ce  Ce9  1  0.125000  0.875000  0.750000  1
