# generated using pymatgen
data_EuZnSn
_symmetry_space_group_name_H-M   'P 1'
_cell_length_a   4.80034993
_cell_length_b   7.81925743
_cell_length_c   8.11515587
_cell_angle_alpha   90.00000000
_cell_angle_beta   90.00000000
_cell_angle_gamma   90.00000000
_symmetry_Int_Tables_number   1
_chemical_formula_structural   EuZnSn
_chemical_formula_sum   'Eu4 Zn4 Sn4'
_cell_volume   304.60377022
_cell_formula_units_Z   4
loop_
 _symmetry_equiv_pos_site_id
 _symmetry_equiv_pos_as_xyz
  1  'x, y, z'
loop_
 _atom_site_type_symbol
 _atom_site_label
 _atom_site_symmetry_multiplicity
 _atom_site_fract_x
 _atom_site_fract_y
 _atom_site_fract_z
 _atom_site_occupancy
  Zn  Zn0  1  0.750000  0.320756  0.583123  1
  Zn  Zn1  1  0.250000  0.179244  0.083123  1
  Zn  Zn2  1  0.750000  0.820756  0.916877  1
  Zn  Zn3  1  0.250000  0.679244  0.416877  1
  Sn  Sn4  1  0.250000  0.291862  0.409178  1
  Sn  Sn5  1  0.750000  0.208138  0.909178  1
  Sn  Sn6  1  0.250000  0.791862  0.090822  1
  Sn  Sn7  1  0.750000  0.708138  0.590822  1
  Eu  Eu8  1  0.250000  0.496610  0.788718  1
  Eu  Eu9  1  0.750000  0.503390  0.211282  1
  Eu  Eu10  1  0.250000  0.996610  0.711282  1
  Eu  Eu11  1  0.750000  0.003390  0.288718  1
