# generated using pymatgen
data_Cr2S3
_symmetry_space_group_name_H-M   'P 1'
_cell_length_a   6.02587949
_cell_length_b   6.02587949
_cell_length_c   11.26503427
_cell_angle_alpha   90.00000000
_cell_angle_beta   90.00000000
_cell_angle_gamma   120.00000003
_symmetry_Int_Tables_number   1
_chemical_formula_structural   Cr2S3
_chemical_formula_sum   'Cr8 S12'
_cell_volume   354.24524808
_cell_formula_units_Z   4
loop_
 _symmetry_equiv_pos_site_id
 _symmetry_equiv_pos_as_xyz
  1  'x, y, z'
loop_
 _atom_site_type_symbol
 _atom_site_label
 _atom_site_symmetry_multiplicity
 _atom_site_fract_x
 _atom_site_fract_y
 _atom_site_fract_z
 _atom_site_occupancy
  S  S0  1  0.675436  0.653785  0.883495  1
  S  S1  1  0.346215  0.021652  0.883495  1
  S  S2  1  0.978348  0.324564  0.883495  1
  S  S3  1  0.346215  0.324564  0.616505  1
  S  S4  1  0.978348  0.653785  0.616505  1
  S  S5  1  0.675436  0.021652  0.616505  1
  S  S6  1  0.324564  0.346215  0.116505  1
  S  S7  1  0.653785  0.978348  0.116505  1
  S  S8  1  0.324564  0.978348  0.383495  1
  S  S9  1  0.021652  0.346215  0.383495  1
  S  S10  1  0.653785  0.675436  0.383495  1
  S  S11  1  0.021652  0.675436  0.116505  1
  Cr  Cr12  1  0.666667  0.333333  0.482514  1
  Cr  Cr13  1  0.666667  0.333333  0.017486  1
  Cr  Cr14  1  0.333333  0.666667  0.517486  1
  Cr  Cr15  1  0.333333  0.666667  0.982514  1
  Cr  Cr16  1  0.000000  0.000000  0.500000  1
  Cr  Cr17  1  0.000000  0.000000  0.000000  1
  Cr  Cr18  1  0.666667  0.333333  0.750000  1
  Cr  Cr19  1  0.333333  0.666667  0.250000  1
