# generated using pymatgen
data_CrN2
_symmetry_space_group_name_H-M   'P 1'
_cell_length_a   10.58688080
_cell_length_b   10.58688080
_cell_length_c   11.04288470
_cell_angle_alpha   90.00000000
_cell_angle_beta   90.00000000
_cell_angle_gamma   119.99999690
_symmetry_Int_Tables_number   1
_chemical_formula_structural   CrN2
_chemical_formula_sum   'Cr12 N24'
_cell_volume   1071.88755799
_cell_formula_units_Z   12
loop_
 _symmetry_equiv_pos_site_id
 _symmetry_equiv_pos_as_xyz
  1  'x, y, z'
loop_
 _atom_site_type_symbol
 _atom_site_label
 _atom_site_symmetry_multiplicity
 _atom_site_fract_x
 _atom_site_fract_y
 _atom_site_fract_z
 _atom_site_occupancy
  Cr  Cr0  1  0.569555  0.139110  0.894962  1
  Cr  Cr1  1  0.569555  0.430445  0.894962  1
  Cr  Cr2  1  0.860890  0.430445  0.894962  1
  Cr  Cr3  1  0.430445  0.860890  0.105038  1
  Cr  Cr4  1  0.430445  0.569555  0.105038  1
  Cr  Cr5  1  0.139110  0.569555  0.105038  1
  Cr  Cr6  1  0.430445  0.860890  0.394962  1
  Cr  Cr7  1  0.430445  0.569555  0.394962  1
  Cr  Cr8  1  0.139110  0.569555  0.394962  1
  Cr  Cr9  1  0.569555  0.139110  0.605038  1
  Cr  Cr10  1  0.569555  0.430445  0.605038  1
  Cr  Cr11  1  0.860890  0.430445  0.605038  1
  N  N12  1  -0.000000  0.500000  0.000000  1
  N  N13  1  0.500000  -0.000000  0.000000  1
  N  N14  1  0.500000  0.500000  0.000000  1
  N  N15  1  -0.000000  0.500000  0.500000  1
  N  N16  1  0.500000  -0.000000  0.500000  1
  N  N17  1  0.500000  0.500000  0.500000  1
  N  N18  1  0.486268  0.243134  0.915509  1
  N  N19  1  0.756866  0.513732  0.915509  1
  N  N20  1  0.756866  0.243134  0.915509  1
  N  N21  1  0.513732  0.756866  0.084491  1
  N  N22  1  0.243134  0.486268  0.084491  1
  N  N23  1  0.243134  0.756866  0.084491  1
  N  N24  1  0.513732  0.756866  0.415509  1
  N  N25  1  0.243134  0.486268  0.415509  1
  N  N26  1  0.243134  0.756866  0.415509  1
  N  N27  1  0.486268  0.243134  0.584491  1
  N  N28  1  0.756866  0.513732  0.584491  1
  N  N29  1  0.756866  0.243134  0.584491  1
  N  N30  1  0.065982  0.532991  0.250000  1
  N  N31  1  0.467009  0.934018  0.250000  1
  N  N32  1  0.467009  0.532991  0.250000  1
  N  N33  1  0.934018  0.467009  0.750000  1
  N  N34  1  0.532991  0.065982  0.750000  1
  N  N35  1  0.532991  0.467009  0.750000  1
