# generated using pymatgen
data_Tm2ZnS4
_symmetry_space_group_name_H-M   'P 1'
_cell_length_a   6.29319216
_cell_length_b   7.79425018
_cell_length_c   13.39512059
_cell_angle_alpha   90.00000000
_cell_angle_beta   90.00000000
_cell_angle_gamma   90.00000000
_symmetry_Int_Tables_number   1
_chemical_formula_structural   Tm2ZnS4
_chemical_formula_sum   'Tm8 Zn4 S16'
_cell_volume   657.04023074
_cell_formula_units_Z   4
loop_
 _symmetry_equiv_pos_site_id
 _symmetry_equiv_pos_as_xyz
  1  'x, y, z'
loop_
 _atom_site_type_symbol
 _atom_site_label
 _atom_site_symmetry_multiplicity
 _atom_site_fract_x
 _atom_site_fract_y
 _atom_site_fract_z
 _atom_site_occupancy
  S  S0  1  0.242475  0.511608  0.831670  1
  S  S1  1  0.742475  0.488392  0.668330  1
  S  S2  1  0.757525  0.011608  0.168330  1
  S  S3  1  0.257525  0.988392  0.331670  1
  S  S4  1  0.757525  0.488392  0.168330  1
  S  S5  1  0.257525  0.511608  0.331670  1
  S  S6  1  0.242475  0.988392  0.831670  1
  S  S7  1  0.742475  0.011608  0.668330  1
  S  S8  1  0.254764  0.750000  0.070989  1
  S  S9  1  0.754764  0.250000  0.429011  1
  S  S10  1  0.745236  0.250000  0.929011  1
  S  S11  1  0.245236  0.750000  0.570989  1
  S  S12  1  0.777240  0.750000  0.909679  1
  S  S13  1  0.277240  0.250000  0.590321  1
  S  S14  1  0.222760  0.250000  0.090321  1
  S  S15  1  0.722760  0.750000  0.409679  1
  Zn  Zn16  1  0.088585  0.750000  0.408425  1
  Zn  Zn17  1  0.588585  0.250000  0.091575  1
  Zn  Zn18  1  0.911415  0.250000  0.591575  1
  Zn  Zn19  1  0.411415  0.750000  0.908425  1
  Tm  Tm20  1  0.502953  0.750000  0.234885  1
  Tm  Tm21  1  0.002953  0.250000  0.265115  1
  Tm  Tm22  1  0.497047  0.250000  0.765115  1
  Tm  Tm23  1  0.997047  0.750000  0.734885  1
  Tm  Tm24  1  0.500000  0.500000  0.500000  1
  Tm  Tm25  1  0.000000  0.500000  0.000000  1
  Tm  Tm26  1  0.500000  0.000000  0.500000  1
  Tm  Tm27  1  0.000000  0.000000  0.000000  1
