# generated using pymatgen
data_Te6MoW3Se2
_symmetry_space_group_name_H-M   'P 1'
_cell_length_a   3.49784463
_cell_length_b   3.49783317
_cell_length_c   39.65236519
_cell_angle_alpha   90.00004506
_cell_angle_beta   90.00000000
_cell_angle_gamma   120.00010827
_symmetry_Int_Tables_number   1
_chemical_formula_structural   Te6MoW3Se2
_chemical_formula_sum   'Te6 Mo1 W3 Se2'
_cell_volume   420.14467345
_cell_formula_units_Z   1
loop_
 _symmetry_equiv_pos_site_id
 _symmetry_equiv_pos_as_xyz
  1  'x, y, z'
loop_
 _atom_site_type_symbol
 _atom_site_label
 _atom_site_symmetry_multiplicity
 _atom_site_fract_x
 _atom_site_fract_y
 _atom_site_fract_z
 _atom_site_occupancy
  Te  Te0  1  0.333355  0.666710  0.328257  1
  Te  Te1  1  0.333368  0.666737  0.703987  1
  Te  Te2  1  0.666644  0.333287  0.047745  1
  Te  Te3  1  0.666639  0.333278  0.140103  1
  Te  Te4  1  0.333353  0.666707  0.235344  1
  Te  Te5  1  0.333353  0.666708  0.611072  1
  Mo  Mo6  1  0.333308  0.666616  0.093903  1
  W  W7  1  0.333310  0.666621  0.469663  1
  W  W8  1  0.666690  0.333380  0.281821  1
  W  W9  1  0.666693  0.333386  0.657533  1
  Se  Se10  1  0.666647  0.333293  0.428710  1
  Se  Se11  1  0.666639  0.333277  0.510609  1
