# generated using pymatgen
data_Ca3(GeAs2)2
_symmetry_space_group_name_H-M   'P 1'
_cell_length_a   7.32775488
_cell_length_b   7.35332357
_cell_length_c   18.10209695
_cell_angle_alpha   90.00000000
_cell_angle_beta   90.00000000
_cell_angle_gamma   111.72450473
_symmetry_Int_Tables_number   1
_chemical_formula_structural   Ca3(GeAs2)2
_chemical_formula_sum   'Ca12 Ge8 As16'
_cell_volume   906.12313617
_cell_formula_units_Z   4
loop_
 _symmetry_equiv_pos_site_id
 _symmetry_equiv_pos_as_xyz
  1  'x, y, z'
loop_
 _atom_site_type_symbol
 _atom_site_label
 _atom_site_symmetry_multiplicity
 _atom_site_fract_x
 _atom_site_fract_y
 _atom_site_fract_z
 _atom_site_occupancy
  Ca  Ca0  1  0.988009  0.744362  0.942706  1
  Ca  Ca1  1  0.511991  0.255638  0.442706  1
  Ca  Ca2  1  0.011991  0.255638  0.057294  1
  Ca  Ca3  1  0.488009  0.744362  0.557294  1
  Ca  Ca4  1  0.501714  0.263689  0.936983  1
  Ca  Ca5  1  0.998286  0.736311  0.436983  1
  Ca  Ca6  1  0.498286  0.736311  0.063017  1
  Ca  Ca7  1  0.001714  0.263689  0.563017  1
  Ca  Ca8  1  0.486628  0.783417  0.816740  1
  Ca  Ca9  1  0.013372  0.216583  0.316740  1
  Ca  Ca10  1  0.513372  0.216583  0.183260  1
  Ca  Ca11  1  0.986628  0.783417  0.683260  1
  Ge  Ge12  1  0.420436  0.319685  0.741258  1
  Ge  Ge13  1  0.079564  0.680315  0.241258  1
  Ge  Ge14  1  0.579564  0.680315  0.258742  1
  Ge  Ge15  1  0.920436  0.319685  0.758742  1
  Ge  Ge16  1  0.469367  0.790706  0.373226  1
  Ge  Ge17  1  0.030633  0.209294  0.873226  1
  Ge  Ge18  1  0.530633  0.209294  0.626774  1
  Ge  Ge19  1  0.969367  0.790706  0.126774  1
  As  As20  1  0.732930  0.518665  0.805181  1
  As  As21  1  0.767070  0.481335  0.305181  1
  As  As22  1  0.267070  0.481335  0.194819  1
  As  As23  1  0.232930  0.518665  0.694819  1
  As  As24  1  0.722157  0.027123  0.686299  1
  As  As25  1  0.777843  0.972877  0.186299  1
  As  As26  1  0.277843  0.972877  0.313701  1
  As  As27  1  0.222157  0.027123  0.813701  1
  As  As28  1  0.742271  0.001070  0.941223  1
  As  As29  1  0.757729  0.998930  0.441223  1
  As  As30  1  0.257729  0.998930  0.058777  1
  As  As31  1  0.242271  0.001070  0.558777  1
  As  As32  1  0.248975  0.508259  0.934296  1
  As  As33  1  0.251025  0.491741  0.434296  1
  As  As34  1  0.751025  0.491741  0.065704  1
  As  As35  1  0.748975  0.508259  0.565704  1
