# generated using pymatgen
data_Zr2Cr30P19
_symmetry_space_group_name_H-M   'P 1'
_cell_length_a   14.86304538
_cell_length_b   14.86304538
_cell_length_c   3.26434068
_cell_angle_alpha   90.00000000
_cell_angle_beta   90.00000000
_cell_angle_gamma   119.99999999
_symmetry_Int_Tables_number   1
_chemical_formula_structural   Zr2Cr30P19
_chemical_formula_sum   'Zr2 Cr30 P19'
_cell_volume   624.51333564
_cell_formula_units_Z   1
loop_
 _symmetry_equiv_pos_site_id
 _symmetry_equiv_pos_as_xyz
  1  'x, y, z'
loop_
 _atom_site_type_symbol
 _atom_site_label
 _atom_site_symmetry_multiplicity
 _atom_site_fract_x
 _atom_site_fract_y
 _atom_site_fract_z
 _atom_site_occupancy
  P  P0  1  0.000000  0.000000  0.000000  1
  P  P1  1  0.272736  0.089539  0.500000  1
  P  P2  1  0.730846  0.906053  0.000000  1
  P  P3  1  0.093947  0.824793  0.000000  1
  P  P4  1  0.175207  0.269154  0.000000  1
  P  P5  1  0.509108  0.193033  0.500000  1
  P  P6  1  0.806967  0.316075  0.500000  1
  P  P7  1  0.683925  0.490892  0.500000  1
  P  P8  1  0.488875  0.807164  0.000000  1
  P  P9  1  0.192836  0.681711  0.000000  1
  P  P10  1  0.318289  0.511125  0.000000  1
  P  P11  1  0.360461  0.951893  0.500000  1
  P  P12  1  0.048107  0.408568  0.500000  1
  P  P13  1  0.591432  0.639539  0.500000  1
  P  P14  1  0.632999  0.046521  0.000000  1
  P  P15  1  0.953479  0.586478  0.000000  1
  P  P16  1  0.413522  0.367001  0.000000  1
  P  P17  1  0.910461  0.183196  0.500000  1
  P  P18  1  0.816804  0.727264  0.500000  1
  Cr  Cr19  1  0.489550  0.648785  0.000000  1
  Cr  Cr20  1  0.391736  0.190914  0.000000  1
  Cr  Cr21  1  0.799178  0.608264  0.000000  1
  Cr  Cr22  1  0.809086  0.200822  0.000000  1
  Cr  Cr23  1  0.603489  0.811013  0.500000  1
  Cr  Cr24  1  0.159235  0.510450  0.000000  1
  Cr  Cr25  1  0.188987  0.792476  0.500000  1
  Cr  Cr26  1  0.178712  0.110310  0.000000  1
  Cr  Cr27  1  0.931599  0.821288  0.000000  1
  Cr  Cr28  1  0.889690  0.068401  0.000000  1
  Cr  Cr29  1  0.856103  0.913530  0.500000  1
  Cr  Cr30  1  0.057427  0.143897  0.500000  1
  Cr  Cr31  1  0.086470  0.942573  0.500000  1
  Cr  Cr32  1  0.841601  0.488059  0.500000  1
  Cr  Cr33  1  0.511941  0.353543  0.500000  1
  Cr  Cr34  1  0.646457  0.158399  0.500000  1
  Cr  Cr35  1  0.064049  0.582075  0.500000  1
  Cr  Cr36  1  0.417925  0.481974  0.500000  1
  Cr  Cr37  1  0.518026  0.935951  0.500000  1
  Cr  Cr38  1  0.936758  0.412101  0.000000  1
  Cr  Cr39  1  0.587899  0.524657  0.000000  1
  Cr  Cr40  1  0.475343  0.063242  0.000000  1
  Cr  Cr41  1  0.025778  0.285255  0.000000  1
  Cr  Cr42  1  0.714745  0.740522  0.000000  1
  Cr  Cr43  1  0.259478  0.974222  0.000000  1
  Cr  Cr44  1  0.976600  0.710954  0.500000  1
  Cr  Cr45  1  0.289046  0.265646  0.500000  1
  Cr  Cr46  1  0.734354  0.023400  0.500000  1
  Cr  Cr47  1  0.207524  0.396511  0.500000  1
  Cr  Cr48  1  0.351215  0.840765  0.000000  1
  Zr  Zr49  1  0.333333  0.666667  0.500000  1
  Zr  Zr50  1  0.666667  0.333333  0.000000  1
