# generated using pymatgen
data_Na4Ni7(PO4)6
_symmetry_space_group_name_H-M   'P 1'
_cell_length_a   6.49689028
_cell_length_b   8.86839751
_cell_length_c   8.86839751
_cell_angle_alpha   105.65197911
_cell_angle_beta   98.89284272
_cell_angle_gamma   98.89284268
_symmetry_Int_Tables_number   1
_chemical_formula_structural   Na4Ni7(PO4)6
_chemical_formula_sum   'Na4 Ni7 P6 O24'
_cell_volume   475.64812441
_cell_formula_units_Z   1
loop_
 _symmetry_equiv_pos_site_id
 _symmetry_equiv_pos_as_xyz
  1  'x, y, z'
loop_
 _atom_site_type_symbol
 _atom_site_label
 _atom_site_symmetry_multiplicity
 _atom_site_fract_x
 _atom_site_fract_y
 _atom_site_fract_z
 _atom_site_occupancy
  O  O0  1  0.203016  0.443791  0.443791  1
  O  O1  1  0.802847  0.547138  0.547138  1
  O  O2  1  0.145929  0.199407  0.199407  1
  O  O3  1  0.849771  0.795534  0.795534  1
  O  O4  1  0.107770  0.599894  0.776179  1
  O  O5  1  0.107770  0.776179  0.599894  1
  O  O6  1  0.893041  0.218860  0.398335  1
  O  O7  1  0.893041  0.398335  0.218860  1
  O  O8  1  0.510113  0.339699  0.000531  1
  O  O9  1  0.510113  0.000531  0.339699  1
  O  O10  1  0.491116  0.999239  0.661554  1
  O  O11  1  0.491116  0.661554  0.999239  1
  O  O12  1  0.143534  0.396168  0.982232  1
  O  O13  1  0.143534  0.982232  0.396168  1
  O  O14  1  0.861690  0.013865  0.607480  1
  O  O15  1  0.861690  0.607480  0.013865  1
  O  O16  1  0.212694  0.102501  0.888037  1
  O  O17  1  0.748997  0.715616  0.275180  1
  O  O18  1  0.748997  0.275180  0.715616  1
  O  O19  1  0.251609  0.718249  0.279760  1
  O  O20  1  0.251609  0.279760  0.718249  1
  O  O21  1  0.790186  0.900483  0.113234  1
  O  O22  1  0.790186  0.113234  0.900483  1
  O  O23  1  0.212694  0.888037  0.102501  1
  Na  Na24  1  0.522023  0.070422  0.070422  1
  Na  Na25  1  0.463249  0.722861  0.722861  1
  Na  Na26  1  0.460838  0.512541  0.263223  1
  Na  Na27  1  0.460838  0.263223  0.512541  1
  P  P28  1  0.035633  0.308455  0.308455  1
  P  P29  1  0.957785  0.685662  0.685662  1
  P  P30  1  0.719923  0.093934  0.717062  1
  P  P31  1  0.719923  0.717062  0.093934  1
  P  P32  1  0.282875  0.284496  0.900321  1
  P  P33  1  0.282875  0.900321  0.284496  1
  Ni  Ni34  1  0.182033  0.016556  0.641865  1
  Ni  Ni35  1  0.182033  0.641865  0.016556  1
  Ni  Ni36  1  0.817855  0.363050  0.976061  1
  Ni  Ni37  1  0.817855  0.976061  0.363050  1
  Ni  Ni38  1  0.998689  0.372896  0.624744  1
  Ni  Ni39  1  0.998689  0.624744  0.372896  1
  Ni  Ni40  1  0.000423  0.999184  0.999184  1
