# generated using pymatgen
data_Te4Mo3W(SeS)2
_symmetry_space_group_name_H-M   'P 1'
_cell_length_a   3.39784396
_cell_length_b   3.39787637
_cell_length_c   38.77638813
_cell_angle_alpha   90.00061789
_cell_angle_beta   90.00000000
_cell_angle_gamma   119.99968449
_symmetry_Int_Tables_number   1
_chemical_formula_structural   Te4Mo3W(SeS)2
_chemical_formula_sum   'Te4 Mo3 W1 Se2 S2'
_cell_volume   387.71300622
_cell_formula_units_Z   1
loop_
 _symmetry_equiv_pos_site_id
 _symmetry_equiv_pos_as_xyz
  1  'x, y, z'
loop_
 _atom_site_type_symbol
 _atom_site_label
 _atom_site_symmetry_multiplicity
 _atom_site_fract_x
 _atom_site_fract_y
 _atom_site_fract_z
 _atom_site_occupancy
  Te  Te0  1  0.333358  0.666717  0.330139  1
  Te  Te1  1  0.333357  0.666716  0.705881  1
  Te  Te2  1  0.333352  0.666704  0.233383  1
  Te  Te3  1  0.333349  0.666699  0.609219  1
  Mo  Mo4  1  0.333301  0.666602  0.093937  1
  Mo  Mo5  1  0.666693  0.333387  0.281774  1
  Mo  Mo6  1  0.666690  0.333379  0.657557  1
  W  W7  1  0.333308  0.666616  0.469657  1
  Se  Se8  1  0.666643  0.333285  0.426942  1
  Se  Se9  1  0.666642  0.333283  0.512374  1
  S  S10  1  0.666654  0.333306  0.055219  1
  S  S11  1  0.666653  0.333305  0.132666  1
