# generated using pymatgen
data_MoW3(SeS3)2
_symmetry_space_group_name_H-M   'P 1'
_cell_length_a   3.22331863
_cell_length_b   3.22331655
_cell_length_c   36.38208072
_cell_angle_alpha   89.99974133
_cell_angle_beta   90.00000000
_cell_angle_gamma   120.00002124
_symmetry_Int_Tables_number   1
_chemical_formula_structural   MoW3(SeS3)2
_chemical_formula_sum   'Mo1 W3 Se2 S6'
_cell_volume   327.35898714
_cell_formula_units_Z   1
loop_
 _symmetry_equiv_pos_site_id
 _symmetry_equiv_pos_as_xyz
  1  'x, y, z'
loop_
 _atom_site_type_symbol
 _atom_site_label
 _atom_site_symmetry_multiplicity
 _atom_site_fract_x
 _atom_site_fract_y
 _atom_site_fract_z
 _atom_site_occupancy
  Mo  Mo0  1  0.333312  0.666624  0.469659  1
  W  W1  1  0.333312  0.666623  0.093910  1
  W  W2  1  0.666690  0.333381  0.281823  1
  W  W3  1  0.666690  0.333380  0.657556  1
  Se  Se4  1  0.333351  0.666703  0.704857  1
  Se  Se5  1  0.333353  0.666707  0.610254  1
  S  S6  1  0.333354  0.666709  0.324685  1
  S  S7  1  0.666641  0.333281  0.051009  1
  S  S8  1  0.666647  0.333293  0.426944  1
  S  S9  1  0.666649  0.333296  0.136816  1
  S  S10  1  0.666646  0.333292  0.512338  1
  S  S11  1  0.333355  0.666711  0.238897  1
