# generated using pymatgen
data_NaLaSiO4
_symmetry_space_group_name_H-M   'P 1'
_cell_length_a   21.60854071
_cell_length_b   9.48371548
_cell_length_c   5.57147588
_cell_angle_alpha   90.00000000
_cell_angle_beta   90.00000000
_cell_angle_gamma   90.00000000
_symmetry_Int_Tables_number   1
_chemical_formula_structural   NaLaSiO4
_chemical_formula_sum   'Na12 La12 Si12 O48'
_cell_volume   1141.75838480
_cell_formula_units_Z   12
loop_
 _symmetry_equiv_pos_site_id
 _symmetry_equiv_pos_as_xyz
  1  'x, y, z'
loop_
 _atom_site_type_symbol
 _atom_site_label
 _atom_site_symmetry_multiplicity
 _atom_site_fract_x
 _atom_site_fract_y
 _atom_site_fract_z
 _atom_site_occupancy
  Na  Na0  1  0.558182  0.070316  0.014551  1
  Na  Na1  1  0.441818  0.929684  0.514551  1
  Na  Na2  1  0.941818  0.570316  0.514551  1
  Na  Na3  1  0.058182  0.429684  0.014551  1
  Na  Na4  1  0.724668  0.423750  0.057198  1
  Na  Na5  1  0.275332  0.576250  0.557198  1
  Na  Na6  1  0.775332  0.923750  0.557198  1
  Na  Na7  1  0.224668  0.076250  0.057198  1
  Na  Na8  1  0.892090  0.072566  0.046599  1
  Na  Na9  1  0.107910  0.927434  0.546599  1
  Na  Na10  1  0.607910  0.572566  0.546599  1
  Na  Na11  1  0.392090  0.427434  0.046599  1
  La  La12  1  0.499964  0.302507  0.510954  1
  La  La13  1  0.500036  0.697493  0.010954  1
  La  La14  1  1.000036  0.802507  0.010954  1
  La  La15  1  -0.000036  0.197493  0.510954  1
  La  La16  1  0.666580  0.196619  0.565780  1
  La  La17  1  0.333420  0.803381  0.065780  1
  La  La18  1  0.833420  0.696619  0.065780  1
  La  La19  1  0.166580  0.303381  0.565780  1
  La  La20  1  0.833164  0.300927  0.553460  1
  La  La21  1  0.166836  0.699073  0.053460  1
  La  La22  1  0.666836  0.800927  0.053460  1
  La  La23  1  0.333164  0.199073  0.553460  1
  Si  Si24  1  0.577315  0.415722  0.049086  1
  Si  Si25  1  0.422685  0.584278  0.549086  1
  Si  Si26  1  0.922685  0.915722  0.549086  1
  Si  Si27  1  0.077315  0.084278  0.049086  1
  Si  Si28  1  0.743942  0.082431  0.049789  1
  Si  Si29  1  0.256058  0.917569  0.549789  1
  Si  Si30  1  0.756058  0.582431  0.549789  1
  Si  Si31  1  0.243942  0.417569  0.049789  1
  Si  Si32  1  0.909464  0.414950  0.021592  1
  Si  Si33  1  0.090536  0.585050  0.521592  1
  Si  Si34  1  0.590536  0.914950  0.521592  1
  Si  Si35  1  0.409464  0.085050  0.021592  1
  O  O36  1  0.502985  0.437847  0.111811  1
  O  O37  1  0.497015  0.562153  0.611811  1
  O  O38  1  0.997015  0.937847  0.611811  1
  O  O39  1  0.002985  0.062153  0.111811  1
  O  O40  1  0.941012  0.573067  -0.002718  1
  O  O41  1  0.058988  0.426933  0.497282  1
  O  O42  1  0.558988  0.073067  0.497282  1
  O  O43  1  0.441012  0.926933  -0.002718  1
  O  O44  1  0.931322  0.311464  0.800405  1
  O  O45  1  0.068678  0.688536  0.300405  1
  O  O46  1  0.568678  0.811464  0.300405  1
  O  O47  1  0.431322  0.188536  0.800405  1
  O  O48  1  0.585910  0.309007  0.818873  1
  O  O49  1  0.414090  0.690993  0.318873  1
  O  O50  1  0.914090  0.809007  0.318873  1
  O  O51  1  0.085910  0.190993  0.818873  1
  O  O52  1  0.607446  0.349347  0.296788  1
  O  O53  1  0.392554  0.650653  0.796788  1
  O  O54  1  0.892554  0.849347  0.796788  1
  O  O55  1  0.107446  0.150653  0.296788  1
  O  O56  1  0.669242  0.063848  0.991986  1
  O  O57  1  0.330758  0.936152  0.491986  1
  O  O58  1  0.830758  0.563848  0.491986  1
  O  O59  1  0.169242  0.436152  0.991986  1
  O  O60  1  0.754790  0.193548  0.273093  1
  O  O61  1  0.245210  0.806452  0.773093  1
  O  O62  1  0.745210  0.693548  0.773093  1
  O  O63  1  0.254790  0.306452  0.273093  1
  O  O64  1  0.772739  0.925215  0.114937  1
  O  O65  1  0.227261  0.074785  0.614937  1
  O  O66  1  0.727261  0.425215  0.614937  1
  O  O67  1  0.272739  0.574785  0.114937  1
  O  O68  1  0.773820  0.141962  0.797077  1
  O  O69  1  0.226180  0.858038  0.297077  1
  O  O70  1  0.726180  0.641962  0.297077  1
  O  O71  1  0.273820  0.358038  0.797077  1
  O  O72  1  0.834110  0.435731  0.992783  1
  O  O73  1  0.165890  0.564269  0.492783  1
  O  O74  1  0.665890  0.935731  0.492783  1
  O  O75  1  0.334110  0.064269  0.992783  1
  O  O76  1  0.606854  0.572047  0.988575  1
  O  O77  1  0.393146  0.427953  0.488575  1
  O  O78  1  0.893146  0.072047  0.488575  1
  O  O79  1  0.106854  0.927953  0.988575  1
  O  O80  1  0.926794  0.345453  0.282850  1
  O  O81  1  0.073206  0.654547  0.782850  1
  O  O82  1  0.573206  0.845453  0.782850  1
  O  O83  1  0.426794  0.154547  0.282850  1
