# generated using pymatgen
data_Te2Mo2WSe4
_symmetry_space_group_name_H-M   'P 1'
_cell_length_a   3.39850501
_cell_length_b   3.39846245
_cell_length_c   31.41827315
_cell_angle_alpha   90.00101669
_cell_angle_beta   90.00000000
_cell_angle_gamma   120.00041419
_symmetry_Int_Tables_number   1
_chemical_formula_structural   Te2Mo2WSe4
_chemical_formula_sum   'Te2 Mo2 W1 Se4'
_cell_volume   314.25451070
_cell_formula_units_Z   1
loop_
 _symmetry_equiv_pos_site_id
 _symmetry_equiv_pos_as_xyz
  1  'x, y, z'
loop_
 _atom_site_type_symbol
 _atom_site_label
 _atom_site_symmetry_multiplicity
 _atom_site_fract_x
 _atom_site_fract_y
 _atom_site_fract_z
 _atom_site_occupancy
  Te  Te0  1  0.333357  0.666716  0.406609  1
  Te  Te1  1  0.333353  0.666707  0.287339  1
  Mo  Mo2  1  0.333309  0.666619  0.115632  1
  Mo  Mo3  1  0.666695  0.333389  0.347001  1
  W  W4  1  0.333312  0.666624  0.578335  1
  Se  Se5  1  0.666632  0.333263  0.063125  1
  Se  Se6  1  0.666640  0.333279  0.525648  1
  Se  Se7  1  0.666650  0.333298  0.168174  1
  Se  Se8  1  0.666653  0.333305  0.630977  1
