# generated using pymatgen
data_Te2Mo3WSe6
_symmetry_space_group_name_H-M   'P 1'
_cell_length_a   3.37973675
_cell_length_b   3.37971002
_cell_length_c   38.42081539
_cell_angle_alpha   90.00049572
_cell_angle_beta   90.00000000
_cell_angle_gamma   120.00026177
_symmetry_Int_Tables_number   1
_chemical_formula_structural   Te2Mo3WSe6
_chemical_formula_sum   'Te2 Mo3 W1 Se6'
_cell_volume   380.06543660
_cell_formula_units_Z   1
loop_
 _symmetry_equiv_pos_site_id
 _symmetry_equiv_pos_as_xyz
  1  'x, y, z'
loop_
 _atom_site_type_symbol
 _atom_site_label
 _atom_site_symmetry_multiplicity
 _atom_site_fract_x
 _atom_site_fract_y
 _atom_site_fract_z
 _atom_site_occupancy
  Te  Te0  1  0.333361  0.666723  0.706425  1
  Te  Te1  1  0.333352  0.666705  0.608672  1
  Mo  Mo2  1  0.333308  0.666615  0.093898  1
  Mo  Mo3  1  0.666686  0.333372  0.281792  1
  Mo  Mo4  1  0.666693  0.333386  0.657560  1
  W  W5  1  0.333310  0.666620  0.469651  1
  Se  Se6  1  0.333358  0.666717  0.324832  1
  Se  Se7  1  0.666646  0.333291  0.050896  1
  Se  Se8  1  0.666647  0.333293  0.426469  1
  Se  Se9  1  0.666645  0.333288  0.136952  1
  Se  Se10  1  0.666647  0.333292  0.512840  1
  Se  Se11  1  0.333348  0.666698  0.238762  1
