# generated using pymatgen
data_Te2MoWSeS
_symmetry_space_group_name_H-M   'P 1'
_cell_length_a   3.40133307
_cell_length_b   3.40132960
_cell_length_c   38.79183644
_cell_angle_alpha   89.99921843
_cell_angle_beta   90.00000000
_cell_angle_gamma   120.00003389
_symmetry_Int_Tables_number   1
_chemical_formula_structural   Te2MoWSeS
_chemical_formula_sum   'Te4 Mo2 W2 Se2 S2'
_cell_volume   388.65897665
_cell_formula_units_Z   2
loop_
 _symmetry_equiv_pos_site_id
 _symmetry_equiv_pos_as_xyz
  1  'x, y, z'
loop_
 _atom_site_type_symbol
 _atom_site_label
 _atom_site_symmetry_multiplicity
 _atom_site_fract_x
 _atom_site_fract_y
 _atom_site_fract_z
 _atom_site_occupancy
  Te  Te0  1  0.333354  0.666709  0.330206  1
  Te  Te1  1  0.666635  0.333269  0.421212  1
  Te  Te2  1  0.666649  0.333296  0.518190  1
  Te  Te3  1  0.333359  0.666720  0.233239  1
  Mo  Mo4  1  0.333311  0.666622  0.093952  1
  Mo  Mo5  1  0.666692  0.333383  0.657536  1
  W  W6  1  0.333308  0.666617  0.469727  1
  W  W7  1  0.666693  0.333385  0.281733  1
  Se  Se8  1  0.333354  0.666709  0.699977  1
  Se  Se9  1  0.333354  0.666709  0.615100  1
  S  S10  1  0.666644  0.333287  0.055163  1
  S  S11  1  0.666647  0.333292  0.132712  1
