# generated using pymatgen
data_Cs2Sr2Li3B3(PO4)6
_symmetry_space_group_name_H-M   'P 1'
_cell_length_a   12.87837775
_cell_length_b   12.87837775
_cell_length_c   12.87837775
_cell_angle_alpha   90.00000000
_cell_angle_beta   90.00000000
_cell_angle_gamma   90.00000000
_symmetry_Int_Tables_number   1
_chemical_formula_structural   Cs2Sr2Li3B3(PO4)6
_chemical_formula_sum   'Cs8 Sr8 Li12 B12 P24 O96'
_cell_volume   2135.91260711
_cell_formula_units_Z   4
loop_
 _symmetry_equiv_pos_site_id
 _symmetry_equiv_pos_as_xyz
  1  'x, y, z'
loop_
 _atom_site_type_symbol
 _atom_site_label
 _atom_site_symmetry_multiplicity
 _atom_site_fract_x
 _atom_site_fract_y
 _atom_site_fract_z
 _atom_site_occupancy
  Cs  Cs0  1  0.648627  0.351373  0.851373  1
  Cs  Cs1  1  0.148627  0.148627  0.148627  1
  Cs  Cs2  1  0.851373  0.648627  0.351373  1
  Cs  Cs3  1  0.351373  0.851373  0.648627  1
  Cs  Cs4  1  0.653560  0.846440  0.153560  1
  Cs  Cs5  1  0.846440  0.153560  0.653560  1
  Cs  Cs6  1  0.346440  0.346440  0.346440  1
  Cs  Cs7  1  0.153560  0.653560  0.846440  1
  Sr  Sr8  1  0.593976  0.593976  0.593976  1
  Sr  Sr9  1  0.406024  0.093976  0.906024  1
  Sr  Sr10  1  0.093976  0.906024  0.406024  1
  Sr  Sr11  1  0.906024  0.406024  0.093976  1
  Sr  Sr12  1  0.429818  0.570182  0.070182  1
  Sr  Sr13  1  0.929818  0.929818  0.929818  1
  Sr  Sr14  1  0.070182  0.429818  0.570182  1
  Sr  Sr15  1  0.570182  0.070182  0.429818  1
  Li  Li16  1  0.695400  0.561198  0.097678  1
  Li  Li17  1  0.902322  0.195400  0.938802  1
  Li  Li18  1  0.061198  0.402322  0.304600  1
  Li  Li19  1  0.195400  0.938802  0.902322  1
  Li  Li20  1  0.402322  0.304600  0.061198  1
  Li  Li21  1  0.561198  0.097678  0.695400  1
  Li  Li22  1  0.304600  0.061198  0.402322  1
  Li  Li23  1  0.097678  0.695400  0.561198  1
  Li  Li24  1  0.938802  0.902322  0.195400  1
  Li  Li25  1  0.804600  0.438802  0.597678  1
  Li  Li26  1  0.597678  0.804600  0.438802  1
  Li  Li27  1  0.438802  0.597678  0.804600  1
  B  B28  1  0.646111  0.133060  0.121111  1
  B  B29  1  0.878889  0.146111  0.366940  1
  B  B30  1  0.633060  0.378889  0.353889  1
  B  B31  1  0.146111  0.366940  0.878889  1
  B  B32  1  0.378889  0.353889  0.633060  1
  B  B33  1  0.133060  0.121111  0.646111  1
  B  B34  1  0.353889  0.633060  0.378889  1
  B  B35  1  0.121111  0.646111  0.133060  1
  B  B36  1  0.366940  0.878889  0.146111  1
  B  B37  1  0.853889  0.866940  0.621111  1
  B  B38  1  0.621111  0.853889  0.866940  1
  B  B39  1  0.866940  0.621111  0.853889  1
  P  P40  1  0.945382  0.416488  0.817597  1
  P  P41  1  0.182403  0.445382  0.083512  1
  P  P42  1  0.916488  0.682403  0.054618  1
  P  P43  1  0.445382  0.083512  0.182403  1
  P  P44  1  0.682403  0.054618  0.916488  1
  P  P45  1  0.416488  0.817597  0.945382  1
  P  P46  1  0.054618  0.916488  0.682403  1
  P  P47  1  0.817597  0.945382  0.416488  1
  P  P48  1  0.083512  0.182403  0.445382  1
  P  P49  1  0.554618  0.583512  0.317597  1
  P  P50  1  0.317597  0.554618  0.583512  1
  P  P51  1  0.583512  0.317597  0.554618  1
  P  P52  1  0.619262  0.347290  0.138066  1
  P  P53  1  0.861934  0.119262  0.152710  1
  P  P54  1  0.847290  0.361934  0.380738  1
  P  P55  1  0.119262  0.152710  0.861934  1
  P  P56  1  0.361934  0.380738  0.847290  1
  P  P57  1  0.347290  0.138066  0.619262  1
  P  P58  1  0.380738  0.847290  0.361934  1
  P  P59  1  0.138066  0.619262  0.347290  1
  P  P60  1  0.152710  0.861934  0.119262  1
  P  P61  1  0.880738  0.652710  0.638066  1
  P  P62  1  0.638066  0.880738  0.652710  1
  P  P63  1  0.652710  0.638066  0.880738  1
  O  O64  1  0.602429  0.598526  0.210875  1
  O  O65  1  0.789125  0.102429  0.901474  1
  O  O66  1  0.098526  0.289125  0.397571  1
  O  O67  1  0.102429  0.901474  0.789125  1
  O  O68  1  0.289125  0.397571  0.098526  1
  O  O69  1  0.598526  0.210875  0.602429  1
  O  O70  1  0.397571  0.098526  0.289125  1
  O  O71  1  0.210875  0.602429  0.598526  1
  O  O72  1  0.901474  0.789125  0.102429  1
  O  O73  1  0.897571  0.401474  0.710875  1
  O  O74  1  0.710875  0.897571  0.401474  1
  O  O75  1  0.401474  0.710875  0.897571  1
  O  O76  1  0.066841  0.401176  0.801002  1
  O  O77  1  0.198998  0.566841  0.098824  1
  O  O78  1  0.901176  0.698998  0.933159  1
  O  O79  1  0.566841  0.098824  0.198998  1
  O  O80  1  0.698998  0.933159  0.901176  1
  O  O81  1  0.401176  0.801002  0.066841  1
  O  O82  1  0.933159  0.901176  0.698998  1
  O  O83  1  0.801002  0.066841  0.401176  1
  O  O84  1  0.098824  0.198998  0.566841  1
  O  O85  1  0.433159  0.598824  0.301002  1
  O  O86  1  0.301002  0.433159  0.598824  1
  O  O87  1  0.598824  0.301002  0.433159  1
  O  O88  1  0.711938  0.411641  0.101965  1
  O  O89  1  0.898035  0.211938  0.088359  1
  O  O90  1  0.911641  0.398035  0.288062  1
  O  O91  1  0.211938  0.088359  0.898035  1
  O  O92  1  0.398035  0.288062  0.911641  1
  O  O93  1  0.411641  0.101965  0.711938  1
  O  O94  1  0.288062  0.911641  0.398035  1
  O  O95  1  0.101965  0.711938  0.411641  1
  O  O96  1  0.088359  0.898035  0.211938  1
  O  O97  1  0.788062  0.588359  0.601965  1
  O  O98  1  0.601965  0.788062  0.588359  1
  O  O99  1  0.588359  0.601965  0.788062  1
  O  O100  1  0.939326  0.531999  0.859257  1
  O  O101  1  0.140743  0.439326  0.968001  1
  O  O102  1  0.031999  0.640743  0.060674  1
  O  O103  1  0.439326  0.968001  0.140743  1
  O  O104  1  0.640743  0.060674  0.031999  1
  O  O105  1  0.531999  0.859257  0.939326  1
  O  O106  1  0.060674  0.031999  0.640743  1
  O  O107  1  0.859257  0.939326  0.531999  1
  O  O108  1  0.968001  0.140743  0.439326  1
  O  O109  1  0.560674  0.468001  0.359257  1
  O  O110  1  0.359257  0.560674  0.468001  1
  O  O111  1  0.468001  0.359257  0.560674  1
  O  O112  1  0.902395  0.344837  0.901839  1
  O  O113  1  0.098161  0.402395  0.155163  1
  O  O114  1  0.844837  0.598161  0.097605  1
  O  O115  1  0.402395  0.155163  0.098161  1
  O  O116  1  0.598161  0.097605  0.844837  1
  O  O117  1  0.344837  0.901839  0.902395  1
  O  O118  1  0.097605  0.844837  0.598161  1
  O  O119  1  0.901839  0.902395  0.344837  1
  O  O120  1  0.155163  0.098161  0.402395  1
  O  O121  1  0.597605  0.655163  0.401839  1
  O  O122  1  0.401839  0.597605  0.655163  1
  O  O123  1  0.655163  0.401839  0.597605  1
  O  O124  1  0.625564  0.238156  0.082065  1
  O  O125  1  0.917935  0.125564  0.261844  1
  O  O126  1  0.738156  0.417935  0.374436  1
  O  O127  1  0.125564  0.261844  0.917935  1
  O  O128  1  0.417935  0.374436  0.738156  1
  O  O129  1  0.238156  0.082065  0.625564  1
  O  O130  1  0.374436  0.738156  0.417935  1
  O  O131  1  0.082065  0.625564  0.238156  1
  O  O132  1  0.261844  0.917935  0.125564  1
  O  O133  1  0.874436  0.761844  0.582065  1
  O  O134  1  0.582065  0.874436  0.761844  1
  O  O135  1  0.761844  0.582065  0.874436  1
  O  O136  1  0.624298  0.321273  0.256597  1
  O  O137  1  0.743403  0.124298  0.178727  1
  O  O138  1  0.821273  0.243403  0.375702  1
  O  O139  1  0.124298  0.178727  0.743403  1
  O  O140  1  0.243403  0.375702  0.821273  1
  O  O141  1  0.321273  0.256597  0.624298  1
  O  O142  1  0.375702  0.821273  0.243403  1
  O  O143  1  0.256597  0.624298  0.321273  1
  O  O144  1  0.178727  0.743403  0.124298  1
  O  O145  1  0.875702  0.678727  0.756597  1
  O  O146  1  0.756597  0.875702  0.678727  1
  O  O147  1  0.678727  0.756597  0.875702  1
  O  O148  1  0.514506  0.395488  0.109779  1
  O  O149  1  0.890221  0.014506  0.104512  1
  O  O150  1  0.895488  0.390221  0.485494  1
  O  O151  1  0.014506  0.104512  0.890221  1
  O  O152  1  0.390221  0.485494  0.895488  1
  O  O153  1  0.395488  0.109779  0.514506  1
  O  O154  1  0.485494  0.895488  0.390221  1
  O  O155  1  0.109779  0.514506  0.395488  1
  O  O156  1  0.104512  0.890221  0.014506  1
  O  O157  1  0.985494  0.604512  0.609779  1
  O  O158  1  0.609779  0.985494  0.604512  1
  O  O159  1  0.604512  0.609779  0.985494  1
