# generated using pymatgen
data_Yb11Sb10
_symmetry_space_group_name_H-M   'P 1'
_cell_length_a   11.98356588
_cell_length_b   11.98356615
_cell_length_c   12.10231216
_cell_angle_alpha   119.67595425
_cell_angle_beta   119.67595497
_cell_angle_gamma   90.00000026
_symmetry_Int_Tables_number   1
_chemical_formula_structural   Yb11Sb10
_chemical_formula_sum   'Yb22 Sb20'
_cell_volume   1240.86617343
_cell_formula_units_Z   2
loop_
 _symmetry_equiv_pos_site_id
 _symmetry_equiv_pos_as_xyz
  1  'x, y, z'
loop_
 _atom_site_type_symbol
 _atom_site_label
 _atom_site_symmetry_multiplicity
 _atom_site_fract_x
 _atom_site_fract_y
 _atom_site_fract_z
 _atom_site_occupancy
  Yb  Yb0  1  0.265554  0.603293  0.206585  1
  Yb  Yb1  1  0.188965  0.937170  0.377930  1
  Yb  Yb2  1  0.440760  0.188965  0.377930  1
  Yb  Yb3  1  0.833744  0.833744  0.000000  1
  Yb  Yb4  1  0.941031  0.603293  0.206585  1
  Yb  Yb5  1  0.811035  0.559240  0.622070  1
  Yb  Yb6  1  0.166256  0.833744  1.000000  1
  Yb  Yb7  1  0.734446  0.396707  0.793415  1
  Yb  Yb8  1  0.396707  0.058969  0.793415  1
  Yb  Yb9  1  0.188965  0.440760  0.377930  1
  Yb  Yb10  1  0.559240  0.811035  0.622070  1
  Yb  Yb11  1  0.603293  0.941031  0.206585  1
  Yb  Yb12  1  0.833744  0.166256  0.000000  1
  Yb  Yb13  1  0.811035  0.062830  0.622070  1
  Yb  Yb14  1  0.058969  0.396707  0.793415  1
  Yb  Yb15  1  0.396707  0.734446  0.793415  1
  Yb  Yb16  1  0.062830  0.811035  0.622070  1
  Yb  Yb17  1  0.336903  0.336903  0.673806  1
  Yb  Yb18  1  0.663097  0.663097  0.326194  1
  Yb  Yb19  1  0.937170  0.188965  0.377930  1
  Yb  Yb20  1  0.603293  0.265554  0.206585  1
  Yb  Yb21  1  0.166256  0.166256  1.000000  1
  Sb  Sb22  1  0.116886  0.116886  0.647475  1
  Sb  Sb23  1  0.000000  0.650093  0.000000  1
  Sb  Sb24  1  0.626329  0.373671  1.000000  1
  Sb  Sb25  1  0.469411  0.469411  0.352525  1
  Sb  Sb26  1  0.373671  0.373671  0.000000  1
  Sb  Sb27  1  0.349907  1.000000  1.000000  1
  Sb  Sb28  1  0.883114  0.883114  0.352525  1
  Sb  Sb29  1  0.116886  0.530589  0.647475  1
  Sb  Sb30  1  0.127873  0.127873  0.255746  1
  Sb  Sb31  1  0.626329  0.626329  1.000000  1
  Sb  Sb32  1  0.872127  0.872127  0.744254  1
  Sb  Sb33  1  0.883114  0.469411  0.352525  1
  Sb  Sb34  1  0.530589  0.530589  0.647475  1
  Sb  Sb35  1  -0.000000  0.349907  -0.000000  1
  Sb  Sb36  1  0.650093  0.000000  0.000000  1
  Sb  Sb37  1  0.469411  0.883114  0.352525  1
  Sb  Sb38  1  0.373671  0.626329  0.000000  1
  Sb  Sb39  1  0.250000  0.750000  0.500000  1
  Sb  Sb40  1  0.530589  0.116886  0.647475  1
  Sb  Sb41  1  0.750000  0.250000  0.500000  1
