# generated using pymatgen
data_Te3MoWSe
_symmetry_space_group_name_H-M   'P 1'
_cell_length_a   3.49703656
_cell_length_b   3.49700551
_cell_length_c   39.64070771
_cell_angle_alpha   89.99989206
_cell_angle_beta   90.00000000
_cell_angle_gamma   120.00029376
_symmetry_Int_Tables_number   1
_chemical_formula_structural   Te3MoWSe
_chemical_formula_sum   'Te6 Mo2 W2 Se2'
_cell_volume   419.82397297
_cell_formula_units_Z   2
loop_
 _symmetry_equiv_pos_site_id
 _symmetry_equiv_pos_as_xyz
  1  'x, y, z'
loop_
 _atom_site_type_symbol
 _atom_site_label
 _atom_site_symmetry_multiplicity
 _atom_site_fract_x
 _atom_site_fract_y
 _atom_site_fract_z
 _atom_site_occupancy
  Te  Te0  1  0.333354  0.666710  0.328337  1
  Te  Te1  1  0.666643  0.333285  0.047671  1
  Te  Te2  1  0.666651  0.333301  0.423420  1
  Te  Te3  1  0.666649  0.333297  0.140179  1
  Te  Te4  1  0.666639  0.333277  0.515917  1
  Te  Te5  1  0.333352  0.666705  0.235263  1
  Mo  Mo6  1  0.333308  0.666617  0.093903  1
  Mo  Mo7  1  0.333309  0.666618  0.469683  1
  W  W8  1  0.666690  0.333380  0.281797  1
  W  W9  1  0.666690  0.333379  0.657540  1
  Se  Se10  1  0.333355  0.666712  0.698467  1
  Se  Se11  1  0.333359  0.666719  0.616572  1
