# generated using pymatgen
data_Be2Zn
_symmetry_space_group_name_H-M   'P 1'
_cell_length_a   2.52127770
_cell_length_b   2.49710438
_cell_length_c   6.01363986
_cell_angle_alpha   83.92502955
_cell_angle_beta   77.89933090
_cell_angle_gamma   59.67924073
_symmetry_Int_Tables_number   1
_chemical_formula_structural   Be2Zn
_chemical_formula_sum   'Be2 Zn1'
_cell_volume   31.95612518
_cell_formula_units_Z   1
loop_
 _symmetry_equiv_pos_site_id
 _symmetry_equiv_pos_as_xyz
  1  'x, y, z'
loop_
 _atom_site_type_symbol
 _atom_site_label
 _atom_site_symmetry_multiplicity
 _atom_site_fract_x
 _atom_site_fract_y
 _atom_site_fract_z
 _atom_site_occupancy
  Be  Be0  1  0.823417  0.000000  0.353166  1
  Be  Be1  1  0.176583  -0.000000  0.646834  1
  Zn  Zn2  1  0.500000  -0.000000  -0.000000  1
