# generated using pymatgen
data_Tb2Si3Rh
_symmetry_space_group_name_H-M   'P 1'
_cell_length_a   8.19188758
_cell_length_b   8.19188758
_cell_length_c   7.96016616
_cell_angle_alpha   90.00000000
_cell_angle_beta   90.00000000
_cell_angle_gamma   120.00000000
_symmetry_Int_Tables_number   1
_chemical_formula_structural   Tb2Si3Rh
_chemical_formula_sum   'Tb8 Si12 Rh4'
_cell_volume   462.61608868
_cell_formula_units_Z   4
loop_
 _symmetry_equiv_pos_site_id
 _symmetry_equiv_pos_as_xyz
  1  'x, y, z'
loop_
 _atom_site_type_symbol
 _atom_site_label
 _atom_site_symmetry_multiplicity
 _atom_site_fract_x
 _atom_site_fract_y
 _atom_site_fract_z
 _atom_site_occupancy
  Si  Si0  1  0.833316  0.166683  0.499731  1
  Si  Si1  1  0.833317  0.666633  0.499731  1
  Si  Si2  1  0.333367  0.166684  0.499731  1
  Si  Si3  1  0.166684  0.333367  0.500269  1
  Si  Si4  1  0.333367  0.166684  0.000269  1
  Si  Si5  1  0.833316  0.166683  0.000269  1
  Si  Si6  1  0.833317  0.666633  0.000269  1
  Si  Si7  1  0.166684  0.333367  0.999731  1
  Si  Si8  1  0.666633  0.833317  0.999731  1
  Si  Si9  1  0.666633  0.833317  0.500269  1
  Si  Si10  1  0.166683  0.833316  0.500269  1
  Si  Si11  1  0.166683  0.833316  0.999731  1
  Rh  Rh12  1  0.666667  0.333333  0.529365  1
  Rh  Rh13  1  0.333333  0.666667  0.470635  1
  Rh  Rh14  1  0.666667  0.333333  0.970635  1
  Rh  Rh15  1  0.333333  0.666667  0.029365  1
  Tb  Tb16  1  0.000000  0.000000  0.750000  1
  Tb  Tb17  1  0.507334  0.014678  0.250000  1
  Tb  Tb18  1  0.507344  0.492666  0.250000  1
  Tb  Tb19  1  0.000000  0.000000  0.250000  1
  Tb  Tb20  1  0.985322  0.492656  0.250000  1
  Tb  Tb21  1  0.492656  0.985322  0.750000  1
  Tb  Tb22  1  0.492666  0.507344  0.750000  1
  Tb  Tb23  1  0.014678  0.507334  0.750000  1
