# generated using pymatgen
data_Tm4In(NiGe2)2
_symmetry_space_group_name_H-M   'P 1'
_cell_length_a   4.19197044
_cell_length_b   6.98959571
_cell_length_c   7.95385665
_cell_angle_alpha   107.93285520
_cell_angle_beta   105.27891677
_cell_angle_gamma   90.00000004
_symmetry_Int_Tables_number   1
_chemical_formula_structural   Tm4In(NiGe2)2
_chemical_formula_sum   'Tm4 In1 Ni2 Ge4'
_cell_volume   213.05285986
_cell_formula_units_Z   1
loop_
 _symmetry_equiv_pos_site_id
 _symmetry_equiv_pos_as_xyz
  1  'x, y, z'
loop_
 _atom_site_type_symbol
 _atom_site_label
 _atom_site_symmetry_multiplicity
 _atom_site_fract_x
 _atom_site_fract_y
 _atom_site_fract_z
 _atom_site_occupancy
  Ni  Ni0  1  0.218104  0.637961  0.436208  1
  Ni  Ni1  1  0.781896  0.362039  0.563792  1
  Ge  Ge2  1  0.066171  0.662668  0.132343  1
  Ge  Ge3  1  0.933829  0.337332  0.867657  1
  Ge  Ge4  1  0.201550  0.264451  0.403101  1
  Ge  Ge5  1  0.798450  0.735549  0.596899  1
  In  In6  1  0.000000  0.000000  0.000000  1
  Tm  Tm7  1  0.343971  0.062829  0.687941  1
  Tm  Tm8  1  0.656029  0.937171  0.312059  1
  Tm  Tm9  1  0.408693  0.609027  0.817385  1
  Tm  Tm10  1  0.591307  0.390973  0.182615  1
