# generated using pymatgen
data_Sr3AlSb3
_symmetry_space_group_name_H-M   'P 1'
_cell_length_a   6.96511392
_cell_length_b   10.88815813
_cell_length_c   13.63881423
_cell_angle_alpha   90.00000000
_cell_angle_beta   90.00000000
_cell_angle_gamma   108.65374036
_symmetry_Int_Tables_number   1
_chemical_formula_structural   Sr3AlSb3
_chemical_formula_sum   'Sr12 Al4 Sb12'
_cell_volume   979.99573940
_cell_formula_units_Z   4
loop_
 _symmetry_equiv_pos_site_id
 _symmetry_equiv_pos_as_xyz
  1  'x, y, z'
loop_
 _atom_site_type_symbol
 _atom_site_label
 _atom_site_symmetry_multiplicity
 _atom_site_fract_x
 _atom_site_fract_y
 _atom_site_fract_z
 _atom_site_occupancy
  Al  Al0  1  0.913713  0.827427  0.000000  1
  Al  Al1  1  0.586287  0.172573  0.500000  1
  Al  Al2  1  0.086287  0.172573  0.000000  1
  Al  Al3  1  0.413713  0.827427  0.500000  1
  Sr  Sr4  1  0.810136  0.000000  0.645900  1
  Sr  Sr5  1  0.310136  0.000000  0.854100  1
  Sr  Sr6  1  0.689864  0.000000  0.145900  1
  Sr  Sr7  1  0.189864  0.000000  0.354100  1
  Sr  Sr8  1  0.126744  0.648101  0.129113  1
  Sr  Sr9  1  0.978643  0.351899  0.370887  1
  Sr  Sr10  1  0.373256  0.351899  0.629113  1
  Sr  Sr11  1  0.521357  0.648101  0.870887  1
  Sr  Sr12  1  0.873256  0.351899  0.870887  1
  Sr  Sr13  1  0.021357  0.648101  0.629113  1
  Sr  Sr14  1  0.626744  0.648101  0.370887  1
  Sr  Sr15  1  0.478643  0.351899  0.129113  1
  Sb  Sb16  1  0.287938  0.000000  0.607587  1
  Sb  Sb17  1  0.787938  0.000000  0.892413  1
  Sb  Sb18  1  0.212062  0.000000  0.107587  1
  Sb  Sb19  1  0.712062  0.000000  0.392413  1
  Sb  Sb20  1  0.627488  0.678868  0.122770  1
  Sb  Sb21  1  0.448620  0.321132  0.377230  1
  Sb  Sb22  1  0.872512  0.321132  0.622770  1
  Sb  Sb23  1  0.051380  0.678868  0.877230  1
  Sb  Sb24  1  0.372512  0.321132  0.877230  1
  Sb  Sb25  1  0.551380  0.678868  0.622770  1
  Sb  Sb26  1  0.127488  0.678868  0.377230  1
  Sb  Sb27  1  0.948620  0.321132  0.122770  1
