# generated using pymatgen
data_Ta3S2
_symmetry_space_group_name_H-M   'P 1'
_cell_length_a   5.65280439
_cell_length_b   7.53015569
_cell_length_c   9.14337072
_cell_angle_alpha   90.00000000
_cell_angle_beta   108.00623401
_cell_angle_gamma   90.00000000
_symmetry_Int_Tables_number   1
_chemical_formula_structural   Ta3S2
_chemical_formula_sum   'Ta12 S8'
_cell_volume   370.13931039
_cell_formula_units_Z   4
loop_
 _symmetry_equiv_pos_site_id
 _symmetry_equiv_pos_as_xyz
  1  'x, y, z'
loop_
 _atom_site_type_symbol
 _atom_site_label
 _atom_site_symmetry_multiplicity
 _atom_site_fract_x
 _atom_site_fract_y
 _atom_site_fract_z
 _atom_site_occupancy
  S  S0  1  0.909375  0.828145  0.081059  1
  S  S1  1  0.828316  0.171855  0.918941  1
  S  S2  1  0.409375  0.171855  0.081059  1
  S  S3  1  0.328316  0.828145  0.918941  1
  S  S4  1  0.487384  0.584214  0.233378  1
  S  S5  1  0.254006  0.415786  0.766622  1
  S  S6  1  0.987384  0.415786  0.233378  1
  S  S7  1  0.754006  0.584214  0.766622  1
  Ta  Ta8  1  0.728664  0.656196  0.500000  1
  Ta  Ta9  1  0.228664  0.343804  0.500000  1
  Ta  Ta10  1  0.994927  0.994561  0.500000  1
  Ta  Ta11  1  0.494927  0.005439  0.500000  1
  Ta  Ta12  1  0.166892  0.719097  0.333411  1
  Ta  Ta13  1  0.833480  0.280903  0.666589  1
  Ta  Ta14  1  0.666892  0.280903  0.333411  1
  Ta  Ta15  1  0.333480  0.719097  0.666589  1
  Ta  Ta16  1  0.101547  0.104705  0.215537  1
  Ta  Ta17  1  0.886010  0.895295  0.784463  1
  Ta  Ta18  1  0.601547  0.895295  0.215537  1
  Ta  Ta19  1  0.386010  0.104705  0.784463  1
