# generated using pymatgen
data_Cr3N2
_symmetry_space_group_name_H-M   'P 1'
_cell_length_a   3.13459414
_cell_length_b   3.15430243
_cell_length_c   5.68568969
_cell_angle_alpha   89.99999997
_cell_angle_beta   89.78175421
_cell_angle_gamma   120.20820128
_symmetry_Int_Tables_number   1
_chemical_formula_structural   Cr3N2
_chemical_formula_sum   'Cr3 N2'
_cell_volume   48.58243166
_cell_formula_units_Z   1
loop_
 _symmetry_equiv_pos_site_id
 _symmetry_equiv_pos_as_xyz
  1  'x, y, z'
loop_
 _atom_site_type_symbol
 _atom_site_label
 _atom_site_symmetry_multiplicity
 _atom_site_fract_x
 _atom_site_fract_y
 _atom_site_fract_z
 _atom_site_occupancy
  Cr  Cr0  1  0.333334  0.666667  0.660718  1
  Cr  Cr1  1  0.666666  0.333333  0.339282  1
  Cr  Cr2  1  -0.000000  -0.000000  -0.000000  1
  N  N3  1  0.336343  0.668172  0.256353  1
  N  N4  1  0.663657  0.331828  0.743647  1
