# generated using pymatgen
data_SmSi2
_symmetry_space_group_name_H-M   'P 1'
_cell_length_a   4.11424883
_cell_length_b   4.11424883
_cell_length_c   7.71741202
_cell_angle_alpha   105.45944602
_cell_angle_beta   105.45944600
_cell_angle_gamma   89.99999997
_symmetry_Int_Tables_number   1
_chemical_formula_structural   SmSi2
_chemical_formula_sum   'Sm2 Si4'
_cell_volume   120.99571759
_cell_formula_units_Z   2
loop_
 _symmetry_equiv_pos_site_id
 _symmetry_equiv_pos_as_xyz
  1  'x, y, z'
loop_
 _atom_site_type_symbol
 _atom_site_label
 _atom_site_symmetry_multiplicity
 _atom_site_fract_x
 _atom_site_fract_y
 _atom_site_fract_z
 _atom_site_occupancy
  Si  Si0  1  0.708732  0.958732  0.917465  1
  Si  Si1  1  0.458732  0.208732  0.417465  1
  Si  Si2  1  0.541268  0.791268  0.582535  1
  Si  Si3  1  0.291268  0.041268  0.082535  1
  Sm  Sm4  1  0.875000  0.625000  0.250000  1
  Sm  Sm5  1  0.125000  0.375000  0.750000  1
