# generated using pymatgen
data_Te3MoWS
_symmetry_space_group_name_H-M   'P 1'
_cell_length_a   3.45062880
_cell_length_b   3.45063667
_cell_length_c   39.33342564
_cell_angle_alpha   90.00047154
_cell_angle_beta   90.00000000
_cell_angle_gamma   119.99992453
_symmetry_Int_Tables_number   1
_chemical_formula_structural   Te3MoWS
_chemical_formula_sum   'Te6 Mo2 W2 S2'
_cell_volume   405.59277493
_cell_formula_units_Z   2
loop_
 _symmetry_equiv_pos_site_id
 _symmetry_equiv_pos_as_xyz
  1  'x, y, z'
loop_
 _atom_site_type_symbol
 _atom_site_label
 _atom_site_symmetry_multiplicity
 _atom_site_fract_x
 _atom_site_fract_y
 _atom_site_fract_z
 _atom_site_occupancy
  Te  Te0  1  0.333361  0.666723  0.328903  1
  Te  Te1  1  0.333352  0.666705  0.704850  1
  Te  Te2  1  0.666648  0.333294  0.046808  1
  Te  Te3  1  0.666650  0.333300  0.140920  1
  Te  Te4  1  0.333350  0.666700  0.234792  1
  Te  Te5  1  0.333348  0.666697  0.610221  1
  Mo  Mo6  1  0.333312  0.666623  0.093849  1
  Mo  Mo7  1  0.666693  0.333387  0.281920  1
  W  W8  1  0.333311  0.666622  0.469669  1
  W  W9  1  0.666685  0.333370  0.657519  1
  S  S10  1  0.666641  0.333282  0.431715  1
  S  S11  1  0.666649  0.333297  0.507585  1
