# generated using pymatgen
data_Tl(TeMo)3
_symmetry_space_group_name_H-M   'P 1'
_cell_length_a   9.73871868
_cell_length_b   9.73871869
_cell_length_c   4.62013766
_cell_angle_alpha   90.00000000
_cell_angle_beta   90.00000000
_cell_angle_gamma   119.99999999
_symmetry_Int_Tables_number   1
_chemical_formula_structural   Tl(TeMo)3
_chemical_formula_sum   'Tl2 Te6 Mo6'
_cell_volume   379.48025981
_cell_formula_units_Z   2
loop_
 _symmetry_equiv_pos_site_id
 _symmetry_equiv_pos_as_xyz
  1  'x, y, z'
loop_
 _atom_site_type_symbol
 _atom_site_label
 _atom_site_symmetry_multiplicity
 _atom_site_fract_x
 _atom_site_fract_y
 _atom_site_fract_z
 _atom_site_occupancy
  Mo  Mo0  1  0.169678  0.143032  0.250000  1
  Mo  Mo1  1  0.026646  0.169678  0.750000  1
  Mo  Mo2  1  0.143032  0.973354  0.750000  1
  Mo  Mo3  1  0.856968  0.026646  0.250000  1
  Mo  Mo4  1  0.973354  0.830322  0.250000  1
  Mo  Mo5  1  0.830322  0.856968  0.750000  1
  Te  Te6  1  0.056797  0.361281  0.250000  1
  Te  Te7  1  0.695516  0.056797  0.750000  1
  Te  Te8  1  0.361281  0.304484  0.750000  1
  Te  Te9  1  0.638719  0.695516  0.250000  1
  Te  Te10  1  0.304484  0.943203  0.250000  1
  Te  Te11  1  0.943203  0.638719  0.750000  1
  Tl  Tl12  1  0.666667  0.333333  0.250000  1
  Tl  Tl13  1  0.333333  0.666667  0.750000  1
