# generated using pymatgen
data_Zn(NF2)2
_symmetry_space_group_name_H-M   'P 1'
_cell_length_a   3.96639029
_cell_length_b   3.96639029
_cell_length_c   6.80033939
_cell_angle_alpha   106.95567412
_cell_angle_beta   106.95567412
_cell_angle_gamma   90.00000000
_symmetry_Int_Tables_number   1
_chemical_formula_structural   Zn(NF2)2
_chemical_formula_sum   'Zn1 N2 F4'
_cell_volume   97.46189100
_cell_formula_units_Z   1
loop_
 _symmetry_equiv_pos_site_id
 _symmetry_equiv_pos_as_xyz
  1  'x, y, z'
loop_
 _atom_site_type_symbol
 _atom_site_label
 _atom_site_symmetry_multiplicity
 _atom_site_fract_x
 _atom_site_fract_y
 _atom_site_fract_z
 _atom_site_occupancy
  Zn  Zn0  1  0.000000  -0.000000  0.000000  1
  N  N1  1  0.332014  0.332014  0.664029  1
  N  N2  1  0.667986  0.667986  0.335971  1
  F  F3  1  0.222289  0.222289  0.444578  1
  F  F4  1  0.777711  0.777711  0.555422  1
  F  F5  1  0.000000  0.500000  0.000000  1
  F  F6  1  0.500000  0.000000  0.000000  1
