# generated using pymatgen
data_BaPSe3
_symmetry_space_group_name_H-M   'P 1'
_cell_length_a   7.16979182
_cell_length_b   8.12517151
_cell_length_c   10.43252774
_cell_angle_alpha   90.00000000
_cell_angle_beta   91.16260365
_cell_angle_gamma   90.00000000
_symmetry_Int_Tables_number   1
_chemical_formula_structural   BaPSe3
_chemical_formula_sum   'Ba4 P4 Se12'
_cell_volume   607.63001404
_cell_formula_units_Z   4
loop_
 _symmetry_equiv_pos_site_id
 _symmetry_equiv_pos_as_xyz
  1  'x, y, z'
loop_
 _atom_site_type_symbol
 _atom_site_label
 _atom_site_symmetry_multiplicity
 _atom_site_fract_x
 _atom_site_fract_y
 _atom_site_fract_z
 _atom_site_occupancy
  P  P0  1  0.047766  0.892019  0.439544  1
  P  P1  1  0.452234  0.392019  0.060456  1
  P  P2  1  0.952234  0.107981  0.560456  1
  P  P3  1  0.547766  0.607981  0.939544  1
  Se  Se4  1  0.572074  0.513775  0.742708  1
  Se  Se5  1  0.927926  0.013775  0.757292  1
  Se  Se6  1  0.427926  0.486225  0.257292  1
  Se  Se7  1  0.072074  0.986225  0.242708  1
  Se  Se8  1  0.810423  0.700002  0.028668  1
  Se  Se9  1  0.689577  0.200002  0.471332  1
  Se  Se10  1  0.189577  0.299998  0.971332  1
  Se  Se11  1  0.310423  0.799998  0.528668  1
  Se  Se12  1  0.325112  0.793910  0.958670  1
  Se  Se13  1  0.174888  0.293910  0.541330  1
  Se  Se14  1  0.674888  0.206090  0.041330  1
  Se  Se15  1  0.825112  0.706090  0.458670  1
  Ba  Ba16  1  0.540411  0.902582  0.248205  1
  Ba  Ba17  1  0.959589  0.402582  0.251795  1
  Ba  Ba18  1  0.459589  0.097418  0.751795  1
  Ba  Ba19  1  0.040411  0.597418  0.748205  1
