# generated using pymatgen
data_KTb(PO3)4
_symmetry_space_group_name_H-M   'P 1'
_cell_length_a   7.35640277
_cell_length_b   7.97634584
_cell_length_c   8.45038883
_cell_angle_alpha   90.00000000
_cell_angle_beta   90.00000000
_cell_angle_gamma   91.50465912
_symmetry_Int_Tables_number   1
_chemical_formula_structural   KTb(PO3)4
_chemical_formula_sum   'K2 Tb2 P8 O24'
_cell_volume   495.67429118
_cell_formula_units_Z   2
loop_
 _symmetry_equiv_pos_site_id
 _symmetry_equiv_pos_as_xyz
  1  'x, y, z'
loop_
 _atom_site_type_symbol
 _atom_site_label
 _atom_site_symmetry_multiplicity
 _atom_site_fract_x
 _atom_site_fract_y
 _atom_site_fract_z
 _atom_site_occupancy
  O  O0  1  0.608275  0.574045  0.939293  1
  O  O1  1  0.391725  0.425955  0.439293  1
  O  O2  1  0.019467  0.926465  0.700061  1
  O  O3  1  0.980533  0.073535  0.200061  1
  O  O4  1  0.523975  0.353171  0.152943  1
  O  O5  1  0.476025  0.646829  0.652943  1
  O  O6  1  0.535220  0.273703  0.860834  1
  O  O7  1  0.464780  0.726297  0.360834  1
  O  O8  1  0.820887  0.339022  0.011614  1
  O  O9  1  0.179113  0.660978  0.511614  1
  O  O10  1  0.964911  0.537176  0.806222  1
  O  O11  1  0.035089  0.462824  0.306222  1
  O  O12  1  0.909117  0.828162  0.005993  1
  O  O13  1  0.090883  0.171838  0.505992  1
  O  O14  1  0.692231  0.892605  0.221298  1
  O  O15  1  0.307769  0.107395  0.721298  1
  O  O16  1  0.009800  0.779142  0.288226  1
  O  O17  1  0.990200  0.220858  0.788226  1
  O  O18  1  0.839756  0.617134  0.506563  1
  O  O19  1  0.160244  0.382866  0.006563  1
  O  O20  1  0.679056  0.928103  0.522778  1
  O  O21  1  0.320944  0.071897  0.022778  1
  O  O22  1  0.431893  0.042931  0.346270  1
  O  O23  1  0.568107  0.957069  0.846270  1
  P  P24  1  0.995157  0.381687  0.902056  1
  P  P25  1  0.004843  0.618313  0.402056  1
  P  P26  1  0.613379  0.397397  0.998749  1
  P  P27  1  0.386621  0.602603  0.498749  1
  P  P28  1  0.433934  0.092133  0.876126  1
  P  P29  1  0.566066  0.907867  0.376126  1
  P  P30  1  0.097710  0.099158  0.668939  1
  P  P31  1  0.902290  0.900842  0.168939  1
  K  K32  1  0.267224  0.716762  0.938317  1
  K  K33  1  0.732776  0.283238  0.438317  1
  Tb  Tb34  1  0.238151  0.242067  0.250319  1
  Tb  Tb35  1  0.761849  0.757933  0.750319  1
