# generated using pymatgen
data_Te2MoWSe2
_symmetry_space_group_name_H-M   'P 1'
_cell_length_a   3.43836048
_cell_length_b   3.43835264
_cell_length_c   39.16074503
_cell_angle_alpha   90.00094537
_cell_angle_beta   90.00000000
_cell_angle_gamma   120.00007543
_symmetry_Int_Tables_number   1
_chemical_formula_structural   Te2MoWSe2
_chemical_formula_sum   'Te4 Mo2 W2 Se4'
_cell_volume   400.94340088
_cell_formula_units_Z   2
loop_
 _symmetry_equiv_pos_site_id
 _symmetry_equiv_pos_as_xyz
  1  'x, y, z'
loop_
 _atom_site_type_symbol
 _atom_site_label
 _atom_site_symmetry_multiplicity
 _atom_site_fract_x
 _atom_site_fract_y
 _atom_site_fract_z
 _atom_site_occupancy
  Te  Te0  1  0.333358  0.666717  0.329135  1
  Te  Te1  1  0.666643  0.333284  0.422037  1
  Te  Te2  1  0.666647  0.333293  0.517364  1
  Te  Te3  1  0.333350  0.666700  0.234383  1
  Mo  Mo4  1  0.333309  0.666618  0.093925  1
  Mo  Mo5  1  0.666689  0.333378  0.281752  1
  W  W6  1  0.333308  0.666616  0.469684  1
  W  W7  1  0.666697  0.333393  0.657533  1
  Se  Se8  1  0.333356  0.666714  0.699458  1
  Se  Se9  1  0.666646  0.333290  0.052133  1
  Se  Se10  1  0.666647  0.333292  0.135715  1
  Se  Se11  1  0.333352  0.666706  0.615630  1
