# generated using pymatgen
data_TeMoWSe2S
_symmetry_space_group_name_H-M   'P 1'
_cell_length_a   3.34357126
_cell_length_b   3.34357220
_cell_length_c   38.08547028
_cell_angle_alpha   89.99967040
_cell_angle_beta   90.00000000
_cell_angle_gamma   119.99999067
_symmetry_Int_Tables_number   1
_chemical_formula_structural   TeMoWSe2S
_chemical_formula_sum   'Te2 Mo2 W2 Se4 S2'
_cell_volume   368.73238702
_cell_formula_units_Z   2
loop_
 _symmetry_equiv_pos_site_id
 _symmetry_equiv_pos_as_xyz
  1  'x, y, z'
loop_
 _atom_site_type_symbol
 _atom_site_label
 _atom_site_symmetry_multiplicity
 _atom_site_fract_x
 _atom_site_fract_y
 _atom_site_fract_z
 _atom_site_occupancy
  Te  Te0  1  0.333367  0.666736  0.331852  1
  Te  Te1  1  0.333350  0.666700  0.231746  1
  Mo  Mo2  1  0.333307  0.666613  0.093878  1
  Mo  Mo3  1  0.333311  0.666622  0.469688  1
  W  W4  1  0.666690  0.333379  0.281782  1
  W  W5  1  0.666688  0.333377  0.657537  1
  Se  Se6  1  0.666636  0.333270  0.050182  1
  Se  Se7  1  0.666647  0.333292  0.425969  1
  Se  Se8  1  0.666647  0.333292  0.137620  1
  Se  Se9  1  0.666648  0.333294  0.513422  1
  S  S10  1  0.333353  0.666708  0.697534  1
  S  S11  1  0.333357  0.666716  0.617537  1
