# generated using pymatgen
data_Si3H
_symmetry_space_group_name_H-M   'P 1'
_cell_length_a   3.87699917
_cell_length_b   3.87644360
_cell_length_c   11.42913526
_cell_angle_alpha   80.23438175
_cell_angle_beta   80.23483382
_cell_angle_gamma   59.99526033
_symmetry_Int_Tables_number   1
_chemical_formula_structural   Si3H
_chemical_formula_sum   'Si6 H2'
_cell_volume   145.86779346
_cell_formula_units_Z   2
loop_
 _symmetry_equiv_pos_site_id
 _symmetry_equiv_pos_as_xyz
  1  'x, y, z'
loop_
 _atom_site_type_symbol
 _atom_site_label
 _atom_site_symmetry_multiplicity
 _atom_site_fract_x
 _atom_site_fract_y
 _atom_site_fract_z
 _atom_site_occupancy
  Si  Si0  1  0.416173  0.416212  0.751442  1
  Si  Si1  1  0.583827  0.583788  0.248558  1
  Si  Si2  1  0.345072  0.345009  0.964847  1
  Si  Si3  1  0.654928  0.654991  0.035153  1
  Si  Si4  1  0.772068  0.772126  0.683739  1
  Si  Si5  1  0.227932  0.227874  0.316261  1
  H  H6  1  0.816796  0.816822  0.549585  1
  H  H7  1  0.183204  0.183178  0.450415  1
