# generated using pymatgen
data_Rb4B2S4O17
_symmetry_space_group_name_H-M   'P 1'
_cell_length_a   8.19588706
_cell_length_b   10.81275330
_cell_length_c   20.77285875
_cell_angle_alpha   90.00000000
_cell_angle_beta   90.00000000
_cell_angle_gamma   90.00000000
_symmetry_Int_Tables_number   1
_chemical_formula_structural   Rb4B2S4O17
_chemical_formula_sum   'Rb16 B8 S16 O68'
_cell_volume   1840.89292055
_cell_formula_units_Z   4
loop_
 _symmetry_equiv_pos_site_id
 _symmetry_equiv_pos_as_xyz
  1  'x, y, z'
loop_
 _atom_site_type_symbol
 _atom_site_label
 _atom_site_symmetry_multiplicity
 _atom_site_fract_x
 _atom_site_fract_y
 _atom_site_fract_z
 _atom_site_occupancy
  Rb  Rb0  1  0.750000  -0.000000  0.961676  1
  Rb  Rb1  1  0.750000  0.500000  0.538324  1
  Rb  Rb2  1  0.250000  -0.000000  0.038324  1
  Rb  Rb3  1  0.250000  0.500000  0.461676  1
  Rb  Rb4  1  0.503844  0.623566  0.906922  1
  Rb  Rb5  1  0.996156  0.376434  0.906922  1
  Rb  Rb6  1  0.503844  0.876434  0.593078  1
  Rb  Rb7  1  0.996156  0.123566  0.593078  1
  Rb  Rb8  1  0.496156  0.376434  0.093078  1
  Rb  Rb9  1  0.003844  0.623566  0.093078  1
  Rb  Rb10  1  0.496156  0.123566  0.406922  1
  Rb  Rb11  1  0.003844  0.876434  0.406922  1
  Rb  Rb12  1  0.656585  0.250000  0.750000  1
  Rb  Rb13  1  0.843415  0.750000  0.750000  1
  Rb  Rb14  1  0.343415  0.750000  0.250000  1
  Rb  Rb15  1  0.156585  0.250000  0.250000  1
  B  B16  1  0.197732  0.897869  0.854078  1
  B  B17  1  0.302268  0.102131  0.854078  1
  B  B18  1  0.197732  0.602131  0.645922  1
  B  B19  1  0.302268  0.397869  0.645922  1
  B  B20  1  0.802268  0.102131  0.145922  1
  B  B21  1  0.697732  0.897869  0.145922  1
  B  B22  1  0.802268  0.397869  0.354078  1
  B  B23  1  0.697732  0.602131  0.354078  1
  S  S24  1  0.456668  0.276288  0.930401  1
  S  S25  1  0.043332  0.723712  0.930401  1
  S  S26  1  0.456668  0.223712  0.569599  1
  S  S27  1  0.043332  0.776288  0.569599  1
  S  S28  1  0.543332  0.723712  0.069599  1
  S  S29  1  0.956668  0.276288  0.069599  1
  S  S30  1  0.543332  0.776288  0.430401  1
  S  S31  1  0.956668  0.223712  0.430401  1
  S  S32  1  0.490266  0.933616  0.797758  1
  S  S33  1  0.009734  0.066384  0.797758  1
  S  S34  1  0.490266  0.566384  0.702242  1
  S  S35  1  0.009734  0.433616  0.702242  1
  S  S36  1  0.509734  0.066384  0.202242  1
  S  S37  1  0.990266  0.933616  0.202242  1
  S  S38  1  0.509734  0.433616  0.297758  1
  S  S39  1  0.990266  0.566384  0.297758  1
  O  O40  1  0.750000  -0.000000  0.107949  1
  O  O41  1  0.750000  0.500000  0.392051  1
  O  O42  1  0.250000  -0.000000  0.892051  1
  O  O43  1  0.250000  0.500000  0.607949  1
  O  O44  1  0.184652  0.778062  0.884572  1
  O  O45  1  0.315348  0.221938  0.884572  1
  O  O46  1  0.184652  0.721938  0.615428  1
  O  O47  1  0.315348  0.278062  0.615428  1
  O  O48  1  0.815348  0.221938  0.115428  1
  O  O49  1  0.684652  0.778062  0.115428  1
  O  O50  1  0.815348  0.278062  0.384572  1
  O  O51  1  0.684652  0.721938  0.384572  1
  O  O52  1  0.462348  0.070373  0.819674  1
  O  O53  1  0.037652  0.929627  0.819674  1
  O  O54  1  0.462348  0.429627  0.680326  1
  O  O55  1  0.037652  0.570373  0.680326  1
  O  O56  1  0.537652  0.929627  0.180326  1
  O  O57  1  0.962348  0.070373  0.180326  1
  O  O58  1  0.537652  0.570373  0.319674  1
  O  O59  1  0.962348  0.429627  0.319674  1
  O  O60  1  0.319345  0.874977  0.797528  1
  O  O61  1  0.180655  0.125023  0.797528  1
  O  O62  1  0.319345  0.625023  0.702472  1
  O  O63  1  0.180655  0.374977  0.702472  1
  O  O64  1  0.680655  0.125023  0.202472  1
  O  O65  1  0.819345  0.874977  0.202472  1
  O  O66  1  0.680655  0.374977  0.297528  1
  O  O67  1  0.819345  0.625023  0.297528  1
  O  O68  1  0.622124  0.613460  0.042637  1
  O  O69  1  0.877876  0.386540  0.042637  1
  O  O70  1  0.622124  0.886540  0.457363  1
  O  O71  1  0.877876  0.113460  0.457363  1
  O  O72  1  0.377876  0.386540  0.957363  1
  O  O73  1  0.122124  0.613460  0.957363  1
  O  O74  1  0.377876  0.113460  0.542637  1
  O  O75  1  0.122124  0.886540  0.542637  1
  O  O76  1  0.508556  0.818640  0.020804  1
  O  O77  1  0.991444  0.181360  0.020804  1
  O  O78  1  0.508556  0.681360  0.479196  1
  O  O79  1  0.991444  0.318640  0.479196  1
  O  O80  1  0.491444  0.181360  0.979196  1
  O  O81  1  0.008556  0.818640  0.979196  1
  O  O82  1  0.491444  0.318640  0.520804  1
  O  O83  1  0.008556  0.681360  0.520804  1
  O  O84  1  0.596781  0.305270  0.889249  1
  O  O85  1  0.903219  0.694730  0.889249  1
  O  O86  1  0.596781  0.194730  0.610751  1
  O  O87  1  0.903219  0.805270  0.610751  1
  O  O88  1  0.403219  0.694730  0.110751  1
  O  O89  1  0.096781  0.305270  0.110751  1
  O  O90  1  0.403219  0.805270  0.389249  1
  O  O91  1  0.096781  0.194730  0.389249  1
  O  O92  1  0.595610  0.872272  0.844162  1
  O  O93  1  0.904390  0.127728  0.844162  1
  O  O94  1  0.595610  0.627728  0.655838  1
  O  O95  1  0.904390  0.372272  0.655838  1
  O  O96  1  0.404390  0.127728  0.155838  1
  O  O97  1  0.095610  0.872272  0.155838  1
  O  O98  1  0.404390  0.372272  0.344162  1
  O  O99  1  0.095610  0.627728  0.344162  1
  O  O100  1  0.551920  0.564259  0.767550  1
  O  O101  1  0.948080  0.435741  0.767550  1
  O  O102  1  0.551920  0.935741  0.732450  1
  O  O103  1  0.948080  0.064259  0.732450  1
  O  O104  1  0.448080  0.435741  0.232450  1
  O  O105  1  0.051920  0.564259  0.232450  1
  O  O106  1  0.448080  0.064259  0.267550  1
  O  O107  1  0.051920  0.935741  0.267550  1
