# generated using pymatgen
data_Ba4Sm2Cd3S10
_symmetry_space_group_name_H-M   'P 1'
_cell_length_a   4.22133312
_cell_length_b   9.39748949
_cell_length_c   27.02728917
_cell_angle_alpha   90.00000000
_cell_angle_beta   90.00000000
_cell_angle_gamma   102.97929790
_symmetry_Int_Tables_number   1
_chemical_formula_structural   Ba4Sm2Cd3S10
_chemical_formula_sum   'Ba8 Sm4 Cd6 S20'
_cell_volume   1044.77817769
_cell_formula_units_Z   2
loop_
 _symmetry_equiv_pos_site_id
 _symmetry_equiv_pos_as_xyz
  1  'x, y, z'
loop_
 _atom_site_type_symbol
 _atom_site_label
 _atom_site_symmetry_multiplicity
 _atom_site_fract_x
 _atom_site_fract_y
 _atom_site_fract_z
 _atom_site_occupancy
  S  S0  1  0.576636  0.153272  0.322133  1
  S  S1  1  0.423364  0.846728  0.822133  1
  S  S2  1  0.590238  0.180475  0.183167  1
  S  S3  1  0.409762  0.819525  0.683167  1
  S  S4  1  0.652515  0.305030  0.489988  1
  S  S5  1  0.347485  0.694970  0.989988  1
  S  S6  1  0.655235  0.310470  0.018592  1
  S  S7  1  0.344765  0.689530  0.518591  1
  S  S8  1  0.766867  0.533733  0.766990  1
  S  S9  1  0.233133  0.466267  0.266990  1
  S  S10  1  0.788783  0.577566  0.378179  1
  S  S11  1  0.211217  0.422434  0.878179  1
  S  S12  1  0.792434  0.584869  0.131415  1
  S  S13  1  0.207566  0.415131  0.631415  1
  S  S14  1  0.926029  0.852059  0.247033  1
  S  S15  1  0.073971  0.147941  0.747033  1
  S  S16  1  0.983093  0.966187  0.432232  1
  S  S17  1  0.016907  0.033813  0.932232  1
  S  S18  1  0.012014  0.024028  0.571755  1
  S  S19  1  0.987986  0.975972  0.071755  1
  Cd  Cd20  1  0.782455  0.564910  0.231488  1
  Cd  Cd21  1  0.217545  0.435090  0.731488  1
  Cd  Cd22  1  0.840284  0.680568  0.462105  1
  Cd  Cd23  1  0.159716  0.319432  0.962105  1
  Cd  Cd24  1  0.845965  0.691930  0.044347  1
  Cd  Cd25  1  0.154035  0.308070  0.544347  1
  Ba  Ba26  1  0.404120  0.808240  0.338795  1
  Ba  Ba27  1  0.595880  0.191760  0.838795  1
  Ba  Ba28  1  0.424079  0.848158  0.156608  1
  Ba  Ba29  1  0.575921  0.151842  0.656608  1
  Ba  Ba30  1  0.836794  0.673588  0.610508  1
  Ba  Ba31  1  0.163206  0.326412  0.110508  1
  Ba  Ba32  1  0.837289  0.674578  0.890884  1
  Ba  Ba33  1  0.162711  0.325422  0.390884  1
  Sm  Sm34  1  0.497175  0.994351  0.499746  1
  Sm  Sm35  1  0.502825  0.005649  0.999746  1
  Sm  Sm36  1  0.920338  0.840676  0.753587  1
  Sm  Sm37  1  0.079662  0.159324  0.253587  1
