# generated using pymatgen
data_Ca3FeRhO6
_symmetry_space_group_name_H-M   'P 1'
_cell_length_a   6.46238499
_cell_length_b   6.46238499
_cell_length_c   6.46238499
_cell_angle_alpha   91.32067823
_cell_angle_beta   91.32067826
_cell_angle_gamma   91.32067822
_symmetry_Int_Tables_number   1
_chemical_formula_structural   Ca3FeRhO6
_chemical_formula_sum   'Ca6 Fe2 Rh2 O12'
_cell_volume   269.66639115
_cell_formula_units_Z   2
loop_
 _symmetry_equiv_pos_site_id
 _symmetry_equiv_pos_as_xyz
  1  'x, y, z'
loop_
 _atom_site_type_symbol
 _atom_site_label
 _atom_site_symmetry_multiplicity
 _atom_site_fract_x
 _atom_site_fract_y
 _atom_site_fract_z
 _atom_site_occupancy
  O  O0  1  0.799745  0.601048  0.463269  1
  O  O1  1  0.601048  0.463269  0.799745  1
  O  O2  1  0.463269  0.799745  0.601048  1
  O  O3  1  0.036731  0.898952  0.700255  1
  O  O4  1  0.898952  0.700255  0.036731  1
  O  O5  1  0.700255  0.036731  0.898952  1
  O  O6  1  0.200255  0.398952  0.536731  1
  O  O7  1  0.398952  0.536731  0.200255  1
  O  O8  1  0.536731  0.200255  0.398952  1
  O  O9  1  0.963269  0.101048  0.299745  1
  O  O10  1  0.299745  0.963269  0.101048  1
  O  O11  1  0.101048  0.299745  0.963269  1
  Ca  Ca12  1  0.618121  0.881879  0.250000  1
  Ca  Ca13  1  0.250000  0.618121  0.881879  1
  Ca  Ca14  1  0.881879  0.250000  0.618121  1
  Ca  Ca15  1  0.381879  0.118121  0.750000  1
  Ca  Ca16  1  0.118121  0.750000  0.381879  1
  Ca  Ca17  1  0.750000  0.381879  0.118121  1
  Fe  Fe18  1  0.250000  0.250000  0.250000  1
  Fe  Fe19  1  0.750000  0.750000  0.750000  1
  Rh  Rh20  1  0.000000  0.000000  0.000000  1
  Rh  Rh21  1  0.500000  0.500000  0.500000  1
