# generated using pymatgen
data_NaAg3S2
_symmetry_space_group_name_H-M   'P 1'
_cell_length_a   8.89062336
_cell_length_b   8.89062335
_cell_length_c   8.89062336
_cell_angle_alpha   59.99999998
_cell_angle_beta   59.99999998
_cell_angle_gamma   60.00000000
_symmetry_Int_Tables_number   1
_chemical_formula_structural   NaAg3S2
_chemical_formula_sum   'Na4 Ag12 S8'
_cell_volume   496.91446425
_cell_formula_units_Z   4
loop_
 _symmetry_equiv_pos_site_id
 _symmetry_equiv_pos_as_xyz
  1  'x, y, z'
loop_
 _atom_site_type_symbol
 _atom_site_label
 _atom_site_symmetry_multiplicity
 _atom_site_fract_x
 _atom_site_fract_y
 _atom_site_fract_z
 _atom_site_occupancy
  Na  Na0  1  0.000000  0.500000  0.000000  1
  Na  Na1  1  0.500000  0.000000  0.000000  1
  Na  Na2  1  0.000000  0.000000  0.500000  1
  Na  Na3  1  0.000000  0.000000  0.000000  1
  S  S4  1  0.236983  0.789050  0.236983  1
  S  S5  1  0.763017  0.763017  0.763017  1
  S  S6  1  0.236983  0.236983  0.789050  1
  S  S7  1  0.789050  0.236983  0.236983  1
  S  S8  1  0.763017  0.210950  0.763017  1
  S  S9  1  0.210950  0.763017  0.763017  1
  S  S10  1  0.763017  0.763017  0.210950  1
  S  S11  1  0.236983  0.236983  0.236983  1
  Ag  Ag12  1  0.796454  0.796454  0.453546  1
  Ag  Ag13  1  0.546454  0.546454  0.203546  1
  Ag  Ag14  1  0.453546  0.796454  0.796454  1
  Ag  Ag15  1  0.796454  0.453546  0.796454  1
  Ag  Ag16  1  0.453546  0.796454  0.453546  1
  Ag  Ag17  1  0.796454  0.453546  0.453546  1
  Ag  Ag18  1  0.203546  0.203546  0.546454  1
  Ag  Ag19  1  0.203546  0.546454  0.203546  1
  Ag  Ag20  1  0.546454  0.203546  0.546454  1
  Ag  Ag21  1  0.203546  0.546454  0.546454  1
  Ag  Ag22  1  0.546454  0.203546  0.203546  1
  Ag  Ag23  1  0.453546  0.453546  0.796454  1
