# generated using pymatgen
data_NdLuSe3
_symmetry_space_group_name_H-M   'P 1'
_cell_length_a   4.02916119
_cell_length_b   6.86544777
_cell_length_c   9.96825210
_cell_angle_alpha   90.00000000
_cell_angle_beta   90.00000000
_cell_angle_gamma   107.06387337
_symmetry_Int_Tables_number   1
_chemical_formula_structural   NdLuSe3
_chemical_formula_sum   'Nd2 Lu2 Se6'
_cell_volume   263.60310594
_cell_formula_units_Z   2
loop_
 _symmetry_equiv_pos_site_id
 _symmetry_equiv_pos_as_xyz
  1  'x, y, z'
loop_
 _atom_site_type_symbol
 _atom_site_label
 _atom_site_symmetry_multiplicity
 _atom_site_fract_x
 _atom_site_fract_y
 _atom_site_fract_z
 _atom_site_occupancy
  Se  Se0  1  0.913321  0.826642  0.250000  1
  Se  Se1  1  0.086679  0.173358  0.750000  1
  Se  Se2  1  0.356683  0.713366  0.562122  1
  Se  Se3  1  0.643317  0.286634  0.437878  1
  Se  Se4  1  0.356683  0.713366  0.937878  1
  Se  Se5  1  0.643317  0.286634  0.062122  1
  Nd  Nd6  1  0.748379  0.496757  0.750000  1
  Nd  Nd7  1  0.251621  0.503243  0.250000  1
  Lu  Lu8  1  0.000000  0.000000  0.000000  1
  Lu  Lu9  1  0.000000  0.000000  0.500000  1
