# generated using pymatgen
data_TeMoWSeS2
_symmetry_space_group_name_H-M   'P 1'
_cell_length_a   3.30641116
_cell_length_b   3.30653676
_cell_length_c   37.60769372
_cell_angle_alpha   90.00032807
_cell_angle_beta   90.00000000
_cell_angle_gamma   119.99874346
_symmetry_Int_Tables_number   1
_chemical_formula_structural   TeMoWSeS2
_chemical_formula_sum   'Te2 Mo2 W2 Se2 S4'
_cell_volume   356.07628090
_cell_formula_units_Z   2
loop_
 _symmetry_equiv_pos_site_id
 _symmetry_equiv_pos_as_xyz
  1  'x, y, z'
loop_
 _atom_site_type_symbol
 _atom_site_label
 _atom_site_symmetry_multiplicity
 _atom_site_fract_x
 _atom_site_fract_y
 _atom_site_fract_z
 _atom_site_occupancy
  Te  Te0  1  0.666643  0.333285  0.043077  1
  Te  Te1  1  0.666648  0.333295  0.144749  1
  Mo  Mo2  1  0.333305  0.666611  0.093909  1
  Mo  Mo3  1  0.333293  0.666586  0.469660  1
  W  W4  1  0.666691  0.333382  0.281833  1
  W  W5  1  0.666693  0.333386  0.657541  1
  Se  Se6  1  0.333353  0.666706  0.702390  1
  Se  Se7  1  0.333352  0.666705  0.612644  1
  S  S8  1  0.333355  0.666712  0.322597  1
  S  S9  1  0.666658  0.333315  0.428995  1
  S  S10  1  0.666654  0.333307  0.510313  1
  S  S11  1  0.333354  0.666709  0.241042  1
