# generated using pymatgen
data_LaAu
_symmetry_space_group_name_H-M   'P 1'
_cell_length_a   4.89584656
_cell_length_b   7.59244633
_cell_length_c   6.02726759
_cell_angle_alpha   90.00000000
_cell_angle_beta   90.00000000
_cell_angle_gamma   90.00000000
_symmetry_Int_Tables_number   1
_chemical_formula_structural   LaAu
_chemical_formula_sum   'La4 Au4'
_cell_volume   224.04228940
_cell_formula_units_Z   4
loop_
 _symmetry_equiv_pos_site_id
 _symmetry_equiv_pos_as_xyz
  1  'x, y, z'
loop_
 _atom_site_type_symbol
 _atom_site_label
 _atom_site_symmetry_multiplicity
 _atom_site_fract_x
 _atom_site_fract_y
 _atom_site_fract_z
 _atom_site_occupancy
  La  La0  1  0.750000  0.815521  0.354353  1
  La  La1  1  0.250000  0.184479  0.645647  1
  La  La2  1  0.250000  0.684479  0.854353  1
  La  La3  1  0.750000  0.315521  0.145647  1
  Au  Au4  1  0.750000  0.959027  0.848414  1
  Au  Au5  1  0.250000  0.040973  0.151586  1
  Au  Au6  1  0.250000  0.540973  0.348414  1
  Au  Au7  1  0.750000  0.459027  0.651586  1
