# generated using pymatgen
data_MoWSeS3
_symmetry_space_group_name_H-M   'P 1'
_cell_length_a   3.22202934
_cell_length_b   3.22202982
_cell_length_c   36.35350746
_cell_angle_alpha   89.99958617
_cell_angle_beta   90.00000000
_cell_angle_gamma   119.99999511
_symmetry_Int_Tables_number   1
_chemical_formula_structural   MoWSeS3
_chemical_formula_sum   'Mo2 W2 Se2 S6'
_cell_volume   326.84061402
_cell_formula_units_Z   2
loop_
 _symmetry_equiv_pos_site_id
 _symmetry_equiv_pos_as_xyz
  1  'x, y, z'
loop_
 _atom_site_type_symbol
 _atom_site_label
 _atom_site_symmetry_multiplicity
 _atom_site_fract_x
 _atom_site_fract_y
 _atom_site_fract_z
 _atom_site_occupancy
  Mo  Mo0  1  0.333313  0.666626  0.469631  1
  Mo  Mo1  1  0.666692  0.333384  0.281776  1
  W  W2  1  0.333312  0.666625  0.093908  1
  W  W3  1  0.666689  0.333379  0.657562  1
  Se  Se4  1  0.333353  0.666706  0.704867  1
  Se  Se5  1  0.333351  0.666703  0.610274  1
  S  S6  1  0.333356  0.666713  0.324496  1
  S  S7  1  0.666638  0.333275  0.051018  1
  S  S8  1  0.666649  0.333297  0.426935  1
  S  S9  1  0.666643  0.333285  0.136817  1
  S  S10  1  0.666648  0.333294  0.512367  1
  S  S11  1  0.333356  0.666714  0.239098  1
