# generated using pymatgen
data_Na3Ti2(GeO4)3
_symmetry_space_group_name_H-M   'P 1'
_cell_length_a   10.75831292
_cell_length_b   10.75831260
_cell_length_c   10.75831325
_cell_angle_alpha   109.47122001
_cell_angle_beta   109.47121941
_cell_angle_gamma   109.47121982
_symmetry_Int_Tables_number   1
_chemical_formula_structural   Na3Ti2(GeO4)3
_chemical_formula_sum   'Na12 Ti8 Ge12 O48'
_cell_volume   958.54088250
_cell_formula_units_Z   4
loop_
 _symmetry_equiv_pos_site_id
 _symmetry_equiv_pos_as_xyz
  1  'x, y, z'
loop_
 _atom_site_type_symbol
 _atom_site_label
 _atom_site_symmetry_multiplicity
 _atom_site_fract_x
 _atom_site_fract_y
 _atom_site_fract_z
 _atom_site_occupancy
  Na  Na0  1  0.625000  0.250000  0.875000  1
  Na  Na1  1  0.875000  0.750000  0.625000  1
  Na  Na2  1  0.750000  0.625000  0.875000  1
  Na  Na3  1  0.250000  0.875000  0.625000  1
  Na  Na4  1  0.875000  0.625000  0.250000  1
  Na  Na5  1  0.625000  0.875000  0.750000  1
  Na  Na6  1  0.375000  0.750000  0.125000  1
  Na  Na7  1  0.125000  0.250000  0.375000  1
  Na  Na8  1  0.250000  0.375000  0.125000  1
  Na  Na9  1  0.750000  0.125000  0.375000  1
  Na  Na10  1  0.125000  0.375000  0.750000  1
  Na  Na11  1  0.375000  0.125000  0.250000  1
  Ti  Ti12  1  0.500000  0.500000  0.500000  1
  Ti  Ti13  1  0.500000  0.500000  0.000000  1
  Ti  Ti14  1  0.500000  0.000000  0.500000  1
  Ti  Ti15  1  -0.000000  0.500000  0.500000  1
  Ti  Ti16  1  0.500000  0.000000  -0.000000  1
  Ti  Ti17  1  0.000000  0.000000  0.500000  1
  Ti  Ti18  1  -0.000000  0.500000  0.000000  1
  Ti  Ti19  1  0.000000  0.000000  -0.000000  1
  Ge  Ge20  1  0.875000  0.125000  0.750000  1
  Ge  Ge21  1  0.125000  0.875000  0.250000  1
  Ge  Ge22  1  0.250000  0.625000  0.375000  1
  Ge  Ge23  1  0.125000  0.750000  0.875000  1
  Ge  Ge24  1  0.750000  0.875000  0.125000  1
  Ge  Ge25  1  0.375000  0.250000  0.625000  1
  Ge  Ge26  1  0.625000  0.750000  0.375000  1
  Ge  Ge27  1  0.875000  0.250000  0.125000  1
  Ge  Ge28  1  0.250000  0.125000  0.875000  1
  Ge  Ge29  1  0.750000  0.375000  0.625000  1
  Ge  Ge30  1  0.375000  0.625000  0.750000  1
  Ge  Ge31  1  0.625000  0.375000  0.250000  1
  O  O32  1  0.806282  0.418907  0.816480  1
  O  O33  1  0.081093  0.887375  0.397572  1
  O  O34  1  0.683520  0.102428  0.989802  1
  O  O35  1  0.693718  0.510198  0.612625  1
  O  O36  1  0.693718  0.683520  0.081093  1
  O  O37  1  0.510198  0.612625  0.693718  1
  O  O38  1  0.102428  0.612625  0.418907  1
  O  O39  1  0.612625  0.693718  0.510198  1
  O  O40  1  0.397572  0.816480  0.510198  1
  O  O41  1  0.887375  0.989802  0.806282  1
  O  O42  1  0.989802  0.806282  0.887375  1
  O  O43  1  0.081093  0.693718  0.683520  1
  O  O44  1  0.612625  0.418907  0.102428  1
  O  O45  1  0.510198  0.397572  0.816480  1
  O  O46  1  0.683520  0.081093  0.693718  1
  O  O47  1  0.418907  0.102428  0.612625  1
  O  O48  1  0.816480  0.510198  0.397572  1
  O  O49  1  0.397572  0.081093  0.887375  1
  O  O50  1  0.102428  0.989802  0.683520  1
  O  O51  1  0.602428  0.183520  0.489802  1
  O  O52  1  0.989802  0.683520  0.102428  1
  O  O53  1  0.816480  0.806282  0.418907  1
  O  O54  1  0.887375  0.397572  0.081093  1
  O  O55  1  0.806282  0.887375  0.989802  1
  O  O56  1  0.193718  0.581093  0.183520  1
  O  O57  1  0.918907  0.112625  0.602428  1
  O  O58  1  0.316480  0.897572  0.010198  1
  O  O59  1  0.306282  0.489802  0.387375  1
  O  O60  1  0.306282  0.316480  0.918907  1
  O  O61  1  0.489802  0.387375  0.306282  1
  O  O62  1  0.897572  0.387375  0.581093  1
  O  O63  1  0.387375  0.306282  0.489802  1
  O  O64  1  0.193718  0.112625  0.010198  1
  O  O65  1  0.112625  0.602428  0.918907  1
  O  O66  1  0.183520  0.193718  0.581093  1
  O  O67  1  0.581093  0.183520  0.193718  1
  O  O68  1  0.010198  0.316480  0.897572  1
  O  O69  1  0.897572  0.010198  0.316480  1
  O  O70  1  0.602428  0.918907  0.112625  1
  O  O71  1  0.183520  0.489802  0.602428  1
  O  O72  1  0.581093  0.897572  0.387375  1
  O  O73  1  0.316480  0.918907  0.306282  1
  O  O74  1  0.489802  0.602428  0.183520  1
  O  O75  1  0.387375  0.581093  0.897572  1
  O  O76  1  0.918907  0.306282  0.316480  1
  O  O77  1  0.010198  0.193718  0.112625  1
  O  O78  1  0.112625  0.010198  0.193718  1
  O  O79  1  0.418907  0.816480  0.806282  1
