# generated using pymatgen
data_TeMoWSe2S
_symmetry_space_group_name_H-M   'P 1'
_cell_length_a   3.34071397
_cell_length_b   3.34069734
_cell_length_c   38.07748608
_cell_angle_alpha   90.00065572
_cell_angle_beta   90.00000000
_cell_angle_gamma   120.00016476
_symmetry_Int_Tables_number   1
_chemical_formula_structural   TeMoWSe2S
_chemical_formula_sum   'Te2 Mo2 W2 Se4 S2'
_cell_volume   368.02269661
_cell_formula_units_Z   2
loop_
 _symmetry_equiv_pos_site_id
 _symmetry_equiv_pos_as_xyz
  1  'x, y, z'
loop_
 _atom_site_type_symbol
 _atom_site_label
 _atom_site_symmetry_multiplicity
 _atom_site_fract_x
 _atom_site_fract_y
 _atom_site_fract_z
 _atom_site_occupancy
  Te  Te0  1  0.666650  0.333298  0.419841  1
  Te  Te1  1  0.666650  0.333299  0.519433  1
  Mo  Mo2  1  0.333310  0.666619  0.093923  1
  Mo  Mo3  1  0.333313  0.666626  0.469636  1
  W  W4  1  0.666693  0.333386  0.281796  1
  W  W5  1  0.666690  0.333380  0.657575  1
  Se  Se6  1  0.333352  0.666706  0.701545  1
  Se  Se7  1  0.666647  0.333292  0.050128  1
  Se  Se8  1  0.666637  0.333272  0.137708  1
  Se  Se9  1  0.333351  0.666702  0.613574  1
  S  S10  1  0.333354  0.666709  0.321799  1
  S  S11  1  0.333354  0.666709  0.241790  1
