# generated using pymatgen
data_Mg(NO3)2
_symmetry_space_group_name_H-M   'P 1'
_cell_length_a   10.70354802
_cell_length_b   10.70357094
_cell_length_c   14.55954100
_cell_angle_alpha   68.43191483
_cell_angle_beta   68.43179764
_cell_angle_gamma   59.99899179
_symmetry_Int_Tables_number   1
_chemical_formula_structural   Mg(NO3)2
_chemical_formula_sum   'Mg12 N24 O72'
_cell_volume   1307.94652369
_cell_formula_units_Z   12
loop_
 _symmetry_equiv_pos_site_id
 _symmetry_equiv_pos_as_xyz
  1  'x, y, z'
loop_
 _atom_site_type_symbol
 _atom_site_label
 _atom_site_symmetry_multiplicity
 _atom_site_fract_x
 _atom_site_fract_y
 _atom_site_fract_z
 _atom_site_occupancy
  Mg  Mg0  1  0.500000  0.500000  -0.000000  1
  Mg  Mg1  1  -0.000000  0.500000  -0.000000  1
  Mg  Mg2  1  0.500000  0.000000  -0.000000  1
  Mg  Mg3  1  -0.000000  0.000000  -0.000000  1
  Mg  Mg4  1  0.728046  0.222182  0.326165  1
  Mg  Mg5  1  0.723528  0.728064  0.326168  1
  Mg  Mg6  1  0.222227  0.723520  0.326165  1
  Mg  Mg7  1  0.271954  0.777818  0.673835  1
  Mg  Mg8  1  0.276472  0.271936  0.673832  1
  Mg  Mg9  1  0.777773  0.276480  0.673835  1
  Mg  Mg10  1  0.212421  0.212414  0.362720  1
  Mg  Mg11  1  0.787579  0.787586  0.637280  1
  N  N12  1  0.651583  0.651585  0.045217  1
  N  N13  1  0.348417  0.348415  0.954783  1
  N  N14  1  0.734461  0.241685  0.107585  1
  N  N15  1  0.916246  0.734498  0.107576  1
  N  N16  1  0.241690  0.916240  0.107585  1
  N  N17  1  0.265539  0.758315  0.892415  1
  N  N18  1  0.083754  0.265502  0.892424  1
  N  N19  1  0.758310  0.083760  0.892415  1
  N  N20  1  0.895088  0.895076  0.314727  1
  N  N21  1  0.104912  0.104924  0.685273  1
  N  N22  1  0.553971  0.553972  0.338070  1
  N  N23  1  0.446029  0.446028  0.661930  1
  N  N24  1  0.301091  0.475152  0.218765  1
  N  N25  1  0.004962  0.301111  0.218766  1
  N  N26  1  0.475164  0.004961  0.218763  1
  N  N27  1  0.698909  0.524848  0.781235  1
  N  N28  1  0.995038  0.698889  0.781234  1
  N  N29  1  0.524836  0.995039  0.781237  1
  N  N30  1  0.432351  0.200384  0.467687  1
  N  N31  1  0.899593  0.432348  0.467691  1
  N  N32  1  0.200384  0.899585  0.467680  1
  N  N33  1  0.567649  0.799616  0.532313  1
  N  N34  1  0.100407  0.567652  0.532309  1
  N  N35  1  0.799616  0.100415  0.532320  1
  O  O36  1  0.536271  0.645399  0.046165  1
  O  O37  1  0.772135  0.536263  0.046171  1
  O  O38  1  0.645394  0.772142  0.046163  1
  O  O39  1  0.463729  0.354601  0.953835  1
  O  O40  1  0.227865  0.463737  0.953829  1
  O  O41  1  0.354606  0.227858  0.953837  1
  O  O42  1  0.658193  0.285579  0.188498  1
  O  O43  1  0.867701  0.658220  0.188500  1
  O  O44  1  0.285603  0.867671  0.188499  1
  O  O45  1  0.341807  0.714421  0.811502  1
  O  O46  1  0.132299  0.341780  0.811500  1
  O  O47  1  0.714397  0.132329  0.811501  1
  O  O48  1  0.855922  0.128441  0.107499  1
  O  O49  1  0.908126  0.855946  0.107483  1
  O  O50  1  0.128438  0.908147  0.107496  1
  O  O51  1  0.144078  0.871559  0.892501  1
  O  O52  1  0.091874  0.144054  0.892517  1
  O  O53  1  0.871562  0.091853  0.892504  1
  O  O54  1  0.689562  0.310501  0.026367  1
  O  O55  1  0.973522  0.689590  0.026351  1
  O  O56  1  0.310541  0.973532  0.026360  1
  O  O57  1  0.310438  0.689499  0.973633  1
  O  O58  1  0.026478  0.310410  0.973649  1
  O  O59  1  0.689459  0.026468  0.973640  1
  O  O60  1  0.775223  0.899247  0.314516  1
  O  O61  1  0.010991  0.775210  0.314520  1
  O  O62  1  0.899258  0.010983  0.314513  1
  O  O63  1  0.224777  0.100753  0.685484  1
  O  O64  1  0.989009  0.224790  0.685480  1
  O  O65  1  0.100742  0.989017  0.685487  1
  O  O66  1  0.553748  0.436123  0.338143  1
  O  O67  1  0.671971  0.553743  0.338171  1
  O  O68  1  0.436102  0.671967  0.338176  1
  O  O69  1  0.446252  0.563877  0.661857  1
  O  O70  1  0.328029  0.446257  0.661829  1
  O  O71  1  0.563898  0.328033  0.661824  1
  O  O72  1  0.306877  0.588779  0.221294  1
  O  O73  1  0.883022  0.306883  0.221291  1
  O  O74  1  0.588811  0.883004  0.221283  1
  O  O75  1  0.693123  0.411221  0.778706  1
  O  O76  1  0.116978  0.693117  0.778709  1
  O  O77  1  0.411189  0.116996  0.778717  1
  O  O78  1  0.230454  0.412973  0.295216  1
  O  O79  1  0.061325  0.230494  0.295217  1
  O  O80  1  0.412995  0.061323  0.295207  1
  O  O81  1  0.769546  0.587027  0.704784  1
  O  O82  1  0.938675  0.769506  0.704783  1
  O  O83  1  0.587005  0.938677  0.704793  1
  O  O84  1  0.365165  0.425117  0.139464  1
  O  O85  1  0.070228  0.365188  0.139456  1
  O  O86  1  0.425118  0.070223  0.139461  1
  O  O87  1  0.634835  0.574883  0.860536  1
  O  O88  1  0.929772  0.634812  0.860544  1
  O  O89  1  0.574882  0.929777  0.860539  1
  O  O90  1  0.539818  0.171584  0.392255  1
  O  O91  1  0.896342  0.539838  0.392261  1
  O  O92  1  0.171600  0.896334  0.392244  1
  O  O93  1  0.460182  0.828416  0.607745  1
  O  O94  1  0.103658  0.460162  0.607739  1
  O  O95  1  0.828400  0.103666  0.607756  1
  O  O96  1  0.311409  0.203790  0.470413  1
  O  O97  1  0.014411  0.311407  0.470399  1
  O  O98  1  0.203760  0.014418  0.470401  1
  O  O99  1  0.688591  0.796210  0.529586  1
  O  O100  1  0.985589  0.688593  0.529601  1
  O  O101  1  0.796240  0.985582  0.529599  1
  O  O102  1  0.445323  0.224301  0.542097  1
  O  O103  1  0.788302  0.445307  0.542103  1
  O  O104  1  0.224317  0.788299  0.542090  1
  O  O105  1  0.554677  0.775699  0.457903  1
  O  O106  1  0.211698  0.554693  0.457897  1
  O  O107  1  0.775683  0.211701  0.457910  1
