# generated using pymatgen
data_GdSiRu
_symmetry_space_group_name_H-M   'P 1'
_cell_length_a   4.21624641
_cell_length_b   4.21624641
_cell_length_c   6.68789272
_cell_angle_alpha   90.00000000
_cell_angle_beta   90.00000000
_cell_angle_gamma   90.00000000
_symmetry_Int_Tables_number   1
_chemical_formula_structural   GdSiRu
_chemical_formula_sum   'Gd2 Si2 Ru2'
_cell_volume   118.88888850
_cell_formula_units_Z   2
loop_
 _symmetry_equiv_pos_site_id
 _symmetry_equiv_pos_as_xyz
  1  'x, y, z'
loop_
 _atom_site_type_symbol
 _atom_site_label
 _atom_site_symmetry_multiplicity
 _atom_site_fract_x
 _atom_site_fract_y
 _atom_site_fract_z
 _atom_site_occupancy
  Si  Si0  1  0.250000  0.250000  0.183737  1
  Si  Si1  1  0.750000  0.750000  0.816263  1
  Ru  Ru2  1  0.750000  0.250000  0.000000  1
  Ru  Ru3  1  0.250000  0.750000  0.000000  1
  Gd  Gd4  1  0.250000  0.250000  0.678365  1
  Gd  Gd5  1  0.750000  0.750000  0.321635  1
