# generated using pymatgen
data_VPO5
_symmetry_space_group_name_H-M   'P 1'
_cell_length_a   4.52014878
_cell_length_b   6.25634751
_cell_length_c   6.25634751
_cell_angle_alpha   90.00000000
_cell_angle_beta   90.00000000
_cell_angle_gamma   90.00000000
_symmetry_Int_Tables_number   1
_chemical_formula_structural   VPO5
_chemical_formula_sum   'V2 P2 O10'
_cell_volume   176.92713996
_cell_formula_units_Z   2
loop_
 _symmetry_equiv_pos_site_id
 _symmetry_equiv_pos_as_xyz
  1  'x, y, z'
loop_
 _atom_site_type_symbol
 _atom_site_label
 _atom_site_symmetry_multiplicity
 _atom_site_fract_x
 _atom_site_fract_y
 _atom_site_fract_z
 _atom_site_occupancy
  O  O0  1  0.702201  0.250966  0.950190  1
  O  O1  1  0.702201  0.549811  0.250966  1
  O  O2  1  0.258917  0.250000  0.250000  1
  O  O3  1  0.741085  0.750000  0.750000  1
  O  O4  1  0.702201  0.950190  0.249032  1
  O  O5  1  0.702201  0.249033  0.549811  1
  O  O6  1  0.297798  0.750966  0.450190  1
  O  O7  1  0.297798  0.749033  0.049810  1
  O  O8  1  0.297798  0.450190  0.749033  1
  O  O9  1  0.297798  0.049811  0.750966  1
  P  P10  1  0.500001  0.750000  0.250000  1
  P  P11  1  0.500001  0.250000  0.750000  1
  V  V12  1  0.386441  0.750000  0.750000  1
  V  V13  1  0.613559  0.250000  0.250000  1
