# generated using pymatgen
data_Te3MoWSe
_symmetry_space_group_name_H-M   'P 1'
_cell_length_a   3.50032772
_cell_length_b   3.50032719
_cell_length_c   39.60830741
_cell_angle_alpha   90.00016456
_cell_angle_beta   90.00000000
_cell_angle_gamma   120.00000497
_symmetry_Int_Tables_number   1
_chemical_formula_structural   Te3MoWSe
_chemical_formula_sum   'Te6 Mo2 W2 Se2'
_cell_volume   420.27566434
_cell_formula_units_Z   2
loop_
 _symmetry_equiv_pos_site_id
 _symmetry_equiv_pos_as_xyz
  1  'x, y, z'
loop_
 _atom_site_type_symbol
 _atom_site_label
 _atom_site_symmetry_multiplicity
 _atom_site_fract_x
 _atom_site_fract_y
 _atom_site_fract_z
 _atom_site_occupancy
  Te  Te0  1  0.333355  0.666710  0.328008  1
  Te  Te1  1  0.333359  0.666719  0.704046  1
  Te  Te2  1  0.666645  0.333289  0.423155  1
  Te  Te3  1  0.666647  0.333292  0.516165  1
  Te  Te4  1  0.333352  0.666705  0.235561  1
  Te  Te5  1  0.333364  0.666729  0.611020  1
  Mo  Mo6  1  0.333307  0.666615  0.093915  1
  Mo  Mo7  1  0.666690  0.333379  0.281776  1
  W  W8  1  0.333309  0.666618  0.469662  1
  W  W9  1  0.666693  0.333387  0.657551  1
  Se  Se10  1  0.666641  0.333282  0.053078  1
  Se  Se11  1  0.666638  0.333274  0.134810  1
