# generated using pymatgen
data_Te2Mo(WSe2)2
_symmetry_space_group_name_H-M   'P 1'
_cell_length_a   3.40110296
_cell_length_b   3.40107126
_cell_length_c   31.44056871
_cell_angle_alpha   89.99981862
_cell_angle_beta   90.00002260
_cell_angle_gamma   120.00028739
_symmetry_Int_Tables_number   1
_chemical_formula_structural   Te2Mo(WSe2)2
_chemical_formula_sum   'Te2 Mo1 W2 Se4'
_cell_volume   314.95991002
_cell_formula_units_Z   1
loop_
 _symmetry_equiv_pos_site_id
 _symmetry_equiv_pos_as_xyz
  1  'x, y, z'
loop_
 _atom_site_type_symbol
 _atom_site_label
 _atom_site_symmetry_multiplicity
 _atom_site_fract_x
 _atom_site_fract_y
 _atom_site_fract_z
 _atom_site_occupancy
  Te  Te0  1  0.333355  0.666710  0.406789  1
  Te  Te1  1  0.333357  0.666715  0.287171  1
  Mo  Mo2  1  0.333314  0.666628  0.115626  1
  W  W3  1  0.333307  0.666613  0.578334  1
  W  W4  1  0.666691  0.333382  0.346961  1
  Se  Se5  1  0.666649  0.333298  0.063249  1
  Se  Se6  1  0.666646  0.333291  0.525746  1
  Se  Se7  1  0.666653  0.333305  0.168058  1
  Se  Se8  1  0.666629  0.333257  0.630907  1
