# generated using pymatgen
data_Y3Sc2Al3O12
_symmetry_space_group_name_H-M   'P 1'
_cell_length_a   10.77945522
_cell_length_b   10.77945523
_cell_length_c   10.77945523
_cell_angle_alpha   109.47122061
_cell_angle_beta   109.47122063
_cell_angle_gamma   109.47122066
_symmetry_Int_Tables_number   1
_chemical_formula_structural   Y3Sc2Al3O12
_chemical_formula_sum   'Y12 Sc8 Al12 O48'
_cell_volume   964.20315549
_cell_formula_units_Z   4
loop_
 _symmetry_equiv_pos_site_id
 _symmetry_equiv_pos_as_xyz
  1  'x, y, z'
loop_
 _atom_site_type_symbol
 _atom_site_label
 _atom_site_symmetry_multiplicity
 _atom_site_fract_x
 _atom_site_fract_y
 _atom_site_fract_z
 _atom_site_occupancy
  O  O0  1  0.286716  0.474812  0.374559  1
  O  O1  1  0.025188  0.311905  0.899747  1
  O  O2  1  0.125441  0.600253  0.912158  1
  O  O3  1  0.213284  0.587842  0.188095  1
  O  O4  1  0.213284  0.125441  0.025188  1
  O  O5  1  0.587842  0.188095  0.213284  1
  O  O6  1  0.600253  0.188095  0.474812  1
  O  O7  1  0.188095  0.213284  0.587842  1
  O  O8  1  0.899747  0.374559  0.587842  1
  O  O9  1  0.311905  0.912158  0.286716  1
  O  O10  1  0.912158  0.286716  0.311905  1
  O  O11  1  0.025188  0.213284  0.125441  1
  O  O12  1  0.188095  0.474812  0.600253  1
  O  O13  1  0.587842  0.899747  0.374559  1
  O  O14  1  0.125441  0.025188  0.213284  1
  O  O15  1  0.474812  0.600253  0.188095  1
  O  O16  1  0.374559  0.587842  0.899747  1
  O  O17  1  0.899747  0.025188  0.311905  1
  O  O18  1  0.600253  0.912158  0.125441  1
  O  O19  1  0.100253  0.625441  0.412158  1
  O  O20  1  0.912158  0.125441  0.600253  1
  O  O21  1  0.374559  0.286716  0.474812  1
  O  O22  1  0.311905  0.899747  0.025188  1
  O  O23  1  0.286716  0.311905  0.912158  1
  O  O24  1  0.713284  0.525188  0.625441  1
  O  O25  1  0.974812  0.688095  0.100253  1
  O  O26  1  0.874559  0.399747  0.087842  1
  O  O27  1  0.786716  0.412158  0.811905  1
  O  O28  1  0.786716  0.874559  0.974812  1
  O  O29  1  0.412158  0.811905  0.786716  1
  O  O30  1  0.399747  0.811905  0.525188  1
  O  O31  1  0.811905  0.786716  0.412158  1
  O  O32  1  0.713284  0.688095  0.087842  1
  O  O33  1  0.688095  0.100253  0.974812  1
  O  O34  1  0.625441  0.713284  0.525188  1
  O  O35  1  0.525188  0.625441  0.713284  1
  O  O36  1  0.087842  0.874559  0.399747  1
  O  O37  1  0.399747  0.087842  0.874559  1
  O  O38  1  0.100253  0.974812  0.688095  1
  O  O39  1  0.625441  0.412158  0.100253  1
  O  O40  1  0.525188  0.399747  0.811905  1
  O  O41  1  0.874559  0.974812  0.786716  1
  O  O42  1  0.412158  0.100253  0.625441  1
  O  O43  1  0.811905  0.525188  0.399747  1
  O  O44  1  0.974812  0.786716  0.874559  1
  O  O45  1  0.087842  0.713284  0.688095  1
  O  O46  1  0.688095  0.087842  0.713284  1
  O  O47  1  0.474812  0.374559  0.286716  1
  Al  Al48  1  0.875000  0.125000  0.750000  1
  Al  Al49  1  0.125000  0.875000  0.250000  1
  Al  Al50  1  0.250000  0.625000  0.375000  1
  Al  Al51  1  0.125000  0.750000  0.875000  1
  Al  Al52  1  0.750000  0.875000  0.125000  1
  Al  Al53  1  0.375000  0.250000  0.625000  1
  Al  Al54  1  0.625000  0.750000  0.375000  1
  Al  Al55  1  0.875000  0.250000  0.125000  1
  Al  Al56  1  0.250000  0.125000  0.875000  1
  Al  Al57  1  0.625000  0.375000  0.250000  1
  Al  Al58  1  0.375000  0.625000  0.750000  1
  Al  Al59  1  0.750000  0.375000  0.625000  1
  Sc  Sc60  1  0.000000  0.500000  0.000000  1
  Sc  Sc61  1  0.000000  0.000000  0.500000  1
  Sc  Sc62  1  0.500000  0.000000  0.000000  1
  Sc  Sc63  1  0.000000  0.500000  0.500000  1
  Sc  Sc64  1  0.500000  0.500000  0.500000  1
  Sc  Sc65  1  0.500000  0.000000  0.500000  1
  Sc  Sc66  1  0.500000  0.500000  0.000000  1
  Sc  Sc67  1  0.000000  0.000000  0.000000  1
  Y  Y68  1  0.250000  0.375000  0.125000  1
  Y  Y69  1  0.750000  0.125000  0.375000  1
  Y  Y70  1  0.125000  0.375000  0.750000  1
  Y  Y71  1  0.375000  0.125000  0.250000  1
  Y  Y72  1  0.125000  0.250000  0.375000  1
  Y  Y73  1  0.375000  0.750000  0.125000  1
  Y  Y74  1  0.625000  0.875000  0.750000  1
  Y  Y75  1  0.250000  0.875000  0.625000  1
  Y  Y76  1  0.750000  0.625000  0.875000  1
  Y  Y77  1  0.875000  0.750000  0.625000  1
  Y  Y78  1  0.625000  0.250000  0.875000  1
  Y  Y79  1  0.875000  0.625000  0.250000  1
