# generated using pymatgen
data_MnGeRh
_symmetry_space_group_name_H-M   'P 1'
_cell_length_a   6.61707054
_cell_length_b   7.13515150
_cell_length_c   7.46951533
_cell_angle_alpha   118.52995186
_cell_angle_beta   116.29151431
_cell_angle_gamma   89.99999999
_symmetry_Int_Tables_number   1
_chemical_formula_structural   MnGeRh
_chemical_formula_sum   'Mn6 Ge6 Rh6'
_cell_volume   267.58047025
_cell_formula_units_Z   6
loop_
 _symmetry_equiv_pos_site_id
 _symmetry_equiv_pos_as_xyz
  1  'x, y, z'
loop_
 _atom_site_type_symbol
 _atom_site_label
 _atom_site_symmetry_multiplicity
 _atom_site_fract_x
 _atom_site_fract_y
 _atom_site_fract_z
 _atom_site_occupancy
  Mn  Mn0  1  0.489209  0.442785  0.385571  1
  Mn  Mn1  1  0.103638  0.557215  0.614429  1
  Mn  Mn2  1  0.059214  0.032806  0.565613  1
  Mn  Mn3  1  0.493601  0.967194  0.434387  1
  Mn  Mn4  1  0.897500  0.241472  0.982943  1
  Mn  Mn5  1  0.914557  0.758528  0.017057  1
  Ge  Ge6  1  0.473345  0.222363  0.944726  1
  Ge  Ge7  1  0.829484  0.340280  0.665882  1
  Ge  Ge8  1  0.163602  0.659720  0.334118  1
  Ge  Ge9  1  0.528619  0.777637  0.055274  1
  Ge  Ge10  1  0.829484  0.825602  0.665882  1
  Ge  Ge11  1  0.163602  0.174398  0.334118  1
  Rh  Rh12  1  0.239780  0.500000  0.000000  1
  Rh  Rh13  1  0.239780  0.000000  0.000000  1
  Rh  Rh14  1  0.500327  0.837448  0.742263  1
  Rh  Rh15  1  0.758065  0.595185  0.257737  1
  Rh  Rh16  1  0.500327  0.404815  0.742263  1
  Rh  Rh17  1  0.758065  0.162552  0.257737  1
