# generated using pymatgen
data_Rb2Cr2O7
_symmetry_space_group_name_H-M   'P 1'
_cell_length_a   7.84468168
_cell_length_b   7.93781971
_cell_length_c   7.87330779
_cell_angle_alpha   90.04804119
_cell_angle_beta   90.00000000
_cell_angle_gamma   119.61261365
_symmetry_Int_Tables_number   1
_chemical_formula_structural   Rb2Cr2O7
_chemical_formula_sum   'Rb4 Cr4 O14'
_cell_volume   426.23225282
_cell_formula_units_Z   2
loop_
 _symmetry_equiv_pos_site_id
 _symmetry_equiv_pos_as_xyz
  1  'x, y, z'
loop_
 _atom_site_type_symbol
 _atom_site_label
 _atom_site_symmetry_multiplicity
 _atom_site_fract_x
 _atom_site_fract_y
 _atom_site_fract_z
 _atom_site_occupancy
  O  O0  1  0.579211  0.000000  0.250000  1
  O  O1  1  0.420789  0.000000  0.750000  1
  O  O2  1  0.636218  0.681033  0.278720  1
  O  O3  1  0.955185  0.318967  0.221280  1
  O  O4  1  0.363782  0.318967  0.721280  1
  O  O5  1  0.044815  0.681033  0.778720  1
  O  O6  1  0.356215  0.657821  0.070281  1
  O  O7  1  0.698393  0.342179  0.429719  1
  O  O8  1  0.140014  0.878111  0.488478  1
  O  O9  1  0.261903  0.121889  0.011522  1
  O  O10  1  0.859986  0.121889  0.511522  1
  O  O11  1  0.738097  0.878111  0.988478  1
  O  O12  1  0.301607  0.657821  0.570281  1
  O  O13  1  0.643785  0.342179  0.929719  1
  Cr  Cr14  1  0.576458  0.799779  0.142751  1
  Cr  Cr15  1  0.776679  0.200221  0.357249  1
  Cr  Cr16  1  0.423542  0.200221  0.857249  1
  Cr  Cr17  1  0.223321  0.799779  0.642751  1
  Rb  Rb18  1  0.999870  0.705931  0.147714  1
  Rb  Rb19  1  0.293940  0.294069  0.352286  1
  Rb  Rb20  1  0.000130  0.294069  0.852286  1
  Rb  Rb21  1  0.706060  0.705931  0.647714  1
