# generated using pymatgen
data_K3Sc(PO4)2
_symmetry_space_group_name_H-M   'P 1'
_cell_length_a   9.54710280
_cell_length_b   9.54710280
_cell_length_c   7.75983651
_cell_angle_alpha   90.00000000
_cell_angle_beta   90.00000000
_cell_angle_gamma   120.00000000
_symmetry_Int_Tables_number   1
_chemical_formula_structural   K3Sc(PO4)2
_chemical_formula_sum   'K9 Sc3 P6 O24'
_cell_volume   612.52864131
_cell_formula_units_Z   3
loop_
 _symmetry_equiv_pos_site_id
 _symmetry_equiv_pos_as_xyz
  1  'x, y, z'
loop_
 _atom_site_type_symbol
 _atom_site_label
 _atom_site_symmetry_multiplicity
 _atom_site_fract_x
 _atom_site_fract_y
 _atom_site_fract_z
 _atom_site_occupancy
  O  O0  1  0.487427  0.334593  0.800871  1
  O  O1  1  0.847166  0.512573  0.800871  1
  O  O2  1  0.665407  0.152834  0.800871  1
  O  O3  1  0.512573  0.665407  0.199129  1
  O  O4  1  0.152834  0.487427  0.199129  1
  O  O5  1  0.334593  0.847166  0.199129  1
  O  O6  1  0.337278  0.482140  0.888340  1
  O  O7  1  0.144863  0.662722  0.888340  1
  O  O8  1  0.517860  0.855137  0.888340  1
  O  O9  1  0.662722  0.517860  0.111660  1
  O  O10  1  0.855137  0.337278  0.111660  1
  O  O11  1  0.482140  0.144863  0.111660  1
  O  O12  1  0.182526  0.176493  0.841120  1
  O  O13  1  0.993967  0.817474  0.841120  1
  O  O14  1  0.823507  0.006033  0.841120  1
  O  O15  1  0.817474  0.823507  0.158880  1
  O  O16  1  0.006033  0.182526  0.158880  1
  O  O17  1  0.176493  0.993967  0.158880  1
  O  O18  1  0.367400  0.066590  0.411293  1
  O  O19  1  0.933410  0.300810  0.411293  1
  O  O20  1  0.699190  0.632600  0.411293  1
  O  O21  1  0.632600  0.933410  0.588707  1
  O  O22  1  0.066590  0.699190  0.588707  1
  O  O23  1  0.300810  0.367400  0.588707  1
  P  P24  1  0.327688  0.340456  0.777074  1
  P  P25  1  0.012768  0.672312  0.777074  1
  P  P26  1  0.659544  0.987232  0.777074  1
  P  P27  1  0.672312  0.659544  0.222926  1
  P  P28  1  0.987232  0.327688  0.222926  1
  P  P29  1  0.340456  0.012768  0.222926  1
  K  K30  1  0.333924  0.333508  0.251022  1
  K  K31  1  0.999584  0.666076  0.251022  1
  K  K32  1  0.666493  0.000416  0.251022  1
  K  K33  1  0.666076  0.666493  0.748978  1
  K  K34  1  0.000416  0.333924  0.748978  1
  K  K35  1  0.333508  0.999584  0.748978  1
  K  K36  1  0.333333  0.666667  0.502403  1
  K  K37  1  0.666667  0.333333  0.497597  1
  K  K38  1  0.000000  0.000000  0.500000  1
  Sc  Sc39  1  0.333333  0.666667  0.030765  1
  Sc  Sc40  1  0.666667  0.333333  0.969235  1
  Sc  Sc41  1  0.000000  0.000000  0.000000  1
