# generated using pymatgen
data_Te2MoW3(SeS2)2
_symmetry_space_group_name_H-M   'P 1'
_cell_length_a   3.30744310
_cell_length_b   3.30745924
_cell_length_c   37.66630673
_cell_angle_alpha   89.99980982
_cell_angle_beta   89.99998957
_cell_angle_gamma   119.99983787
_symmetry_Int_Tables_number   1
_chemical_formula_structural   Te2MoW3(SeS2)2
_chemical_formula_sum   'Te2 Mo1 W3 Se2 S4'
_cell_volume   356.83813565
_cell_formula_units_Z   1
loop_
 _symmetry_equiv_pos_site_id
 _symmetry_equiv_pos_as_xyz
  1  'x, y, z'
loop_
 _atom_site_type_symbol
 _atom_site_label
 _atom_site_symmetry_multiplicity
 _atom_site_fract_x
 _atom_site_fract_y
 _atom_site_fract_z
 _atom_site_occupancy
  Te  Te0  1  0.333357  0.666714  0.708646  1
  Te  Te1  1  0.333352  0.666704  0.606530  1
  Mo  Mo2  1  0.333314  0.666626  0.469589  1
  W  W3  1  0.333308  0.666615  0.093929  1
  W  W4  1  0.666690  0.333382  0.281809  1
  W  W5  1  0.666694  0.333390  0.657619  1
  Se  Se6  1  0.666648  0.333295  0.424966  1
  Se  Se7  1  0.666651  0.333301  0.514225  1
  S  S8  1  0.333353  0.666705  0.322475  1
  S  S9  1  0.666641  0.333282  0.053256  1
  S  S10  1  0.666643  0.333286  0.134589  1
  S  S11  1  0.333350  0.666699  0.241115  1
