# generated using pymatgen
data_Te2Mo3W(SeS2)2
_symmetry_space_group_name_H-M   'P 1'
_cell_length_a   3.31044102
_cell_length_b   3.31051941
_cell_length_c   37.26839242
_cell_angle_alpha   89.99995098
_cell_angle_beta   90.00000000
_cell_angle_gamma   119.99921669
_symmetry_Int_Tables_number   1
_chemical_formula_structural   Te2Mo3W(SeS2)2
_chemical_formula_sum   'Te2 Mo3 W1 Se2 S4'
_cell_volume   353.71763527
_cell_formula_units_Z   1
loop_
 _symmetry_equiv_pos_site_id
 _symmetry_equiv_pos_as_xyz
  1  'x, y, z'
loop_
 _atom_site_type_symbol
 _atom_site_label
 _atom_site_symmetry_multiplicity
 _atom_site_fract_x
 _atom_site_fract_y
 _atom_site_fract_z
 _atom_site_occupancy
  Te  Te0  1  0.666648  0.333296  0.042590  1
  Te  Te1  1  0.666637  0.333273  0.145239  1
  Mo  Mo2  1  0.333313  0.666625  0.093900  1
  Mo  Mo3  1  0.333313  0.666625  0.469652  1
  Mo  Mo4  1  0.666698  0.333397  0.281809  1
  W  W5  1  0.666689  0.333379  0.657543  1
  Se  Se6  1  0.666646  0.333291  0.424653  1
  Se  Se7  1  0.666644  0.333288  0.514676  1
  S  S8  1  0.333347  0.666694  0.322839  1
  S  S9  1  0.333356  0.666712  0.698661  1
  S  S10  1  0.333352  0.666704  0.240771  1
  S  S11  1  0.333357  0.666716  0.616416  1
