# generated using pymatgen
data_Rb3Zn(BO2)5
_symmetry_space_group_name_H-M   'P 1'
_cell_length_a   10.65567616
_cell_length_b   9.54307005
_cell_length_c   11.84933944
_cell_angle_alpha   90.00000000
_cell_angle_beta   105.48633438
_cell_angle_gamma   90.00000000
_symmetry_Int_Tables_number   1
_chemical_formula_structural   Rb3Zn(BO2)5
_chemical_formula_sum   'Rb12 Zn4 B20 O40'
_cell_volume   1161.18788185
_cell_formula_units_Z   4
loop_
 _symmetry_equiv_pos_site_id
 _symmetry_equiv_pos_as_xyz
  1  'x, y, z'
loop_
 _atom_site_type_symbol
 _atom_site_label
 _atom_site_symmetry_multiplicity
 _atom_site_fract_x
 _atom_site_fract_y
 _atom_site_fract_z
 _atom_site_occupancy
  Rb  Rb0  1  0.508073  0.567609  0.205190  1
  Rb  Rb1  1  0.008073  0.932391  0.705190  1
  Rb  Rb2  1  0.491927  0.432391  0.794810  1
  Rb  Rb3  1  0.991927  0.067609  0.294810  1
  Rb  Rb4  1  0.944849  0.667908  0.391623  1
  Rb  Rb5  1  0.444849  0.832092  0.891623  1
  Rb  Rb6  1  0.055151  0.332092  0.608377  1
  Rb  Rb7  1  0.555151  0.167908  0.108377  1
  Rb  Rb8  1  0.159372  0.407743  0.157686  1
  Rb  Rb9  1  0.659372  0.092257  0.657686  1
  Rb  Rb10  1  0.840628  0.592257  0.842314  1
  Rb  Rb11  1  0.340628  0.907743  0.342314  1
  Zn  Zn12  1  0.753544  0.305036  0.432185  1
  Zn  Zn13  1  0.253544  0.194964  0.932185  1
  Zn  Zn14  1  0.246456  0.694964  0.567815  1
  Zn  Zn15  1  0.746456  0.805036  0.067815  1
  B  B16  1  0.650904  0.883191  0.269939  1
  B  B17  1  0.150904  0.616809  0.769939  1
  B  B18  1  0.349096  0.116809  0.730061  1
  B  B19  1  0.849096  0.383191  0.230061  1
  B  B20  1  0.472543  0.307084  0.392690  1
  B  B21  1  0.972543  0.192916  0.892690  1
  B  B22  1  0.527457  0.692916  0.607310  1
  B  B23  1  0.027457  0.807084  0.107310  1
  B  B24  1  0.776711  0.002537  0.448894  1
  B  B25  1  0.276711  0.497463  0.948894  1
  B  B26  1  0.223289  0.997463  0.551106  1
  B  B27  1  0.723289  0.502537  0.051106  1
  B  B28  1  0.697502  0.541364  0.560603  1
  B  B29  1  0.197502  0.958636  0.060603  1
  B  B30  1  0.302498  0.458636  0.439397  1
  B  B31  1  0.802498  0.041364  0.939397  1
  B  B32  1  0.652950  0.781458  0.468653  1
  B  B33  1  0.152950  0.718542  0.968653  1
  B  B34  1  0.347050  0.218542  0.531347  1
  B  B35  1  0.847050  0.281458  0.031347  1
  O  O36  1  0.758924  0.416318  0.575082  1
  O  O37  1  0.258924  0.083682  0.075082  1
  O  O38  1  0.241076  0.583682  0.424918  1
  O  O39  1  0.741076  0.916318  0.924918  1
  O  O40  1  0.570059  0.298597  0.339506  1
  O  O41  1  0.070059  0.201403  0.839506  1
  O  O42  1  0.429941  0.701403  0.660494  1
  O  O43  1  0.929941  0.798597  0.160494  1
  O  O44  1  0.253949  0.609304  0.015728  1
  O  O45  1  0.753949  0.890696  0.515728  1
  O  O46  1  0.746051  0.390696  0.984272  1
  O  O47  1  0.246051  0.109304  0.484272  1
  O  O48  1  0.592470  0.806053  0.341348  1
  O  O49  1  0.092470  0.693947  0.841348  1
  O  O50  1  0.407530  0.193947  0.658652  1
  O  O51  1  0.907530  0.306053  0.158652  1
  O  O52  1  0.386111  0.423838  0.367185  1
  O  O53  1  0.886111  0.076162  0.867185  1
  O  O54  1  0.613889  0.576162  0.632815  1
  O  O55  1  0.113889  0.923838  0.132815  1
  O  O56  1  0.833877  0.121208  0.499718  1
  O  O57  1  0.333877  0.378792  -0.000282  1
  O  O58  1  0.166123  0.878792  0.500282  1
  O  O59  1  0.666123  0.621208  0.000282  1
  O  O60  1  0.950093  0.293527  0.969454  1
  O  O61  1  0.450093  0.206473  0.469454  1
  O  O62  1  0.049907  0.706473  0.030546  1
  O  O63  1  0.549907  0.793527  0.530546  1
  O  O64  1  0.757905  0.486703  0.174683  1
  O  O65  1  0.257905  0.013297  0.674683  1
  O  O66  1  0.242095  0.513297  0.825317  1
  O  O67  1  0.742095  0.986703  0.325317  1
  O  O68  1  0.881023  0.366597  0.347130  1
  O  O69  1  0.381023  0.133403  0.847130  1
  O  O70  1  0.118977  0.633403  0.652870  1
  O  O71  1  0.618977  0.866597  0.152870  1
  O  O72  1  0.714052  0.641960  0.481575  1
  O  O73  1  0.214052  0.858040  0.981575  1
  O  O74  1  0.285948  0.358040  0.518425  1
  O  O75  1  0.785948  0.141960  0.018425  1
