# generated using pymatgen
data_Ba2NaO
_symmetry_space_group_name_H-M   'P 1'
_cell_length_a   6.68367792
_cell_length_b   6.96689502
_cell_length_c   8.40928745
_cell_angle_alpha   90.00000000
_cell_angle_beta   113.41565207
_cell_angle_gamma   90.00000000
_symmetry_Int_Tables_number   1
_chemical_formula_structural   Ba2NaO
_chemical_formula_sum   'Ba4 Na2 O2'
_cell_volume   359.32646130
_cell_formula_units_Z   2
loop_
 _symmetry_equiv_pos_site_id
 _symmetry_equiv_pos_as_xyz
  1  'x, y, z'
loop_
 _atom_site_type_symbol
 _atom_site_label
 _atom_site_symmetry_multiplicity
 _atom_site_fract_x
 _atom_site_fract_y
 _atom_site_fract_z
 _atom_site_occupancy
  Ba  Ba0  1  0.413497  0.195103  0.826993  1
  Ba  Ba1  1  0.586503  0.804897  0.173007  1
  Ba  Ba2  1  0.913497  0.804897  0.826993  1
  Ba  Ba3  1  0.086503  0.195103  0.173007  1
  Na  Na4  1  0.250000  0.689111  0.500000  1
  Na  Na5  1  0.750000  0.310889  0.500000  1
  O  O6  1  0.250000  0.000000  -0.000000  1
  O  O7  1  0.750000  0.000000  -0.000000  1
