# generated using pymatgen
data_Cs3P6N11
_symmetry_space_group_name_H-M   'P 1'
_cell_length_a   10.76828219
_cell_length_b   10.76828219
_cell_length_c   10.76828219
_cell_angle_alpha   90.00000000
_cell_angle_beta   90.00000000
_cell_angle_gamma   90.00000000
_symmetry_Int_Tables_number   1
_chemical_formula_structural   Cs3P6N11
_chemical_formula_sum   'Cs12 P24 N44'
_cell_volume   1248.64586705
_cell_formula_units_Z   4
loop_
 _symmetry_equiv_pos_site_id
 _symmetry_equiv_pos_as_xyz
  1  'x, y, z'
loop_
 _atom_site_type_symbol
 _atom_site_label
 _atom_site_symmetry_multiplicity
 _atom_site_fract_x
 _atom_site_fract_y
 _atom_site_fract_z
 _atom_site_occupancy
  N  N0  1  0.557814  0.557814  0.557814  1
  N  N1  1  0.807814  0.692186  0.307814  1
  N  N2  1  0.692186  0.307814  0.807814  1
  N  N3  1  0.307814  0.807814  0.692186  1
  N  N4  1  0.057814  0.942186  0.442186  1
  N  N5  1  0.942186  0.442186  0.057814  1
  N  N6  1  0.442186  0.057814  0.942186  1
  N  N7  1  0.192186  0.192186  0.192186  1
  N  N8  1  0.625000  0.317694  0.567694  1
  N  N9  1  0.682306  0.067694  0.875000  1
  N  N10  1  0.567694  0.625000  0.317694  1
  N  N11  1  0.932306  0.375000  0.817694  1
  N  N12  1  0.317694  0.567694  0.625000  1
  N  N13  1  0.432306  0.125000  0.182306  1
  N  N14  1  0.067694  0.875000  0.682306  1
  N  N15  1  0.817694  0.932306  0.375000  1
  N  N16  1  0.182306  0.432306  0.125000  1
  N  N17  1  0.875000  0.682306  0.067694  1
  N  N18  1  0.375000  0.817694  0.932306  1
  N  N19  1  0.274689  0.007627  0.334295  1
  N  N20  1  0.125000  0.182306  0.432306  1
  N  N21  1  0.242373  0.024689  0.584295  1
  N  N22  1  0.475311  0.415705  0.742373  1
  N  N23  1  0.524689  0.915705  0.757627  1
  N  N24  1  0.415705  0.742373  0.475311  1
  N  N25  1  0.084295  0.257627  0.975311  1
  N  N26  1  0.492373  0.665705  0.774689  1
  N  N27  1  0.992373  0.834295  0.225311  1
  N  N28  1  0.507627  0.165705  0.725311  1
  N  N29  1  0.834295  0.225311  0.992373  1
  N  N30  1  0.725311  0.507627  0.165705  1
  N  N31  1  0.225311  0.992373  0.834295  1
  N  N32  1  0.665705  0.774689  0.492373  1
  N  N33  1  0.774689  0.492373  0.665705  1
  N  N34  1  0.165705  0.725311  0.507627  1
  N  N35  1  0.334295  0.274689  0.007627  1
  N  N36  1  0.007627  0.334295  0.274689  1
  N  N37  1  0.257627  0.975311  0.084295  1
  N  N38  1  0.757627  0.524689  0.915705  1
  N  N39  1  0.024689  0.584295  0.242373  1
  N  N40  1  0.975311  0.084295  0.257627  1
  N  N41  1  0.915705  0.757627  0.524689  1
  N  N42  1  0.584295  0.242373  0.024689  1
  N  N43  1  0.742373  0.475311  0.415705  1
  P  P44  1  0.681616  0.457967  0.550861  1
  P  P45  1  0.181616  0.042033  0.449139  1
  P  P46  1  0.457967  0.550861  0.681616  1
  P  P47  1  0.542033  0.050861  0.818384  1
  P  P48  1  0.550861  0.681616  0.457967  1
  P  P49  1  0.949139  0.318384  0.957967  1
  P  P50  1  0.431616  0.800861  0.792033  1
  P  P51  1  0.931616  0.699139  0.207967  1
  P  P52  1  0.568384  0.300861  0.707967  1
  P  P53  1  0.699139  0.207967  0.931616  1
  P  P54  1  0.707967  0.568384  0.300861  1
  P  P55  1  0.207967  0.931616  0.699139  1
  P  P56  1  0.800861  0.792033  0.431616  1
  P  P57  1  0.792033  0.431616  0.800861  1
  P  P58  1  0.300861  0.707967  0.568384  1
  P  P59  1  0.199139  0.292033  0.068384  1
  P  P60  1  0.292033  0.068384  0.199139  1
  P  P61  1  0.449139  0.181616  0.042033  1
  P  P62  1  0.050861  0.818384  0.542033  1
  P  P63  1  0.957967  0.949139  0.318384  1
  P  P64  1  0.042033  0.449139  0.181616  1
  P  P65  1  0.818384  0.542033  0.050861  1
  P  P66  1  0.318384  0.957967  0.949139  1
  P  P67  1  0.068384  0.199139  0.292033  1
  Cs  Cs68  1  0.980213  0.980213  0.980213  1
  Cs  Cs69  1  0.230213  0.269787  0.730213  1
  Cs  Cs70  1  0.269787  0.730213  0.230213  1
  Cs  Cs71  1  0.730213  0.230213  0.269787  1
  Cs  Cs72  1  0.480213  0.519787  0.019787  1
  Cs  Cs73  1  0.519787  0.019787  0.480213  1
  Cs  Cs74  1  0.019787  0.480213  0.519787  1
  Cs  Cs75  1  0.769787  0.769787  0.769787  1
  Cs  Cs76  1  0.875000  0.125000  0.625000  1
  Cs  Cs77  1  0.125000  0.625000  0.875000  1
  Cs  Cs78  1  0.625000  0.875000  0.125000  1
  Cs  Cs79  1  0.375000  0.375000  0.375000  1
