# generated using pymatgen
data_Ti2CoS4
_symmetry_space_group_name_H-M   'P 1'
_cell_length_a   3.38285115
_cell_length_b   5.82416113
_cell_length_c   6.49607469
_cell_angle_alpha   116.26075002
_cell_angle_beta   105.09240694
_cell_angle_gamma   90.00000000
_symmetry_Int_Tables_number   1
_chemical_formula_structural   Ti2CoS4
_chemical_formula_sum   'Ti2 Co1 S4'
_cell_volume   109.83348215
_cell_formula_units_Z   1
loop_
 _symmetry_equiv_pos_site_id
 _symmetry_equiv_pos_as_xyz
  1  'x, y, z'
loop_
 _atom_site_type_symbol
 _atom_site_label
 _atom_site_symmetry_multiplicity
 _atom_site_fract_x
 _atom_site_fract_y
 _atom_site_fract_z
 _atom_site_occupancy
  Ti  Ti0  1  0.256375  0.264863  0.512750  1
  Ti  Ti1  1  0.743625  0.735137  0.487250  1
  Co  Co2  1  0.000000  0.000000  0.000000  1
  S  S3  1  0.114618  0.443657  0.229235  1
  S  S4  1  0.885382  0.556343  0.770765  1
  S  S5  1  0.379822  0.040322  0.759644  1
  S  S6  1  0.620178  0.959678  0.240356  1
