# generated using pymatgen
data_NaMn3P3O13
_symmetry_space_group_name_H-M   'P 1'
_cell_length_a   6.26243167
_cell_length_b   7.55079599
_cell_length_c   10.46773328
_cell_angle_alpha   99.17477597
_cell_angle_beta   90.00000000
_cell_angle_gamma   90.00000000
_symmetry_Int_Tables_number   1
_chemical_formula_structural   NaMn3P3O13
_chemical_formula_sum   'Na2 Mn6 P6 O26'
_cell_volume   488.64832665
_cell_formula_units_Z   2
loop_
 _symmetry_equiv_pos_site_id
 _symmetry_equiv_pos_as_xyz
  1  'x, y, z'
loop_
 _atom_site_type_symbol
 _atom_site_label
 _atom_site_symmetry_multiplicity
 _atom_site_fract_x
 _atom_site_fract_y
 _atom_site_fract_z
 _atom_site_occupancy
  Na  Na0  1  0.750000  0.672523  0.200985  1
  Na  Na1  1  0.250000  0.327477  0.799015  1
  Mn  Mn2  1  0.250000  0.361263  0.198371  1
  Mn  Mn3  1  0.750000  0.638737  0.801629  1
  Mn  Mn4  1  0.250000  0.765164  0.444445  1
  Mn  Mn5  1  0.500000  0.000000  0.000000  1
  Mn  Mn6  1  0.750000  0.234836  0.555555  1
  Mn  Mn7  1  0.000000  0.000000  0.000000  1
  P  P8  1  0.250000  0.210848  0.475665  1
  P  P9  1  0.750000  0.789152  0.524335  1
  P  P10  1  0.250000  0.740194  0.765723  1
  P  P11  1  0.750000  0.259806  0.234277  1
  P  P12  1  0.750000  0.311148  0.883193  1
  P  P13  1  0.250000  0.688852  0.116807  1
  O  O14  1  0.750000  0.354749  0.740986  1
  O  O15  1  0.556926  0.742788  0.430202  1
  O  O16  1  0.250000  0.794073  0.631756  1
  O  O17  1  0.546226  0.208116  0.907860  1
  O  O18  1  0.750000  0.653053  0.621742  1
  O  O19  1  0.750000  0.874775  0.903971  1
  O  O20  1  0.250000  0.346947  0.378258  1
  O  O21  1  0.046226  0.791884  0.092140  1
  O  O22  1  0.250000  0.020140  0.403575  1
  O  O23  1  0.750000  0.979860  0.596425  1
  O  O24  1  0.058149  0.622589  0.793953  1
  O  O25  1  0.250000  0.125225  0.096029  1
  O  O26  1  0.558149  0.377411  0.206047  1
  O  O27  1  0.750000  0.509091  0.954645  1
  O  O28  1  0.750000  0.205927  0.368244  1
  O  O29  1  0.453774  0.791884  0.092140  1
  O  O30  1  0.943074  0.742788  0.430202  1
  O  O31  1  0.443074  0.257212  0.569798  1
  O  O32  1  0.441851  0.622589  0.793953  1
  O  O33  1  0.250000  0.645251  0.259014  1
  O  O34  1  0.750000  0.083680  0.131956  1
  O  O35  1  0.250000  0.916320  0.868044  1
  O  O36  1  0.941851  0.377411  0.206047  1
  O  O37  1  0.953774  0.208116  0.907860  1
  O  O38  1  0.056926  0.257212  0.569798  1
  O  O39  1  0.250000  0.490909  0.045355  1
