# generated using pymatgen
data_Na2ZnS2
_symmetry_space_group_name_H-M   'P 1'
_cell_length_a   6.75563385
_cell_length_b   7.16493603
_cell_length_c   18.67559496
_cell_angle_alpha   90.00000000
_cell_angle_beta   90.00000000
_cell_angle_gamma   90.00000000
_symmetry_Int_Tables_number   1
_chemical_formula_structural   Na2ZnS2
_chemical_formula_sum   'Na16 Zn8 S16'
_cell_volume   903.96760400
_cell_formula_units_Z   8
loop_
 _symmetry_equiv_pos_site_id
 _symmetry_equiv_pos_as_xyz
  1  'x, y, z'
loop_
 _atom_site_type_symbol
 _atom_site_label
 _atom_site_symmetry_multiplicity
 _atom_site_fract_x
 _atom_site_fract_y
 _atom_site_fract_z
 _atom_site_occupancy
  Na  Na0  1  -0.010676  0.685700  0.931503  1
  Na  Na1  1  0.010676  0.814300  0.431503  1
  Na  Na2  1  0.510676  0.185700  0.068497  1
  Na  Na3  1  0.489324  0.314300  0.568497  1
  Na  Na4  1  0.010676  0.314300  0.068497  1
  Na  Na5  1  -0.010676  0.185700  0.568497  1
  Na  Na6  1  0.489324  0.814300  0.931503  1
  Na  Na7  1  0.510676  0.685700  0.431503  1
  Na  Na8  1  0.677917  0.544053  0.799400  1
  Na  Na9  1  0.322083  0.955947  0.299400  1
  Na  Na10  1  0.822083  0.044053  0.200600  1
  Na  Na11  1  0.177917  0.455947  0.700600  1
  Na  Na12  1  0.322083  0.455947  0.200600  1
  Na  Na13  1  0.677917  0.044053  0.700600  1
  Na  Na14  1  0.177917  0.955947  0.799400  1
  Na  Na15  1  0.822083  0.544053  0.299400  1
  Zn  Zn16  1  0.133525  0.878560  0.078911  1
  Zn  Zn17  1  0.866475  0.621440  0.578911  1
  Zn  Zn18  1  0.366475  0.378560  0.921089  1
  Zn  Zn19  1  0.633525  0.121440  0.421089  1
  Zn  Zn20  1  0.866475  0.121440  0.921089  1
  Zn  Zn21  1  0.133525  0.378560  0.421089  1
  Zn  Zn22  1  0.633525  0.621440  0.078911  1
  Zn  Zn23  1  0.366475  0.878560  0.578911  1
  S  S24  1  0.207871  0.105194  0.952091  1
  S  S25  1  0.792129  0.394806  0.452091  1
  S  S26  1  0.292129  0.605194  0.047909  1
  S  S27  1  0.707871  0.894806  0.547909  1
  S  S28  1  0.792129  0.894806  0.047909  1
  S  S29  1  0.207871  0.605194  0.547909  1
  S  S30  1  0.707871  0.394806  0.952091  1
  S  S31  1  0.292129  0.105194  0.452091  1
  S  S32  1  0.275296  0.577674  0.833807  1
  S  S33  1  0.724704  0.922326  0.333807  1
  S  S34  1  0.224704  0.077674  0.166193  1
  S  S35  1  0.775296  0.422326  0.666193  1
  S  S36  1  0.724704  0.422326  0.166193  1
  S  S37  1  0.275296  0.077674  0.666193  1
  S  S38  1  0.775296  0.922326  0.833807  1
  S  S39  1  0.224704  0.577674  0.333807  1
