# generated using pymatgen
data_NaGa(GeO3)2
_symmetry_space_group_name_H-M   'P 1'
_cell_length_a   5.55865917
_cell_length_b   6.74099034
_cell_length_c   6.74099034
_cell_angle_alpha   83.08576024
_cell_angle_beta   76.79740188
_cell_angle_gamma   76.79740188
_symmetry_Int_Tables_number   1
_chemical_formula_structural   NaGa(GeO3)2
_chemical_formula_sum   'Na2 Ga2 Ge4 O12'
_cell_volume   238.79362681
_cell_formula_units_Z   2
loop_
 _symmetry_equiv_pos_site_id
 _symmetry_equiv_pos_as_xyz
  1  'x, y, z'
loop_
 _atom_site_type_symbol
 _atom_site_label
 _atom_site_symmetry_multiplicity
 _atom_site_fract_x
 _atom_site_fract_y
 _atom_site_fract_z
 _atom_site_occupancy
  Na  Na0  1  0.750000  0.698006  0.301994  1
  Na  Na1  1  0.250000  0.301994  0.698006  1
  Ga  Ga2  1  0.750000  0.094726  0.905274  1
  Ga  Ga3  1  0.250000  0.905274  0.094726  1
  Ge  Ge4  1  0.724184  0.616283  0.807175  1
  Ge  Ge5  1  0.775816  0.192825  0.383717  1
  Ge  Ge6  1  0.275816  0.383717  0.192825  1
  Ge  Ge7  1  0.224184  0.807175  0.616283  1
  O  O8  1  0.803957  0.369121  0.916711  1
  O  O9  1  0.696043  0.083289  0.630879  1
  O  O10  1  0.196043  0.630879  0.083289  1
  O  O11  1  0.303957  0.916711  0.369121  1
  O  O12  1  0.626865  0.815782  0.977381  1
  O  O13  1  0.873135  0.022619  0.184218  1
  O  O14  1  0.373135  0.184218  0.022619  1
  O  O15  1  0.126865  0.977381  0.815782  1
  O  O16  1  0.508040  0.627804  0.646888  1
  O  O17  1  0.991960  0.353112  0.372196  1
  O  O18  1  0.491960  0.372196  0.353112  1
  O  O19  1  0.008040  0.646888  0.627804  1
