# generated using pymatgen
data_HoCo(BO2)5
_symmetry_space_group_name_H-M   'P 1'
_cell_length_a   7.65823843
_cell_length_b   8.59580184
_cell_length_c   9.43672194
_cell_angle_alpha   93.85458803
_cell_angle_beta   90.00000000
_cell_angle_gamma   90.00000000
_symmetry_Int_Tables_number   1
_chemical_formula_structural   HoCo(BO2)5
_chemical_formula_sum   'Ho4 Co4 B20 O40'
_cell_volume   619.80188874
_cell_formula_units_Z   4
loop_
 _symmetry_equiv_pos_site_id
 _symmetry_equiv_pos_as_xyz
  1  'x, y, z'
loop_
 _atom_site_type_symbol
 _atom_site_label
 _atom_site_symmetry_multiplicity
 _atom_site_fract_x
 _atom_site_fract_y
 _atom_site_fract_z
 _atom_site_occupancy
  B  B0  1  0.812687  0.565543  0.089819  1
  B  B1  1  0.312687  0.934457  0.410181  1
  B  B2  1  0.187313  0.434457  0.910181  1
  B  B3  1  0.687313  0.065543  0.589819  1
  B  B4  1  0.103102  0.662510  0.511456  1
  B  B5  1  0.603102  0.837490  0.988544  1
  B  B6  1  0.896898  0.337490  0.488544  1
  B  B7  1  0.396898  0.162510  0.011456  1
  B  B8  1  0.032242  0.777227  0.057881  1
  B  B9  1  0.532242  0.722773  0.442119  1
  B  B10  1  0.967758  0.222773  0.942119  1
  B  B11  1  0.467758  0.277227  0.557881  1
  B  B12  1  0.824259  0.018011  0.101270  1
  B  B13  1  0.324259  0.481989  0.398730  1
  B  B14  1  0.175741  0.981989  0.898730  1
  B  B15  1  0.675741  0.518011  0.601270  1
  B  B16  1  0.072265  0.584066  0.249106  1
  B  B17  1  0.572265  0.915934  0.250894  1
  B  B18  1  0.927735  0.415934  0.750894  1
  B  B19  1  0.427735  0.084066  0.749106  1
  O  O20  1  0.943180  0.254406  0.367781  1
  O  O21  1  0.443180  0.245594  0.132219  1
  O  O22  1  0.056820  0.745594  0.632219  1
  O  O23  1  0.556820  0.754406  0.867781  1
  O  O24  1  0.152975  0.008547  0.428473  1
  O  O25  1  0.652975  0.491453  0.071527  1
  O  O26  1  0.847025  0.991453  0.571527  1
  O  O27  1  0.347025  0.508547  0.928473  1
  O  O28  1  0.876599  0.679668  0.010163  1
  O  O29  1  0.376599  0.820332  0.489837  1
  O  O30  1  0.123401  0.320332  0.989837  1
  O  O31  1  0.623401  0.179668  0.510163  1
  O  O32  1  0.733216  0.949714  0.975175  1
  O  O33  1  0.233216  0.550286  0.524825  1
  O  O34  1  0.266784  0.050286  0.024825  1
  O  O35  1  0.766784  0.449714  0.475175  1
  O  O36  1  0.888455  0.176511  0.077301  1
  O  O37  1  0.388455  0.323489  0.422699  1
  O  O38  1  0.111545  0.823489  0.922699  1
  O  O39  1  0.611545  0.676511  0.577301  1
  O  O40  1  0.969683  0.916773  0.149289  1
  O  O41  1  0.469683  0.583227  0.350711  1
  O  O42  1  0.030317  0.083227  0.850711  1
  O  O43  1  0.530317  0.416773  0.649289  1
  O  O44  1  0.147629  0.682962  0.142716  1
  O  O45  1  0.647629  0.817038  0.357284  1
  O  O46  1  0.852371  0.317038  0.857284  1
  O  O47  1  0.352371  0.182962  0.642716  1
  O  O48  1  0.906381  0.512386  0.201563  1
  O  O49  1  0.406381  0.987614  0.298437  1
  O  O50  1  0.093619  0.487614  0.798437  1
  O  O51  1  0.593619  0.012386  0.701563  1
  O  O52  1  0.031594  0.684997  0.380942  1
  O  O53  1  0.531594  0.815003  0.119058  1
  O  O54  1  0.968406  0.315003  0.619058  1
  O  O55  1  0.468406  0.184997  0.880942  1
  O  O56  1  0.202159  0.462199  0.276252  1
  O  O57  1  0.702159  0.037801  0.223748  1
  O  O58  1  0.797841  0.537801  0.723748  1
  O  O59  1  0.297841  0.962199  0.776252  1
  Co  Co60  1  0.902576  0.898900  0.369656  1
  Co  Co61  1  0.402576  0.601100  0.130344  1
  Co  Co62  1  0.097424  0.101100  0.630344  1
  Co  Co63  1  0.597424  0.398900  0.869656  1
  Ho  Ho64  1  0.685377  0.315612  0.256181  1
  Ho  Ho65  1  0.185377  0.184388  0.243819  1
  Ho  Ho66  1  0.314623  0.684388  0.743819  1
  Ho  Ho67  1  0.814623  0.815612  0.756181  1
