# generated using pymatgen
data_LiNd2OsO6
_symmetry_space_group_name_H-M   'P 1'
_cell_length_a   5.47632002
_cell_length_b   5.85006860
_cell_length_c   7.80832846
_cell_angle_alpha   90.00000000
_cell_angle_beta   90.59211525
_cell_angle_gamma   90.00000000
_symmetry_Int_Tables_number   1
_chemical_formula_structural   LiNd2OsO6
_chemical_formula_sum   'Li2 Nd4 Os2 O12'
_cell_volume   250.14087252
_cell_formula_units_Z   2
loop_
 _symmetry_equiv_pos_site_id
 _symmetry_equiv_pos_as_xyz
  1  'x, y, z'
loop_
 _atom_site_type_symbol
 _atom_site_label
 _atom_site_symmetry_multiplicity
 _atom_site_fract_x
 _atom_site_fract_y
 _atom_site_fract_z
 _atom_site_occupancy
  Li  Li0  1  0.000000  0.000000  0.000000  1
  Li  Li1  1  0.500000  0.500000  0.500000  1
  O  O2  1  0.179313  0.288189  0.445026  1
  O  O3  1  0.320687  0.788189  0.054974  1
  O  O4  1  0.820687  0.711811  0.554974  1
  O  O5  1  0.679313  0.211811  0.945026  1
  O  O6  1  0.101509  0.033449  0.743642  1
  O  O7  1  0.398491  0.533449  0.756358  1
  O  O8  1  0.203668  0.315057  0.048961  1
  O  O9  1  0.296332  0.815057  0.451039  1
  O  O10  1  0.796332  0.684943  0.951039  1
  O  O11  1  0.703668  0.184943  0.548961  1
  O  O12  1  0.601509  0.466551  0.243642  1
  O  O13  1  0.898491  0.966551  0.256358  1
  Nd  Nd14  1  0.482425  0.071379  0.251360  1
  Nd  Nd15  1  0.017575  0.571379  0.248640  1
  Nd  Nd16  1  0.982425  0.428621  0.751360  1
  Nd  Nd17  1  0.517575  0.928621  0.748640  1
  Os  Os18  1  0.500000  0.500000  0.000000  1
  Os  Os19  1  0.000000  0.000000  0.500000  1
