# generated using pymatgen
data_Te2Mo(WSe2)3
_symmetry_space_group_name_H-M   'P 1'
_cell_length_a   3.38165964
_cell_length_b   3.38166564
_cell_length_c   38.52948096
_cell_angle_alpha   89.99967448
_cell_angle_beta   90.00000000
_cell_angle_gamma   119.99994134
_symmetry_Int_Tables_number   1
_chemical_formula_structural   Te2Mo(WSe2)3
_chemical_formula_sum   'Te2 Mo1 W3 Se6'
_cell_volume   381.57912312
_cell_formula_units_Z   1
loop_
 _symmetry_equiv_pos_site_id
 _symmetry_equiv_pos_as_xyz
  1  'x, y, z'
loop_
 _atom_site_type_symbol
 _atom_site_label
 _atom_site_symmetry_multiplicity
 _atom_site_fract_x
 _atom_site_fract_y
 _atom_site_fract_z
 _atom_site_occupancy
  Te  Te0  1  0.333354  0.666710  0.330850  1
  Te  Te1  1  0.333358  0.666716  0.232753  1
  Mo  Mo2  1  0.333311  0.666622  0.093911  1
  W  W3  1  0.333312  0.666623  0.469664  1
  W  W4  1  0.666694  0.333388  0.281792  1
  W  W5  1  0.666691  0.333381  0.657523  1
  Se  Se6  1  0.333355  0.666710  0.700647  1
  Se  Se7  1  0.666632  0.333263  0.050964  1
  Se  Se8  1  0.666639  0.333278  0.426570  1
  Se  Se9  1  0.666648  0.333295  0.136875  1
  Se  Se10  1  0.666652  0.333304  0.512790  1
  Se  Se11  1  0.333354  0.666709  0.614409  1
