# generated using pymatgen
data_BaNaNd(SiO3)3
_symmetry_space_group_name_H-M   'P 1'
_cell_length_a   5.73474544
_cell_length_b   11.69683211
_cell_length_c   12.76818251
_cell_angle_alpha   90.00000000
_cell_angle_beta   90.00000000
_cell_angle_gamma   90.00000000
_symmetry_Int_Tables_number   1
_chemical_formula_structural   BaNaNd(SiO3)3
_chemical_formula_sum   'Ba4 Na4 Nd4 Si12 O36'
_cell_volume   856.46867407
_cell_formula_units_Z   4
loop_
 _symmetry_equiv_pos_site_id
 _symmetry_equiv_pos_as_xyz
  1  'x, y, z'
loop_
 _atom_site_type_symbol
 _atom_site_label
 _atom_site_symmetry_multiplicity
 _atom_site_fract_x
 _atom_site_fract_y
 _atom_site_fract_z
 _atom_site_occupancy
  O  O0  1  0.147062  0.942037  0.325439  1
  O  O1  1  0.647062  0.557963  0.674561  1
  O  O2  1  0.852938  0.442037  0.174561  1
  O  O3  1  0.352938  0.057963  0.825439  1
  O  O4  1  0.343325  0.684186  0.876678  1
  O  O5  1  0.843325  0.815814  0.123322  1
  O  O6  1  0.656675  0.184186  0.623322  1
  O  O7  1  0.156675  0.315814  0.376678  1
  O  O8  1  0.505391  0.501109  0.036799  1
  O  O9  1  0.005391  0.998891  0.963201  1
  O  O10  1  0.494609  0.001109  0.463201  1
  O  O11  1  0.994609  0.498891  0.536799  1
  O  O12  1  0.392139  0.777880  0.425161  1
  O  O13  1  0.892139  0.722120  0.574839  1
  O  O14  1  0.089292  0.818447  0.743846  1
  O  O15  1  0.607861  0.277880  0.074839  1
  O  O16  1  0.373147  0.812268  0.112106  1
  O  O17  1  0.873147  0.687732  0.887894  1
  O  O18  1  0.626853  0.312268  0.387894  1
  O  O19  1  0.126853  0.187732  0.612106  1
  O  O20  1  0.098783  0.596273  0.718759  1
  O  O21  1  0.598783  0.903727  0.281241  1
  O  O22  1  0.901217  0.096273  0.781241  1
  O  O23  1  0.401217  0.403727  0.218759  1
  O  O24  1  0.357740  0.373460  0.815723  1
  O  O25  1  0.857740  0.126540  0.184277  1
  O  O26  1  0.642260  0.873460  0.684277  1
  O  O27  1  0.142260  0.626540  0.315723  1
  O  O28  1  0.964014  0.439850  0.927964  1
  O  O29  1  0.464014  0.060150  0.072036  1
  O  O30  1  0.035985  0.939850  0.572036  1
  O  O31  1  0.535986  0.560150  0.427964  1
  O  O32  1  0.410708  0.181553  0.243846  1
  O  O33  1  0.910708  0.318447  0.756154  1
  O  O34  1  0.589292  0.681553  0.256154  1
  O  O35  1  0.107861  0.222120  0.925161  1
  Na  Na36  1  0.065417  0.287221  0.103960  1
  Na  Na37  1  0.565417  0.212779  0.896040  1
  Na  Na38  1  0.434583  0.712779  0.603960  1
  Na  Na39  1  0.934583  0.787221  0.396040  1
  Si  Si40  1  0.101046  0.087346  0.876877  1
  Si  Si41  1  0.600994  0.803505  0.186967  1
  Si  Si42  1  0.899006  0.196495  0.686967  1
  Si  Si43  1  0.100994  0.696495  0.813033  1
  Si  Si44  1  0.405045  0.653519  0.356022  1
  Si  Si45  1  0.905045  0.846481  0.643978  1
  Si  Si46  1  0.594955  0.153519  0.143978  1
  Si  Si47  1  0.094955  0.346481  0.856022  1
  Si  Si48  1  0.398954  0.912654  0.376877  1
  Si  Si49  1  0.898954  0.587346  0.623123  1
  Si  Si50  1  0.399006  0.303505  0.313033  1
  Si  Si51  1  0.601046  0.412654  0.123123  1
  Ba  Ba52  1  0.104039  0.618472  0.079657  1
  Ba  Ba53  1  0.604039  0.881528  0.920343  1
  Ba  Ba54  1  0.895961  0.118472  0.420343  1
  Ba  Ba55  1  0.395961  0.381528  0.579657  1
  Nd  Nd56  1  0.386556  0.027769  0.639889  1
  Nd  Nd57  1  0.886556  0.472231  0.360111  1
  Nd  Nd58  1  0.613444  0.527769  0.860111  1
  Nd  Nd59  1  0.113444  0.972231  0.139889  1
