# generated using pymatgen
data_TeMoWSeS2
_symmetry_space_group_name_H-M   'P 1'
_cell_length_a   3.30846997
_cell_length_b   3.30849377
_cell_length_c   37.63905037
_cell_angle_alpha   90.00028825
_cell_angle_beta   90.00000000
_cell_angle_gamma   119.99976214
_symmetry_Int_Tables_number   1
_chemical_formula_structural   TeMoWSeS2
_chemical_formula_sum   'Te2 Mo2 W2 Se2 S4'
_cell_volume   356.80246694
_cell_formula_units_Z   2
loop_
 _symmetry_equiv_pos_site_id
 _symmetry_equiv_pos_as_xyz
  1  'x, y, z'
loop_
 _atom_site_type_symbol
 _atom_site_label
 _atom_site_symmetry_multiplicity
 _atom_site_fract_x
 _atom_site_fract_y
 _atom_site_fract_z
 _atom_site_occupancy
  Te  Te0  1  0.333352  0.666704  0.708681  1
  Te  Te1  1  0.333359  0.666719  0.606397  1
  Mo  Mo2  1  0.333307  0.666615  0.093915  1
  Mo  Mo3  1  0.333291  0.666582  0.469637  1
  W  W4  1  0.666692  0.333383  0.281799  1
  W  W5  1  0.666689  0.333379  0.657567  1
  Se  Se6  1  0.666631  0.333260  0.049287  1
  Se  Se7  1  0.666648  0.333295  0.138563  1
  S  S8  1  0.333361  0.666724  0.322556  1
  S  S9  1  0.666659  0.333318  0.429069  1
  S  S10  1  0.666656  0.333312  0.510227  1
  S  S11  1  0.333354  0.666710  0.241050  1
