# generated using pymatgen
data_Hf2CuGe4
_symmetry_space_group_name_H-M   'P 1'
_cell_length_a   3.79489250
_cell_length_b   3.81999636
_cell_length_c   16.68011316
_cell_angle_alpha   96.57521962
_cell_angle_beta   90.00000000
_cell_angle_gamma   90.00000000
_symmetry_Int_Tables_number   1
_chemical_formula_structural   Hf2CuGe4
_chemical_formula_sum   'Hf4 Cu2 Ge8'
_cell_volume   240.21236601
_cell_formula_units_Z   2
loop_
 _symmetry_equiv_pos_site_id
 _symmetry_equiv_pos_as_xyz
  1  'x, y, z'
loop_
 _atom_site_type_symbol
 _atom_site_label
 _atom_site_symmetry_multiplicity
 _atom_site_fract_x
 _atom_site_fract_y
 _atom_site_fract_z
 _atom_site_occupancy
  Cu  Cu0  1  0.750000  0.749893  0.499785  1
  Cu  Cu1  1  0.250000  0.250107  0.500215  1
  Ge  Ge2  1  0.250000  0.113265  0.226531  1
  Ge  Ge3  1  0.750000  0.886735  0.773469  1
  Ge  Ge4  1  0.250000  0.798600  0.597199  1
  Ge  Ge5  1  0.750000  0.201400  0.402801  1
  Ge  Ge6  1  0.750000  0.472108  0.944215  1
  Ge  Ge7  1  0.250000  0.527892  0.055785  1
  Ge  Ge8  1  0.750000  0.612942  0.225884  1
  Ge  Ge9  1  0.250000  0.387058  0.774116  1
  Hf  Hf10  1  0.250000  0.677746  0.355492  1
  Hf  Hf11  1  0.750000  0.322254  0.644508  1
  Hf  Hf12  1  0.250000  0.952656  0.905312  1
  Hf  Hf13  1  0.750000  0.047344  0.094688  1
