# generated using pymatgen
data_MoW(SeS)2
_symmetry_space_group_name_H-M   'P 1'
_cell_length_a   3.25324639
_cell_length_b   3.25321064
_cell_length_c   36.87791549
_cell_angle_alpha   89.99995038
_cell_angle_beta   89.99996966
_cell_angle_gamma   120.00038323
_symmetry_Int_Tables_number   1
_chemical_formula_structural   MoW(SeS)2
_chemical_formula_sum   'Mo2 W2 Se4 S4'
_cell_volume   338.00603937
_cell_formula_units_Z   2
loop_
 _symmetry_equiv_pos_site_id
 _symmetry_equiv_pos_as_xyz
  1  'x, y, z'
loop_
 _atom_site_type_symbol
 _atom_site_label
 _atom_site_symmetry_multiplicity
 _atom_site_fract_x
 _atom_site_fract_y
 _atom_site_fract_z
 _atom_site_occupancy
  Mo  Mo0  1  0.333310  0.666620  0.093901  1
  Mo  Mo1  1  0.333310  0.666621  0.469653  1
  W  W2  1  0.666686  0.333373  0.281802  1
  W  W3  1  0.666690  0.333380  0.657537  1
  Se  Se4  1  0.333359  0.666718  0.328162  1
  Se  Se5  1  0.666646  0.333292  0.047867  1
  Se  Se6  1  0.666646  0.333293  0.139955  1
  Se  Se7  1  0.333354  0.666709  0.235443  1
  S  S8  1  0.333360  0.666721  0.699555  1
  S  S9  1  0.666645  0.333290  0.427768  1
  S  S10  1  0.666639  0.333274  0.511590  1
  S  S11  1  0.333355  0.666710  0.615515  1
