# generated using pymatgen
data_MoWSeS3
_symmetry_space_group_name_H-M   'P 1'
_cell_length_a   3.22022774
_cell_length_b   3.22019203
_cell_length_c   36.37526639
_cell_angle_alpha   90.00016014
_cell_angle_beta   90.00000000
_cell_angle_gamma   120.00036679
_symmetry_Int_Tables_number   1
_chemical_formula_structural   MoWSeS3
_chemical_formula_sum   'Mo2 W2 Se2 S6'
_cell_volume   326.66572370
_cell_formula_units_Z   2
loop_
 _symmetry_equiv_pos_site_id
 _symmetry_equiv_pos_as_xyz
  1  'x, y, z'
loop_
 _atom_site_type_symbol
 _atom_site_label
 _atom_site_symmetry_multiplicity
 _atom_site_fract_x
 _atom_site_fract_y
 _atom_site_fract_z
 _atom_site_occupancy
  Mo  Mo0  1  0.333311  0.666623  0.093910  1
  Mo  Mo1  1  0.666687  0.333375  0.281798  1
  W  W2  1  0.333310  0.666621  0.469670  1
  W  W3  1  0.666689  0.333379  0.657542  1
  Se  Se4  1  0.333352  0.666704  0.328801  1
  Se  Se5  1  0.333352  0.666706  0.234779  1
  S  S6  1  0.333354  0.666710  0.700497  1
  S  S7  1  0.666647  0.333292  0.051110  1
  S  S8  1  0.666644  0.333287  0.426739  1
  S  S9  1  0.666647  0.333293  0.136711  1
  S  S10  1  0.666644  0.333288  0.512608  1
  S  S11  1  0.333361  0.666723  0.614583  1
