# generated using pymatgen
data_Te2Mo3W(SeS2)2
_symmetry_space_group_name_H-M   'P 1'
_cell_length_a   3.30926650
_cell_length_b   3.30937167
_cell_length_c   39.04363351
_cell_angle_alpha   90.00343788
_cell_angle_beta   90.00000000
_cell_angle_gamma   119.99894870
_symmetry_Int_Tables_number   1
_chemical_formula_structural   Te2Mo3W(SeS2)2
_chemical_formula_sum   'Te2 Mo3 W1 Se2 S4'
_cell_volume   370.30770389
_cell_formula_units_Z   1
loop_
 _symmetry_equiv_pos_site_id
 _symmetry_equiv_pos_as_xyz
  1  'x, y, z'
loop_
 _atom_site_type_symbol
 _atom_site_label
 _atom_site_symmetry_multiplicity
 _atom_site_fract_x
 _atom_site_fract_y
 _atom_site_fract_z
 _atom_site_occupancy
  Te  Te0  1  0.333397  0.666794  0.707981  1
  Te  Te1  1  0.333350  0.666700  0.610041  1
  Mo  Mo2  1  0.333339  0.666679  0.093857  1
  Mo  Mo3  1  0.666576  0.333153  0.281730  1
  Mo  Mo4  1  0.666715  0.333429  0.659042  1
  W  W5  1  0.333334  0.666667  0.468345  1
  Se  Se6  1  0.666645  0.333288  0.425072  1
  Se  Se7  1  0.666681  0.333362  0.511606  1
  S  S8  1  0.333281  0.666564  0.320818  1
  S  S9  1  0.666699  0.333397  0.054719  1
  S  S10  1  0.666736  0.333472  0.132992  1
  S  S11  1  0.333247  0.666495  0.242545  1
