# generated using pymatgen
data_K3NbS4
_symmetry_space_group_name_H-M   'P 1'
_cell_length_a   9.38187100
_cell_length_b   9.61876627
_cell_length_c   10.88931229
_cell_angle_alpha   90.00000000
_cell_angle_beta   90.00000000
_cell_angle_gamma   90.00000000
_symmetry_Int_Tables_number   1
_chemical_formula_structural   K3NbS4
_chemical_formula_sum   'K12 Nb4 S16'
_cell_volume   982.67358455
_cell_formula_units_Z   4
loop_
 _symmetry_equiv_pos_site_id
 _symmetry_equiv_pos_as_xyz
  1  'x, y, z'
loop_
 _atom_site_type_symbol
 _atom_site_label
 _atom_site_symmetry_multiplicity
 _atom_site_fract_x
 _atom_site_fract_y
 _atom_site_fract_z
 _atom_site_occupancy
  S  S0  1  0.665552  0.551445  0.076072  1
  S  S1  1  0.165552  0.948555  0.423928  1
  S  S2  1  0.834448  0.051445  0.923928  1
  S  S3  1  0.334448  0.448555  0.576072  1
  S  S4  1  0.334448  0.448555  0.923928  1
  S  S5  1  0.834448  0.051445  0.576072  1
  S  S6  1  0.165552  0.948555  0.076072  1
  S  S7  1  0.665552  0.551445  0.423928  1
  S  S8  1  0.188587  0.749482  0.750000  1
  S  S9  1  0.688587  0.750518  0.750000  1
  S  S10  1  0.311413  0.249482  0.250000  1
  S  S11  1  0.811413  0.250518  0.250000  1
  S  S12  1  0.991517  0.411278  0.750000  1
  S  S13  1  0.008483  0.588722  0.250000  1
  S  S14  1  0.508483  0.911278  0.250000  1
  S  S15  1  0.491517  0.088722  0.750000  1
  K  K16  1  0.060427  0.287677  0.045449  1
  K  K17  1  0.632852  0.425570  0.750000  1
  K  K18  1  0.367148  0.574430  0.250000  1
  K  K19  1  0.867148  0.925570  0.250000  1
  K  K20  1  0.939573  0.712323  0.954551  1
  K  K21  1  0.439573  0.787677  0.545449  1
  K  K22  1  0.560427  0.212323  0.045449  1
  K  K23  1  0.060427  0.287677  0.454551  1
  K  K24  1  0.939573  0.712323  0.545449  1
  K  K25  1  0.560427  0.212323  0.454551  1
  K  K26  1  0.439573  0.787677  0.954551  1
  K  K27  1  0.132852  0.074430  0.750000  1
  Nb  Nb28  1  0.213558  0.511789  0.750000  1
  Nb  Nb29  1  0.713558  0.988211  0.750000  1
  Nb  Nb30  1  0.286442  0.011789  0.250000  1
  Nb  Nb31  1  0.786442  0.488211  0.250000  1
