# generated using pymatgen
data_Ba3NiRu2O9
_symmetry_space_group_name_H-M   'P 1'
_cell_length_a   5.83076609
_cell_length_b   5.83076609
_cell_length_c   14.34790474
_cell_angle_alpha   90.00000000
_cell_angle_beta   90.00000000
_cell_angle_gamma   119.99999994
_symmetry_Int_Tables_number   1
_chemical_formula_structural   Ba3NiRu2O9
_chemical_formula_sum   'Ba6 Ni2 Ru4 O18'
_cell_volume   422.44517613
_cell_formula_units_Z   2
loop_
 _symmetry_equiv_pos_site_id
 _symmetry_equiv_pos_as_xyz
  1  'x, y, z'
loop_
 _atom_site_type_symbol
 _atom_site_label
 _atom_site_symmetry_multiplicity
 _atom_site_fract_x
 _atom_site_fract_y
 _atom_site_fract_z
 _atom_site_occupancy
  O  O0  1  0.829625  0.170374  0.417016  1
  O  O1  1  0.829626  0.659252  0.417016  1
  O  O2  1  0.340749  0.170374  0.417016  1
  O  O3  1  0.659252  0.829626  0.917016  1
  O  O4  1  0.170374  0.340749  0.582984  1
  O  O5  1  0.170374  0.829626  0.917016  1
  O  O6  1  0.170374  0.340749  0.917016  1
  O  O7  1  0.829625  0.170374  0.082984  1
  O  O8  1  0.340749  0.170374  0.082984  1
  O  O9  1  0.659252  0.829626  0.582984  1
  O  O10  1  0.170374  0.829626  0.582984  1
  O  O11  1  0.829626  0.659252  0.082984  1
  O  O12  1  0.515437  0.030872  0.250000  1
  O  O13  1  0.484564  0.515435  0.750000  1
  O  O14  1  0.030871  0.515435  0.750000  1
  O  O15  1  0.484564  0.969128  0.750000  1
  O  O16  1  0.515435  0.484565  0.250000  1
  O  O17  1  0.969129  0.484565  0.250000  1
  Ni  Ni18  1  0.000000  0.000000  0.500000  1
  Ni  Ni19  1  0.000000  0.000000  0.000000  1
  Ru  Ru20  1  0.666668  0.333334  0.153574  1
  Ru  Ru21  1  0.333333  0.666666  0.653574  1
  Ru  Ru22  1  0.666668  0.333334  0.346426  1
  Ru  Ru23  1  0.333333  0.666666  0.846426  1
  Ba  Ba24  1  0.333333  0.666666  0.410867  1
  Ba  Ba25  1  0.666668  0.333334  0.910867  1
  Ba  Ba26  1  0.666668  0.333334  0.589133  1
  Ba  Ba27  1  0.333333  0.666666  0.089133  1
  Ba  Ba28  1  0.000000  0.000000  0.750000  1
  Ba  Ba29  1  0.000000  0.000000  0.250000  1
