# generated using pymatgen
data_Bi3ClO4
_symmetry_space_group_name_H-M   'P 1'
_cell_length_a   5.79809572
_cell_length_b   5.79233321
_cell_length_c   10.22250799
_cell_angle_alpha   106.05872421
_cell_angle_beta   106.47485813
_cell_angle_gamma   90.00000002
_symmetry_Int_Tables_number   1
_chemical_formula_structural   Bi3ClO4
_chemical_formula_sum   'Bi6 Cl2 O8'
_cell_volume   315.22750889
_cell_formula_units_Z   2
loop_
 _symmetry_equiv_pos_site_id
 _symmetry_equiv_pos_as_xyz
  1  'x, y, z'
loop_
 _atom_site_type_symbol
 _atom_site_label
 _atom_site_symmetry_multiplicity
 _atom_site_fract_x
 _atom_site_fract_y
 _atom_site_fract_z
 _atom_site_occupancy
  O  O0  1  0.499994  0.992933  0.132580  1
  O  O1  1  0.367414  0.507067  0.867420  1
  O  O2  1  0.500006  0.007067  0.867420  1
  O  O3  1  0.632586  0.492933  0.132580  1
  O  O4  1  0.131125  0.602459  0.179823  1
  O  O5  1  0.868875  0.397541  0.820177  1
  O  O6  1  0.951302  0.897541  0.820177  1
  O  O7  1  0.048698  0.102459  0.179823  1
  Cl  Cl8  1  0.500000  0.500000  0.500000  1
  Cl  Cl9  1  0.000000  0.000000  0.500000  1
  Bi  Bi10  1  0.058559  0.561358  0.710542  1
  Bi  Bi11  1  0.651982  0.061358  0.710542  1
  Bi  Bi12  1  0.941441  0.438642  0.289458  1
  Bi  Bi13  1  0.348018  0.938642  0.289458  1
  Bi  Bi14  1  0.295225  0.250000  0.000000  1
  Bi  Bi15  1  0.704775  0.750000  0.000000  1
