# generated using pymatgen
data_Mg3P2(HO)16
_symmetry_space_group_name_H-M   'P 1'
_cell_length_a   4.69417531
_cell_length_b   8.42353577
_cell_length_c   8.42353577
_cell_angle_alpha   105.76791012
_cell_angle_beta   99.21234854
_cell_angle_gamma   99.21234847
_symmetry_Int_Tables_number   1
_chemical_formula_structural   Mg3P2(HO)16
_chemical_formula_sum   'Mg3 P2 H16 O16'
_cell_volume   309.05901498
_cell_formula_units_Z   1
loop_
 _symmetry_equiv_pos_site_id
 _symmetry_equiv_pos_as_xyz
  1  'x, y, z'
loop_
 _atom_site_type_symbol
 _atom_site_label
 _atom_site_symmetry_multiplicity
 _atom_site_fract_x
 _atom_site_fract_y
 _atom_site_fract_z
 _atom_site_occupancy
  H  H0  1  0.712217  0.179288  0.741028  1
  H  H1  1  0.287783  0.258972  0.820712  1
  H  H2  1  0.287783  0.820712  0.258972  1
  H  H3  1  0.712217  0.741028  0.179288  1
  H  H4  1  0.511014  0.179345  0.567236  1
  H  H5  1  0.511014  0.567236  0.179345  1
  H  H6  1  0.960836  0.065586  0.313478  1
  H  H7  1  0.039164  0.686522  0.934414  1
  H  H8  1  0.039164  0.934414  0.686522  1
  H  H9  1  0.960836  0.313478  0.065586  1
  H  H10  1  0.640371  0.044110  0.205943  1
  H  H11  1  0.359629  0.794057  0.955890  1
  H  H12  1  0.359629  0.955890  0.794057  1
  H  H13  1  0.640371  0.205943  0.044110  1
  H  H14  1  0.488986  0.432764  0.820655  1
  H  H15  1  0.488986  0.820655  0.432764  1
  O  O16  1  0.811236  0.986608  0.212533  1
  O  O17  1  0.714393  0.624699  0.180612  1
  O  O18  1  0.285607  0.819388  0.375301  1
  O  O19  1  0.285607  0.375301  0.819388  1
  O  O20  1  0.714393  0.180612  0.624699  1
  O  O21  1  0.811236  0.212533  0.986608  1
  O  O22  1  0.771749  0.754585  0.561460  1
  O  O23  1  0.228251  0.438540  0.245415  1
  O  O24  1  0.228251  0.245415  0.438540  1
  O  O25  1  0.771749  0.561460  0.754585  1
  O  O26  1  0.714080  0.397587  0.397587  1
  O  O27  1  0.285920  0.602413  0.602413  1
  O  O28  1  0.381028  0.157915  0.157915  1
  O  O29  1  0.618972  0.842085  0.842085  1
  O  O30  1  0.188764  0.787467  0.013392  1
  O  O31  1  0.188764  0.013392  0.787467  1
  Mg  Mg32  1  0.000000  0.000000  0.000000  1
  Mg  Mg33  1  0.000000  0.610496  0.389504  1
  Mg  Mg34  1  0.000000  0.389504  0.610496  1
  P  P35  1  0.613919  0.686500  0.686500  1
  P  P36  1  0.386081  0.313500  0.313500  1
