# generated using pymatgen
data_Gd(LuS2)3
_symmetry_space_group_name_H-M   'P 1'
_cell_length_a   3.89906646
_cell_length_b   10.89904566
_cell_length_c   11.14290164
_cell_angle_alpha   108.94323500
_cell_angle_beta   90.00000000
_cell_angle_gamma   90.00000000
_symmetry_Int_Tables_number   1
_chemical_formula_structural   Gd(LuS2)3
_chemical_formula_sum   'Gd2 Lu6 S12'
_cell_volume   447.88383491
_cell_formula_units_Z   2
loop_
 _symmetry_equiv_pos_site_id
 _symmetry_equiv_pos_as_xyz
  1  'x, y, z'
loop_
 _atom_site_type_symbol
 _atom_site_label
 _atom_site_symmetry_multiplicity
 _atom_site_fract_x
 _atom_site_fract_y
 _atom_site_fract_z
 _atom_site_occupancy
  S  S0  1  0.750000  0.384478  0.036459  1
  S  S1  1  0.250000  0.615522  0.963541  1
  S  S2  1  0.750000  0.022924  0.887675  1
  S  S3  1  0.250000  0.977076  0.112325  1
  S  S4  1  0.750000  0.695283  0.749215  1
  S  S5  1  0.250000  0.304717  0.250785  1
  S  S6  1  0.750000  0.761479  0.226433  1
  S  S7  1  0.250000  0.238521  0.773567  1
  S  S8  1  0.250000  0.418263  0.594504  1
  S  S9  1  0.750000  0.581737  0.405496  1
  S  S10  1  0.250000  0.895421  0.560431  1
  S  S11  1  0.750000  0.104579  0.439569  1
  Gd  Gd12  1  0.250000  0.546918  0.193680  1
  Gd  Gd13  1  0.750000  0.453082  0.806320  1
  Lu  Lu14  1  0.750000  0.062199  0.667220  1
  Lu  Lu15  1  0.250000  0.937801  0.332780  1
  Lu  Lu16  1  0.750000  0.818713  0.998444  1
  Lu  Lu17  1  0.250000  0.181287  0.001556  1
  Lu  Lu18  1  0.250000  0.660656  0.585639  1
  Lu  Lu19  1  0.750000  0.339344  0.414361  1
