# generated using pymatgen
data_KCrP2O7
_symmetry_space_group_name_H-M   'P 1'
_cell_length_a   7.47230239
_cell_length_b   8.31182927
_cell_length_c   10.08434049
_cell_angle_alpha   90.00000000
_cell_angle_beta   90.00000000
_cell_angle_gamma   106.94898697
_symmetry_Int_Tables_number   1
_chemical_formula_structural   KCrP2O7
_chemical_formula_sum   'K4 Cr4 P8 O28'
_cell_volume   599.11873177
_cell_formula_units_Z   4
loop_
 _symmetry_equiv_pos_site_id
 _symmetry_equiv_pos_as_xyz
  1  'x, y, z'
loop_
 _atom_site_type_symbol
 _atom_site_label
 _atom_site_symmetry_multiplicity
 _atom_site_fract_x
 _atom_site_fract_y
 _atom_site_fract_z
 _atom_site_occupancy
  O  O0  1  0.358637  0.986152  0.592655  1
  O  O1  1  0.641363  0.513849  0.092655  1
  O  O2  1  0.641363  0.013849  0.407344  1
  O  O3  1  0.358637  0.486151  0.907345  1
  O  O4  1  0.419365  0.747996  0.764125  1
  O  O5  1  0.580635  0.752004  0.264125  1
  O  O6  1  0.580634  0.252003  0.235874  1
  O  O7  1  0.419366  0.247997  0.735874  1
  O  O8  1  0.494952  0.721081  0.503313  1
  O  O9  1  0.505047  0.778919  0.003313  1
  O  O10  1  0.505047  0.278919  0.496686  1
  O  O11  1  0.494952  0.221081  0.996687  1
  O  O12  1  0.164187  0.185950  0.557716  1
  O  O13  1  0.835812  0.314050  0.057716  1
  O  O14  1  0.835812  0.814049  0.442284  1
  O  O15  1  0.164188  0.685950  0.942284  1
  O  O16  1  0.048439  0.755269  0.717399  1
  O  O17  1  0.951562  0.744730  0.217400  1
  O  O18  1  0.951562  0.244731  0.282601  1
  O  O19  1  0.048438  0.255269  0.782601  1
  O  O20  1  0.862946  0.763028  0.921450  1
  O  O21  1  0.137055  0.736973  0.421450  1
  O  O22  1  0.181021  0.485648  0.604973  1
  O  O23  1  0.862946  0.263028  0.578549  1
  O  O24  1  0.181021  0.985647  0.895027  1
  O  O25  1  0.818979  0.514352  0.395027  1
  O  O26  1  0.818980  0.014352  0.104973  1
  O  O27  1  0.137055  0.236973  0.078549  1
  P  P28  1  0.061033  0.307591  0.635339  1
  P  P29  1  0.938967  0.192409  0.135338  1
  P  P30  1  0.938966  0.692409  0.364661  1
  P  P31  1  0.061034  0.807592  0.864661  1
  P  P32  1  0.369017  0.169244  0.597351  1
  P  P33  1  0.369017  0.669244  0.902649  1
  P  P34  1  0.630984  0.830757  0.402648  1
  P  P35  1  0.630984  0.330756  0.097351  1
  K  K36  1  0.677822  0.056183  0.822060  1
  K  K37  1  0.322178  0.943817  0.177940  1
  K  K38  1  0.322178  0.443817  0.322060  1
  K  K39  1  0.677821  0.556183  0.677940  1
  Cr  Cr40  1  0.263456  0.238910  0.899068  1
  Cr  Cr41  1  0.736544  0.261091  0.399069  1
  Cr  Cr42  1  0.736544  0.761091  0.100931  1
  Cr  Cr43  1  0.263457  0.738910  0.600931  1
