# generated using pymatgen
data_Co2(GeS)3
_symmetry_space_group_name_H-M   'P 1'
_cell_length_a   8.05789385
_cell_length_b   8.05789385
_cell_length_c   8.05789385
_cell_angle_alpha   89.94033284
_cell_angle_beta   89.94033289
_cell_angle_gamma   89.94033291
_symmetry_Int_Tables_number   1
_chemical_formula_structural   Co2(GeS)3
_chemical_formula_sum   'Co8 Ge12 S12'
_cell_volume   523.19540324
_cell_formula_units_Z   4
loop_
 _symmetry_equiv_pos_site_id
 _symmetry_equiv_pos_as_xyz
  1  'x, y, z'
loop_
 _atom_site_type_symbol
 _atom_site_label
 _atom_site_symmetry_multiplicity
 _atom_site_fract_x
 _atom_site_fract_y
 _atom_site_fract_z
 _atom_site_occupancy
  S  S0  1  0.255353  0.910729  0.404707  1
  S  S1  1  0.904077  0.759553  0.101861  1
  S  S2  1  0.759553  0.101861  0.904077  1
  S  S3  1  0.101861  0.904077  0.759553  1
  S  S4  1  0.752847  0.410549  0.608272  1
  S  S5  1  0.608272  0.752847  0.410549  1
  S  S6  1  0.107662  0.257028  0.601716  1
  S  S7  1  0.257028  0.601716  0.107662  1
  S  S8  1  0.910729  0.404707  0.255353  1
  S  S9  1  0.404707  0.255353  0.910729  1
  S  S10  1  0.410549  0.608272  0.752847  1
  S  S11  1  0.601716  0.107662  0.257028  1
  Co  Co12  1  0.015738  0.010250  0.513341  1
  Co  Co13  1  0.010250  0.513341  0.015738  1
  Co  Co14  1  0.513341  0.015738  0.010250  1
  Co  Co15  1  0.496642  0.502143  0.999061  1
  Co  Co16  1  0.999923  0.999923  0.999923  1
  Co  Co17  1  0.999061  0.496642  0.502143  1
  Co  Co18  1  0.512452  0.512452  0.512452  1
  Co  Co19  1  0.502143  0.999061  0.496642  1
  Ge  Ge20  1  0.757215  0.421997  0.906807  1
  Ge  Ge21  1  0.906807  0.757215  0.421997  1
  Ge  Ge22  1  0.421997  0.906807  0.757215  1
  Ge  Ge23  1  0.755149  0.090448  0.605517  1
  Ge  Ge24  1  0.605517  0.755149  0.090448  1
  Ge  Ge25  1  0.090448  0.605517  0.755149  1
  Ge  Ge26  1  0.406384  0.254465  0.589812  1
  Ge  Ge27  1  0.254465  0.589812  0.406384  1
  Ge  Ge28  1  0.922575  0.105920  0.257909  1
  Ge  Ge29  1  0.105920  0.257909  0.922575  1
  Ge  Ge30  1  0.257909  0.922575  0.105920  1
  Ge  Ge31  1  0.589812  0.406384  0.254465  1
