# generated using pymatgen
data_CoN3
_symmetry_space_group_name_H-M   'P 1'
_cell_length_a   5.41921353
_cell_length_b   5.41921352
_cell_length_c   5.41921352
_cell_angle_alpha   109.47122067
_cell_angle_beta   109.47122065
_cell_angle_gamma   109.47122059
_symmetry_Int_Tables_number   1
_chemical_formula_structural   CoN3
_chemical_formula_sum   'Co4 N12'
_cell_volume   122.51433245
_cell_formula_units_Z   4
loop_
 _symmetry_equiv_pos_site_id
 _symmetry_equiv_pos_as_xyz
  1  'x, y, z'
loop_
 _atom_site_type_symbol
 _atom_site_label
 _atom_site_symmetry_multiplicity
 _atom_site_fract_x
 _atom_site_fract_y
 _atom_site_fract_z
 _atom_site_occupancy
  N  N0  1  0.509052  0.884031  0.625021  1
  N  N1  1  0.259010  0.884031  0.374979  1
  N  N2  1  0.740990  0.115969  0.625021  1
  N  N3  1  0.115969  0.374979  0.490948  1
  N  N4  1  0.490948  0.115969  0.374979  1
  N  N5  1  0.115969  0.625021  0.740990  1
  N  N6  1  0.374979  0.259010  0.884031  1
  N  N7  1  0.884031  0.625021  0.509052  1
  N  N8  1  0.625021  0.740990  0.115969  1
  N  N9  1  0.884031  0.374979  0.259010  1
  N  N10  1  0.625021  0.509052  0.884031  1
  N  N11  1  0.374979  0.490948  0.115969  1
  Co  Co12  1  0.500000  0.000000  0.000000  1
  Co  Co13  1  0.000000  0.000000  0.500000  1
  Co  Co14  1  0.000000  0.500000  0.000000  1
  Co  Co15  1  0.500000  0.500000  0.500000  1
