# generated using pymatgen
data_Cs(SO2)2
_symmetry_space_group_name_H-M   'P 1'
_cell_length_a   7.84812731
_cell_length_b   9.85507915
_cell_length_c   16.00406500
_cell_angle_alpha   90.00000000
_cell_angle_beta   90.00000000
_cell_angle_gamma   98.40710825
_symmetry_Int_Tables_number   1
_chemical_formula_structural   Cs(SO2)2
_chemical_formula_sum   'Cs8 S16 O32'
_cell_volume   1224.51572403
_cell_formula_units_Z   8
loop_
 _symmetry_equiv_pos_site_id
 _symmetry_equiv_pos_as_xyz
  1  'x, y, z'
loop_
 _atom_site_type_symbol
 _atom_site_label
 _atom_site_symmetry_multiplicity
 _atom_site_fract_x
 _atom_site_fract_y
 _atom_site_fract_z
 _atom_site_occupancy
  O  O0  1  0.592295  0.336572  0.115948  1
  O  O1  1  0.907705  0.663428  0.615948  1
  O  O2  1  0.407705  0.663428  0.884052  1
  O  O3  1  0.092295  0.336572  0.384052  1
  O  O4  1  0.697663  0.345668  0.261665  1
  O  O5  1  0.802337  0.654332  0.761665  1
  O  O6  1  0.302337  0.654332  0.738335  1
  O  O7  1  0.197663  0.345668  0.238335  1
  O  O8  1  0.474408  0.229888  0.573269  1
  O  O9  1  0.025592  0.770112  0.073269  1
  O  O10  1  0.525592  0.770112  0.426731  1
  O  O11  1  0.974408  0.229888  0.926731  1
  O  O12  1  0.583577  0.439158  0.650270  1
  O  O13  1  0.916423  0.560842  0.150270  1
  O  O14  1  0.416423  0.560842  0.349730  1
  O  O15  1  0.083577  0.439158  0.849730  1
  O  O16  1  0.756448  0.357753  0.536356  1
  O  O17  1  0.743552  0.642247  0.036356  1
  O  O18  1  0.243552  0.642247  0.463644  1
  O  O19  1  0.256448  0.357753  0.963644  1
  O  O20  1  0.686895  0.979848  0.586638  1
  O  O21  1  0.813105  0.020152  0.086638  1
  O  O22  1  0.313105  0.020152  0.413362  1
  O  O23  1  0.186895  0.979848  0.913362  1
  O  O24  1  0.480201  0.106374  0.917733  1
  O  O25  1  0.019799  0.893626  0.417733  1
  O  O26  1  0.519799  0.893626  0.082267  1
  O  O27  1  0.980201  0.106374  0.582267  1
  O  O28  1  0.382930  0.966869  0.794579  1
  O  O29  1  0.117070  0.033131  0.294579  1
  O  O30  1  0.617070  0.033131  0.205421  1
  O  O31  1  0.882930  0.966869  0.705421  1
  S  S32  1  0.731613  0.321398  0.173909  1
  S  S33  1  0.768387  0.678602  0.673909  1
  S  S34  1  0.268387  0.678602  0.826091  1
  S  S35  1  0.231613  0.321398  0.326091  1
  S  S36  1  0.627114  0.320971  0.601922  1
  S  S37  1  0.872886  0.679029  0.101922  1
  S  S38  1  0.372886  0.679029  0.398078  1
  S  S39  1  0.127114  0.320971  0.898078  1
  S  S40  1  0.748236  0.218318  0.698302  1
  S  S41  1  0.751764  0.781682  0.198302  1
  S  S42  1  0.251764  0.781682  0.301698  1
  S  S43  1  0.248236  0.218318  0.801698  1
  S  S44  1  0.834301  0.047299  0.634263  1
  S  S45  1  0.665699  0.952701  0.134263  1
  S  S46  1  0.165699  0.952701  0.365737  1
  S  S47  1  0.334301  0.047299  0.865737  1
  Cs  Cs48  1  0.161971  0.409504  0.600577  1
  Cs  Cs49  1  0.338029  0.590496  0.100577  1
  Cs  Cs50  1  0.838029  0.590496  0.399423  1
  Cs  Cs51  1  0.661971  0.409504  0.899423  1
  Cs  Cs52  1  0.714588  0.080005  0.399948  1
  Cs  Cs53  1  0.785412  0.919995  0.899948  1
  Cs  Cs54  1  0.285412  0.919995  0.600052  1
  Cs  Cs55  1  0.214588  0.080005  0.100052  1
