# generated using pymatgen
data_Y2Ti2S2O5
_symmetry_space_group_name_H-M   'P 1'
_cell_length_a   11.84413040
_cell_length_b   11.84413040
_cell_length_c   11.84413040
_cell_angle_alpha   161.53752803
_cell_angle_beta   161.53705941
_cell_angle_gamma   26.22573465
_symmetry_Int_Tables_number   1
_chemical_formula_structural   Y2Ti2S2O5
_chemical_formula_sum   'Y2 Ti2 S2 O5'
_cell_volume   166.57865229
_cell_formula_units_Z   1
loop_
 _symmetry_equiv_pos_site_id
 _symmetry_equiv_pos_as_xyz
  1  'x, y, z'
loop_
 _atom_site_type_symbol
 _atom_site_label
 _atom_site_symmetry_multiplicity
 _atom_site_fract_x
 _atom_site_fract_y
 _atom_site_fract_z
 _atom_site_occupancy
  O  O0  1  0.000000  0.000000  0.000000  1
  O  O1  1  0.599328  0.099328  0.500000  1
  O  O2  1  0.900584  0.400584  0.500000  1
  O  O3  1  0.099416  0.599416  0.500000  1
  O  O4  1  0.400672  0.900672  0.500000  1
  S  S5  1  0.205269  0.205269  0.000000  1
  S  S6  1  0.794731  0.794731  0.000000  1
  Ti  Ti7  1  0.078731  0.078731  0.000000  1
  Ti  Ti8  1  0.921269  0.921269  0.000000  1
  Y  Y9  1  0.333316  0.333316  0.000000  1
  Y  Y10  1  0.666684  0.666684  0.000000  1
