# generated using pymatgen
data_BiI
_symmetry_space_group_name_H-M   'P 1'
_cell_length_a   4.40810218
_cell_length_b   8.27490817
_cell_length_c   21.61785084
_cell_angle_alpha   96.33830146
_cell_angle_beta   90.00000000
_cell_angle_gamma   105.44739592
_symmetry_Int_Tables_number   1
_chemical_formula_structural   BiI
_chemical_formula_sum   'Bi8 I8'
_cell_volume   755.05873937
_cell_formula_units_Z   8
loop_
 _symmetry_equiv_pos_site_id
 _symmetry_equiv_pos_as_xyz
  1  'x, y, z'
loop_
 _atom_site_type_symbol
 _atom_site_label
 _atom_site_symmetry_multiplicity
 _atom_site_fract_x
 _atom_site_fract_y
 _atom_site_fract_z
 _atom_site_occupancy
  I  I0  1  0.623110  0.246221  0.638238  1
  I  I1  1  0.376890  0.753779  0.361762  1
  I  I2  1  0.876120  0.752241  0.569901  1
  I  I3  1  0.123880  0.247759  0.430099  1
  I  I4  1  0.623892  0.247783  0.854635  1
  I  I5  1  0.376108  0.752217  0.145365  1
  I  I6  1  0.375206  0.750412  0.930521  1
  I  I7  1  0.624794  0.249588  0.069479  1
  Bi  Bi8  1  0.746476  0.492952  0.387928  1
  Bi  Bi9  1  0.253524  0.507048  0.612072  1
  Bi  Bi10  1  0.996217  0.992433  0.887330  1
  Bi  Bi11  1  0.003783  0.007567  0.112670  1
  Bi  Bi12  1  0.306466  0.612931  0.754384  1
  Bi  Bi13  1  0.693534  0.387069  0.245616  1
  Bi  Bi14  1  0.937656  0.875311  0.746000  1
  Bi  Bi15  1  0.062344  0.124689  0.254000  1
