# generated using pymatgen
data_Pd(PbCl3)2
_symmetry_space_group_name_H-M   'P 1'
_cell_length_a   6.44550641
_cell_length_b   8.21962624
_cell_length_c   9.18081389
_cell_angle_alpha   90.94380424
_cell_angle_beta   90.00000000
_cell_angle_gamma   90.00000000
_symmetry_Int_Tables_number   1
_chemical_formula_structural   Pd(PbCl3)2
_chemical_formula_sum   'Pd2 Pb4 Cl12'
_cell_volume   486.33035148
_cell_formula_units_Z   2
loop_
 _symmetry_equiv_pos_site_id
 _symmetry_equiv_pos_as_xyz
  1  'x, y, z'
loop_
 _atom_site_type_symbol
 _atom_site_label
 _atom_site_symmetry_multiplicity
 _atom_site_fract_x
 _atom_site_fract_y
 _atom_site_fract_z
 _atom_site_occupancy
  Pb  Pb0  1  0.451805  0.123689  0.281621  1
  Pb  Pb1  1  0.951805  0.376311  0.718379  1
  Pb  Pb2  1  0.548195  0.876311  0.718379  1
  Pb  Pb3  1  0.048195  0.623689  0.281621  1
  Pd  Pd4  1  0.000000  0.000000  0.000000  1
  Pd  Pd5  1  0.500000  0.500000  0.000000  1
  Cl  Cl6  1  0.616520  0.471538  0.239331  1
  Cl  Cl7  1  0.116520  0.028462  0.760669  1
  Cl  Cl8  1  0.383480  0.528462  0.760669  1
  Cl  Cl9  1  0.883480  0.971538  0.239331  1
  Cl  Cl10  1  0.199633  0.356103  0.055804  1
  Cl  Cl11  1  0.699633  0.143897  0.944196  1
  Cl  Cl12  1  0.800367  0.643897  0.944196  1
  Cl  Cl13  1  0.300367  0.856103  0.055804  1
  Cl  Cl14  1  0.143862  0.332725  0.439423  1
  Cl  Cl15  1  0.643862  0.167275  0.560577  1
  Cl  Cl16  1  0.856138  0.667275  0.560577  1
  Cl  Cl17  1  0.356138  0.832725  0.439423  1
