# generated using pymatgen
data_LiSn2(PO4)3
_symmetry_space_group_name_H-M   'P 1'
_cell_length_a   8.61477199
_cell_length_b   12.30981296
_cell_length_c   8.80473234
_cell_angle_alpha   90.00000000
_cell_angle_beta   90.00000000
_cell_angle_gamma   89.22832994
_symmetry_Int_Tables_number   1
_chemical_formula_structural   LiSn2(PO4)3
_chemical_formula_sum   'Li4 Sn8 P12 O48'
_cell_volume   933.62400573
_cell_formula_units_Z   4
loop_
 _symmetry_equiv_pos_site_id
 _symmetry_equiv_pos_as_xyz
  1  'x, y, z'
loop_
 _atom_site_type_symbol
 _atom_site_label
 _atom_site_symmetry_multiplicity
 _atom_site_fract_x
 _atom_site_fract_y
 _atom_site_fract_z
 _atom_site_occupancy
  Li  Li0  1  0.074559  0.696752  0.096032  1
  Li  Li1  1  0.425441  0.803248  0.596032  1
  Li  Li2  1  0.574559  0.196752  0.403968  1
  Li  Li3  1  0.925441  0.303248  0.903968  1
  O  O4  1  0.047661  0.434276  0.874204  1
  O  O5  1  0.055806  0.180757  0.578285  1
  O  O6  1  0.064314  0.887413  0.889623  1
  O  O7  1  0.063666  0.594471  0.687543  1
  O  O8  1  0.089291  0.582068  0.364280  1
  O  O9  1  0.120575  0.248197  0.005040  1
  O  O10  1  0.133623  0.824972  0.212476  1
  O  O11  1  0.146303  0.968433  0.416387  1
  O  O12  1  0.156490  0.181904  0.273443  1
  O  O13  1  0.185676  0.445002  0.175153  1
  O  O14  1  0.216707  0.056853  0.053325  1
  O  O15  1  0.224800  0.776152  0.483177  1
  O  O16  1  0.275200  0.723848  0.983177  1
  O  O17  1  0.283293  0.443147  0.553325  1
  O  O18  1  0.314324  0.054998  0.675153  1
  O  O19  1  0.343510  0.318096  0.773443  1
  O  O20  1  0.353697  0.531567  0.916387  1
  O  O21  1  0.366377  0.675028  0.712476  1
  O  O22  1  0.379425  0.251803  0.505040  1
  O  O23  1  0.410709  0.917932  0.864280  1
  O  O24  1  0.436334  0.905529  0.187543  1
  O  O25  1  0.435686  0.612587  0.389623  1
  O  O26  1  0.444194  0.319243  0.078285  1
  O  O27  1  0.452339  0.065724  0.374204  1
  O  O28  1  0.547661  0.934276  0.625796  1
  O  O29  1  0.555806  0.680757  0.921715  1
  O  O30  1  0.564314  0.387413  0.610377  1
  O  O31  1  0.563666  0.094471  0.812457  1
  O  O32  1  0.589291  0.082068  0.135720  1
  O  O33  1  0.620575  0.748197  0.494960  1
  O  O34  1  0.633623  0.324972  0.287524  1
  O  O35  1  0.646303  0.468433  0.083613  1
  O  O36  1  0.656490  0.681904  0.226557  1
  O  O37  1  0.685676  0.945002  0.324847  1
  O  O38  1  0.716707  0.556853  0.446675  1
  O  O39  1  0.724800  0.276152  0.016823  1
  O  O40  1  0.775200  0.223848  0.516823  1
  O  O41  1  0.783293  0.943147  0.946675  1
  O  O42  1  0.814324  0.554998  0.824847  1
  O  O43  1  0.843510  0.818096  0.726557  1
  O  O44  1  0.853697  0.031567  0.583613  1
  O  O45  1  0.866377  0.175028  0.787524  1
  O  O46  1  0.879425  0.751803  0.994960  1
  O  O47  1  0.910709  0.417932  0.635720  1
  O  O48  1  0.936334  0.405529  0.312457  1
  O  O49  1  0.935686  0.112587  0.110377  1
  O  O50  1  0.944194  0.819243  0.421715  1
  O  O51  1  0.952339  0.565724  0.125796  1
  P  P52  1  0.039076  0.495387  0.247406  1
  P  P53  1  0.107507  0.147689  0.112187  1
  P  P54  1  0.112935  0.849118  0.386088  1
  P  P55  1  0.387065  0.650882  0.886088  1
  P  P56  1  0.392493  0.352311  0.612187  1
  P  P57  1  0.460924  0.004613  0.747406  1
  P  P58  1  0.539076  0.995387  0.252594  1
  P  P59  1  0.607507  0.647689  0.387813  1
  P  P60  1  0.612935  0.349118  0.113912  1
  P  P61  1  0.887065  0.150882  0.613912  1
  P  P62  1  0.892493  0.852311  0.887813  1
  P  P63  1  0.960924  0.504613  0.752594  1
  Sn  Sn64  1  0.244139  0.605843  0.532441  1
  Sn  Sn65  1  0.241994  0.115563  0.469676  1
  Sn  Sn66  1  0.255861  0.894157  0.032441  1
  Sn  Sn67  1  0.258006  0.384437  0.969676  1
  Sn  Sn68  1  0.741994  0.615563  0.030324  1
  Sn  Sn69  1  0.744139  0.105843  0.967559  1
  Sn  Sn70  1  0.758006  0.884437  0.530324  1
  Sn  Sn71  1  0.755861  0.394157  0.467559  1
