# generated using pymatgen
data_EuInPd
_symmetry_space_group_name_H-M   'P 1'
_cell_length_a   4.50945720
_cell_length_b   7.51366476
_cell_length_c   8.64743344
_cell_angle_alpha   90.00000000
_cell_angle_beta   90.00000000
_cell_angle_gamma   90.00000000
_symmetry_Int_Tables_number   1
_chemical_formula_structural   EuInPd
_chemical_formula_sum   'Eu4 In4 Pd4'
_cell_volume   292.99709288
_cell_formula_units_Z   4
loop_
 _symmetry_equiv_pos_site_id
 _symmetry_equiv_pos_as_xyz
  1  'x, y, z'
loop_
 _atom_site_type_symbol
 _atom_site_label
 _atom_site_symmetry_multiplicity
 _atom_site_fract_x
 _atom_site_fract_y
 _atom_site_fract_z
 _atom_site_occupancy
  Pd  Pd0  1  0.750000  0.231638  0.874705  1
  Pd  Pd1  1  0.250000  0.268362  0.374705  1
  Pd  Pd2  1  0.750000  0.731638  0.625295  1
  Pd  Pd3  1  0.250000  0.768362  0.125295  1
  In  In4  1  0.250000  0.146293  0.062152  1
  In  In5  1  0.750000  0.353707  0.562152  1
  In  In6  1  0.250000  0.646293  0.437848  1
  In  In7  1  0.750000  0.853707  0.937848  1
  Eu  Eu8  1  0.250000  0.534688  0.821057  1
  Eu  Eu9  1  0.750000  0.465312  0.178943  1
  Eu  Eu10  1  0.250000  0.034688  0.678943  1
  Eu  Eu11  1  0.750000  0.965312  0.321057  1
