# generated using pymatgen
data_Er(ClO4)3
_symmetry_space_group_name_H-M   'P 1'
_cell_length_a   9.45847390
_cell_length_b   9.45847390
_cell_length_c   5.57079997
_cell_angle_alpha   90.00000000
_cell_angle_beta   90.00000000
_cell_angle_gamma   119.99999997
_symmetry_Int_Tables_number   1
_chemical_formula_structural   Er(ClO4)3
_chemical_formula_sum   'Er2 Cl6 O24'
_cell_volume   431.60884478
_cell_formula_units_Z   2
loop_
 _symmetry_equiv_pos_site_id
 _symmetry_equiv_pos_as_xyz
  1  'x, y, z'
loop_
 _atom_site_type_symbol
 _atom_site_label
 _atom_site_symmetry_multiplicity
 _atom_site_fract_x
 _atom_site_fract_y
 _atom_site_fract_z
 _atom_site_occupancy
  O  O0  1  0.807665  0.780701  0.750000  1
  O  O1  1  0.026964  0.807665  0.250000  1
  O  O2  1  0.780701  0.973036  0.250000  1
  O  O3  1  0.219299  0.026964  0.750000  1
  O  O4  1  0.973036  0.192335  0.750000  1
  O  O5  1  0.192335  0.219299  0.250000  1
  O  O6  1  0.798219  0.260317  0.537681  1
  O  O7  1  0.537902  0.798219  0.037681  1
  O  O8  1  0.468724  0.442760  0.250000  1
  O  O9  1  0.025964  0.468724  0.750000  1
  O  O10  1  0.442760  0.974036  0.750000  1
  O  O11  1  0.557240  0.025964  0.250000  1
  O  O12  1  0.974036  0.531276  0.250000  1
  O  O13  1  0.531276  0.557240  0.750000  1
  O  O14  1  0.798219  0.260317  0.962319  1
  O  O15  1  0.537902  0.798219  0.462319  1
  O  O16  1  0.260317  0.462098  0.462319  1
  O  O17  1  0.739683  0.537902  0.962319  1
  O  O18  1  0.462098  0.201781  0.962319  1
  O  O19  1  0.201781  0.739683  0.462319  1
  O  O20  1  0.201781  0.739683  0.037681  1
  O  O21  1  0.462098  0.201781  0.537681  1
  O  O22  1  0.739683  0.537902  0.537681  1
  O  O23  1  0.260317  0.462098  0.037681  1
  Cl  Cl24  1  0.704670  0.608919  0.750000  1
  Cl  Cl25  1  0.095751  0.704670  0.250000  1
  Cl  Cl26  1  0.608919  0.904249  0.250000  1
  Cl  Cl27  1  0.391081  0.095751  0.750000  1
  Cl  Cl28  1  0.904249  0.295330  0.750000  1
  Cl  Cl29  1  0.295330  0.391081  0.250000  1
  Er  Er30  1  0.333333  0.666667  0.750000  1
  Er  Er31  1  0.666667  0.333333  0.250000  1
