# generated using pymatgen
data_KIn2F7
_symmetry_space_group_name_H-M   'P 1'
_cell_length_a   6.76550807
_cell_length_b   8.35097391
_cell_length_c   11.02243374
_cell_angle_alpha   90.00000000
_cell_angle_beta   89.97755304
_cell_angle_gamma   90.00000000
_symmetry_Int_Tables_number   1
_chemical_formula_structural   KIn2F7
_chemical_formula_sum   'K4 In8 F28'
_cell_volume   622.75182249
_cell_formula_units_Z   4
loop_
 _symmetry_equiv_pos_site_id
 _symmetry_equiv_pos_as_xyz
  1  'x, y, z'
loop_
 _atom_site_type_symbol
 _atom_site_label
 _atom_site_symmetry_multiplicity
 _atom_site_fract_x
 _atom_site_fract_y
 _atom_site_fract_z
 _atom_site_occupancy
  F  F0  1  0.060902  0.521264  0.894700  1
  F  F1  1  0.939098  0.021264  0.105300  1
  F  F2  1  0.939098  0.478736  0.105300  1
  F  F3  1  0.060902  0.978736  0.894700  1
  F  F4  1  0.438468  0.526289  0.895418  1
  F  F5  1  0.561532  0.026289  0.104582  1
  F  F6  1  0.561532  0.473711  0.104582  1
  F  F7  1  0.438468  0.973711  0.895418  1
  F  F8  1  0.060923  0.507708  0.606618  1
  F  F9  1  0.939077  0.007708  0.393382  1
  F  F10  1  0.939077  0.492292  0.393382  1
  F  F11  1  0.060923  0.992292  0.606618  1
  F  F12  1  0.751163  0.750000  0.989139  1
  F  F13  1  0.248837  0.250000  0.010861  1
  F  F14  1  0.251857  0.750000  0.085959  1
  F  F15  1  0.748143  0.250000  0.914041  1
  F  F16  1  0.751138  0.750000  0.521660  1
  F  F17  1  0.248862  0.250000  0.478340  1
  F  F18  1  0.250466  0.750000  0.432342  1
  F  F19  1  0.749534  0.250000  0.567658  1
  F  F20  1  0.749672  0.958367  0.750260  1
  F  F21  1  0.250328  0.458367  0.249740  1
  F  F22  1  0.250328  0.041633  0.249740  1
  F  F23  1  0.749672  0.541633  0.750260  1
  F  F24  1  0.438443  0.991524  0.606553  1
  F  F25  1  0.561557  0.491524  0.393447  1
  F  F26  1  0.561557  0.008476  0.393447  1
  F  F27  1  0.438443  0.508476  0.606553  1
  K  K28  1  0.245666  0.750000  0.747117  1
  K  K29  1  0.754334  0.250000  0.252883  1
  K  K30  1  0.751692  0.750000  0.251228  1
  K  K31  1  0.248308  0.250000  0.748772  1
  In  In32  1  0.749667  0.502818  0.942218  1
  In  In33  1  0.250333  0.002818  0.057782  1
  In  In34  1  0.250333  0.497182  0.057782  1
  In  In35  1  0.749667  0.997182  0.942218  1
  In  In36  1  0.749763  0.997099  0.558492  1
  In  In37  1  0.250237  0.497099  0.441508  1
  In  In38  1  0.250237  0.002901  0.441508  1
  In  In39  1  0.749763  0.502901  0.558492  1
