# generated using pymatgen
data_CuH6CN2O3
_symmetry_space_group_name_H-M   'P 1'
_cell_length_a   5.78313798
_cell_length_b   7.54720483
_cell_length_c   10.89557882
_cell_angle_alpha   90.00000000
_cell_angle_beta   90.00000000
_cell_angle_gamma   94.77171803
_symmetry_Int_Tables_number   1
_chemical_formula_structural   CuH6CN2O3
_chemical_formula_sum   'Cu4 H24 C4 N8 O12'
_cell_volume   473.90592285
_cell_formula_units_Z   4
loop_
 _symmetry_equiv_pos_site_id
 _symmetry_equiv_pos_as_xyz
  1  'x, y, z'
loop_
 _atom_site_type_symbol
 _atom_site_label
 _atom_site_symmetry_multiplicity
 _atom_site_fract_x
 _atom_site_fract_y
 _atom_site_fract_z
 _atom_site_occupancy
  H  H0  1  0.293664  0.257868  0.606785  1
  H  H1  1  0.706336  0.242132  0.106785  1
  H  H2  1  0.706336  0.742132  0.393215  1
  H  H3  1  0.293664  0.757868  0.893215  1
  H  H4  1  0.252059  0.340939  0.470270  1
  H  H5  1  0.747941  0.159061  0.970270  1
  H  H6  1  0.747941  0.659061  0.529730  1
  H  H7  1  0.252059  0.840939  0.029730  1
  H  H8  1  0.196339  0.127002  0.491740  1
  H  H9  1  0.803661  0.372998  0.991740  1
  H  H10  1  0.803661  0.872998  0.508260  1
  H  H11  1  0.196339  0.627002  0.008260  1
  H  H12  1  0.607501  0.162303  0.406611  1
  H  H13  1  0.392499  0.337697  0.906611  1
  H  H14  1  0.392499  0.837697  0.593389  1
  H  H15  1  0.607501  0.662303  0.093389  1
  H  H16  1  0.852507  0.244769  0.344779  1
  H  H17  1  0.147493  0.255231  0.844779  1
  H  H18  1  0.147493  0.755231  0.655221  1
  H  H19  1  0.852507  0.744769  0.155221  1
  H  H20  1  0.639327  0.377004  0.375147  1
  H  H21  1  0.360673  0.122996  0.875147  1
  H  H22  1  0.360673  0.622996  0.624853  1
  H  H23  1  0.639327  0.877004  0.124853  1
  C  C24  1  0.735082  0.959819  0.742746  1
  C  C25  1  0.264918  0.540181  0.242746  1
  C  C26  1  0.264918  0.040181  0.257254  1
  C  C27  1  0.735082  0.459819  0.757254  1
  N  N28  1  0.183707  0.248740  0.532872  1
  N  N29  1  0.816293  0.251260  0.032872  1
  N  N30  1  0.816293  0.751260  0.467128  1
  N  N31  1  0.183707  0.748740  0.967128  1
  N  N32  1  0.725941  0.272010  0.406808  1
  N  N33  1  0.274059  0.227990  0.906808  1
  N  N34  1  0.274059  0.727990  0.593192  1
  N  N35  1  0.725941  0.772010  0.093192  1
  O  O36  1  0.930289  0.383317  0.747046  1
  O  O37  1  0.069711  0.116683  0.247046  1
  O  O38  1  0.069711  0.616683  0.252954  1
  O  O39  1  0.930289  0.883317  0.752954  1
  O  O40  1  0.667640  0.525995  0.856472  1
  O  O41  1  0.332360  0.974005  0.356472  1
  O  O42  1  0.332360  0.474005  0.143528  1
  O  O43  1  0.667640  0.025995  0.643528  1
  O  O44  1  0.615297  0.458132  0.653949  1
  O  O45  1  0.384703  0.041868  0.153949  1
  O  O46  1  0.384703  0.541868  0.346051  1
  O  O47  1  0.615297  0.958132  0.846051  1
  Cu  Cu48  1  0.860287  0.309977  0.574196  1
  Cu  Cu49  1  0.139713  0.190023  0.074196  1
  Cu  Cu50  1  0.139713  0.690023  0.425804  1
  Cu  Cu51  1  0.860287  0.809977  0.925804  1
