# generated using pymatgen
data_Na2Ca2Ta3O10
_symmetry_space_group_name_H-M   'P 1'
_cell_length_a   3.98863299
_cell_length_b   3.98863227
_cell_length_c   14.63452728
_cell_angle_alpha   97.83285756
_cell_angle_beta   97.83285556
_cell_angle_gamma   89.98760538
_symmetry_Int_Tables_number   1
_chemical_formula_structural   Na2Ca2Ta3O10
_chemical_formula_sum   'Na2 Ca2 Ta3 O10'
_cell_volume   228.45921715
_cell_formula_units_Z   1
loop_
 _symmetry_equiv_pos_site_id
 _symmetry_equiv_pos_as_xyz
  1  'x, y, z'
loop_
 _atom_site_type_symbol
 _atom_site_label
 _atom_site_symmetry_multiplicity
 _atom_site_fract_x
 _atom_site_fract_y
 _atom_site_fract_z
 _atom_site_occupancy
  Na  Na0  1  0.711843  0.711843  0.423915  1
  Na  Na1  1  0.288157  0.288157  0.576085  1
  Ca  Ca2  1  0.575892  0.575892  0.151950  1
  Ca  Ca3  1  0.424108  0.424108  0.848050  1
  Ta  Ta4  1  0.856568  0.856568  0.712899  1
  Ta  Ta5  1  0.143432  0.143432  0.287101  1
  Ta  Ta6  1  0.000000  0.000000  0.000000  1
  O  O7  1  0.068668  0.068668  0.137205  1
  O  O8  1  0.208518  0.208518  0.416941  1
  O  O9  1  0.931332  0.931332  0.862795  1
  O  O10  1  0.133041  0.633138  0.266464  1
  O  O11  1  0.633139  0.133040  0.266464  1
  O  O12  1  0.366861  0.866960  0.733536  1
  O  O13  1  0.791482  0.791482  0.583059  1
  O  O14  1  0.866959  0.366862  0.733536  1
  O  O15  1  0.000000  0.500000  0.000000  1
  O  O16  1  0.500000  0.000000  0.000000  1
