# generated using pymatgen
data_BaAg8S5
_symmetry_space_group_name_H-M   'P 1'
_cell_length_a   7.87760803
_cell_length_b   9.08920222
_cell_length_c   17.71365965
_cell_angle_alpha   90.00000000
_cell_angle_beta   90.00000000
_cell_angle_gamma   108.22467926
_symmetry_Int_Tables_number   1
_chemical_formula_structural   BaAg8S5
_chemical_formula_sum   'Ba4 Ag32 S20'
_cell_volume   1204.69666682
_cell_formula_units_Z   4
loop_
 _symmetry_equiv_pos_site_id
 _symmetry_equiv_pos_as_xyz
  1  'x, y, z'
loop_
 _atom_site_type_symbol
 _atom_site_label
 _atom_site_symmetry_multiplicity
 _atom_site_fract_x
 _atom_site_fract_y
 _atom_site_fract_z
 _atom_site_occupancy
  S  S0  1  0.367383  0.455052  0.134656  1
  S  S1  1  0.632617  0.544948  0.634656  1
  S  S2  1  0.632617  0.544948  0.865344  1
  S  S3  1  0.367383  0.455052  0.365344  1
  S  S4  1  0.605494  0.027473  0.846521  1
  S  S5  1  0.394506  0.972527  0.346521  1
  S  S6  1  0.122048  0.932281  0.750000  1
  S  S7  1  0.877952  0.067719  0.250000  1
  S  S8  1  0.772123  0.357333  0.069251  1
  S  S9  1  0.227877  0.642667  0.569251  1
  S  S10  1  0.227877  0.642667  0.930749  1
  S  S11  1  0.772123  0.357333  0.430749  1
  S  S12  1  0.094880  0.379334  0.750000  1
  S  S13  1  0.905120  0.620666  0.250000  1
  S  S14  1  0.768993  0.797119  0.071408  1
  S  S15  1  0.231007  0.202881  0.571408  1
  S  S16  1  0.231007  0.202881  0.928592  1
  S  S17  1  0.768993  0.797119  0.428592  1
  S  S18  1  0.394506  0.972527  0.153479  1
  S  S19  1  0.605494  0.027473  0.653479  1
  Ag  Ag20  1  0.946126  0.130146  0.838293  1
  Ag  Ag21  1  0.053874  0.869854  0.161707  1
  Ag  Ag22  1  0.314219  0.788755  0.450972  1
  Ag  Ag23  1  0.685781  0.211245  0.950972  1
  Ag  Ag24  1  0.685781  0.211245  0.549028  1
  Ag  Ag25  1  0.946126  0.130146  0.661707  1
  Ag  Ag26  1  0.061559  0.354218  0.494362  1
  Ag  Ag27  1  0.938441  0.645782  0.994362  1
  Ag  Ag28  1  0.938441  0.645782  0.505638  1
  Ag  Ag29  1  0.061559  0.354218  0.005638  1
  Ag  Ag30  1  0.370446  0.152869  0.448971  1
  Ag  Ag31  1  0.629554  0.847131  0.948971  1
  Ag  Ag32  1  0.629554  0.847131  0.551029  1
  Ag  Ag33  1  0.370446  0.152869  0.051029  1
  Ag  Ag34  1  0.500000  0.500000  0.500000  1
  Ag  Ag35  1  0.500000  0.500000  0.000000  1
  Ag  Ag36  1  0.741192  0.072540  0.096819  1
  Ag  Ag37  1  0.258808  0.927460  0.596819  1
  Ag  Ag38  1  0.258808  0.927460  0.903181  1
  Ag  Ag39  1  0.741192  0.072540  0.403181  1
  Ag  Ag40  1  0.112357  0.220334  0.163148  1
  Ag  Ag41  1  0.887643  0.779666  0.663148  1
  Ag  Ag42  1  0.887643  0.779666  0.836852  1
  Ag  Ag43  1  0.112357  0.220334  0.336852  1
  Ag  Ag44  1  0.000000  0.000000  0.000000  1
  Ag  Ag45  1  0.000000  0.000000  0.500000  1
  Ag  Ag46  1  0.101074  0.542154  0.159742  1
  Ag  Ag47  1  0.898926  0.457846  0.659742  1
  Ag  Ag48  1  0.898926  0.457846  0.840258  1
  Ag  Ag49  1  0.101074  0.542154  0.340258  1
  Ag  Ag50  1  0.314219  0.788755  0.049028  1
  Ag  Ag51  1  0.053874  0.869854  0.338293  1
  Ba  Ba52  1  0.438911  0.253031  0.750000  1
  Ba  Ba53  1  0.561089  0.746969  0.250000  1
  Ba  Ba54  1  0.400156  0.713786  0.750000  1
  Ba  Ba55  1  0.599844  0.286214  0.250000  1
