# generated using pymatgen
data_Cr4Co3(PO4)6
_symmetry_space_group_name_H-M   'P 1'
_cell_length_a   6.37225566
_cell_length_b   7.96230592
_cell_length_c   9.41149580
_cell_angle_alpha   105.20929395
_cell_angle_beta   108.31695000
_cell_angle_gamma   101.55592284
_symmetry_Int_Tables_number   1
_chemical_formula_structural   Cr4Co3(PO4)6
_chemical_formula_sum   'Cr4 Co3 P6 O24'
_cell_volume   416.08447179
_cell_formula_units_Z   1
loop_
 _symmetry_equiv_pos_site_id
 _symmetry_equiv_pos_as_xyz
  1  'x, y, z'
loop_
 _atom_site_type_symbol
 _atom_site_label
 _atom_site_symmetry_multiplicity
 _atom_site_fract_x
 _atom_site_fract_y
 _atom_site_fract_z
 _atom_site_occupancy
  O  O0  1  0.790300  0.052168  0.295804  1
  O  O1  1  0.209699  0.947832  0.704196  1
  O  O2  1  0.778354  0.801675  0.060772  1
  O  O3  1  0.221646  0.198325  0.939227  1
  O  O4  1  0.629023  0.238075  0.491460  1
  O  O5  1  0.370977  0.761925  0.508540  1
  O  O6  1  0.009516  0.185053  0.655885  1
  O  O7  1  0.990485  0.814947  0.344115  1
  O  O8  1  0.879687  0.464334  0.838854  1
  O  O9  1  0.120312  0.535666  0.161146  1
  O  O10  1  0.882795  0.208757  0.084546  1
  O  O11  1  0.117206  0.791243  0.915454  1
  O  O12  1  0.928833  0.451783  0.344904  1
  O  O13  1  0.268787  0.035653  0.238063  1
  O  O14  1  0.731212  0.964347  0.761937  1
  O  O15  1  0.314647  0.543298  0.918919  1
  O  O16  1  0.685352  0.456702  0.081080  1
  O  O17  1  0.248979  0.285605  0.464075  1
  O  O18  1  0.071168  0.548217  0.655096  1
  O  O19  1  0.447936  0.366287  0.283447  1
  O  O20  1  0.552064  0.633713  0.716554  1
  O  O21  1  0.452119  0.266953  0.769234  1
  O  O22  1  0.547880  0.733047  0.230766  1
  O  O23  1  0.751020  0.714395  0.535926  1
  P  P24  1  0.778246  0.853610  0.234013  1
  P  P25  1  0.221755  0.146390  0.765987  1
  P  P26  1  0.609050  0.767631  0.634080  1
  P  P27  1  0.390949  0.232369  0.365919  1
  P  P28  1  0.093995  0.596183  0.833171  1
  P  P29  1  0.906007  0.403817  0.166830  1
  Cr  Cr30  1  0.619856  0.543032  0.890809  1
  Cr  Cr31  1  0.049906  0.717083  0.523785  1
  Cr  Cr32  1  0.380145  0.456968  0.109191  1
  Cr  Cr33  1  0.950093  0.282917  0.476215  1
  Co  Co34  1  0.296685  0.812542  0.295945  1
  Co  Co35  1  0.703316  0.187458  0.704055  1
  Co  Co36  1  0.000000  0.000000  0.000000  1
