# generated using pymatgen
data_TaBi4ClO8
_symmetry_space_group_name_H-M   'P 1'
_cell_length_a   5.52814320
_cell_length_b   5.58922193
_cell_length_c   29.37821328
_cell_angle_alpha   90.00000000
_cell_angle_beta   90.00000000
_cell_angle_gamma   90.00000000
_symmetry_Int_Tables_number   1
_chemical_formula_structural   TaBi4ClO8
_chemical_formula_sum   'Ta4 Bi16 Cl4 O32'
_cell_volume   907.72859815
_cell_formula_units_Z   4
loop_
 _symmetry_equiv_pos_site_id
 _symmetry_equiv_pos_as_xyz
  1  'x, y, z'
loop_
 _atom_site_type_symbol
 _atom_site_label
 _atom_site_symmetry_multiplicity
 _atom_site_fract_x
 _atom_site_fract_y
 _atom_site_fract_z
 _atom_site_occupancy
  Ta  Ta0  1  0.983681  0.742307  0.749939  1
  Ta  Ta1  1  0.483681  0.257693  0.250061  1
  Ta  Ta2  1  0.983681  0.757693  0.249939  1
  Ta  Ta3  1  0.483681  0.242307  0.750061  1
  Bi  Bi4  1  0.507321  0.686429  0.342812  1
  Bi  Bi5  1  0.994422  0.730326  0.431226  1
  Bi  Bi6  1  0.962333  0.185711  0.342540  1
  Bi  Bi7  1  0.494422  0.269674  0.568774  1
  Bi  Bi8  1  0.975482  0.730248  0.068779  1
  Bi  Bi9  1  0.475482  0.269752  0.931221  1
  Bi  Bi10  1  0.007321  0.313571  0.657188  1
  Bi  Bi11  1  0.494422  0.230326  0.068774  1
  Bi  Bi12  1  0.975482  0.769752  0.568779  1
  Bi  Bi13  1  0.962333  0.314289  0.842540  1
  Bi  Bi14  1  0.475482  0.230248  0.431221  1
  Bi  Bi15  1  0.994422  0.769674  0.931226  1
  Bi  Bi16  1  0.462333  0.685711  0.157460  1
  Bi  Bi17  1  0.507321  0.813571  0.842812  1
  Bi  Bi18  1  0.462333  0.814289  0.657460  1
  Bi  Bi19  1  0.007321  0.186429  0.157188  1
  Cl  Cl20  1  0.486289  0.749775  0.499930  1
  Cl  Cl21  1  0.986289  0.249775  0.000070  1
  Cl  Cl22  1  0.986289  0.250225  0.500070  1
  Cl  Cl23  1  0.486289  0.750225  0.999930  1
  O  O24  1  0.732744  0.989839  0.394398  1
  O  O25  1  0.886750  0.809495  0.314902  1
  O  O26  1  0.082343  0.689939  0.685144  1
  O  O27  1  0.736952  0.490056  0.394482  1
  O  O28  1  0.731377  0.537217  0.234990  1
  O  O29  1  0.582343  0.189939  0.814856  1
  O  O30  1  0.740129  0.983890  0.106880  1
  O  O31  1  0.235455  0.963389  0.764794  1
  O  O32  1  0.732744  0.510161  0.894398  1
  O  O33  1  0.886750  0.690505  0.814902  1
  O  O34  1  0.740129  0.516110  0.606880  1
  O  O35  1  0.229722  0.983975  0.393014  1
  O  O36  1  0.231377  0.037217  0.265010  1
  O  O37  1  0.229722  0.516025  0.893014  1
  O  O38  1  0.231377  0.462783  0.765010  1
  O  O39  1  0.240129  0.483890  0.393120  1
  O  O40  1  0.236952  0.990056  0.105518  1
  O  O41  1  0.235455  0.536611  0.264794  1
  O  O42  1  0.236952  0.509944  0.605518  1
  O  O43  1  0.729722  0.016025  0.606986  1
  O  O44  1  0.735455  0.463389  0.735206  1
  O  O45  1  0.082343  0.810061  0.185144  1
  O  O46  1  0.736952  0.009944  0.894482  1
  O  O47  1  0.731377  0.962783  0.734990  1
  O  O48  1  0.232744  0.010161  0.605602  1
  O  O49  1  0.735455  0.036611  0.235206  1
  O  O50  1  0.386750  0.190505  0.685098  1
  O  O51  1  0.582343  0.310061  0.314856  1
  O  O52  1  0.729722  0.483975  0.106986  1
  O  O53  1  0.240129  0.016110  0.893120  1
  O  O54  1  0.232744  0.489839  0.105602  1
  O  O55  1  0.386750  0.309495  0.185098  1
