# generated using pymatgen
data_EuCuSF
_symmetry_space_group_name_H-M   'P 1'
_cell_length_a   3.92048991
_cell_length_b   3.92043144
_cell_length_c   8.63065990
_cell_angle_alpha   90.00060600
_cell_angle_beta   90.00036471
_cell_angle_gamma   89.99953628
_symmetry_Int_Tables_number   1
_chemical_formula_structural   EuCuSF
_chemical_formula_sum   'Eu2 Cu2 S2 F2'
_cell_volume   132.65334539
_cell_formula_units_Z   2
loop_
 _symmetry_equiv_pos_site_id
 _symmetry_equiv_pos_as_xyz
  1  'x, y, z'
loop_
 _atom_site_type_symbol
 _atom_site_label
 _atom_site_symmetry_multiplicity
 _atom_site_fract_x
 _atom_site_fract_y
 _atom_site_fract_z
 _atom_site_occupancy
  Eu  Eu0  1  0.249977  0.249989  0.323501  1
  Eu  Eu1  1  0.750011  0.750015  0.676491  1
  Cu  Cu2  1  0.750013  0.250002  0.000021  1
  Cu  Cu3  1  0.249993  0.750002  0.000035  1
  S  S4  1  0.749996  0.750002  0.165046  1
  S  S5  1  0.250006  0.249997  0.834948  1
  F  F6  1  0.750007  0.249999  0.499981  1
  F  F7  1  0.250006  0.750003  0.499976  1
