# generated using pymatgen
data_Ba3In2F12
_symmetry_space_group_name_H-M   'P 1'
_cell_length_a   5.72380232
_cell_length_b   9.73056016
_cell_length_c   9.73056016
_cell_angle_alpha   90.00000000
_cell_angle_beta   90.00000000
_cell_angle_gamma   90.00000000
_symmetry_Int_Tables_number   1
_chemical_formula_structural   Ba3In2F12
_chemical_formula_sum   'Ba6 In4 F24'
_cell_volume   541.95135999
_cell_formula_units_Z   2
loop_
 _symmetry_equiv_pos_site_id
 _symmetry_equiv_pos_as_xyz
  1  'x, y, z'
loop_
 _atom_site_type_symbol
 _atom_site_label
 _atom_site_symmetry_multiplicity
 _atom_site_fract_x
 _atom_site_fract_y
 _atom_site_fract_z
 _atom_site_occupancy
  F  F0  1  0.000000  0.791760  0.291760  1
  F  F1  1  0.000000  0.708240  0.791760  1
  F  F2  1  0.000000  0.291760  0.208240  1
  F  F3  1  0.000000  0.208240  0.708240  1
  F  F4  1  0.257404  0.726357  0.555382  1
  F  F5  1  0.257404  0.273643  0.444618  1
  F  F6  1  0.257404  0.555382  0.273643  1
  F  F7  1  0.257404  0.444618  0.726357  1
  F  F8  1  0.742596  0.055382  0.226357  1
  F  F9  1  0.742596  0.773643  0.055382  1
  F  F10  1  0.778163  0.000000  0.500000  1
  F  F11  1  0.778163  0.500000  0.000000  1
  F  F12  1  0.221837  0.500000  0.000000  1
  F  F13  1  0.221837  0.000000  0.500000  1
  F  F14  1  0.257404  0.055382  0.226357  1
  F  F15  1  0.257404  0.773643  0.055382  1
  F  F16  1  0.257404  0.226357  0.944618  1
  F  F17  1  0.257404  0.944618  0.773643  1
  F  F18  1  0.742596  0.555382  0.273643  1
  F  F19  1  0.742596  0.444618  0.726357  1
  F  F20  1  0.742596  0.726357  0.555382  1
  F  F21  1  0.742596  0.273643  0.444618  1
  F  F22  1  0.742596  0.944618  0.773643  1
  F  F23  1  0.742596  0.226357  0.944618  1
  In  In24  1  0.000000  0.633135  0.133135  1
  In  In25  1  0.000000  0.866865  0.633135  1
  In  In26  1  0.000000  0.133135  0.366865  1
  In  In27  1  0.000000  0.366865  0.866865  1
  Ba  Ba28  1  0.000000  0.500000  0.500000  1
  Ba  Ba29  1  0.000000  0.000000  0.000000  1
  Ba  Ba30  1  0.500000  0.820547  0.320547  1
  Ba  Ba31  1  0.500000  0.679453  0.820547  1
  Ba  Ba32  1  0.500000  0.320547  0.179453  1
  Ba  Ba33  1  0.500000  0.179453  0.679453  1
