# generated using pymatgen
data_Na2Te2O7
_symmetry_space_group_name_H-M   'P 1'
_cell_length_a   7.36051365
_cell_length_b   7.36732246
_cell_length_c   7.36732246
_cell_angle_alpha   61.88341882
_cell_angle_beta   60.03056723
_cell_angle_gamma   60.03056725
_symmetry_Int_Tables_number   1
_chemical_formula_structural   Na2Te2O7
_chemical_formula_sum   'Na4 Te4 O14'
_cell_volume   286.43191532
_cell_formula_units_Z   2
loop_
 _symmetry_equiv_pos_site_id
 _symmetry_equiv_pos_as_xyz
  1  'x, y, z'
loop_
 _atom_site_type_symbol
 _atom_site_label
 _atom_site_symmetry_multiplicity
 _atom_site_fract_x
 _atom_site_fract_y
 _atom_site_fract_z
 _atom_site_occupancy
  O  O0  1  0.671095  0.188412  0.053258  1
  O  O1  1  0.912765  0.811588  0.946742  1
  O  O2  1  0.828905  0.446742  0.311588  1
  O  O3  1  0.587235  0.553258  0.688412  1
  O  O4  1  0.328905  0.811588  0.946742  1
  O  O5  1  0.087235  0.188412  0.053258  1
  O  O6  1  0.171095  0.553258  0.688412  1
  O  O7  1  0.412765  0.446742  0.311588  1
  O  O8  1  0.250000  0.407061  0.092939  1
  O  O9  1  0.750000  0.592939  0.907061  1
  O  O10  1  0.081991  0.135683  0.700334  1
  O  O11  1  0.918009  0.864317  0.299666  1
  O  O12  1  0.418009  0.799666  0.364317  1
  O  O13  1  0.581991  0.200334  0.635683  1
  Na  Na14  1  0.000000  0.500000  0.500000  1
  Na  Na15  1  0.500000  0.000000  0.000000  1
  Na  Na16  1  0.500000  0.000000  0.500000  1
  Na  Na17  1  0.000000  0.000000  0.500000  1
  Te  Te18  1  0.000000  0.000000  0.000000  1
  Te  Te19  1  0.500000  0.500000  0.500000  1
  Te  Te20  1  0.500000  0.500000  0.000000  1
  Te  Te21  1  0.000000  0.500000  0.000000  1
