# generated using pymatgen
data_Na2TeO4
_symmetry_space_group_name_H-M   'P 1'
_cell_length_a   5.29160976
_cell_length_b   5.84186479
_cell_length_c   12.36747759
_cell_angle_alpha   90.00000000
_cell_angle_beta   90.00000000
_cell_angle_gamma   90.00000000
_symmetry_Int_Tables_number   1
_chemical_formula_structural   Na2TeO4
_chemical_formula_sum   'Na8 Te4 O16'
_cell_volume   382.31421138
_cell_formula_units_Z   4
loop_
 _symmetry_equiv_pos_site_id
 _symmetry_equiv_pos_as_xyz
  1  'x, y, z'
loop_
 _atom_site_type_symbol
 _atom_site_label
 _atom_site_symmetry_multiplicity
 _atom_site_fract_x
 _atom_site_fract_y
 _atom_site_fract_z
 _atom_site_occupancy
  O  O0  1  0.112343  0.298364  0.673924  1
  O  O1  1  0.612344  0.201636  0.826076  1
  O  O2  1  0.887656  0.798364  0.826076  1
  O  O3  1  0.387657  0.701636  0.673924  1
  O  O4  1  0.887656  0.701636  0.326076  1
  O  O5  1  0.387657  0.798364  0.173924  1
  O  O6  1  0.112343  0.201636  0.173924  1
  O  O7  1  0.612344  0.298364  0.326076  1
  O  O8  1  0.070904  0.320681  0.449755  1
  O  O9  1  0.570904  0.179319  0.050245  1
  O  O10  1  0.929096  0.820681  0.050245  1
  O  O11  1  0.429096  0.679319  0.449755  1
  O  O12  1  0.570904  0.320681  0.550245  1
  O  O13  1  0.070904  0.179319  0.949755  1
  O  O14  1  0.429096  0.820681  0.949755  1
  O  O15  1  0.929096  0.679319  0.550245  1
  Na  Na16  1  0.750000  0.000000  0.638299  1
  Na  Na17  1  0.250000  0.500000  0.861701  1
  Na  Na18  1  0.250000  0.000000  0.361701  1
  Na  Na19  1  0.750000  0.500000  0.138299  1
  Na  Na20  1  0.750000  0.000000  0.225929  1
  Na  Na21  1  0.250000  0.500000  0.274071  1
  Na  Na22  1  0.250000  0.000000  0.774071  1
  Na  Na23  1  0.750000  0.500000  0.725929  1
  Te  Te24  1  0.750000  0.000000  0.928303  1
  Te  Te25  1  0.250000  0.500000  0.571697  1
  Te  Te26  1  0.250000  0.000000  0.071697  1
  Te  Te27  1  0.750000  0.500000  0.428303  1
