# generated using pymatgen
data_GdSi2
_symmetry_space_group_name_H-M   'P 1'
_cell_length_a   4.08546975
_cell_length_b   4.08546975
_cell_length_c   7.62853853
_cell_angle_alpha   105.53193226
_cell_angle_beta   105.53193234
_cell_angle_gamma   90.00000001
_symmetry_Int_Tables_number   1
_chemical_formula_structural   GdSi2
_chemical_formula_sum   'Gd2 Si4'
_cell_volume   117.84536952
_cell_formula_units_Z   2
loop_
 _symmetry_equiv_pos_site_id
 _symmetry_equiv_pos_as_xyz
  1  'x, y, z'
loop_
 _atom_site_type_symbol
 _atom_site_label
 _atom_site_symmetry_multiplicity
 _atom_site_fract_x
 _atom_site_fract_y
 _atom_site_fract_z
 _atom_site_occupancy
  Si  Si0  1  0.708517  0.958517  0.917033  1
  Si  Si1  1  0.458517  0.208517  0.417033  1
  Si  Si2  1  0.541483  0.791483  0.582967  1
  Si  Si3  1  0.291483  0.041483  0.082967  1
  Gd  Gd4  1  0.875000  0.625000  0.250000  1
  Gd  Gd5  1  0.125000  0.375000  0.750000  1
