# generated using pymatgen
data_Ta3PbS6
_symmetry_space_group_name_H-M   'P 1'
_cell_length_a   5.82138985
_cell_length_b   5.82138986
_cell_length_c   15.06039907
_cell_angle_alpha   90.00000000
_cell_angle_beta   90.00000000
_cell_angle_gamma   120.00000002
_symmetry_Int_Tables_number   1
_chemical_formula_structural   Ta3PbS6
_chemical_formula_sum   'Ta6 Pb2 S12'
_cell_volume   441.99817960
_cell_formula_units_Z   2
loop_
 _symmetry_equiv_pos_site_id
 _symmetry_equiv_pos_as_xyz
  1  'x, y, z'
loop_
 _atom_site_type_symbol
 _atom_site_label
 _atom_site_symmetry_multiplicity
 _atom_site_fract_x
 _atom_site_fract_y
 _atom_site_fract_z
 _atom_site_occupancy
  S  S0  1  0.336302  0.000049  0.396714  1
  S  S1  1  0.999951  0.336253  0.396714  1
  S  S2  1  0.663747  0.663698  0.396714  1
  S  S3  1  0.336253  0.336302  0.896714  1
  S  S4  1  0.663698  0.663747  0.603286  1
  S  S5  1  0.663698  0.999951  0.896714  1
  S  S6  1  0.000049  0.663747  0.896714  1
  S  S7  1  0.999951  0.663698  0.103286  1
  S  S8  1  0.336302  0.336253  0.103286  1
  S  S9  1  0.000049  0.336302  0.603286  1
  S  S10  1  0.336253  0.999951  0.603286  1
  S  S11  1  0.663747  0.000049  0.103286  1
  Ta  Ta12  1  0.000000  0.000000  0.500000  1
  Ta  Ta13  1  0.000000  0.000000  0.000000  1
  Ta  Ta14  1  0.333333  0.666667  0.499983  1
  Ta  Ta15  1  0.666667  0.333333  0.999983  1
  Ta  Ta16  1  0.666667  0.333333  0.500017  1
  Ta  Ta17  1  0.333333  0.666667  0.000017  1
  Pb  Pb18  1  0.000000  0.000000  0.750000  1
  Pb  Pb19  1  0.000000  0.000000  0.250000  1
