# generated using pymatgen
data_Sr2In2O5
_symmetry_space_group_name_H-M   'P 1'
_cell_length_a   5.91642161
_cell_length_b   6.14292656
_cell_length_c   9.07214325
_cell_angle_alpha   109.78915866
_cell_angle_beta   109.03078708
_cell_angle_gamma   90.00000149
_symmetry_Int_Tables_number   1
_chemical_formula_structural   Sr2In2O5
_chemical_formula_sum   'Sr4 In4 O10'
_cell_volume   291.02307800
_cell_formula_units_Z   2
loop_
 _symmetry_equiv_pos_site_id
 _symmetry_equiv_pos_as_xyz
  1  'x, y, z'
loop_
 _atom_site_type_symbol
 _atom_site_label
 _atom_site_symmetry_multiplicity
 _atom_site_fract_x
 _atom_site_fract_y
 _atom_site_fract_z
 _atom_site_occupancy
  Sr  Sr0  1  0.407609  0.917298  0.785013  1
  Sr  Sr1  1  0.907609  0.367715  0.785013  1
  Sr  Sr2  1  0.122597  0.632285  0.214987  1
  Sr  Sr3  1  0.622597  0.082702  0.214987  1
  In  In4  1  0.291200  0.312840  0.500000  1
  In  In5  1  0.501077  0.500000  1.000000  1
  In  In6  1  0.791200  0.687160  0.500000  1
  In  In7  1  0.001077  1.000000  1.000000  1
  O  O8  1  0.737635  0.726841  0.965595  1
  O  O9  1  0.772040  0.273159  0.034405  1
  O  O10  1  0.094855  0.057285  0.277746  1
  O  O11  1  0.317109  0.279539  0.722254  1
  O  O12  1  0.817109  0.942715  0.722254  1
  O  O13  1  0.149877  0.632558  0.500000  1
  O  O14  1  0.272040  0.261247  0.034405  1
  O  O15  1  0.237635  0.738753  0.965595  1
  O  O16  1  0.594855  0.720461  0.277746  1
  O  O17  1  0.649877  0.367442  0.500000  1
