# generated using pymatgen
data_LiNb3Cl8
_symmetry_space_group_name_H-M   'P 1'
_cell_length_a   9.36482578
_cell_length_b   9.36482578
_cell_length_c   13.65541044
_cell_angle_alpha   90.00000000
_cell_angle_beta   90.00000000
_cell_angle_gamma   91.87075729
_symmetry_Int_Tables_number   1
_chemical_formula_structural   LiNb3Cl8
_chemical_formula_sum   'Li4 Nb12 Cl32'
_cell_volume   1196.94067370
_cell_formula_units_Z   4
loop_
 _symmetry_equiv_pos_site_id
 _symmetry_equiv_pos_as_xyz
  1  'x, y, z'
loop_
 _atom_site_type_symbol
 _atom_site_label
 _atom_site_symmetry_multiplicity
 _atom_site_fract_x
 _atom_site_fract_y
 _atom_site_fract_z
 _atom_site_occupancy
  Li  Li0  1  0.419754  0.580246  0.412583  1
  Li  Li1  1  0.080246  0.919754  0.912583  1
  Li  Li2  1  0.580246  0.419754  0.587417  1
  Li  Li3  1  0.919754  0.080246  0.087417  1
  Cl  Cl4  1  0.204466  0.422228  0.142704  1
  Cl  Cl5  1  0.865407  0.865407  0.000000  1
  Cl  Cl6  1  0.634593  0.634593  0.500000  1
  Cl  Cl7  1  0.134593  0.134593  0.000000  1
  Cl  Cl8  1  0.365407  0.365407  0.500000  1
  Cl  Cl9  1  0.794281  0.205719  0.206651  1
  Cl  Cl10  1  0.705719  0.294281  0.706651  1
  Cl  Cl11  1  0.205719  0.794281  0.793349  1
  Cl  Cl12  1  0.294281  0.705719  0.293349  1
  Cl  Cl13  1  0.459770  0.540230  0.748836  1
  Cl  Cl14  1  0.040230  0.959770  0.248836  1
  Cl  Cl15  1  0.540230  0.459770  0.251164  1
  Cl  Cl16  1  0.295534  0.077772  0.642704  1
  Cl  Cl17  1  0.332900  0.041008  0.393189  1
  Cl  Cl18  1  0.077772  0.295534  0.357296  1
  Cl  Cl19  1  0.422228  0.204466  0.857296  1
  Cl  Cl20  1  0.704466  0.922228  0.357296  1
  Cl  Cl21  1  0.795534  0.577772  0.857296  1
  Cl  Cl22  1  0.922228  0.704466  0.642704  1
  Cl  Cl23  1  0.577772  0.795534  0.142704  1
  Cl  Cl24  1  0.041008  0.332900  0.606811  1
  Cl  Cl25  1  0.167100  0.458992  0.893189  1
  Cl  Cl26  1  0.754417  0.245583  0.960450  1
  Cl  Cl27  1  0.458992  0.167100  0.106811  1
  Cl  Cl28  1  0.667100  0.958992  0.606811  1
  Cl  Cl29  1  0.832900  0.541008  0.106811  1
  Cl  Cl30  1  0.958992  0.667100  0.393189  1
  Cl  Cl31  1  0.541008  0.832900  0.893189  1
  Cl  Cl32  1  0.254417  0.745583  0.539550  1
  Cl  Cl33  1  0.245583  0.754417  0.039550  1
  Cl  Cl34  1  0.745583  0.254417  0.460450  1
  Cl  Cl35  1  0.959770  0.040230  0.751164  1
  Nb  Nb36  1  0.090377  0.909623  0.621947  1
  Nb  Nb37  1  0.659794  0.659794  0.000000  1
  Nb  Nb38  1  0.840206  0.840206  0.500000  1
  Nb  Nb39  1  0.340206  0.340206  0.000000  1
  Nb  Nb40  1  0.159794  0.159794  0.500000  1
  Nb  Nb41  1  0.624051  0.375949  0.089428  1
  Nb  Nb42  1  0.875949  0.124051  0.589428  1
  Nb  Nb43  1  0.375949  0.624051  0.910572  1
  Nb  Nb44  1  0.124051  0.875949  0.410572  1
  Nb  Nb45  1  0.590377  0.409623  0.878053  1
  Nb  Nb46  1  0.909623  0.090377  0.378053  1
  Nb  Nb47  1  0.409623  0.590377  0.121947  1
