# generated using pymatgen
data_CsIO3
_symmetry_space_group_name_H-M   'P 1'
_cell_length_a   4.76897778
_cell_length_b   6.82515119
_cell_length_c   6.73925813
_cell_angle_alpha   90.00000000
_cell_angle_beta   90.00000000
_cell_angle_gamma   90.00106520
_symmetry_Int_Tables_number   1
_chemical_formula_structural   CsIO3
_chemical_formula_sum   'Cs2 I2 O6'
_cell_volume   219.35607480
_cell_formula_units_Z   2
loop_
 _symmetry_equiv_pos_site_id
 _symmetry_equiv_pos_as_xyz
  1  'x, y, z'
loop_
 _atom_site_type_symbol
 _atom_site_label
 _atom_site_symmetry_multiplicity
 _atom_site_fract_x
 _atom_site_fract_y
 _atom_site_fract_z
 _atom_site_occupancy
  O  O0  1  0.595490  0.467215  0.500000  1
  O  O1  1  0.012618  0.675000  0.289878  1
  O  O2  1  0.012618  0.675000  0.710122  1
  O  O3  1  0.987365  0.175000  0.789879  1
  O  O4  1  0.404517  0.967233  0.000000  1
  O  O5  1  0.987365  0.175000  0.210121  1
  I  I6  1  0.024155  0.006396  0.000000  1
  I  I7  1  0.975859  0.506388  0.500000  1
  Cs  Cs8  1  0.504662  0.489398  0.000000  1
  Cs  Cs9  1  0.495351  0.989371  0.500000  1
