# generated using pymatgen
data_TbMnO3
_symmetry_space_group_name_H-M   'P 1'
_cell_length_a   5.35239596
_cell_length_b   5.88353370
_cell_length_c   7.51904226
_cell_angle_alpha   90.00000000
_cell_angle_beta   90.00000000
_cell_angle_gamma   90.00000000
_symmetry_Int_Tables_number   1
_chemical_formula_structural   TbMnO3
_chemical_formula_sum   'Tb4 Mn4 O12'
_cell_volume   236.78217490
_cell_formula_units_Z   4
loop_
 _symmetry_equiv_pos_site_id
 _symmetry_equiv_pos_as_xyz
  1  'x, y, z'
loop_
 _atom_site_type_symbol
 _atom_site_label
 _atom_site_symmetry_multiplicity
 _atom_site_fract_x
 _atom_site_fract_y
 _atom_site_fract_z
 _atom_site_occupancy
  O  O0  1  0.702610  0.324408  0.444247  1
  O  O1  1  0.202610  0.175592  0.555753  1
  O  O2  1  0.797390  0.824408  0.055753  1
  O  O3  1  0.297390  0.675592  0.944247  1
  O  O4  1  0.297390  0.675592  0.555753  1
  O  O5  1  0.797390  0.824408  0.444247  1
  O  O6  1  0.202610  0.175592  0.944247  1
  O  O7  1  0.702610  0.324408  0.055753  1
  O  O8  1  0.116336  0.460113  0.250000  1
  O  O9  1  0.616336  0.039887  0.750000  1
  O  O10  1  0.383664  0.960113  0.250000  1
  O  O11  1  0.883664  0.539887  0.750000  1
  Mn  Mn12  1  0.500000  0.000000  0.500000  1
  Mn  Mn13  1  0.000000  0.500000  0.500000  1
  Mn  Mn14  1  0.000000  0.500000  0.000000  1
  Mn  Mn15  1  0.500000  0.000000  0.000000  1
  Tb  Tb16  1  0.018883  0.918535  0.750000  1
  Tb  Tb17  1  0.518883  0.581465  0.250000  1
  Tb  Tb18  1  0.481117  0.418535  0.750000  1
  Tb  Tb19  1  0.981117  0.081465  0.250000  1
