# generated using pymatgen
data_Sc2Fe3Si5
_symmetry_space_group_name_H-M   'P 1'
_cell_length_a   5.27543752
_cell_length_b   10.16135080
_cell_length_c   10.16135080
_cell_angle_alpha   90.00000000
_cell_angle_beta   90.00000000
_cell_angle_gamma   90.00000000
_symmetry_Int_Tables_number   1
_chemical_formula_structural   Sc2Fe3Si5
_chemical_formula_sum   'Sc8 Fe12 Si20'
_cell_volume   544.70501445
_cell_formula_units_Z   4
loop_
 _symmetry_equiv_pos_site_id
 _symmetry_equiv_pos_as_xyz
  1  'x, y, z'
loop_
 _atom_site_type_symbol
 _atom_site_label
 _atom_site_symmetry_multiplicity
 _atom_site_fract_x
 _atom_site_fract_y
 _atom_site_fract_z
 _atom_site_occupancy
  Si  Si0  1  0.500000  0.028105  0.318533  1
  Si  Si1  1  0.500000  0.971895  0.681467  1
  Si  Si2  1  0.500000  0.318533  0.971895  1
  Si  Si3  1  0.500000  0.681467  0.028105  1
  Si  Si4  1  0.000000  0.818533  0.528105  1
  Si  Si5  1  0.000000  0.471895  0.818533  1
  Si  Si6  1  0.000000  0.528105  0.181467  1
  Si  Si7  1  0.000000  0.181467  0.471895  1
  Si  Si8  1  0.746335  0.500000  0.500000  1
  Si  Si9  1  0.753665  0.000000  0.000000  1
  Si  Si10  1  0.253665  0.500000  0.500000  1
  Si  Si11  1  0.246335  0.000000  0.000000  1
  Si  Si12  1  0.750000  0.178033  0.678033  1
  Si  Si13  1  0.250000  0.178033  0.678033  1
  Si  Si14  1  0.750000  0.678033  0.821967  1
  Si  Si15  1  0.750000  0.821967  0.321967  1
  Si  Si16  1  0.250000  0.821967  0.321967  1
  Si  Si17  1  0.250000  0.678033  0.821967  1
  Si  Si18  1  0.250000  0.321967  0.178033  1
  Si  Si19  1  0.750000  0.321967  0.178033  1
  Sc  Sc20  1  0.500000  0.263788  0.431945  1
  Sc  Sc21  1  0.000000  0.763788  0.068055  1
  Sc  Sc22  1  0.000000  0.236212  0.931945  1
  Sc  Sc23  1  0.000000  0.931945  0.763788  1
  Sc  Sc24  1  0.500000  0.568055  0.263788  1
  Sc  Sc25  1  0.500000  0.431945  0.736212  1
  Sc  Sc26  1  0.500000  0.736212  0.568055  1
  Sc  Sc27  1  0.000000  0.068055  0.236212  1
  Fe  Fe28  1  0.000000  0.643380  0.377457  1
  Fe  Fe29  1  0.000000  0.356620  0.622543  1
  Fe  Fe30  1  0.000000  0.622543  0.643380  1
  Fe  Fe31  1  0.000000  0.377457  0.356620  1
  Fe  Fe32  1  0.500000  0.877457  0.143380  1
  Fe  Fe33  1  0.500000  0.122543  0.856620  1
  Fe  Fe34  1  0.500000  0.856620  0.877457  1
  Fe  Fe35  1  0.500000  0.143380  0.122543  1
  Fe  Fe36  1  0.250000  0.000000  0.500000  1
  Fe  Fe37  1  0.250000  0.500000  0.000000  1
  Fe  Fe38  1  0.750000  0.000000  0.500000  1
  Fe  Fe39  1  0.750000  0.500000  0.000000  1
