# generated using pymatgen
data_Li3CrPCO7
_symmetry_space_group_name_H-M   'P 1'
_cell_length_a   5.11133949
_cell_length_b   6.49244973
_cell_length_c   8.62465455
_cell_angle_alpha   90.00000000
_cell_angle_beta   85.22937273
_cell_angle_gamma   90.00000000
_symmetry_Int_Tables_number   1
_chemical_formula_structural   Li3CrPCO7
_chemical_formula_sum   'Li6 Cr2 P2 C2 O14'
_cell_volume   285.21861122
_cell_formula_units_Z   2
loop_
 _symmetry_equiv_pos_site_id
 _symmetry_equiv_pos_as_xyz
  1  'x, y, z'
loop_
 _atom_site_type_symbol
 _atom_site_label
 _atom_site_symmetry_multiplicity
 _atom_site_fract_x
 _atom_site_fract_y
 _atom_site_fract_z
 _atom_site_occupancy
  Li  Li0  1  0.767095  0.975709  0.711124  1
  Li  Li1  1  0.232904  0.024291  0.288875  1
  Li  Li2  1  0.844319  0.250000  0.084103  1
  Li  Li3  1  0.155680  0.749999  0.915897  1
  Li  Li4  1  0.767095  0.524292  0.711124  1
  Li  Li5  1  0.232904  0.475710  0.288875  1
  Cr  Cr6  1  0.758921  0.749999  0.330261  1
  Cr  Cr7  1  0.241079  0.250000  0.669738  1
  P  P8  1  0.698363  0.250000  0.417299  1
  P  P9  1  0.301637  0.749999  0.582701  1
  C  C10  1  0.656421  0.749999  0.012533  1
  C  C11  1  0.343579  0.250000  0.987467  1
  O  O12  1  0.202935  0.749999  0.417702  1
  O  O13  1  0.861845  0.749999  0.094743  1
  O  O14  1  0.577980  0.250000  0.922432  1
  O  O15  1  0.422022  0.749999  0.077568  1
  O  O16  1  0.200165  0.563095  0.683270  1
  O  O17  1  0.138154  0.250000  0.905257  1
  O  O18  1  0.200165  0.936904  0.683270  1
  O  O19  1  0.799835  0.436905  0.316730  1
  O  O20  1  0.799835  0.063096  0.316730  1
  O  O21  1  0.390901  0.250000  0.437420  1
  O  O22  1  0.706186  0.749999  0.862626  1
  O  O23  1  0.293816  0.250000  0.137374  1
  O  O24  1  0.609098  0.749999  0.562580  1
  O  O25  1  0.797064  0.250000  0.582299  1
