# generated using pymatgen
data_K4Be3O5
_symmetry_space_group_name_H-M   'P 1'
_cell_length_a   6.37735092
_cell_length_b   6.37735092
_cell_length_c   10.28215850
_cell_angle_alpha   101.19731252
_cell_angle_beta   102.06691149
_cell_angle_gamma   110.47847212
_symmetry_Int_Tables_number   1
_chemical_formula_structural   K4Be3O5
_chemical_formula_sum   'K8 Be6 O10'
_cell_volume   366.42427235
_cell_formula_units_Z   2
loop_
 _symmetry_equiv_pos_site_id
 _symmetry_equiv_pos_as_xyz
  1  'x, y, z'
loop_
 _atom_site_type_symbol
 _atom_site_label
 _atom_site_symmetry_multiplicity
 _atom_site_fract_x
 _atom_site_fract_y
 _atom_site_fract_z
 _atom_site_occupancy
  Be  Be0  1  0.060721  0.310721  0.750000  1
  Be  Be1  1  0.939279  0.689279  0.250000  1
  Be  Be2  1  0.518681  0.268681  0.250000  1
  Be  Be3  1  0.481319  0.731319  0.750000  1
  Be  Be4  1  0.229677  0.979677  0.250000  1
  Be  Be5  1  0.770323  0.020323  0.750000  1
  O  O6  1  0.728561  0.478561  0.250000  1
  O  O7  1  0.271439  0.521439  0.750000  1
  O  O8  1  0.995522  0.772882  0.122719  1
  O  O9  1  0.150163  0.872804  0.377281  1
  O  O10  1  0.004478  0.227118  0.877281  1
  O  O11  1  0.849837  0.127196  0.622719  1
  O  O12  1  0.496509  0.011995  0.230604  1
  O  O13  1  0.281391  0.265905  0.269396  1
  O  O14  1  0.503491  0.988005  0.769396  1
  O  O15  1  0.718609  0.734095  0.730604  1
  K  K16  1  0.037597  0.777221  0.595014  1
  K  K17  1  0.682208  0.442584  0.904986  1
  K  K18  1  0.962403  0.222779  0.404986  1
  K  K19  1  0.317792  0.557416  0.095014  1
  K  K20  1  0.177344  0.911136  0.924382  1
  K  K21  1  0.486753  0.252962  0.575618  1
  K  K22  1  0.822656  0.088864  0.075618  1
  K  K23  1  0.513247  0.747038  0.424382  1
