# generated using pymatgen
data_YbCeSe3
_symmetry_space_group_name_H-M   'P 1'
_cell_length_a   4.03570666
_cell_length_b   7.22466557
_cell_length_c   9.66127968
_cell_angle_alpha   90.00000000
_cell_angle_beta   90.00000000
_cell_angle_gamma   106.21846596
_symmetry_Int_Tables_number   1
_chemical_formula_structural   YbCeSe3
_chemical_formula_sum   'Yb2 Ce2 Se6'
_cell_volume   270.48013728
_cell_formula_units_Z   2
loop_
 _symmetry_equiv_pos_site_id
 _symmetry_equiv_pos_as_xyz
  1  'x, y, z'
loop_
 _atom_site_type_symbol
 _atom_site_label
 _atom_site_symmetry_multiplicity
 _atom_site_fract_x
 _atom_site_fract_y
 _atom_site_fract_z
 _atom_site_occupancy
  Se  Se0  1  0.894061  0.788123  0.250000  1
  Se  Se1  1  0.105939  0.211877  0.750000  1
  Se  Se2  1  0.350309  0.700618  0.570141  1
  Se  Se3  1  0.649691  0.299382  0.429859  1
  Se  Se4  1  0.350309  0.700618  0.929859  1
  Se  Se5  1  0.649691  0.299382  0.070141  1
  Ce  Ce6  1  0.751340  0.502680  0.750000  1
  Ce  Ce7  1  0.248660  0.497320  0.250000  1
  Yb  Yb8  1  0.000000  0.000000  0.000000  1
  Yb  Yb9  1  0.000000  0.000000  0.500000  1
