# generated using pymatgen
data_USCl9
_symmetry_space_group_name_H-M   'P 1'
_cell_length_a   11.16055442
_cell_length_b   11.07882715
_cell_length_c   11.70112230
_cell_angle_alpha   90.00000000
_cell_angle_beta   90.00000000
_cell_angle_gamma   90.00000000
_symmetry_Int_Tables_number   1
_chemical_formula_structural   USCl9
_chemical_formula_sum   'U4 S4 Cl36'
_cell_volume   1446.79525155
_cell_formula_units_Z   4
loop_
 _symmetry_equiv_pos_site_id
 _symmetry_equiv_pos_as_xyz
  1  'x, y, z'
loop_
 _atom_site_type_symbol
 _atom_site_label
 _atom_site_symmetry_multiplicity
 _atom_site_fract_x
 _atom_site_fract_y
 _atom_site_fract_z
 _atom_site_occupancy
  S  S0  1  0.424382  0.460514  0.409116  1
  S  S1  1  0.075618  0.539486  0.909116  1
  S  S2  1  0.575618  0.960514  0.090884  1
  S  S3  1  0.924382  0.039486  0.590884  1
  Cl  Cl4  1  0.169002  0.601553  0.370649  1
  Cl  Cl5  1  0.669002  0.898447  0.629351  1
  Cl  Cl6  1  0.830998  0.101553  0.129351  1
  Cl  Cl7  1  0.330998  0.398447  0.870649  1
  Cl  Cl8  1  0.087908  0.456794  0.634670  1
  Cl  Cl9  1  0.587908  0.043206  0.365330  1
  Cl  Cl10  1  0.912092  0.956794  0.865330  1
  Cl  Cl11  1  0.412092  0.543206  0.134670  1
  Cl  Cl12  1  0.930481  0.384510  0.371807  1
  Cl  Cl13  1  0.430481  0.115490  0.628193  1
  Cl  Cl14  1  0.069519  0.884510  0.128193  1
  Cl  Cl15  1  0.569519  0.615490  0.871807  1
  Cl  Cl16  1  0.863414  0.696202  0.333603  1
  Cl  Cl17  1  0.363414  0.803798  0.666397  1
  Cl  Cl18  1  0.136586  0.196202  0.166397  1
  Cl  Cl19  1  0.636586  0.303798  0.833603  1
  Cl  Cl20  1  0.783709  0.543545  0.594513  1
  Cl  Cl21  1  0.283709  0.956455  0.405487  1
  Cl  Cl22  1  0.216291  0.043545  0.905487  1
  Cl  Cl23  1  0.716291  0.456455  0.094513  1
  Cl  Cl24  1  0.015920  0.768918  0.593795  1
  Cl  Cl25  1  0.515920  0.731082  0.406205  1
  Cl  Cl26  1  0.984080  0.268918  0.906205  1
  Cl  Cl27  1  0.484080  0.231082  0.093795  1
  Cl  Cl28  1  0.170067  0.688756  0.873116  1
  Cl  Cl29  1  0.329933  0.311244  0.373116  1
  Cl  Cl30  1  0.829933  0.188756  0.626884  1
  Cl  Cl31  1  0.670067  0.811244  0.126884  1
  Cl  Cl32  1  0.419052  0.467101  0.580170  1
  Cl  Cl33  1  0.919052  0.032899  0.419830  1
  Cl  Cl34  1  0.580948  0.967101  0.919830  1
  Cl  Cl35  1  0.080948  0.532899  0.080170  1
  Cl  Cl36  1  0.592750  0.408586  0.376694  1
  Cl  Cl37  1  0.092750  0.091414  0.623306  1
  Cl  Cl38  1  0.407250  0.908586  0.123306  1
  Cl  Cl39  1  0.907250  0.591414  0.876694  1
  U  U40  1  0.526442  0.424401  0.982181  1
  U  U41  1  0.026442  0.075599  0.017819  1
  U  U42  1  0.473558  0.924401  0.517819  1
  U  U43  1  0.973558  0.575599  0.482181  1
