# generated using pymatgen
data_Ta2Mn4Si5
_symmetry_space_group_name_H-M   'P 1'
_cell_length_a   5.17674027
_cell_length_b   7.27046188
_cell_length_c   9.42912309
_cell_angle_alpha   112.69766395
_cell_angle_beta   105.93269896
_cell_angle_gamma   90.00000004
_symmetry_Int_Tables_number   1
_chemical_formula_structural   Ta2Mn4Si5
_chemical_formula_sum   'Ta4 Mn8 Si10'
_cell_volume   312.57254182
_cell_formula_units_Z   2
loop_
 _symmetry_equiv_pos_site_id
 _symmetry_equiv_pos_as_xyz
  1  'x, y, z'
loop_
 _atom_site_type_symbol
 _atom_site_label
 _atom_site_symmetry_multiplicity
 _atom_site_fract_x
 _atom_site_fract_y
 _atom_site_fract_z
 _atom_site_occupancy
  Si  Si0  1  0.558232  0.658802  0.116464  1
  Si  Si1  1  0.205965  0.015128  0.411931  1
  Si  Si2  1  0.705980  0.396842  0.411960  1
  Si  Si3  1  0.294020  0.603158  0.588040  1
  Si  Si4  1  0.250014  0.000000  0.000000  1
  Si  Si5  1  0.749986  0.000000  0.000000  1
  Si  Si6  1  0.794035  0.984872  0.588069  1
  Si  Si7  1  0.058230  0.457679  0.116459  1
  Si  Si8  1  0.441768  0.341198  0.883536  1
  Si  Si9  1  0.941770  0.542321  0.883541  1
  Mn  Mn10  1  0.648089  0.027284  0.296178  1
  Mn  Mn11  1  0.435283  0.684237  0.870566  1
  Mn  Mn12  1  0.851896  0.731038  0.703792  1
  Mn  Mn13  1  0.148104  0.268962  0.296208  1
  Mn  Mn14  1  0.935276  0.186309  0.870553  1
  Mn  Mn15  1  0.064724  0.813691  0.129447  1
  Mn  Mn16  1  0.564717  0.315763  0.129434  1
  Mn  Mn17  1  0.351911  0.972716  0.703822  1
  Ta  Ta18  1  0.936212  0.686217  0.372413  1
  Ta  Ta19  1  0.436201  0.686217  0.372413  1
  Ta  Ta20  1  0.063788  0.313783  0.627587  1
  Ta  Ta21  1  0.563799  0.313783  0.627587  1
