# generated using pymatgen
data_ClO3
_symmetry_space_group_name_H-M   'P 1'
_cell_length_a   5.38460706
_cell_length_b   5.38460705
_cell_length_c   10.28609722
_cell_angle_alpha   97.77006626
_cell_angle_beta   97.77006622
_cell_angle_gamma   115.11070037
_symmetry_Int_Tables_number   1
_chemical_formula_structural   ClO3
_chemical_formula_sum   'Cl4 O12'
_cell_volume   261.33298828
_cell_formula_units_Z   4
loop_
 _symmetry_equiv_pos_site_id
 _symmetry_equiv_pos_as_xyz
  1  'x, y, z'
loop_
 _atom_site_type_symbol
 _atom_site_label
 _atom_site_symmetry_multiplicity
 _atom_site_fract_x
 _atom_site_fract_y
 _atom_site_fract_z
 _atom_site_occupancy
  O  O0  1  0.581234  0.468179  0.182834  1
  O  O1  1  0.468179  0.581234  0.682834  1
  O  O2  1  0.829195  0.959608  0.184492  1
  O  O3  1  0.959608  0.829195  0.684492  1
  O  O4  1  0.354672  0.989098  0.943700  1
  O  O5  1  0.989098  0.354672  0.443700  1
  O  O6  1  0.133188  0.302338  0.921858  1
  O  O7  1  0.302338  0.133188  0.421858  1
  O  O8  1  0.615981  0.762046  0.492994  1
  O  O9  1  0.762046  0.615981  0.992994  1
  O  O10  1  0.683997  0.077962  0.697350  1
  O  O11  1  0.077962  0.683997  0.197350  1
  Cl  Cl12  1  0.813605  0.677625  0.141796  1
  Cl  Cl13  1  0.677625  0.813605  0.641796  1
  Cl  Cl14  1  0.190930  0.314143  0.376576  1
  Cl  Cl15  1  0.314143  0.190930  0.876576  1
