# generated using pymatgen
data_NbTe5Pd
_symmetry_space_group_name_H-M   'P 1'
_cell_length_a   3.77773116
_cell_length_b   14.00160076
_cell_length_c   15.77879696
_cell_angle_alpha   90.00000000
_cell_angle_beta   90.00000000
_cell_angle_gamma   90.00000000
_symmetry_Int_Tables_number   1
_chemical_formula_structural   NbTe5Pd
_chemical_formula_sum   'Nb4 Te20 Pd4'
_cell_volume   834.60815939
_cell_formula_units_Z   4
loop_
 _symmetry_equiv_pos_site_id
 _symmetry_equiv_pos_as_xyz
  1  'x, y, z'
loop_
 _atom_site_type_symbol
 _atom_site_label
 _atom_site_symmetry_multiplicity
 _atom_site_fract_x
 _atom_site_fract_y
 _atom_site_fract_z
 _atom_site_occupancy
  Nb  Nb0  1  0.250000  0.254004  0.841876  1
  Nb  Nb1  1  0.750000  0.745996  0.158124  1
  Nb  Nb2  1  0.750000  0.754004  0.658124  1
  Nb  Nb3  1  0.250000  0.245996  0.341876  1
  Pd  Pd4  1  0.750000  0.261185  0.592349  1
  Pd  Pd5  1  0.250000  0.738815  0.407651  1
  Pd  Pd6  1  0.250000  0.761185  0.907651  1
  Pd  Pd7  1  0.750000  0.238815  0.092349  1
  Te  Te8  1  0.750000  0.143689  0.937971  1
  Te  Te9  1  0.250000  0.856311  0.062029  1
  Te  Te10  1  0.250000  0.643689  0.562029  1
  Te  Te11  1  0.750000  0.356311  0.437971  1
  Te  Te12  1  0.250000  0.341646  0.009059  1
  Te  Te13  1  0.750000  0.658354  0.990941  1
  Te  Te14  1  0.750000  0.841646  0.490941  1
  Te  Te15  1  0.250000  0.158354  0.509059  1
  Te  Te16  1  0.750000  0.090615  0.348581  1
  Te  Te17  1  0.250000  0.909385  0.651419  1
  Te  Te18  1  0.250000  0.590615  0.151419  1
  Te  Te19  1  0.750000  0.409385  0.848581  1
  Te  Te20  1  0.750000  0.153631  0.739294  1
  Te  Te21  1  0.250000  0.846369  0.260706  1
  Te  Te22  1  0.250000  0.653631  0.760706  1
  Te  Te23  1  0.750000  0.346369  0.239294  1
  Te  Te24  1  0.250000  0.359928  0.680540  1
  Te  Te25  1  0.750000  0.640072  0.319460  1
  Te  Te26  1  0.750000  0.859928  0.819460  1
  Te  Te27  1  0.250000  0.140072  0.180540  1
