# generated using pymatgen
data_NdNiSn
_symmetry_space_group_name_H-M   'P 1'
_cell_length_a   4.57848770
_cell_length_b   7.46632861
_cell_length_c   7.70520195
_cell_angle_alpha   90.00000000
_cell_angle_beta   90.00000000
_cell_angle_gamma   90.00000000
_symmetry_Int_Tables_number   1
_chemical_formula_structural   NdNiSn
_chemical_formula_sum   'Nd4 Ni4 Sn4'
_cell_volume   263.39842756
_cell_formula_units_Z   4
loop_
 _symmetry_equiv_pos_site_id
 _symmetry_equiv_pos_as_xyz
  1  'x, y, z'
loop_
 _atom_site_type_symbol
 _atom_site_label
 _atom_site_symmetry_multiplicity
 _atom_site_fract_x
 _atom_site_fract_y
 _atom_site_fract_z
 _atom_site_occupancy
  Ni  Ni0  1  0.750000  0.192704  0.915782  1
  Ni  Ni1  1  0.250000  0.307296  0.415782  1
  Ni  Ni2  1  0.750000  0.692704  0.584218  1
  Ni  Ni3  1  0.250000  0.807296  0.084218  1
  Sn  Sn4  1  0.250000  0.185620  0.088505  1
  Sn  Sn5  1  0.750000  0.314380  0.588505  1
  Sn  Sn6  1  0.250000  0.685620  0.411495  1
  Sn  Sn7  1  0.750000  0.814380  0.911495  1
  Nd  Nd8  1  0.250000  0.517469  0.802000  1
  Nd  Nd9  1  0.750000  0.482531  0.198000  1
  Nd  Nd10  1  0.250000  0.017469  0.698000  1
  Nd  Nd11  1  0.750000  0.982531  0.302000  1
