# generated using pymatgen
data_YbMnSi
_symmetry_space_group_name_H-M   'P 1'
_cell_length_a   4.24373940
_cell_length_b   7.19798507
_cell_length_c   7.14071984
_cell_angle_alpha   90.00000000
_cell_angle_beta   90.00000000
_cell_angle_gamma   90.00000000
_symmetry_Int_Tables_number   1
_chemical_formula_structural   YbMnSi
_chemical_formula_sum   'Yb4 Mn4 Si4'
_cell_volume   218.12309059
_cell_formula_units_Z   4
loop_
 _symmetry_equiv_pos_site_id
 _symmetry_equiv_pos_as_xyz
  1  'x, y, z'
loop_
 _atom_site_type_symbol
 _atom_site_label
 _atom_site_symmetry_multiplicity
 _atom_site_fract_x
 _atom_site_fract_y
 _atom_site_fract_z
 _atom_site_occupancy
  Si  Si0  1  0.250000  0.801494  0.110986  1
  Si  Si1  1  0.750000  0.198506  0.889014  1
  Si  Si2  1  0.250000  0.301494  0.389014  1
  Si  Si3  1  0.750000  0.698506  0.610986  1
  Mn  Mn4  1  0.750000  0.867654  0.938438  1
  Mn  Mn5  1  0.250000  0.132346  0.061562  1
  Mn  Mn6  1  0.750000  0.367654  0.561562  1
  Mn  Mn7  1  0.250000  0.632346  0.438438  1
  Yb  Yb8  1  0.250000  0.500129  0.822570  1
  Yb  Yb9  1  0.750000  0.499871  0.177430  1
  Yb  Yb10  1  0.250000  0.000129  0.677430  1
  Yb  Yb11  1  0.750000  0.999871  0.322570  1
