# generated using pymatgen
data_P4(SO2)3
_symmetry_space_group_name_H-M   'P 1'
_cell_length_a   8.68306379
_cell_length_b   10.18478069
_cell_length_c   12.95302576
_cell_angle_alpha   91.10393759
_cell_angle_beta   90.00000000
_cell_angle_gamma   90.00000000
_symmetry_Int_Tables_number   1
_chemical_formula_structural   P4(SO2)3
_chemical_formula_sum   'P16 S12 O24'
_cell_volume   1145.28951724
_cell_formula_units_Z   4
loop_
 _symmetry_equiv_pos_site_id
 _symmetry_equiv_pos_as_xyz
  1  'x, y, z'
loop_
 _atom_site_type_symbol
 _atom_site_label
 _atom_site_symmetry_multiplicity
 _atom_site_fract_x
 _atom_site_fract_y
 _atom_site_fract_z
 _atom_site_occupancy
  O  O0  1  0.423965  0.521806  0.880384  1
  O  O1  1  0.904231  0.788390  0.241878  1
  O  O2  1  0.595769  0.288390  0.241878  1
  O  O3  1  0.095769  0.211610  0.758122  1
  O  O4  1  0.365539  0.480215  0.689110  1
  O  O5  1  0.865539  0.019785  0.310890  1
  O  O6  1  0.634461  0.519785  0.310890  1
  O  O7  1  0.134461  0.980215  0.689110  1
  O  O8  1  0.663653  0.646778  0.831140  1
  O  O9  1  0.163653  0.853222  0.168860  1
  O  O10  1  0.336347  0.353222  0.168860  1
  O  O11  1  0.836347  0.146778  0.831140  1
  O  O12  1  0.872678  0.914984  0.762505  1
  O  O13  1  0.404231  0.711610  0.758122  1
  O  O14  1  0.372678  0.585016  0.237495  1
  O  O15  1  0.127322  0.085016  0.237495  1
  O  O16  1  0.923965  0.978194  0.119616  1
  O  O17  1  0.576035  0.478194  0.119616  1
  O  O18  1  0.076035  0.021806  0.880384  1
  O  O19  1  0.605522  0.606625  0.641659  1
  O  O20  1  0.105522  0.893375  0.358341  1
  O  O21  1  0.394478  0.393375  0.358341  1
  O  O22  1  0.894478  0.106625  0.641659  1
  O  O23  1  0.627322  0.414984  0.762505  1
  P  P24  1  0.484952  0.670858  0.867003  1
  P  P25  1  0.984952  0.829142  0.132997  1
  P  P26  1  0.785842  0.050433  0.734138  1
  P  P27  1  0.015048  0.170858  0.867003  1
  P  P28  1  0.439198  0.400993  0.790446  1
  P  P29  1  0.939198  0.099007  0.209554  1
  P  P30  1  0.560802  0.599007  0.209554  1
  P  P31  1  0.060802  0.900993  0.790446  1
  P  P32  1  0.418369  0.624011  0.650750  1
  P  P33  1  0.918369  0.875989  0.349250  1
  P  P34  1  0.581631  0.375989  0.349250  1
  P  P35  1  0.081631  0.124011  0.650750  1
  P  P36  1  0.714158  0.550433  0.734138  1
  P  P37  1  0.214158  0.949567  0.265862  1
  P  P38  1  0.285842  0.449567  0.265862  1
  P  P39  1  0.515048  0.329142  0.132997  1
  S  S40  1  0.317793  0.693257  0.535837  1
  S  S41  1  0.682207  0.306743  0.464163  1
  S  S42  1  0.182207  0.193257  0.535837  1
  S  S43  1  0.454721  0.789763  0.978123  1
  S  S44  1  0.954721  0.710237  0.021877  1
  S  S45  1  0.545279  0.210237  0.021877  1
  S  S46  1  0.045279  0.289763  0.978123  1
  S  S47  1  0.925914  0.540706  0.705200  1
  S  S48  1  0.425914  0.959294  0.294800  1
  S  S49  1  0.074086  0.459294  0.294800  1
  S  S50  1  0.574086  0.040706  0.705200  1
  S  S51  1  0.817793  0.806743  0.464163  1
