# generated using pymatgen
data_DySiPt
_symmetry_space_group_name_H-M   'P 1'
_cell_length_a   4.28947442
_cell_length_b   7.01568438
_cell_length_c   7.49116742
_cell_angle_alpha   90.00000000
_cell_angle_beta   90.00000000
_cell_angle_gamma   90.00000000
_symmetry_Int_Tables_number   1
_chemical_formula_structural   DySiPt
_chemical_formula_sum   'Dy4 Si4 Pt4'
_cell_volume   225.43618603
_cell_formula_units_Z   4
loop_
 _symmetry_equiv_pos_site_id
 _symmetry_equiv_pos_as_xyz
  1  'x, y, z'
loop_
 _atom_site_type_symbol
 _atom_site_label
 _atom_site_symmetry_multiplicity
 _atom_site_fract_x
 _atom_site_fract_y
 _atom_site_fract_z
 _atom_site_occupancy
  Si  Si0  1  0.250000  0.813196  0.088203  1
  Si  Si1  1  0.250000  0.313196  0.411797  1
  Si  Si2  1  0.750000  0.186804  0.911797  1
  Si  Si3  1  0.750000  0.686804  0.588203  1
  Dy  Dy4  1  0.750000  0.503142  0.200485  1
  Dy  Dy5  1  0.250000  0.996858  0.700485  1
  Dy  Dy6  1  0.750000  0.003142  0.299515  1
  Dy  Dy7  1  0.250000  0.496858  0.799515  1
  Pt  Pt8  1  0.250000  0.699496  0.414780  1
  Pt  Pt9  1  0.250000  0.199496  0.085220  1
  Pt  Pt10  1  0.750000  0.800504  0.914780  1
  Pt  Pt11  1  0.750000  0.300504  0.585220  1
