# generated using pymatgen
data_H5ClO2
_symmetry_space_group_name_H-M   'P 1'
_cell_length_a   4.05842625
_cell_length_b   6.74736735
_cell_length_c   12.14470698
_cell_angle_alpha   90.00000000
_cell_angle_beta   90.00000000
_cell_angle_gamma   100.91501087
_symmetry_Int_Tables_number   1
_chemical_formula_structural   H5ClO2
_chemical_formula_sum   'H20 Cl4 O8'
_cell_volume   326.55050250
_cell_formula_units_Z   4
loop_
 _symmetry_equiv_pos_site_id
 _symmetry_equiv_pos_as_xyz
  1  'x, y, z'
loop_
 _atom_site_type_symbol
 _atom_site_label
 _atom_site_symmetry_multiplicity
 _atom_site_fract_x
 _atom_site_fract_y
 _atom_site_fract_z
 _atom_site_occupancy
  H  H0  1  0.787629  0.092304  0.602371  1
  H  H1  1  0.212371  0.407696  0.102371  1
  H  H2  1  0.212371  0.907696  0.397629  1
  H  H3  1  0.787629  0.592304  0.897629  1
  H  H4  1  0.802402  0.200227  0.483174  1
  H  H5  1  0.197598  0.299773  0.983174  1
  H  H6  1  0.197598  0.799773  0.516826  1
  H  H7  1  0.802402  0.700227  0.016826  1
  H  H8  1  0.296394  0.423423  0.696312  1
  H  H9  1  0.703606  0.076577  0.196312  1
  H  H10  1  0.703606  0.576577  0.303688  1
  H  H11  1  0.296394  0.923423  0.803688  1
  H  H12  1  0.575909  0.842429  0.899442  1
  H  H13  1  0.424091  0.657571  0.399442  1
  H  H14  1  0.424091  0.157571  0.100558  1
  H  H15  1  0.575909  0.342429  0.600558  1
  H  H16  1  0.615660  0.090780  0.848653  1
  H  H17  1  0.384340  0.409220  0.348653  1
  H  H18  1  0.384340  0.909220  0.151347  1
  H  H19  1  0.615660  0.590780  0.651347  1
  O  O20  1  0.714357  0.201271  0.559445  1
  O  O21  1  0.285643  0.298729  0.059445  1
  O  O22  1  0.285643  0.798729  0.440555  1
  O  O23  1  0.714357  0.701271  0.940555  1
  O  O24  1  0.445353  0.466447  0.631172  1
  O  O25  1  0.554647  0.033553  0.131172  1
  O  O26  1  0.554647  0.533553  0.368828  1
  O  O27  1  0.445353  0.966447  0.868828  1
  Cl  Cl28  1  0.972542  0.341867  0.830085  1
  Cl  Cl29  1  0.027458  0.158133  0.330085  1
  Cl  Cl30  1  0.027458  0.658133  0.169915  1
  Cl  Cl31  1  0.972542  0.841867  0.669915  1
