# generated using pymatgen
data_CuClF10
_symmetry_space_group_name_H-M   'P 1'
_cell_length_a   5.28440663
_cell_length_b   7.32781997
_cell_length_c   9.34267163
_cell_angle_alpha   90.00000000
_cell_angle_beta   90.00000000
_cell_angle_gamma   102.00589972
_symmetry_Int_Tables_number   1
_chemical_formula_structural   CuClF10
_chemical_formula_sum   'Cu2 Cl2 F20'
_cell_volume   353.86449616
_cell_formula_units_Z   2
loop_
 _symmetry_equiv_pos_site_id
 _symmetry_equiv_pos_as_xyz
  1  'x, y, z'
loop_
 _atom_site_type_symbol
 _atom_site_label
 _atom_site_symmetry_multiplicity
 _atom_site_fract_x
 _atom_site_fract_y
 _atom_site_fract_z
 _atom_site_occupancy
  F  F0  1  0.885508  0.610953  0.646744  1
  F  F1  1  0.114492  0.889047  0.146744  1
  F  F2  1  0.114492  0.389047  0.353256  1
  F  F3  1  0.885508  0.110953  0.853256  1
  F  F4  1  0.609589  0.387612  0.865285  1
  F  F5  1  0.390411  0.112388  0.365285  1
  F  F6  1  0.390411  0.612388  0.134715  1
  F  F7  1  0.609589  0.887612  0.634715  1
  F  F8  1  0.264850  0.545512  0.894339  1
  F  F9  1  0.735150  0.954488  0.394339  1
  F  F10  1  0.735150  0.454488  0.105661  1
  F  F11  1  0.264850  0.045512  0.605661  1
  F  F12  1  0.699363  0.705510  0.946992  1
  F  F13  1  0.300637  0.794490  0.446992  1
  F  F14  1  0.300637  0.294490  0.053008  1
  F  F15  1  0.699363  0.205510  0.553008  1
  F  F16  1  0.775045  0.074260  0.113270  1
  F  F17  1  0.224955  0.425740  0.613270  1
  F  F18  1  0.224955  0.925740  0.886730  1
  F  F19  1  0.775045  0.574260  0.386730  1
  Cl  Cl20  1  0.500000  0.000000  0.500000  1
  Cl  Cl21  1  0.500000  0.500000  0.000000  1
  Cu  Cu22  1  0.000000  0.500000  0.500000  1
  Cu  Cu23  1  0.000000  0.000000  0.000000  1
