# generated using pymatgen
data_Ho14Ge23
_symmetry_space_group_name_H-M   'P 1'
_cell_length_a   5.74162472
_cell_length_b   7.45304160
_cell_length_c   40.29495623
_cell_angle_alpha   90.00000000
_cell_angle_beta   90.00000000
_cell_angle_gamma   112.65533015
_symmetry_Int_Tables_number   1
_chemical_formula_structural   Ho14Ge23
_chemical_formula_sum   'Ho28 Ge46'
_cell_volume   1591.27347654
_cell_formula_units_Z   2
loop_
 _symmetry_equiv_pos_site_id
 _symmetry_equiv_pos_as_xyz
  1  'x, y, z'
loop_
 _atom_site_type_symbol
 _atom_site_label
 _atom_site_symmetry_multiplicity
 _atom_site_fract_x
 _atom_site_fract_y
 _atom_site_fract_z
 _atom_site_occupancy
  Ge  Ge0  1  0.802674  0.605348  0.000000  1
  Ge  Ge1  1  0.197326  0.394652  0.500000  1
  Ge  Ge2  1  0.789017  0.200969  0.027627  1
  Ge  Ge3  1  0.588048  0.799031  0.472373  1
  Ge  Ge4  1  0.210983  0.799031  0.527627  1
  Ge  Ge5  1  0.411952  0.200969  0.972373  1
  Ge  Ge6  1  0.301105  0.106271  0.107398  1
  Ge  Ge7  1  0.194835  0.893729  0.392602  1
  Ge  Ge8  1  0.698895  0.893729  0.607398  1
  Ge  Ge9  1  0.805165  0.106271  0.892602  1
  Ge  Ge10  1  0.919904  0.204252  0.187689  1
  Ge  Ge11  1  0.715652  0.795748  0.312311  1
  Ge  Ge12  1  0.080096  0.795748  0.687689  1
  Ge  Ge13  1  0.284348  0.204252  0.812311  1
  Ge  Ge14  1  0.301374  0.185132  0.245464  1
  Ge  Ge15  1  0.116241  0.814868  0.254536  1
  Ge  Ge16  1  0.698627  0.814868  0.745464  1
  Ge  Ge17  1  0.883759  0.185132  0.754536  1
  Ge  Ge18  1  0.168080  0.333535  0.069973  1
  Ge  Ge19  1  0.834545  0.666465  0.430027  1
  Ge  Ge20  1  0.831920  0.666465  0.569973  1
  Ge  Ge21  1  0.165455  0.333535  0.930027  1
  Ge  Ge22  1  0.665237  0.331543  0.144551  1
  Ge  Ge23  1  0.333694  0.668457  0.355449  1
  Ge  Ge24  1  0.334763  0.668457  0.644551  1
  Ge  Ge25  1  0.666306  0.331543  0.855449  1
  Ge  Ge26  1  0.287966  0.700347  0.079784  1
  Ge  Ge27  1  0.587619  0.299653  0.420216  1
  Ge  Ge28  1  0.712034  0.299653  0.579784  1
  Ge  Ge29  1  0.412381  0.700347  0.920216  1
  Ge  Ge30  1  0.910648  0.699781  0.135167  1
  Ge  Ge31  1  0.210867  0.300219  0.364833  1
  Ge  Ge32  1  0.089352  0.300219  0.635167  1
  Ge  Ge33  1  0.789133  0.699781  0.864833  1
  Ge  Ge34  1  0.314695  0.627482  0.216036  1
  Ge  Ge35  1  0.687213  0.372518  0.283964  1
  Ge  Ge36  1  0.685305  0.372518  0.716036  1
  Ge  Ge37  1  0.312787  0.627482  0.783964  1
  Ge  Ge38  1  0.667604  0.833302  0.037244  1
  Ge  Ge39  1  0.834302  0.166698  0.462756  1
  Ge  Ge40  1  0.332396  0.166698  0.537244  1
  Ge  Ge41  1  0.165698  0.833302  0.962756  1
  Ge  Ge42  1  0.663850  0.838005  0.176630  1
  Ge  Ge43  1  0.825845  0.161995  0.323370  1
  Ge  Ge44  1  0.336150  0.161995  0.676630  1
  Ge  Ge45  1  0.174155  0.838005  0.823370  1
  Ho  Ho46  1  0.722142  0.000000  0.250000  1
  Ho  Ho47  1  0.277858  0.000000  0.750000  1
  Ho  Ho48  1  0.254197  0.508395  0.000000  1
  Ho  Ho49  1  0.745803  0.491605  0.500000  1
  Ho  Ho50  1  0.232250  0.992670  0.035126  1
  Ho  Ho51  1  0.239580  0.007330  0.464874  1
  Ho  Ho52  1  0.767750  0.007330  0.535126  1
  Ho  Ho53  1  0.760420  0.992670  0.964874  1
  Ho  Ho54  1  0.752969  0.008194  0.107094  1
  Ho  Ho55  1  0.744776  0.991806  0.392906  1
  Ho  Ho56  1  0.247030  0.991806  0.607094  1
  Ho  Ho57  1  0.255225  0.008194  0.892906  1
  Ho  Ho58  1  0.257758  0.992269  0.180141  1
  Ho  Ho59  1  0.265489  0.007731  0.319859  1
  Ho  Ho60  1  0.742242  0.007731  0.680141  1
  Ho  Ho61  1  0.734511  0.992269  0.819859  1
  Ho  Ho62  1  0.731818  0.492643  0.072234  1
  Ho  Ho63  1  0.239175  0.507357  0.427766  1
  Ho  Ho64  1  0.268182  0.507357  0.572234  1
  Ho  Ho65  1  0.760825  0.492643  0.927766  1
  Ho  Ho66  1  0.260877  0.493228  0.142731  1
  Ho  Ho67  1  0.767649  0.506772  0.357269  1
  Ho  Ho68  1  0.739123  0.506772  0.642731  1
  Ho  Ho69  1  0.232351  0.493228  0.857269  1
  Ho  Ho70  1  0.749217  0.506516  0.212836  1
  Ho  Ho71  1  0.242701  0.493484  0.287164  1
  Ho  Ho72  1  0.250783  0.493484  0.712836  1
  Ho  Ho73  1  0.757299  0.506516  0.787164  1
