# generated using pymatgen
data_Sr3Co2Cl2O5
_symmetry_space_group_name_H-M   'P 1'
_cell_length_a   3.96058697
_cell_length_b   3.96179070
_cell_length_c   12.39656824
_cell_angle_alpha   99.21598989
_cell_angle_beta   99.14516436
_cell_angle_gamma   90.00698326
_symmetry_Int_Tables_number   1
_chemical_formula_structural   Sr3Co2Cl2O5
_chemical_formula_sum   'Sr3 Co2 Cl2 O5'
_cell_volume   189.49799615
_cell_formula_units_Z   1
loop_
 _symmetry_equiv_pos_site_id
 _symmetry_equiv_pos_as_xyz
  1  'x, y, z'
loop_
 _atom_site_type_symbol
 _atom_site_label
 _atom_site_symmetry_multiplicity
 _atom_site_fract_x
 _atom_site_fract_y
 _atom_site_fract_z
 _atom_site_occupancy
  Sr  Sr0  1  0.153028  0.152979  0.306113  1
  Sr  Sr1  1  0.847097  0.846946  0.693819  1
  Sr  Sr2  1  0.000538  0.000559  0.001099  1
  Co  Co3  1  0.423662  0.423786  0.847212  1
  Co  Co4  1  0.577974  0.577018  0.154819  1
  Cl  Cl5  1  0.701149  0.701292  0.402534  1
  Cl  Cl6  1  0.297684  0.297533  0.595050  1
  O  O7  1  0.086288  0.586487  0.173017  1
  O  O8  1  0.913161  0.413216  0.826139  1
  O  O9  1  0.586289  0.086625  0.173392  1
  O  O10  1  0.499796  0.500172  1.000221  1
  O  O11  1  0.413333  0.913387  0.826583  1
