# generated using pymatgen
data_USnPd
_symmetry_space_group_name_H-M   'P 1'
_cell_length_a   4.98561250
_cell_length_b   4.98302031
_cell_length_c   5.81927899
_cell_angle_alpha   90.00000000
_cell_angle_beta   90.00000000
_cell_angle_gamma   120.01720975
_symmetry_Int_Tables_number   1
_chemical_formula_structural   USnPd
_chemical_formula_sum   'U2 Sn2 Pd2'
_cell_volume   125.18020192
_cell_formula_units_Z   2
loop_
 _symmetry_equiv_pos_site_id
 _symmetry_equiv_pos_as_xyz
  1  'x, y, z'
loop_
 _atom_site_type_symbol
 _atom_site_label
 _atom_site_symmetry_multiplicity
 _atom_site_fract_x
 _atom_site_fract_y
 _atom_site_fract_z
 _atom_site_occupancy
  Pd  Pd0  1  0.332737  0.665474  0.520550  1
  Pd  Pd1  1  0.667263  0.334526  0.020550  1
  Sn  Sn2  1  0.666361  0.332722  0.518284  1
  Sn  Sn3  1  0.333639  0.667278  0.018284  1
  U  U4  1  -0.000033  -0.000067  0.767666  1
  U  U5  1  1.000033  1.000067  0.267666  1
