# generated using pymatgen
data_In3Cu7
_symmetry_space_group_name_H-M   'P 1'
_cell_length_a   6.74398228
_cell_length_b   9.17268557
_cell_length_c   10.09147531
_cell_angle_alpha   73.65503206
_cell_angle_beta   83.18549913
_cell_angle_gamma   89.96577709
_symmetry_Int_Tables_number   1
_chemical_formula_structural   In3Cu7
_chemical_formula_sum   'In12 Cu28'
_cell_volume   594.44893678
_cell_formula_units_Z   4
loop_
 _symmetry_equiv_pos_site_id
 _symmetry_equiv_pos_as_xyz
  1  'x, y, z'
loop_
 _atom_site_type_symbol
 _atom_site_label
 _atom_site_symmetry_multiplicity
 _atom_site_fract_x
 _atom_site_fract_y
 _atom_site_fract_z
 _atom_site_occupancy
  Cu  Cu0  1  0.000000  0.000000  0.000000  1
  Cu  Cu1  1  0.000000  0.000000  0.500000  1
  Cu  Cu2  1  0.302500  0.144002  0.063196  1
  Cu  Cu3  1  0.697500  0.855998  0.936804  1
  Cu  Cu4  1  0.843500  0.458727  0.696646  1
  Cu  Cu5  1  0.156500  0.541273  0.303354  1
  Cu  Cu6  1  0.152911  0.573444  0.771972  1
  Cu  Cu7  1  0.847089  0.426556  0.228028  1
  Cu  Cu8  1  0.440604  0.706703  0.866446  1
  Cu  Cu9  1  0.559396  0.293297  0.133554  1
  Cu  Cu10  1  0.272160  0.149846  0.583894  1
  Cu  Cu11  1  0.727840  0.850154  0.416106  1
  Cu  Cu12  1  0.337330  -0.000144  0.839308  1
  Cu  Cu13  1  0.662670  1.000144  0.160692  1
  Cu  Cu14  1  0.242386  0.857661  0.664715  1
  Cu  Cu15  1  0.757614  0.142339  0.335285  1
  Cu  Cu16  1  0.539594  0.307103  0.653026  1
  Cu  Cu17  1  0.460406  0.692897  0.346974  1
  Cu  Cu18  1  0.856388  0.759850  0.713276  1
  Cu  Cu19  1  0.143612  0.240150  0.286724  1
  Cu  Cu20  1  0.031116  0.982502  0.249808  1
  Cu  Cu21  1  0.968884  0.017498  0.750192  1
  Cu  Cu22  1  0.773667  0.550584  0.435519  1
  Cu  Cu23  1  0.226333  0.449416  0.564481  1
  Cu  Cu24  1  0.471481  0.413270  0.864970  1
  Cu  Cu25  1  0.528519  0.586730  0.135030  1
  Cu  Cu26  1  0.069201  0.766236  0.913821  1
  Cu  Cu27  1  0.930799  0.233764  0.086179  1
  In  In28  1  0.792786  0.528424  0.943530  1
  In  In29  1  0.207214  0.471576  0.056470  1
  In  In30  1  0.618367  0.994262  0.633939  1
  In  In31  1  0.381633  0.005738  0.366061  1
  In  In32  1  0.920920  0.280973  0.517713  1
  In  In33  1  0.079080  0.719027  0.482287  1
  In  In34  1  0.141910  0.265129  0.818109  1
  In  In35  1  0.858090  0.734871  0.181891  1
  In  In36  1  0.324819  0.836519  0.104299  1
  In  In37  1  0.675181  0.163481  0.895701  1
  In  In38  1  0.519471  0.637107  0.621223  1
  In  In39  1  0.480529  0.362893  0.378777  1
