# generated using pymatgen
data_Tl5Se2Br
_symmetry_space_group_name_H-M   'P 1'
_cell_length_a   8.79884317
_cell_length_b   8.79884317
_cell_length_c   9.17061360
_cell_angle_alpha   118.66779164
_cell_angle_beta   118.66779161
_cell_angle_gamma   90.00000001
_symmetry_Int_Tables_number   1
_chemical_formula_structural   Tl5Se2Br
_chemical_formula_sum   'Tl10 Se4 Br2'
_cell_volume   521.59430313
_cell_formula_units_Z   2
loop_
 _symmetry_equiv_pos_site_id
 _symmetry_equiv_pos_as_xyz
  1  'x, y, z'
loop_
 _atom_site_type_symbol
 _atom_site_label
 _atom_site_symmetry_multiplicity
 _atom_site_fract_x
 _atom_site_fract_y
 _atom_site_fract_z
 _atom_site_occupancy
  Se  Se0  1  0.658388  0.158388  0.000000  1
  Se  Se1  1  0.841612  0.658388  0.000000  1
  Se  Se2  1  0.158388  0.341612  0.000000  1
  Se  Se3  1  0.341612  0.841612  0.000000  1
  Br  Br4  1  0.750000  0.750000  0.500000  1
  Br  Br5  1  0.250000  0.250000  0.500000  1
  Tl  Tl6  1  0.211414  0.005293  0.716707  1
  Tl  Tl7  1  0.005293  0.505293  0.716707  1
  Tl  Tl8  1  0.711414  0.211414  0.716707  1
  Tl  Tl9  1  0.994707  0.494707  0.283293  1
  Tl  Tl10  1  0.505293  0.711414  0.716707  1
  Tl  Tl11  1  0.788586  0.994707  0.283293  1
  Tl  Tl12  1  0.494707  0.288586  0.283293  1
  Tl  Tl13  1  0.288586  0.788586  0.283293  1
  Tl  Tl14  1  0.500000  0.500000  0.000000  1
  Tl  Tl15  1  0.000000  0.000000  0.000000  1
