# generated using pymatgen
data_Yb2S2O
_symmetry_space_group_name_H-M   'P 1'
_cell_length_a   7.67035039
_cell_length_b   6.58218475
_cell_length_c   8.18406453
_cell_angle_alpha   90.00000000
_cell_angle_beta   99.88140126
_cell_angle_gamma   90.00000000
_symmetry_Int_Tables_number   1
_chemical_formula_structural   Yb2S2O
_chemical_formula_sum   'Yb8 S8 O4'
_cell_volume   407.06459243
_cell_formula_units_Z   4
loop_
 _symmetry_equiv_pos_site_id
 _symmetry_equiv_pos_as_xyz
  1  'x, y, z'
loop_
 _atom_site_type_symbol
 _atom_site_label
 _atom_site_symmetry_multiplicity
 _atom_site_fract_x
 _atom_site_fract_y
 _atom_site_fract_z
 _atom_site_occupancy
  O  O0  1  0.152406  0.581041  0.615251  1
  O  O1  1  0.347594  0.081041  0.384749  1
  O  O2  1  0.847594  0.418959  0.384749  1
  O  O3  1  0.652406  0.918959  0.615251  1
  S  S4  1  0.499223  0.841142  0.970707  1
  S  S5  1  0.000777  0.341142  0.029293  1
  S  S6  1  0.500777  0.158858  0.029293  1
  S  S7  1  0.999223  0.658858  0.970707  1
  S  S8  1  0.961719  0.943627  0.375816  1
  S  S9  1  0.538281  0.443627  0.624184  1
  S  S10  1  0.038281  0.056373  0.624184  1
  S  S11  1  0.461719  0.556373  0.375816  1
  Yb  Yb12  1  0.769607  0.038931  0.835204  1
  Yb  Yb13  1  0.730393  0.538931  0.164796  1
  Yb  Yb14  1  0.230393  0.961069  0.164796  1
  Yb  Yb15  1  0.269607  0.461069  0.835204  1
  Yb  Yb16  1  0.639740  0.149225  0.416006  1
  Yb  Yb17  1  0.860260  0.649225  0.583994  1
  Yb  Yb18  1  0.360260  0.850775  0.583994  1
  Yb  Yb19  1  0.139740  0.350775  0.416006  1
