# generated using pymatgen
data_NbCl3O
_symmetry_space_group_name_H-M   'P 1'
_cell_length_a   3.88763060
_cell_length_b   11.75390761
_cell_length_c   11.75390761
_cell_angle_alpha   90.00000000
_cell_angle_beta   90.00000000
_cell_angle_gamma   90.00000000
_symmetry_Int_Tables_number   1
_chemical_formula_structural   NbCl3O
_chemical_formula_sum   'Nb4 Cl12 O4'
_cell_volume   537.09305566
_cell_formula_units_Z   4
loop_
 _symmetry_equiv_pos_site_id
 _symmetry_equiv_pos_as_xyz
  1  'x, y, z'
loop_
 _atom_site_type_symbol
 _atom_site_label
 _atom_site_symmetry_multiplicity
 _atom_site_fract_x
 _atom_site_fract_y
 _atom_site_fract_z
 _atom_site_occupancy
  O  O0  1  0.000000  0.609264  0.390736  1
  O  O1  1  0.500001  0.109263  0.109263  1
  O  O2  1  0.500001  0.890737  0.890737  1
  O  O3  1  0.000000  0.390736  0.609264  1
  Cl  Cl4  1  0.000000  0.901117  0.098883  1
  Cl  Cl5  1  0.500001  0.598882  0.598882  1
  Cl  Cl6  1  0.500001  0.401118  0.401118  1
  Cl  Cl7  1  0.000000  0.098883  0.901117  1
  Cl  Cl8  1  0.000000  0.316039  0.100664  1
  Cl  Cl9  1  0.500001  0.399335  0.816039  1
  Cl  Cl10  1  0.000000  0.899336  0.683961  1
  Cl  Cl11  1  0.000000  0.683961  0.899336  1
  Cl  Cl12  1  0.500001  0.816039  0.399335  1
  Cl  Cl13  1  0.500001  0.183961  0.600665  1
  Cl  Cl14  1  0.000000  0.100664  0.316039  1
  Cl  Cl15  1  0.500001  0.600665  0.183961  1
  Nb  Nb16  1  0.000000  0.879627  0.879627  1
  Nb  Nb17  1  0.500001  0.620373  0.379627  1
  Nb  Nb18  1  0.500001  0.379627  0.620373  1
  Nb  Nb19  1  0.000000  0.120373  0.120373  1
