# generated using pymatgen
data_RbCrI3
_symmetry_space_group_name_H-M   'P 1'
_cell_length_a   8.11166505
_cell_length_b   8.11166505
_cell_length_c   14.42091645
_cell_angle_alpha   84.76938679
_cell_angle_beta   84.76938679
_cell_angle_gamma   60.11999555
_symmetry_Int_Tables_number   1
_chemical_formula_structural   RbCrI3
_chemical_formula_sum   'Rb4 Cr4 I12'
_cell_volume   818.17218696
_cell_formula_units_Z   4
loop_
 _symmetry_equiv_pos_site_id
 _symmetry_equiv_pos_as_xyz
  1  'x, y, z'
loop_
 _atom_site_type_symbol
 _atom_site_label
 _atom_site_symmetry_multiplicity
 _atom_site_fract_x
 _atom_site_fract_y
 _atom_site_fract_z
 _atom_site_occupancy
  Cr  Cr0  1  0.032929  0.965297  0.750312  1
  Cr  Cr1  1  0.034703  0.967071  0.249688  1
  Cr  Cr2  1  0.067312  0.932688  0.500000  1
  Cr  Cr3  1  0.996201  0.003799  0.000000  1
  Rb  Rb4  1  0.680230  0.652039  0.882156  1
  Rb  Rb5  1  0.347961  0.319770  0.117844  1
  Rb  Rb6  1  0.708602  0.614632  0.380576  1
  Rb  Rb7  1  0.385368  0.291398  0.619424  1
  I  I8  1  0.855789  0.811144  0.164173  1
  I  I9  1  0.188856  0.144211  0.835827  1
  I  I10  1  0.216826  0.117890  0.336349  1
  I  I11  1  0.882110  0.783174  0.663651  1
  I  I12  1  0.388228  0.781481  0.602507  1
  I  I13  1  0.218519  0.611772  0.397493  1
  I  I14  1  0.317987  0.841033  0.106223  1
  I  I15  1  0.158967  0.682013  0.893777  1
  I  I16  1  0.901489  0.251355  0.608173  1
  I  I17  1  0.748645  0.098511  0.391827  1
  I  I18  1  0.841634  0.323354  0.103711  1
  I  I19  1  0.676646  0.158366  0.896289  1
