# generated using pymatgen
data_Cs2Ni3S4
_symmetry_space_group_name_H-M   'P 1'
_cell_length_a   5.89162853
_cell_length_b   5.89162853
_cell_length_c   15.23618379
_cell_angle_alpha   90.00000000
_cell_angle_beta   90.00000000
_cell_angle_gamma   119.99999994
_symmetry_Int_Tables_number   1
_chemical_formula_structural   Cs2Ni3S4
_chemical_formula_sum   'Cs4 Ni6 S8'
_cell_volume   458.01272889
_cell_formula_units_Z   2
loop_
 _symmetry_equiv_pos_site_id
 _symmetry_equiv_pos_as_xyz
  1  'x, y, z'
loop_
 _atom_site_type_symbol
 _atom_site_label
 _atom_site_symmetry_multiplicity
 _atom_site_fract_x
 _atom_site_fract_y
 _atom_site_fract_z
 _atom_site_occupancy
  S  S0  1  0.333333  0.666667  0.343463  1
  S  S1  1  0.666667  0.333333  0.843463  1
  S  S2  1  0.666667  0.333333  0.656537  1
  S  S3  1  0.333333  0.666667  0.156537  1
  S  S4  1  0.000000  0.000000  0.657111  1
  S  S5  1  0.000000  0.000000  0.157111  1
  S  S6  1  0.000000  0.000000  0.842889  1
  S  S7  1  0.000000  0.000000  0.342889  1
  Ni  Ni8  1  0.166486  0.833514  0.250000  1
  Ni  Ni9  1  0.833514  0.667028  0.750000  1
  Ni  Ni10  1  0.833514  0.166486  0.750000  1
  Ni  Ni11  1  0.166486  0.332972  0.250000  1
  Ni  Ni12  1  0.332972  0.166486  0.750000  1
  Ni  Ni13  1  0.667028  0.833514  0.250000  1
  Cs  Cs14  1  0.333333  0.666667  0.909193  1
  Cs  Cs15  1  0.666667  0.333333  0.409193  1
  Cs  Cs16  1  0.666667  0.333333  0.090807  1
  Cs  Cs17  1  0.333333  0.666667  0.590807  1
