# generated using pymatgen
data_Si(Bi3O5)4
_symmetry_space_group_name_H-M   'P 1'
_cell_length_a   8.86659141
_cell_length_b   8.86659078
_cell_length_c   8.86659101
_cell_angle_alpha   109.47121886
_cell_angle_beta   109.47121740
_cell_angle_gamma   109.47122532
_symmetry_Int_Tables_number   1
_chemical_formula_structural   Si(Bi3O5)4
_chemical_formula_sum   'Si1 Bi12 O20'
_cell_volume   536.59688600
_cell_formula_units_Z   1
loop_
 _symmetry_equiv_pos_site_id
 _symmetry_equiv_pos_as_xyz
  1  'x, y, z'
loop_
 _atom_site_type_symbol
 _atom_site_label
 _atom_site_symmetry_multiplicity
 _atom_site_fract_x
 _atom_site_fract_y
 _atom_site_fract_z
 _atom_site_occupancy
  Si  Si0  1  0.000000  0.000000  0.000000  1
  Bi  Bi1  1  0.139954  0.807918  0.302489  1
  Bi  Bi2  1  0.837465  0.697511  0.505429  1
  Bi  Bi3  1  0.697511  0.505429  0.837465  1
  Bi  Bi4  1  0.332035  0.494571  0.192082  1
  Bi  Bi5  1  0.667965  0.860046  0.162535  1
  Bi  Bi6  1  0.494571  0.192082  0.332035  1
  Bi  Bi7  1  0.807918  0.302489  0.139954  1
  Bi  Bi8  1  0.302489  0.139954  0.807918  1
  Bi  Bi9  1  0.505429  0.837465  0.697511  1
  Bi  Bi10  1  0.192082  0.332035  0.494571  1
  Bi  Bi11  1  0.860046  0.162535  0.667965  1
  Bi  Bi12  1  0.162535  0.667965  0.860046  1
  O  O13  1  0.231095  0.612998  0.355399  1
  O  O14  1  0.124304  0.381903  0.768905  1
  O  O15  1  0.381903  0.768905  0.124304  1
  O  O16  1  0.811684  0.811684  0.811684  1
  O  O17  1  0.394849  0.394849  0.394849  1
  O  O18  1  0.000000  0.605151  0.000000  1
  O  O19  1  0.618097  0.742401  0.387002  1
  O  O20  1  0.387002  0.618097  0.742401  1
  O  O21  1  0.257599  0.875696  0.644601  1
  O  O22  1  0.644601  0.257599  0.875696  1
  O  O23  1  0.612998  0.355399  0.231095  1
  O  O24  1  0.768905  0.124304  0.381903  1
  O  O25  1  0.875696  0.644601  0.257599  1
  O  O26  1  0.355399  0.231095  0.612998  1
  O  O27  1  0.000000  0.188316  0.000000  1
  O  O28  1  0.742401  0.387002  0.618097  1
  O  O29  1  0.605151  0.000000  1.000000  1
  O  O30  1  1.000000  1.000000  0.605151  1
  O  O31  1  1.000000  1.000000  0.188316  1
  O  O32  1  0.188316  0.000000  1.000000  1
