# generated using pymatgen
data_NaAuSe2
_symmetry_space_group_name_H-M   'P 1'
_cell_length_a   6.86324137
_cell_length_b   7.13350124
_cell_length_c   8.59504751
_cell_angle_alpha   90.00000000
_cell_angle_beta   90.00000000
_cell_angle_gamma   105.28653145
_symmetry_Int_Tables_number   1
_chemical_formula_structural   NaAuSe2
_chemical_formula_sum   'Na4 Au4 Se8'
_cell_volume   405.91611787
_cell_formula_units_Z   4
loop_
 _symmetry_equiv_pos_site_id
 _symmetry_equiv_pos_as_xyz
  1  'x, y, z'
loop_
 _atom_site_type_symbol
 _atom_site_label
 _atom_site_symmetry_multiplicity
 _atom_site_fract_x
 _atom_site_fract_y
 _atom_site_fract_z
 _atom_site_occupancy
  Na  Na0  1  0.986947  0.271034  0.132423  1
  Na  Na1  1  0.513053  0.728966  0.632423  1
  Na  Na2  1  0.013053  0.728966  0.867577  1
  Na  Na3  1  0.486947  0.271034  0.367577  1
  Se  Se4  1  0.213644  0.982042  0.574649  1
  Se  Se5  1  0.286356  0.017958  0.074649  1
  Se  Se6  1  0.786356  0.017958  0.425351  1
  Se  Se7  1  0.713644  0.982042  0.925351  1
  Se  Se8  1  0.249169  0.410860  0.830720  1
  Se  Se9  1  0.250831  0.589140  0.330720  1
  Se  Se10  1  0.750831  0.589140  0.169280  1
  Se  Se11  1  0.749169  0.410860  0.669280  1
  Au  Au12  1  0.507517  0.215176  0.867775  1
  Au  Au13  1  0.992483  0.784824  0.367775  1
  Au  Au14  1  0.492483  0.784824  0.132225  1
  Au  Au15  1  0.007517  0.215176  0.632225  1
