# generated using pymatgen
data_Hf5P7Pd9
_symmetry_space_group_name_H-M   'P 1'
_cell_length_a   3.79498525
_cell_length_b   6.54724052
_cell_length_c   13.72552760
_cell_angle_alpha   103.79837819
_cell_angle_beta   90.00000000
_cell_angle_gamma   90.00000000
_symmetry_Int_Tables_number   1
_chemical_formula_structural   Hf5P7Pd9
_chemical_formula_sum   'Hf5 P7 Pd9'
_cell_volume   331.19192435
_cell_formula_units_Z   1
loop_
 _symmetry_equiv_pos_site_id
 _symmetry_equiv_pos_as_xyz
  1  'x, y, z'
loop_
 _atom_site_type_symbol
 _atom_site_label
 _atom_site_symmetry_multiplicity
 _atom_site_fract_x
 _atom_site_fract_y
 _atom_site_fract_z
 _atom_site_occupancy
  P  P0  1  0.500000  0.035788  0.287256  1
  P  P1  1  0.500000  0.748532  0.712744  1
  P  P2  1  0.500000  0.441422  0.135153  1
  P  P3  1  0.500000  0.306269  0.864847  1
  P  P4  1  0.000000  0.622250  0.430533  1
  P  P5  1  0.000000  0.191717  0.569467  1
  P  P6  1  0.000000  0.868592  0.000000  1
  Pd  Pd7  1  0.500000  0.797711  0.116706  1
  Pd  Pd8  1  0.500000  0.464066  0.314175  1
  Pd  Pd9  1  0.000000  0.827687  0.606913  1
  Pd  Pd10  1  0.000000  0.220774  0.393087  1
  Pd  Pd11  1  0.500000  0.116262  0.000000  1
  Pd  Pd12  1  0.000000  0.507461  0.719341  1
  Pd  Pd13  1  0.000000  0.788120  0.280659  1
  Pd  Pd14  1  0.500000  0.149891  0.685825  1
  Pd  Pd15  1  0.500000  0.681005  0.883294  1
  Hf  Hf16  1  0.500000  0.465348  0.542038  1
  Hf  Hf17  1  0.500000  0.923310  0.457962  1
  Hf  Hf18  1  0.000000  0.470196  0.000000  1
  Hf  Hf19  1  0.000000  0.178256  0.176412  1
  Hf  Hf20  1  0.000000  0.001844  0.823588  1
