# generated using pymatgen
data_TlCu7S4
_symmetry_space_group_name_H-M   'P 1'
_cell_length_a   7.57818010
_cell_length_b   10.21747340
_cell_length_c   10.21747340
_cell_angle_alpha   90.00000000
_cell_angle_beta   90.00000000
_cell_angle_gamma   90.00000000
_symmetry_Int_Tables_number   1
_chemical_formula_structural   TlCu7S4
_chemical_formula_sum   'Tl4 Cu28 S16'
_cell_volume   791.13746944
_cell_formula_units_Z   4
loop_
 _symmetry_equiv_pos_site_id
 _symmetry_equiv_pos_as_xyz
  1  'x, y, z'
loop_
 _atom_site_type_symbol
 _atom_site_label
 _atom_site_symmetry_multiplicity
 _atom_site_fract_x
 _atom_site_fract_y
 _atom_site_fract_z
 _atom_site_occupancy
  S  S0  1  0.133231  0.989280  0.189898  1
  S  S1  1  0.133231  0.310102  0.989280  1
  S  S2  1  0.133231  0.189898  0.510720  1
  S  S3  1  0.133231  0.510720  0.310102  1
  S  S4  1  0.866769  0.010720  0.810102  1
  S  S5  1  0.866769  0.689898  0.010720  1
  S  S6  1  0.866769  0.810102  0.489280  1
  S  S7  1  0.866769  0.489280  0.689898  1
  S  S8  1  0.368894  0.009698  0.811861  1
  S  S9  1  0.368894  0.688139  0.009698  1
  S  S10  1  0.368894  0.811861  0.490302  1
  S  S11  1  0.368894  0.490302  0.688139  1
  S  S12  1  0.631106  0.990302  0.188139  1
  S  S13  1  0.631106  0.311861  0.990302  1
  S  S14  1  0.631106  0.188139  0.509698  1
  S  S15  1  0.631106  0.509698  0.311861  1
  Cu  Cu16  1  0.000000  0.000000  0.000000  1
  Cu  Cu17  1  0.000000  0.500000  0.000000  1
  Cu  Cu18  1  0.000000  0.000000  0.500000  1
  Cu  Cu19  1  0.000000  0.500000  0.500000  1
  Cu  Cu20  1  0.344743  0.476475  0.947369  1
  Cu  Cu21  1  0.344743  0.552631  0.476475  1
  Cu  Cu22  1  0.344743  0.947369  0.023525  1
  Cu  Cu23  1  0.344743  0.023525  0.552631  1
  Cu  Cu24  1  0.655257  0.523525  0.052631  1
  Cu  Cu25  1  0.655257  0.447369  0.523525  1
  Cu  Cu26  1  0.655257  0.052631  0.976475  1
  Cu  Cu27  1  0.655257  0.976475  0.447369  1
  Cu  Cu28  1  0.119416  0.728674  0.382462  1
  Cu  Cu29  1  0.119416  0.117538  0.728674  1
  Cu  Cu30  1  0.119416  0.382462  0.771326  1
  Cu  Cu31  1  0.119416  0.771326  0.117538  1
  Cu  Cu32  1  0.880584  0.271326  0.617538  1
  Cu  Cu33  1  0.880584  0.882462  0.271326  1
  Cu  Cu34  1  0.880584  0.617538  0.228674  1
  Cu  Cu35  1  0.880584  0.228674  0.882462  1
  Cu  Cu36  1  0.387065  0.282463  0.609936  1
  Cu  Cu37  1  0.387065  0.890064  0.282463  1
  Cu  Cu38  1  0.387065  0.609936  0.217537  1
  Cu  Cu39  1  0.387065  0.217537  0.890064  1
  Cu  Cu40  1  0.612935  0.717537  0.390064  1
  Cu  Cu41  1  0.612935  0.109936  0.717537  1
  Cu  Cu42  1  0.612935  0.390064  0.782463  1
  Cu  Cu43  1  0.612935  0.782463  0.109936  1
  Tl  Tl44  1  0.378198  0.250000  0.250000  1
  Tl  Tl45  1  0.621802  0.750000  0.750000  1
  Tl  Tl46  1  0.883341  0.250000  0.250000  1
  Tl  Tl47  1  0.116659  0.750000  0.750000  1
