# generated using pymatgen
data_H(CO)2
_symmetry_space_group_name_H-M   'P 1'
_cell_length_a   5.76917186
_cell_length_b   6.19314428
_cell_length_c   6.20672763
_cell_angle_alpha   90.11013079
_cell_angle_beta   90.00000000
_cell_angle_gamma   90.00000000
_symmetry_Int_Tables_number   1
_chemical_formula_structural   H(CO)2
_chemical_formula_sum   'H4 C8 O8'
_cell_volume   221.76170893
_cell_formula_units_Z   4
loop_
 _symmetry_equiv_pos_site_id
 _symmetry_equiv_pos_as_xyz
  1  'x, y, z'
loop_
 _atom_site_type_symbol
 _atom_site_label
 _atom_site_symmetry_multiplicity
 _atom_site_fract_x
 _atom_site_fract_y
 _atom_site_fract_z
 _atom_site_occupancy
  H  H0  1  0.750000  0.783801  0.732418  1
  H  H1  1  0.750000  0.238427  0.222188  1
  H  H2  1  0.250000  0.216199  0.267582  1
  H  H3  1  0.250000  0.761574  0.777812  1
  C  C4  1  0.750000  0.104184  0.694072  1
  C  C5  1  0.250000  0.684297  0.411046  1
  C  C6  1  0.250000  0.580700  0.193141  1
  C  C7  1  0.750000  0.419300  0.806859  1
  C  C8  1  0.250000  0.895816  0.305928  1
  C  C9  1  0.750000  0.203008  0.903079  1
  C  C10  1  0.250000  0.796992  0.096921  1
  C  C11  1  0.750000  0.315703  0.588954  1
  O  O12  1  0.250000  0.614776  0.599664  1
  O  O13  1  0.750000  0.385224  0.400336  1
  O  O14  1  0.250000  0.392925  0.119713  1
  O  O15  1  0.750000  0.607075  0.880287  1
  O  O16  1  0.750000  0.911188  0.615935  1
  O  O17  1  0.750000  0.122137  0.094380  1
  O  O18  1  0.250000  0.877863  0.905620  1
  O  O19  1  0.250000  0.088812  0.384065  1
