# generated using pymatgen
data_Mn4Be3Ge3SO12
_symmetry_space_group_name_H-M   'P 1'
_cell_length_a   8.55732931
_cell_length_b   8.55732931
_cell_length_c   8.55732931
_cell_angle_alpha   90.00000000
_cell_angle_beta   90.00000000
_cell_angle_gamma   90.00000000
_symmetry_Int_Tables_number   1
_chemical_formula_structural   Mn4Be3Ge3SO12
_chemical_formula_sum   'Mn8 Be6 Ge6 S2 O24'
_cell_volume   626.63512593
_cell_formula_units_Z   2
loop_
 _symmetry_equiv_pos_site_id
 _symmetry_equiv_pos_as_xyz
  1  'x, y, z'
loop_
 _atom_site_type_symbol
 _atom_site_label
 _atom_site_symmetry_multiplicity
 _atom_site_fract_x
 _atom_site_fract_y
 _atom_site_fract_z
 _atom_site_occupancy
  Be  Be0  1  0.250000  0.500000  0.000000  1
  Be  Be1  1  0.500000  0.000000  0.750000  1
  Be  Be2  1  0.500000  0.000000  0.250000  1
  Be  Be3  1  0.000000  0.250000  0.500000  1
  Be  Be4  1  0.000000  0.750000  0.500000  1
  Be  Be5  1  0.750000  0.500000  0.000000  1
  O  O6  1  0.634568  0.909029  0.645898  1
  O  O7  1  0.634568  0.090971  0.354102  1
  O  O8  1  0.909029  0.645898  0.634568  1
  O  O9  1  0.090971  0.645898  0.365432  1
  O  O10  1  0.645898  0.634568  0.909029  1
  O  O11  1  0.354102  0.365432  0.909029  1
  O  O12  1  0.865432  0.854102  0.409029  1
  O  O13  1  0.865432  0.145898  0.590971  1
  O  O14  1  0.134568  0.854102  0.590971  1
  O  O15  1  0.145898  0.590971  0.865432  1
  O  O16  1  0.590971  0.134568  0.854102  1
  O  O17  1  0.590971  0.865432  0.145898  1
  O  O18  1  0.854102  0.409029  0.865432  1
  O  O19  1  0.409029  0.865432  0.854102  1
  O  O20  1  0.134568  0.145898  0.409029  1
  O  O21  1  0.365432  0.909029  0.354102  1
  O  O22  1  0.365432  0.090971  0.645898  1
  O  O23  1  0.090971  0.354102  0.634568  1
  O  O24  1  0.909029  0.354102  0.365432  1
  O  O25  1  0.645898  0.365432  0.090971  1
  O  O26  1  0.354102  0.634568  0.090971  1
  O  O27  1  0.409029  0.134568  0.145898  1
  O  O28  1  0.145898  0.409029  0.134568  1
  O  O29  1  0.854102  0.590971  0.134568  1
  S  S30  1  0.500000  0.500000  0.500000  1
  S  S31  1  0.000000  0.000000  0.000000  1
  Mn  Mn32  1  0.832301  0.167699  0.832301  1
  Mn  Mn33  1  0.832301  0.832301  0.167699  1
  Mn  Mn34  1  0.167699  0.832301  0.832301  1
  Mn  Mn35  1  0.332301  0.332301  0.667699  1
  Mn  Mn36  1  0.332301  0.667699  0.332301  1
  Mn  Mn37  1  0.167699  0.167699  0.167699  1
  Mn  Mn38  1  0.667699  0.667699  0.667699  1
  Mn  Mn39  1  0.667699  0.332301  0.332301  1
  Ge  Ge40  1  0.500000  0.250000  0.000000  1
  Ge  Ge41  1  0.000000  0.500000  0.250000  1
  Ge  Ge42  1  0.000000  0.500000  0.750000  1
  Ge  Ge43  1  0.250000  0.000000  0.500000  1
  Ge  Ge44  1  0.500000  0.750000  0.000000  1
  Ge  Ge45  1  0.750000  0.000000  0.500000  1
