# generated using pymatgen
data_Nd3(BN2)2
_symmetry_space_group_name_H-M   'P 1'
_cell_length_a   3.55698781
_cell_length_b   6.30842824
_cell_length_c   6.52384919
_cell_angle_alpha   118.91352058
_cell_angle_beta   105.81988612
_cell_angle_gamma   90.00000002
_symmetry_Int_Tables_number   1
_chemical_formula_structural   Nd3(BN2)2
_chemical_formula_sum   'Nd3 B2 N4'
_cell_volume   121.76861765
_cell_formula_units_Z   1
loop_
 _symmetry_equiv_pos_site_id
 _symmetry_equiv_pos_as_xyz
  1  'x, y, z'
loop_
 _atom_site_type_symbol
 _atom_site_label
 _atom_site_symmetry_multiplicity
 _atom_site_fract_x
 _atom_site_fract_y
 _atom_site_fract_z
 _atom_site_occupancy
  B  B0  1  0.500000  0.356963  0.000000  1
  B  B1  1  0.500000  0.643037  1.000000  1
  N  N2  1  0.618956  0.362743  0.237912  1
  N  N3  1  0.618956  0.875169  0.237911  1
  N  N4  1  0.381044  0.124831  0.762089  1
  N  N5  1  0.381044  0.637257  0.762088  1
  Nd  Nd6  1  0.201828  0.701828  0.403656  1
  Nd  Nd7  1  0.798172  0.298172  0.596344  1
  Nd  Nd8  1  0.000000  0.000000  0.000000  1
