# generated using pymatgen
data_ReCl4O
_symmetry_space_group_name_H-M   'P 1'
_cell_length_a   6.15272501
_cell_length_b   13.56172610
_cell_length_c   18.34687770
_cell_angle_alpha   105.19971915
_cell_angle_beta   90.00000000
_cell_angle_gamma   90.00000000
_symmetry_Int_Tables_number   1
_chemical_formula_structural   ReCl4O
_chemical_formula_sum   'Re8 Cl32 O8'
_cell_volume   1477.33829239
_cell_formula_units_Z   8
loop_
 _symmetry_equiv_pos_site_id
 _symmetry_equiv_pos_as_xyz
  1  'x, y, z'
loop_
 _atom_site_type_symbol
 _atom_site_label
 _atom_site_symmetry_multiplicity
 _atom_site_fract_x
 _atom_site_fract_y
 _atom_site_fract_z
 _atom_site_occupancy
  O  O0  1  0.840664  0.968794  0.143554  1
  O  O1  1  0.280009  0.279645  0.600336  1
  O  O2  1  0.780009  0.220355  0.899664  1
  O  O3  1  0.719991  0.720355  0.399664  1
  O  O4  1  0.219991  0.779645  0.100336  1
  O  O5  1  0.659336  0.468794  0.643554  1
  O  O6  1  0.159336  0.031206  0.856446  1
  O  O7  1  0.340664  0.531206  0.356446  1
  Cl  Cl8  1  0.631983  0.671306  0.778021  1
  Cl  Cl9  1  0.872626  0.188673  0.111811  1
  Cl  Cl10  1  0.372626  0.311327  0.388189  1
  Cl  Cl11  1  0.127374  0.811327  0.888189  1
  Cl  Cl12  1  0.627374  0.688673  0.611811  1
  Cl  Cl13  1  0.868017  0.171306  0.278021  1
  Cl  Cl14  1  0.368017  0.328694  0.221979  1
  Cl  Cl15  1  0.131983  0.828694  0.721979  1
  Cl  Cl16  1  0.248859  0.565436  0.140980  1
  Cl  Cl17  1  0.748859  0.934564  0.359020  1
  Cl  Cl18  1  0.751141  0.434564  0.859020  1
  Cl  Cl19  1  0.251141  0.065436  0.640980  1
  Cl  Cl20  1  0.654538  0.716187  0.004920  1
  Cl  Cl21  1  0.154538  0.783813  0.495080  1
  Cl  Cl22  1  0.345462  0.283813  0.995080  1
  Cl  Cl23  1  0.845462  0.216187  0.504920  1
  Cl  Cl24  1  0.645812  0.713167  0.173833  1
  Cl  Cl25  1  0.145812  0.786833  0.326167  1
  Cl  Cl26  1  0.354188  0.286833  0.826167  1
  Cl  Cl27  1  0.854188  0.213167  0.673833  1
  Cl  Cl28  1  0.270440  0.041963  0.076282  1
  Cl  Cl29  1  0.770440  0.458037  0.423718  1
  Cl  Cl30  1  0.729560  0.958037  0.923718  1
  Cl  Cl31  1  0.229560  0.541963  0.576282  1
  Cl  Cl32  1  0.270895  0.028220  0.242921  1
  Cl  Cl33  1  0.770895  0.471780  0.257079  1
  Cl  Cl34  1  0.729105  0.971780  0.757079  1
  Cl  Cl35  1  0.229105  0.528220  0.742921  1
  Cl  Cl36  1  0.253287  0.570754  0.972053  1
  Cl  Cl37  1  0.753287  0.929246  0.527947  1
  Cl  Cl38  1  0.746713  0.429246  0.027947  1
  Cl  Cl39  1  0.246713  0.070754  0.472053  1
  Re  Re40  1  0.110347  0.178222  0.580355  1
  Re  Re41  1  0.610347  0.321778  0.919645  1
  Re  Re42  1  0.889653  0.821778  0.419645  1
  Re  Re43  1  0.389653  0.678222  0.080355  1
  Re  Re44  1  0.491001  0.570339  0.668148  1
  Re  Re45  1  0.991001  0.929661  0.831852  1
  Re  Re46  1  0.508999  0.429661  0.331852  1
  Re  Re47  1  0.008999  0.070339  0.168148  1
