# generated using pymatgen
data_Ba(PdS2)2
_symmetry_space_group_name_H-M   'P 1'
_cell_length_a   6.79121927
_cell_length_b   6.90163053
_cell_length_c   7.33041613
_cell_angle_alpha   90.00000000
_cell_angle_beta   110.12007776
_cell_angle_gamma   90.00000000
_symmetry_Int_Tables_number   1
_chemical_formula_structural   Ba(PdS2)2
_chemical_formula_sum   'Ba2 Pd4 S8'
_cell_volume   322.61276525
_cell_formula_units_Z   2
loop_
 _symmetry_equiv_pos_site_id
 _symmetry_equiv_pos_as_xyz
  1  'x, y, z'
loop_
 _atom_site_type_symbol
 _atom_site_label
 _atom_site_symmetry_multiplicity
 _atom_site_fract_x
 _atom_site_fract_y
 _atom_site_fract_z
 _atom_site_occupancy
  Pd  Pd0  1  0.000000  0.000000  0.000000  1
  Pd  Pd1  1  0.000000  0.500000  0.000000  1
  Pd  Pd2  1  0.517159  0.250000  0.010425  1
  Pd  Pd3  1  0.482841  0.750000  0.989575  1
  Ba  Ba4  1  0.717339  0.750000  0.507144  1
  Ba  Ba5  1  0.282661  0.250000  0.492856  1
  S  S6  1  0.631688  0.504697  0.857053  1
  S  S7  1  0.368312  0.004697  0.142947  1
  S  S8  1  0.368312  0.495303  0.142947  1
  S  S9  1  0.631688  0.995303  0.857053  1
  S  S10  1  0.974165  0.750000  0.210737  1
  S  S11  1  0.025835  0.250000  0.789263  1
  S  S12  1  0.795548  0.250000  0.512601  1
  S  S13  1  0.204452  0.750000  0.487399  1
