# generated using pymatgen
data_SiP3H29C10BrN
_symmetry_space_group_name_H-M   'P 1'
_cell_length_a   11.26573635
_cell_length_b   11.95919982
_cell_length_c   15.37697605
_cell_angle_alpha   101.50706924
_cell_angle_beta   90.00000000
_cell_angle_gamma   90.00000000
_symmetry_Int_Tables_number   1
_chemical_formula_structural   SiP3H29C10BrN
_chemical_formula_sum   'Si4 P12 H116 C40 Br4 N4'
_cell_volume   2030.08604229
_cell_formula_units_Z   4
loop_
 _symmetry_equiv_pos_site_id
 _symmetry_equiv_pos_as_xyz
  1  'x, y, z'
loop_
 _atom_site_type_symbol
 _atom_site_label
 _atom_site_symmetry_multiplicity
 _atom_site_fract_x
 _atom_site_fract_y
 _atom_site_fract_z
 _atom_site_occupancy
  H  H0  1  0.475241  0.591532  0.978622  1
  H  H1  1  0.975241  0.908468  0.021378  1
  H  H2  1  0.524759  0.408468  0.021378  1
  H  H3  1  0.024759  0.091532  0.978622  1
  H  H4  1  0.595720  0.659287  0.934956  1
  H  H5  1  0.095720  0.840713  0.065044  1
  H  H6  1  0.404280  0.340713  0.065044  1
  H  H7  1  0.904280  0.159287  0.934956  1
  H  H8  1  0.504536  0.560452  0.863176  1
  H  H9  1  0.004536  0.939548  0.136824  1
  H  H10  1  0.495464  0.439548  0.136824  1
  H  H11  1  0.995464  0.060452  0.863176  1
  H  H12  1  0.217828  0.642337  0.939016  1
  H  H13  1  0.717828  0.857663  0.060984  1
  H  H14  1  0.782172  0.357663  0.060984  1
  H  H15  1  0.282172  0.142337  0.939016  1
  H  H16  1  0.249967  0.617259  0.823678  1
  H  H17  1  0.749967  0.882741  0.176322  1
  H  H18  1  0.750033  0.382741  0.176322  1
  H  H19  1  0.250033  0.117259  0.823678  1
  H  H20  1  0.180788  0.747099  0.876350  1
  H  H21  1  0.680788  0.752901  0.123650  1
  H  H22  1  0.819212  0.252901  0.123650  1
  H  H23  1  0.319212  0.247099  0.876350  1
  H  H24  1  0.484925  0.895080  0.031275  1
  H  H25  1  0.984925  0.604920  0.968725  1
  H  H26  1  0.515075  0.104920  0.968725  1
  H  H27  1  0.015075  0.395080  0.031275  1
  H  H28  1  0.931620  0.172823  0.476159  1
  H  H29  1  0.431620  0.327177  0.523841  1
  H  H30  1  0.068380  0.827177  0.523841  1
  H  H31  1  0.568380  0.672823  0.476159  1
  H  H32  1  0.085037  0.198763  0.506237  1
  H  H33  1  0.585037  0.301237  0.493763  1
  H  H34  1  0.914963  0.801237  0.493763  1
  H  H35  1  0.414963  0.698763  0.506237  1
  H  H36  1  0.983985  0.317412  0.507232  1
  H  H37  1  0.483985  0.182588  0.492768  1
  H  H38  1  0.016015  0.682588  0.492768  1
  H  H39  1  0.516015  0.817412  0.507232  1
  H  H40  1  0.365675  0.821663  0.071103  1
  H  H41  1  0.865675  0.678337  0.928897  1
  H  H42  1  0.634325  0.178337  0.928897  1
  H  H43  1  0.134325  0.321663  0.071103  1
  H  H44  1  0.757107  0.204330  0.594482  1
  H  H45  1  0.257107  0.295670  0.405518  1
  H  H46  1  0.242893  0.795670  0.405518  1
  H  H47  1  0.742893  0.704330  0.594482  1
  H  H48  1  0.789233  0.352008  0.634703  1
  H  H49  1  0.289233  0.147992  0.365297  1
  H  H50  1  0.210767  0.647992  0.365297  1
  H  H51  1  0.710767  0.852008  0.634703  1
  H  H52  1  0.336119  0.928526  0.009016  1
  H  H53  1  0.836119  0.571474  0.990984  1
  H  H54  1  0.663881  0.071474  0.990984  1
  H  H55  1  0.163881  0.428526  0.009016  1
  H  H56  1  0.282827  0.363461  0.727975  1
  H  H57  1  0.782827  0.136539  0.272025  1
  H  H58  1  0.717173  0.636539  0.272025  1
  H  H59  1  0.217173  0.863461  0.727975  1
  H  H60  1  0.221540  0.349284  0.619099  1
  H  H61  1  0.721540  0.150716  0.380901  1
  H  H62  1  0.778460  0.650716  0.380901  1
  H  H63  1  0.278460  0.849284  0.619099  1
  H  H64  1  0.243058  0.224500  0.666909  1
  H  H65  1  0.743058  0.275500  0.333091  1
  H  H66  1  0.756942  0.775500  0.333091  1
  H  H67  1  0.256942  0.724500  0.666909  1
  H  H68  1  0.452648  0.990374  0.649705  1
  H  H69  1  0.952648  0.509626  0.350295  1
  H  H70  1  0.547352  0.009626  0.350295  1
  H  H71  1  0.047352  0.490374  0.649705  1
  H  H72  1  0.700488  0.378902  0.890836  1
  H  H73  1  0.200488  0.121098  0.109164  1
  H  H74  1  0.299512  0.621098  0.109164  1
  H  H75  1  0.799512  0.878902  0.890836  1
  H  H76  1  0.720444  0.454437  0.802812  1
  H  H77  1  0.220444  0.045563  0.197188  1
  H  H78  1  0.279556  0.545563  0.197188  1
  H  H79  1  0.779556  0.954437  0.802812  1
  H  H80  1  0.844885  0.389603  0.847106  1
  H  H81  1  0.344885  0.110397  0.152894  1
  H  H82  1  0.155115  0.610397  0.152894  1
  H  H83  1  0.655115  0.889603  0.847106  1
  H  H84  1  0.565163  0.994588  0.734351  1
  H  H85  1  0.065163  0.505412  0.265649  1
  H  H86  1  0.434837  0.005412  0.265649  1
  H  H87  1  0.934837  0.494588  0.734351  1
  H  H88  1  0.512421  0.259898  0.773859  1
  H  H89  1  0.012421  0.240102  0.226141  1
  H  H90  1  0.487579  0.740102  0.226141  1
  H  H91  1  0.987579  0.759898  0.773859  1
  H  H92  1  0.546921  0.197705  0.661848  1
  H  H93  1  0.046921  0.302295  0.338152  1
  H  H94  1  0.453079  0.802295  0.338152  1
  H  H95  1  0.953079  0.697705  0.661848  1
  H  H96  1  0.560105  0.348948  0.699934  1
  H  H97  1  0.060105  0.151052  0.300066  1
  H  H98  1  0.439895  0.651052  0.300066  1
  H  H99  1  0.939895  0.848948  0.699934  1
  H  H100  1  0.418093  0.041755  0.764400  1
  H  H101  1  0.918093  0.458245  0.235600  1
  H  H102  1  0.581907  0.958245  0.235600  1
  H  H103  1  0.081907  0.541755  0.764400  1
  H  H104  1  0.914646  0.028098  0.604281  1
  H  H105  1  0.414646  0.471902  0.395719  1
  H  H106  1  0.085354  0.971902  0.395719  1
  H  H107  1  0.585354  0.528098  0.604281  1
  H  H108  1  0.958185  0.079594  0.718206  1
  H  H109  1  0.458185  0.420406  0.281794  1
  H  H110  1  0.041815  0.920406  0.281794  1
  H  H111  1  0.541815  0.579594  0.718206  1
  H  H112  1  0.069470  0.056785  0.630856  1
  H  H113  1  0.569470  0.443215  0.369144  1
  H  H114  1  0.930530  0.943215  0.369144  1
  H  H115  1  0.430530  0.556785  0.630856  1
  C  C116  1  0.028958  0.479557  0.717904  1
  C  C117  1  0.528958  0.020443  0.282096  1
  C  C118  1  0.971042  0.520443  0.282096  1
  C  C119  1  0.471042  0.979557  0.717904  1
  C  C120  1  0.522589  0.582846  0.648846  1
  C  C121  1  0.022589  0.917154  0.351154  1
  C  C122  1  0.477411  0.417154  0.351154  1
  C  C123  1  0.977411  0.082846  0.648846  1
  C  C124  1  0.927995  0.765313  0.718211  1
  C  C125  1  0.427995  0.734687  0.281789  1
  C  C126  1  0.072005  0.234687  0.281789  1
  C  C127  1  0.572005  0.265313  0.718211  1
  C  C128  1  0.749635  0.880487  0.829589  1
  C  C129  1  0.249635  0.619513  0.170411  1
  C  C130  1  0.250365  0.119513  0.170411  1
  C  C131  1  0.750365  0.380487  0.829589  1
  C  C132  1  0.996149  0.129462  0.922423  1
  C  C133  1  0.603545  0.141946  0.985294  1
  C  C134  1  0.896455  0.641946  0.985294  1
  C  C135  1  0.396455  0.858054  0.014706  1
  C  C136  1  0.281083  0.815365  0.680700  1
  C  C137  1  0.781083  0.684635  0.319300  1
  C  C138  1  0.718917  0.184635  0.319300  1
  C  C139  1  0.218917  0.315365  0.680700  1
  C  C140  1  0.699284  0.765638  0.648818  1
  C  C141  1  0.199284  0.734362  0.351182  1
  C  C142  1  0.300716  0.234362  0.351182  1
  C  C143  1  0.800716  0.265638  0.648818  1
  C  C144  1  0.506355  0.730165  0.518935  1
  C  C145  1  0.006355  0.769835  0.481065  1
  C  C146  1  0.493645  0.269835  0.481065  1
  C  C147  1  0.993645  0.230165  0.518935  1
  C  C148  1  0.252165  0.183266  0.884799  1
  C  C149  1  0.752165  0.316734  0.115201  1
  C  C150  1  0.747835  0.816734  0.115201  1
  C  C151  1  0.247835  0.683266  0.884799  1
  C  C152  1  0.503851  0.629462  0.922423  1
  C  C153  1  0.003851  0.870538  0.077577  1
  C  C154  1  0.496149  0.370538  0.077577  1
  C  C155  1  0.103545  0.358054  0.014706  1
  N  N156  1  0.552235  0.186484  0.174995  1
  N  N157  1  0.447765  0.813516  0.825005  1
  N  N158  1  0.947765  0.686484  0.174995  1
  N  N159  1  0.052235  0.313516  0.825005  1
  Si  Si160  1  0.400262  0.748541  0.908256  1
  Si  Si161  1  0.099738  0.248541  0.908256  1
  Si  Si162  1  0.900262  0.751459  0.091744  1
  Si  Si163  1  0.599738  0.251459  0.091744  1
  P  P164  1  0.073513  0.339116  0.731797  1
  P  P165  1  0.544434  0.726154  0.632232  1
  P  P166  1  0.955566  0.226154  0.632232  1
  P  P167  1  0.455566  0.273846  0.367768  1
  P  P168  1  0.044434  0.773846  0.367768  1
  P  P169  1  0.273937  0.757145  0.247189  1
  P  P170  1  0.226063  0.257145  0.247189  1
  P  P171  1  0.726063  0.242855  0.752811  1
  P  P172  1  0.426487  0.839116  0.731797  1
  P  P173  1  0.926487  0.660884  0.268203  1
  P  P174  1  0.573513  0.160884  0.268203  1
  P  P175  1  0.773937  0.742855  0.752811  1
  Br  Br176  1  0.726548  0.986476  0.487617  1
  Br  Br177  1  0.226548  0.513524  0.512383  1
  Br  Br178  1  0.273452  0.013524  0.512383  1
  Br  Br179  1  0.773452  0.486476  0.487617  1
