# generated using pymatgen
data_NiH4SeO5
_symmetry_space_group_name_H-M   'P 1'
_cell_length_a   6.49624497
_cell_length_b   7.64633455
_cell_length_c   8.83709281
_cell_angle_alpha   90.00000000
_cell_angle_beta   90.00000000
_cell_angle_gamma   99.66424763
_symmetry_Int_Tables_number   1
_chemical_formula_structural   NiH4SeO5
_chemical_formula_sum   'Ni4 H16 Se4 O20'
_cell_volume   432.73061869
_cell_formula_units_Z   4
loop_
 _symmetry_equiv_pos_site_id
 _symmetry_equiv_pos_as_xyz
  1  'x, y, z'
loop_
 _atom_site_type_symbol
 _atom_site_label
 _atom_site_symmetry_multiplicity
 _atom_site_fract_x
 _atom_site_fract_y
 _atom_site_fract_z
 _atom_site_occupancy
  H  H0  1  0.932192  0.858324  0.364728  1
  H  H1  1  0.567808  0.641676  0.864728  1
  H  H2  1  0.067808  0.141676  0.635272  1
  H  H3  1  0.432192  0.358324  0.135272  1
  H  H4  1  0.171583  0.868764  0.421873  1
  H  H5  1  0.328417  0.631236  0.921873  1
  H  H6  1  0.828417  0.131236  0.578127  1
  H  H7  1  0.671583  0.368764  0.078127  1
  H  H8  1  0.943347  0.371694  0.853205  1
  H  H9  1  0.556653  0.128306  0.353206  1
  H  H10  1  0.008564  0.706809  0.983031  1
  H  H11  1  0.491436  0.793191  0.483031  1
  H  H12  1  0.991436  0.293191  0.016969  1
  H  H13  1  0.508564  0.206809  0.516969  1
  H  H14  1  0.056653  0.628306  0.146794  1
  H  H15  1  0.443347  0.871694  0.646795  1
  O  O16  1  0.828607  0.966507  0.091327  1
  O  O17  1  0.540587  0.997333  0.795805  1
  O  O18  1  0.459413  0.002667  0.204195  1
  O  O19  1  0.040587  0.497333  0.704195  1
  O  O20  1  0.617432  0.210966  0.436818  1
  O  O21  1  0.882568  0.289034  0.936818  1
  O  O22  1  0.382568  0.789034  0.563182  1
  O  O23  1  0.117432  0.710966  0.063182  1
  O  O24  1  0.577724  0.425609  0.141998  1
  O  O25  1  0.922276  0.074391  0.641998  1
  O  O26  1  0.422276  0.574391  0.858002  1
  O  O27  1  0.077724  0.925609  0.358002  1
  O  O28  1  0.171393  0.033493  0.908673  1
  O  O29  1  0.328607  0.466507  0.408673  1
  O  O30  1  0.825938  0.734097  0.830550  1
  O  O31  1  0.674062  0.765903  0.330550  1
  O  O32  1  0.174062  0.265903  0.169450  1
  O  O33  1  0.325938  0.234097  0.669450  1
  O  O34  1  0.959413  0.502667  0.295805  1
  O  O35  1  0.671393  0.533493  0.591327  1
  Ni  Ni36  1  0.649087  0.481930  0.362043  1
  Ni  Ni37  1  0.850913  0.018070  0.862043  1
  Ni  Ni38  1  0.350913  0.518070  0.637957  1
  Ni  Ni39  1  0.149087  0.981930  0.137957  1
  Se  Se40  1  0.402072  0.162657  0.845042  1
  Se  Se41  1  0.097928  0.337343  0.345042  1
  Se  Se42  1  0.597928  0.837343  0.154958  1
  Se  Se43  1  0.902072  0.662657  0.654958  1
