# generated using pymatgen
data_SrC20
_symmetry_space_group_name_H-M   'P 1'
_cell_length_a   11.20754573
_cell_length_b   11.20754573
_cell_length_c   11.20754573
_cell_angle_alpha   90.00000000
_cell_angle_beta   90.00000000
_cell_angle_gamma   90.00000000
_symmetry_Int_Tables_number   1
_chemical_formula_structural   SrC20
_chemical_formula_sum   'Sr6 C120'
_cell_volume   1407.76952266
_cell_formula_units_Z   6
loop_
 _symmetry_equiv_pos_site_id
 _symmetry_equiv_pos_as_xyz
  1  'x, y, z'
loop_
 _atom_site_type_symbol
 _atom_site_label
 _atom_site_symmetry_multiplicity
 _atom_site_fract_x
 _atom_site_fract_y
 _atom_site_fract_z
 _atom_site_occupancy
  C  C0  1  0.063721  0.000000  0.311528  1
  C  C1  1  0.311528  0.063721  0.000000  1
  C  C2  1  0.000000  0.311528  0.063721  1
  C  C3  1  0.000000  0.688472  0.063721  1
  C  C4  1  0.311528  0.936279  0.000000  1
  C  C5  1  0.000000  0.311528  0.936279  1
  C  C6  1  0.688472  0.936279  0.000000  1
  C  C7  1  0.688472  0.063721  0.000000  1
  C  C8  1  0.000000  0.688472  0.936279  1
  C  C9  1  0.063721  0.000000  0.688472  1
  C  C10  1  0.936279  0.000000  0.688472  1
  C  C11  1  0.936279  0.000000  0.311528  1
  C  C12  1  0.127996  0.104302  0.271708  1
  C  C13  1  0.271708  0.127996  0.104302  1
  C  C14  1  0.104302  0.271708  0.127996  1
  C  C15  1  0.895698  0.728292  0.127996  1
  C  C16  1  0.271708  0.872004  0.895698  1
  C  C17  1  0.895698  0.271708  0.872004  1
  C  C18  1  0.728292  0.872004  0.104302  1
  C  C19  1  0.728292  0.127996  0.895698  1
  C  C20  1  0.104302  0.728292  0.872004  1
  C  C21  1  0.127996  0.895698  0.728292  1
  C  C22  1  0.872004  0.104302  0.728292  1
  C  C23  1  0.872004  0.895698  0.271708  1
  C  C24  1  0.872004  0.895698  0.728292  1
  C  C25  1  0.728292  0.872004  0.895698  1
  C  C26  1  0.895698  0.728292  0.872004  1
  C  C27  1  0.104302  0.271708  0.872004  1
  C  C28  1  0.728292  0.127996  0.104302  1
  C  C29  1  0.104302  0.728292  0.127996  1
  C  C30  1  0.271708  0.127996  0.895698  1
  C  C31  1  0.271708  0.872004  0.104302  1
  C  C32  1  0.895698  0.271708  0.127996  1
  C  C33  1  0.872004  0.104302  0.271708  1
  C  C34  1  0.127996  0.895698  0.271708  1
  C  C35  1  0.127996  0.104302  0.728292  1
  C  C36  1  0.064476  0.206900  0.232117  1
  C  C37  1  0.232117  0.064476  0.206900  1
  C  C38  1  0.206900  0.232117  0.064476  1
  C  C39  1  0.793100  0.767883  0.064476  1
  C  C40  1  0.232117  0.935524  0.793100  1
  C  C41  1  0.793100  0.232117  0.935524  1
  C  C42  1  0.767883  0.935524  0.206900  1
  C  C43  1  0.767883  0.064476  0.793100  1
  C  C44  1  0.206900  0.767883  0.935524  1
  C  C45  1  0.064476  0.793100  0.767883  1
  C  C46  1  0.935524  0.206900  0.767883  1
  C  C47  1  0.935524  0.793100  0.232117  1
  C  C48  1  0.935524  0.793100  0.767883  1
  C  C49  1  0.767883  0.935524  0.793100  1
  C  C50  1  0.793100  0.767883  0.935524  1
  C  C51  1  0.206900  0.232117  0.935524  1
  C  C52  1  0.767883  0.064476  0.206900  1
  C  C53  1  0.206900  0.767883  0.064476  1
  C  C54  1  0.232117  0.064476  0.793100  1
  C  C55  1  0.232117  0.935524  0.206900  1
  C  C56  1  0.793100  0.232117  0.064476  1
  C  C57  1  0.935524  0.206900  0.232117  1
  C  C58  1  0.064476  0.793100  0.232117  1
  C  C59  1  0.064476  0.206900  0.767883  1
  C  C60  1  0.563842  0.500000  0.813279  1
  C  C61  1  0.813279  0.563842  0.500000  1
  C  C62  1  0.500000  0.813279  0.563842  1
  C  C63  1  0.500000  0.186721  0.563842  1
  C  C64  1  0.813279  0.436158  0.500000  1
  C  C65  1  0.500000  0.813279  0.436158  1
  C  C66  1  0.186721  0.436158  0.500000  1
  C  C67  1  0.186721  0.563842  0.500000  1
  C  C68  1  0.500000  0.186721  0.436158  1
  C  C69  1  0.563842  0.500000  0.186721  1
  C  C70  1  0.436158  0.500000  0.186721  1
  C  C71  1  0.436158  0.500000  0.813279  1
  C  C72  1  0.628016  0.604395  0.771922  1
  C  C73  1  0.771922  0.628016  0.604395  1
  C  C74  1  0.604395  0.771922  0.628016  1
  C  C75  1  0.395605  0.228078  0.628016  1
  C  C76  1  0.771922  0.371984  0.395605  1
  C  C77  1  0.395605  0.771922  0.371984  1
  C  C78  1  0.228078  0.371984  0.604395  1
  C  C79  1  0.228078  0.628016  0.395605  1
  C  C80  1  0.604395  0.228078  0.371984  1
  C  C81  1  0.628016  0.395605  0.228078  1
  C  C82  1  0.371984  0.604395  0.228078  1
  C  C83  1  0.371984  0.395605  0.771922  1
  C  C84  1  0.371984  0.395605  0.228078  1
  C  C85  1  0.228078  0.371984  0.395605  1
  C  C86  1  0.395605  0.228078  0.371984  1
  C  C87  1  0.604395  0.771922  0.371984  1
  C  C88  1  0.228078  0.628016  0.604395  1
  C  C89  1  0.604395  0.228078  0.628016  1
  C  C90  1  0.771922  0.628016  0.395605  1
  C  C91  1  0.771922  0.371984  0.604395  1
  C  C92  1  0.395605  0.771922  0.628016  1
  C  C93  1  0.371984  0.604395  0.771922  1
  C  C94  1  0.628016  0.395605  0.771922  1
  C  C95  1  0.628016  0.604395  0.228078  1
  C  C96  1  0.564164  0.706579  0.731637  1
  C  C97  1  0.731637  0.564164  0.706579  1
  C  C98  1  0.706579  0.731637  0.564164  1
  C  C99  1  0.293421  0.268363  0.564164  1
  C  C100  1  0.731637  0.435836  0.293421  1
  C  C101  1  0.293421  0.731637  0.435836  1
  C  C102  1  0.268363  0.435836  0.706579  1
  C  C103  1  0.268363  0.564164  0.293421  1
  C  C104  1  0.706579  0.268363  0.435836  1
  C  C105  1  0.564164  0.293421  0.268363  1
  C  C106  1  0.435836  0.706579  0.268363  1
  C  C107  1  0.435836  0.293421  0.731637  1
  C  C108  1  0.435836  0.293421  0.268363  1
  C  C109  1  0.268363  0.435836  0.293421  1
  C  C110  1  0.293421  0.268363  0.435836  1
  C  C111  1  0.706579  0.731637  0.435836  1
  C  C112  1  0.268363  0.564164  0.706579  1
  C  C113  1  0.706579  0.268363  0.564164  1
  C  C114  1  0.731637  0.564164  0.293421  1
  C  C115  1  0.731637  0.435836  0.706579  1
  C  C116  1  0.293421  0.731637  0.564164  1
  C  C117  1  0.435836  0.706579  0.731637  1
  C  C118  1  0.564164  0.293421  0.731637  1
  C  C119  1  0.564164  0.706579  0.268363  1
  Sr  Sr120  1  0.000000  0.242559  0.500000  1
  Sr  Sr121  1  0.500000  0.000000  0.242559  1
  Sr  Sr122  1  0.242559  0.500000  0.000000  1
  Sr  Sr123  1  0.757441  0.500000  0.000000  1
  Sr  Sr124  1  0.500000  0.000000  0.757441  1
  Sr  Sr125  1  0.000000  0.757441  0.500000  1
