# generated using pymatgen
data_Nb3FeS6
_symmetry_space_group_name_H-M   'P 1'
_cell_length_a   5.82377134
_cell_length_b   5.82377134
_cell_length_c   12.14979494
_cell_angle_alpha   90.00000000
_cell_angle_beta   90.00000000
_cell_angle_gamma   119.99999998
_symmetry_Int_Tables_number   1
_chemical_formula_structural   Nb3FeS6
_chemical_formula_sum   'Nb6 Fe2 S12'
_cell_volume   356.86849540
_cell_formula_units_Z   2
loop_
 _symmetry_equiv_pos_site_id
 _symmetry_equiv_pos_as_xyz
  1  'x, y, z'
loop_
 _atom_site_type_symbol
 _atom_site_label
 _atom_site_symmetry_multiplicity
 _atom_site_fract_x
 _atom_site_fract_y
 _atom_site_fract_z
 _atom_site_occupancy
  S  S0  1  0.332407  0.332804  0.129516  1
  S  S1  1  0.667196  0.999603  0.129516  1
  S  S2  1  0.000397  0.667593  0.129516  1
  S  S3  1  0.999603  0.332407  0.629516  1
  S  S4  1  0.667593  0.000397  0.870484  1
  S  S5  1  0.667593  0.667196  0.629516  1
  S  S6  1  0.332804  0.000397  0.629516  1
  S  S7  1  0.667196  0.667593  0.370484  1
  S  S8  1  0.332407  0.999603  0.370484  1
  S  S9  1  0.332804  0.332407  0.870484  1
  S  S10  1  0.999603  0.667196  0.870484  1
  S  S11  1  0.000397  0.332804  0.370484  1
  Fe  Fe12  1  0.333333  0.666667  0.250000  1
  Fe  Fe13  1  0.666667  0.333333  0.750000  1
  Nb  Nb14  1  0.666667  0.333333  0.498315  1
  Nb  Nb15  1  0.333333  0.666667  0.998315  1
  Nb  Nb16  1  0.000000  0.000000  0.500000  1
  Nb  Nb17  1  0.000000  0.000000  0.000000  1
  Nb  Nb18  1  0.666667  0.333333  0.001685  1
  Nb  Nb19  1  0.333333  0.666667  0.501685  1
