# generated using pymatgen
data_Li2Ta3N5
_symmetry_space_group_name_H-M   'P 1'
_cell_length_a   4.22610712
_cell_length_b   5.36660628
_cell_length_c   9.69119662
_cell_angle_alpha   90.87743049
_cell_angle_beta   90.00000000
_cell_angle_gamma   113.18748398
_symmetry_Int_Tables_number   1
_chemical_formula_structural   Li2Ta3N5
_chemical_formula_sum   'Li4 Ta6 N10'
_cell_volume   202.01214515
_cell_formula_units_Z   2
loop_
 _symmetry_equiv_pos_site_id
 _symmetry_equiv_pos_as_xyz
  1  'x, y, z'
loop_
 _atom_site_type_symbol
 _atom_site_label
 _atom_site_symmetry_multiplicity
 _atom_site_fract_x
 _atom_site_fract_y
 _atom_site_fract_z
 _atom_site_occupancy
  Li  Li0  1  0.353305  0.706611  0.451646  1
  Li  Li1  1  0.543715  0.087431  0.847033  1
  Li  Li2  1  0.456285  0.912569  0.152967  1
  Li  Li3  1  0.646695  0.293389  0.548354  1
  N  N4  1  0.432543  0.865086  0.655971  1
  N  N5  1  0.567457  0.134914  0.344029  1
  N  N6  1  0.139173  0.278347  0.553336  1
  N  N7  1  0.953645  0.907291  0.152793  1
  N  N8  1  0.046355  0.092709  0.847207  1
  N  N9  1  0.860827  0.721653  0.446664  1
  N  N10  1  0.653932  0.307864  0.049457  1
  N  N11  1  0.346068  0.692136  0.950543  1
  N  N12  1  0.250542  0.501084  0.250505  1
  N  N13  1  0.749458  0.498916  0.749495  1
  Ta  Ta14  1  0.945099  0.890198  0.643735  1
  Ta  Ta15  1  0.054901  0.109802  0.356265  1
  Ta  Ta16  1  0.237420  0.474840  0.744109  1
  Ta  Ta17  1  0.762580  0.525160  0.255891  1
  Ta  Ta18  1  0.856751  0.713502  0.952508  1
  Ta  Ta19  1  0.143249  0.286498  0.047492  1
