# generated using pymatgen
data_Rb2(NbCl3)3
_symmetry_space_group_name_H-M   'P 1'
_cell_length_a   9.93123404
_cell_length_b   10.07832232
_cell_length_c   10.07832232
_cell_angle_alpha   115.87767122
_cell_angle_beta   103.62010365
_cell_angle_gamma   103.62010368
_symmetry_Int_Tables_number   1
_chemical_formula_structural   Rb2(NbCl3)3
_chemical_formula_sum   'Rb4 Nb6 Cl18'
_cell_volume   813.39897129
_cell_formula_units_Z   2
loop_
 _symmetry_equiv_pos_site_id
 _symmetry_equiv_pos_as_xyz
  1  'x, y, z'
loop_
 _atom_site_type_symbol
 _atom_site_label
 _atom_site_symmetry_multiplicity
 _atom_site_fract_x
 _atom_site_fract_y
 _atom_site_fract_z
 _atom_site_occupancy
  Cl  Cl0  1  0.207376  0.744316  0.744316  1
  Cl  Cl1  1  0.792624  0.255684  0.255684  1
  Cl  Cl2  1  0.824232  0.815789  0.815789  1
  Cl  Cl3  1  0.175768  0.184211  0.184211  1
  Cl  Cl4  1  0.491961  0.113540  0.318694  1
  Cl  Cl5  1  0.508039  0.681306  0.886460  1
  Cl  Cl6  1  0.508039  0.886460  0.681306  1
  Cl  Cl7  1  0.491961  0.318694  0.113540  1
  Cl  Cl8  1  0.500000  0.296187  0.703813  1
  Cl  Cl9  1  0.500000  0.703813  0.296187  1
  Cl  Cl10  1  0.814794  0.427542  0.631356  1
  Cl  Cl11  1  0.185206  0.368644  0.572458  1
  Cl  Cl12  1  0.185206  0.572458  0.368644  1
  Cl  Cl13  1  0.814794  0.631356  0.427542  1
  Cl  Cl14  1  0.184387  0.392945  0.002904  1
  Cl  Cl15  1  0.815613  0.997096  0.607055  1
  Cl  Cl16  1  0.815613  0.607055  0.997096  1
  Cl  Cl17  1  0.184387  0.002904  0.392945  1
  Rb  Rb18  1  0.179471  0.052692  0.735172  1
  Rb  Rb19  1  0.820529  0.264828  0.947308  1
  Rb  Rb20  1  0.820529  0.947308  0.264828  1
  Rb  Rb21  1  0.179471  0.735172  0.052692  1
  Nb  Nb22  1  0.368591  0.608410  0.608410  1
  Nb  Nb23  1  0.631409  0.391590  0.391590  1
  Nb  Nb24  1  0.362017  0.453128  0.280570  1
  Nb  Nb25  1  0.637983  0.719430  0.546872  1
  Nb  Nb26  1  0.637983  0.546872  0.719430  1
  Nb  Nb27  1  0.362017  0.280570  0.453128  1
