# generated using pymatgen
data_Na3MgC2ClO6
_symmetry_space_group_name_H-M   'P 1'
_cell_length_a   10.02898367
_cell_length_b   10.02898366
_cell_length_c   10.02898366
_cell_angle_alpha   60.00000001
_cell_angle_beta   60.00000002
_cell_angle_gamma   60.00000000
_symmetry_Int_Tables_number   1
_chemical_formula_structural   Na3MgC2ClO6
_chemical_formula_sum   'Na12 Mg4 C8 Cl4 O24'
_cell_volume   713.27298201
_cell_formula_units_Z   4
loop_
 _symmetry_equiv_pos_site_id
 _symmetry_equiv_pos_as_xyz
  1  'x, y, z'
loop_
 _atom_site_type_symbol
 _atom_site_label
 _atom_site_symmetry_multiplicity
 _atom_site_fract_x
 _atom_site_fract_y
 _atom_site_fract_z
 _atom_site_occupancy
  C  C0  1  0.716642  0.716642  0.350074  1
  C  C1  1  0.716642  0.350074  0.716642  1
  C  C2  1  0.350074  0.716642  0.716642  1
  C  C3  1  0.716642  0.716642  0.716642  1
  C  C4  1  0.283358  0.283358  0.649926  1
  C  C5  1  0.283358  0.649926  0.283358  1
  C  C6  1  0.649926  0.283358  0.283358  1
  C  C7  1  0.283358  0.283358  0.283358  1
  O  O8  1  0.608904  0.348158  0.860677  1
  O  O9  1  0.348158  0.608904  0.682261  1
  O  O10  1  0.860677  0.608904  0.348158  1
  O  O11  1  0.682261  0.860677  0.348158  1
  O  O12  1  0.682261  0.348158  0.608904  1
  O  O13  1  0.860677  0.348158  0.682261  1
  O  O14  1  0.348158  0.860677  0.608904  1
  O  O15  1  0.608904  0.682261  0.348158  1
  O  O16  1  0.860677  0.682261  0.608904  1
  O  O17  1  0.682261  0.608904  0.860677  1
  O  O18  1  0.391096  0.317739  0.651842  1
  O  O19  1  0.651842  0.139323  0.391096  1
  O  O20  1  0.139323  0.651842  0.317739  1
  O  O21  1  0.651842  0.317739  0.139323  1
  O  O22  1  0.317739  0.651842  0.391096  1
  O  O23  1  0.317739  0.139323  0.651842  1
  O  O24  1  0.139323  0.391096  0.651842  1
  O  O25  1  0.651842  0.391096  0.317739  1
  O  O26  1  0.608904  0.860677  0.682261  1
  O  O27  1  0.391096  0.651842  0.139323  1
  O  O28  1  0.317739  0.391096  0.139323  1
  O  O29  1  0.139323  0.317739  0.391096  1
  O  O30  1  0.391096  0.139323  0.317739  1
  O  O31  1  0.348158  0.682261  0.860677  1
  Na  Na32  1  0.899631  0.350369  0.350369  1
  Na  Na33  1  0.350369  0.350369  0.899631  1
  Na  Na34  1  0.899631  0.899631  0.350369  1
  Na  Na35  1  0.899631  0.350369  0.899631  1
  Na  Na36  1  0.350369  0.899631  0.899631  1
  Na  Na37  1  0.649631  0.100369  0.649631  1
  Na  Na38  1  0.649631  0.649631  0.100369  1
  Na  Na39  1  0.100369  0.100369  0.649631  1
  Na  Na40  1  0.100369  0.649631  0.100369  1
  Na  Na41  1  0.649631  0.100369  0.100369  1
  Na  Na42  1  0.350369  0.899631  0.350369  1
  Na  Na43  1  0.100369  0.649631  0.649631  1
  Mg  Mg44  1  0.500000  0.500000  0.500000  1
  Mg  Mg45  1  0.000000  0.500000  0.500000  1
  Mg  Mg46  1  0.500000  0.000000  0.500000  1
  Mg  Mg47  1  0.500000  0.500000  0.000000  1
  Cl  Cl48  1  0.000000  0.000000  0.000000  1
  Cl  Cl49  1  0.500000  0.000000  0.000000  1
  Cl  Cl50  1  0.000000  0.500000  0.000000  1
  Cl  Cl51  1  0.000000  0.000000  0.500000  1
