# generated using pymatgen
data_Bi2Rh
_symmetry_space_group_name_H-M   'P 1'
_cell_length_a   6.92561818
_cell_length_b   7.02126071
_cell_length_c   7.06388554
_cell_angle_alpha   117.38022244
_cell_angle_beta   90.00000000
_cell_angle_gamma   90.00000000
_symmetry_Int_Tables_number   1
_chemical_formula_structural   Bi2Rh
_chemical_formula_sum   'Bi8 Rh4'
_cell_volume   305.01250004
_cell_formula_units_Z   4
loop_
 _symmetry_equiv_pos_site_id
 _symmetry_equiv_pos_as_xyz
  1  'x, y, z'
loop_
 _atom_site_type_symbol
 _atom_site_label
 _atom_site_symmetry_multiplicity
 _atom_site_fract_x
 _atom_site_fract_y
 _atom_site_fract_z
 _atom_site_occupancy
  Rh  Rh0  1  0.497876  0.728755  0.216227  1
  Rh  Rh1  1  0.997876  0.271245  0.283773  1
  Rh  Rh2  1  0.502124  0.271245  0.783773  1
  Rh  Rh3  1  0.002124  0.728755  0.716227  1
  Bi  Bi4  1  0.359496  0.853797  0.631435  1
  Bi  Bi5  1  0.859496  0.146203  0.868565  1
  Bi  Bi6  1  0.640504  0.146203  0.368565  1
  Bi  Bi7  1  0.140504  0.853797  0.131435  1
  Bi  Bi8  1  0.855737  0.653935  0.331621  1
  Bi  Bi9  1  0.355737  0.346065  0.168379  1
  Bi  Bi10  1  0.144263  0.346065  0.668379  1
  Bi  Bi11  1  0.644263  0.653935  0.831621  1
