# generated using pymatgen
data_ThZr2F12
_symmetry_space_group_name_H-M   'P 1'
_cell_length_a   7.97751894
_cell_length_b   8.30159991
_cell_length_c   8.30159990
_cell_angle_alpha   79.66289789
_cell_angle_beta   61.79424449
_cell_angle_gamma   61.79424453
_symmetry_Int_Tables_number   1
_chemical_formula_structural   ThZr2F12
_chemical_formula_sum   'Th2 Zr4 F24'
_cell_volume   426.28404292
_cell_formula_units_Z   2
loop_
 _symmetry_equiv_pos_site_id
 _symmetry_equiv_pos_as_xyz
  1  'x, y, z'
loop_
 _atom_site_type_symbol
 _atom_site_label
 _atom_site_symmetry_multiplicity
 _atom_site_fract_x
 _atom_site_fract_y
 _atom_site_fract_z
 _atom_site_occupancy
  F  F0  1  0.866684  0.560729  0.304109  1
  F  F1  1  0.133316  0.695891  0.439271  1
  F  F2  1  0.133316  0.439271  0.695891  1
  F  F3  1  0.866684  0.304109  0.560729  1
  F  F4  1  0.859227  0.777819  0.777819  1
  F  F5  1  0.140773  0.222181  0.222181  1
  F  F6  1  0.000000  0.000000  0.000000  1
  F  F7  1  0.500000  0.000000  0.000000  1
  F  F8  1  0.500000  0.611927  0.388073  1
  F  F9  1  0.500000  0.388073  0.611927  1
  F  F10  1  0.278906  0.169743  0.466380  1
  F  F11  1  0.721094  0.533620  0.830257  1
  F  F12  1  0.721094  0.830257  0.533620  1
  F  F13  1  0.278906  0.466380  0.169743  1
  F  F14  1  0.571851  0.288324  0.288324  1
  F  F15  1  0.428149  0.711676  0.711676  1
  F  F16  1  0.889414  0.066154  0.353757  1
  F  F17  1  0.110586  0.646243  0.933846  1
  F  F18  1  0.110586  0.933846  0.646243  1
  F  F19  1  0.889414  0.353757  0.066154  1
  F  F20  1  0.665132  0.219892  0.940526  1
  F  F21  1  0.334868  0.059474  0.780108  1
  F  F22  1  0.334868  0.780108  0.059474  1
  F  F23  1  0.665132  0.940526  0.219892  1
  Zr  Zr24  1  0.225698  0.649002  0.649002  1
  Zr  Zr25  1  0.774302  0.350998  0.350998  1
  Zr  Zr26  1  0.569758  0.810882  0.810882  1
  Zr  Zr27  1  0.430242  0.189118  0.189118  1
  Th  Th28  1  0.000000  0.221252  0.778748  1
  Th  Th29  1  0.000000  0.778748  0.221252  1
