# generated using pymatgen
data_TeCF3
_symmetry_space_group_name_H-M   'P 1'
_cell_length_a   7.03460757
_cell_length_b   10.44832725
_cell_length_c   11.79486338
_cell_angle_alpha   90.00000000
_cell_angle_beta   90.00000000
_cell_angle_gamma   100.85248946
_symmetry_Int_Tables_number   1
_chemical_formula_structural   TeCF3
_chemical_formula_sum   'Te8 C8 F24'
_cell_volume   851.41633623
_cell_formula_units_Z   8
loop_
 _symmetry_equiv_pos_site_id
 _symmetry_equiv_pos_as_xyz
  1  'x, y, z'
loop_
 _atom_site_type_symbol
 _atom_site_label
 _atom_site_symmetry_multiplicity
 _atom_site_fract_x
 _atom_site_fract_y
 _atom_site_fract_z
 _atom_site_occupancy
  C  C0  1  0.423779  0.445497  0.222787  1
  C  C1  1  0.190137  0.728692  0.967308  1
  C  C2  1  0.809863  0.771308  0.467308  1
  C  C3  1  0.809863  0.271308  0.032692  1
  C  C4  1  0.190137  0.228692  0.532692  1
  C  C5  1  0.423779  0.945497  0.277213  1
  C  C6  1  0.576221  0.554503  0.777213  1
  C  C7  1  0.576221  0.054503  0.722787  1
  F  F8  1  0.228927  0.811269  0.877257  1
  F  F9  1  0.095742  0.111580  0.572968  1
  F  F10  1  0.904258  0.388420  0.072968  1
  F  F11  1  0.904258  0.888420  0.427032  1
  F  F12  1  0.522932  0.354589  0.263157  1
  F  F13  1  0.477068  0.145411  0.763157  1
  F  F14  1  0.477068  0.645411  0.736843  1
  F  F15  1  0.522932  0.854589  0.236843  1
  F  F16  1  0.556636  0.546538  0.180925  1
  F  F17  1  0.443364  0.953462  0.680925  1
  F  F18  1  0.443364  0.453462  0.819075  1
  F  F19  1  0.556636  0.046538  0.319075  1
  F  F20  1  0.315141  0.389358  0.134008  1
  F  F21  1  0.684859  0.110642  0.634008  1
  F  F22  1  0.684859  0.610642  0.865992  1
  F  F23  1  0.315141  0.889358  0.365992  1
  F  F24  1  0.095742  0.611580  0.927032  1
  F  F25  1  0.228927  0.311269  0.622743  1
  F  F26  1  0.771073  0.188731  0.122743  1
  F  F27  1  0.771073  0.688731  0.377257  1
  F  F28  1  0.363019  0.211175  0.490303  1
  F  F29  1  0.636981  0.288825  0.990303  1
  F  F30  1  0.636981  0.788825  0.509697  1
  F  F31  1  0.363019  0.711175  0.009697  1
  Te  Te32  1  0.005950  0.800246  0.096919  1
  Te  Te33  1  0.994050  0.699754  0.596919  1
  Te  Te34  1  0.994050  0.199754  0.903081  1
  Te  Te35  1  0.005950  0.300246  0.403081  1
  Te  Te36  1  0.252284  0.024138  0.143624  1
  Te  Te37  1  0.747716  0.475862  0.643624  1
  Te  Te38  1  0.747716  0.975862  0.856376  1
  Te  Te39  1  0.252284  0.524138  0.356376  1
