# generated using pymatgen
data_NaNdMnWO6
_symmetry_space_group_name_H-M   'P 1'
_cell_length_a   5.58463785
_cell_length_b   5.70578137
_cell_length_c   8.07138902
_cell_angle_alpha   90.00000000
_cell_angle_beta   90.09755097
_cell_angle_gamma   90.00000000
_symmetry_Int_Tables_number   1
_chemical_formula_structural   NaNdMnWO6
_chemical_formula_sum   'Na2 Nd2 Mn2 W2 O12'
_cell_volume   257.19219954
_cell_formula_units_Z   2
loop_
 _symmetry_equiv_pos_site_id
 _symmetry_equiv_pos_as_xyz
  1  'x, y, z'
loop_
 _atom_site_type_symbol
 _atom_site_label
 _atom_site_symmetry_multiplicity
 _atom_site_fract_x
 _atom_site_fract_y
 _atom_site_fract_z
 _atom_site_occupancy
  O  O0  1  0.332736  0.771607  0.018912  1
  O  O1  1  0.667263  0.271607  0.981088  1
  O  O2  1  0.154657  0.710940  0.491733  1
  O  O3  1  0.845343  0.210940  0.508267  1
  O  O4  1  0.079419  0.444129  0.217480  1
  O  O5  1  0.920580  0.944129  0.782519  1
  O  O6  1  0.045149  0.416782  0.776545  1
  O  O7  1  0.954851  0.916783  0.223455  1
  O  O8  1  0.556298  0.509851  0.687078  1
  O  O9  1  0.443702  0.009851  0.312923  1
  O  O10  1  0.475303  0.041275  0.688206  1
  O  O11  1  0.524697  0.541274  0.311794  1
  Na  Na12  1  0.248457  0.216020  0.000819  1
  Na  Na13  1  0.751543  0.716020  0.999182  1
  Mn  Mn14  1  0.751101  0.247566  0.238892  1
  Mn  Mn15  1  0.248898  0.747565  0.761108  1
  Nd  Nd16  1  0.261483  0.294478  0.500765  1
  Nd  Nd17  1  0.738517  0.794479  0.499235  1
  W  W18  1  0.757047  0.239952  0.759184  1
  W  W19  1  0.242953  0.739953  0.240816  1
