# generated using pymatgen
data_Nd3Ge5
_symmetry_space_group_name_H-M   'P 1'
_cell_length_a   5.96910498
_cell_length_b   7.68935918
_cell_length_c   9.42810741
_cell_angle_alpha   82.94226654
_cell_angle_beta   71.54504357
_cell_angle_gamma   67.16114847
_symmetry_Int_Tables_number   1
_chemical_formula_structural   Nd3Ge5
_chemical_formula_sum   'Nd6 Ge10'
_cell_volume   378.30066626
_cell_formula_units_Z   2
loop_
 _symmetry_equiv_pos_site_id
 _symmetry_equiv_pos_as_xyz
  1  'x, y, z'
loop_
 _atom_site_type_symbol
 _atom_site_label
 _atom_site_symmetry_multiplicity
 _atom_site_fract_x
 _atom_site_fract_y
 _atom_site_fract_z
 _atom_site_occupancy
  Ge  Ge0  1  0.259801  0.828765  0.673641  1
  Ge  Ge1  1  0.911434  0.828765  0.326359  1
  Ge  Ge2  1  0.487793  0.328765  0.173641  1
  Ge  Ge3  1  0.183441  0.328765  0.826359  1
  Ge  Ge4  1  0.044619  0.187144  0.641667  1
  Ge  Ge5  1  0.768237  0.187144  0.358333  1
  Ge  Ge6  1  0.445351  0.109299  0.000000  1
  Ge  Ge7  1  0.695351  0.609299  0.500000  1
  Ge  Ge8  1  0.936286  0.687144  0.858333  1
  Ge  Ge9  1  0.376570  0.687144  0.141667  1
  Nd  Nd10  1  0.667788  0.990440  0.662178  1
  Nd  Nd11  1  0.341772  0.990440  0.337822  1
  Nd  Nd12  1  0.929595  0.490440  0.162178  1
  Nd  Nd13  1  0.579965  0.490440  0.837822  1
  Nd  Nd14  1  0.248099  0.503801  0.500000  1
  Nd  Nd15  1  0.998099  0.003801  0.000000  1
