# generated using pymatgen
data_MgH4S2O9
_symmetry_space_group_name_H-M   'P 1'
_cell_length_a   5.16555398
_cell_length_b   9.13604761
_cell_length_c   17.80114806
_cell_angle_alpha   103.65856673
_cell_angle_beta   90.00000000
_cell_angle_gamma   90.00000000
_symmetry_Int_Tables_number   1
_chemical_formula_structural   MgH4S2O9
_chemical_formula_sum   'Mg4 H16 S8 O36'
_cell_volume   816.32758545
_cell_formula_units_Z   4
loop_
 _symmetry_equiv_pos_site_id
 _symmetry_equiv_pos_as_xyz
  1  'x, y, z'
loop_
 _atom_site_type_symbol
 _atom_site_label
 _atom_site_symmetry_multiplicity
 _atom_site_fract_x
 _atom_site_fract_y
 _atom_site_fract_z
 _atom_site_occupancy
  H  H0  1  0.180314  0.090617  0.224724  1
  H  H1  1  0.680314  0.409383  0.275276  1
  H  H2  1  0.819686  0.909383  0.775276  1
  H  H3  1  0.319686  0.590617  0.724724  1
  H  H4  1  0.351399  0.064173  0.424315  1
  H  H5  1  0.851399  0.435827  0.075685  1
  H  H6  1  0.648601  0.935827  0.575685  1
  H  H7  1  0.148601  0.564173  0.924315  1
  H  H8  1  0.553937  0.083351  0.206387  1
  H  H9  1  0.053937  0.416649  0.293613  1
  H  H10  1  0.446063  0.916649  0.793613  1
  H  H11  1  0.946063  0.583351  0.706387  1
  H  H12  1  0.353967  0.030867  0.285515  1
  H  H13  1  0.853967  0.469133  0.214485  1
  H  H14  1  0.646033  0.969133  0.714485  1
  H  H15  1  0.146033  0.530867  0.785515  1
  O  O16  1  0.166993  0.530249  0.729744  1
  O  O17  1  0.666993  0.969751  0.770256  1
  O  O18  1  0.833007  0.469751  0.270256  1
  O  O19  1  0.333007  0.030249  0.229744  1
  O  O20  1  0.744743  0.122989  0.189493  1
  O  O21  1  0.244743  0.377011  0.310507  1
  O  O22  1  0.255257  0.877011  0.810507  1
  O  O23  1  0.755257  0.622989  0.689493  1
  O  O24  1  0.469061  0.652813  0.589474  1
  O  O25  1  0.969061  0.847187  0.910526  1
  O  O26  1  0.530939  0.347187  0.410526  1
  O  O27  1  0.030939  0.152813  0.089474  1
  O  O28  1  0.924052  0.722923  0.583715  1
  O  O29  1  0.424052  0.777077  0.916285  1
  O  O30  1  0.075948  0.277077  0.416285  1
  O  O31  1  0.575948  0.222923  0.083714  1
  O  O32  1  0.194366  0.541228  0.438920  1
  O  O33  1  0.694366  0.958772  0.061080  1
  O  O34  1  0.805634  0.458772  0.561080  1
  O  O35  1  0.305634  0.041228  0.938920  1
  O  O36  1  0.434905  0.011402  0.375035  1
  O  O37  1  0.934905  0.488598  0.124965  1
  O  O38  1  0.565095  0.988598  0.624965  1
  O  O39  1  0.065095  0.511402  0.875035  1
  O  O40  1  0.705825  0.014621  0.398048  1
  O  O41  1  0.205825  0.485379  0.101952  1
  O  O42  1  0.294175  0.985379  0.601952  1
  O  O43  1  0.794175  0.514621  0.898048  1
  O  O44  1  0.021479  0.844837  0.442355  1
  O  O45  1  0.521479  0.655163  0.057645  1
  O  O46  1  0.978521  0.155163  0.557645  1
  O  O47  1  0.478521  0.344837  0.942355  1
  O  O48  1  0.568881  0.817952  0.473865  1
  O  O49  1  0.068881  0.682048  0.026135  1
  O  O50  1  0.431119  0.182048  0.526135  1
  O  O51  1  0.931119  0.317952  0.973865  1
  Mg  Mg52  1  0.235648  0.742334  0.515878  1
  Mg  Mg53  1  0.735648  0.757666  0.984122  1
  Mg  Mg54  1  0.764352  0.257666  0.484122  1
  Mg  Mg55  1  0.264352  0.242334  0.015878  1
  S  S56  1  0.261283  0.387074  0.398330  1
  S  S57  1  0.761283  0.112926  0.101670  1
  S  S58  1  0.738717  0.612926  0.601670  1
  S  S59  1  0.238717  0.887074  0.898330  1
  S  S60  1  0.755125  0.822105  0.409989  1
  S  S61  1  0.255125  0.677895  0.090011  1
  S  S62  1  0.244875  0.177895  0.590011  1
  S  S63  1  0.744875  0.322105  0.909989  1
