# generated using pymatgen
data_MnH4(BrO)2
_symmetry_space_group_name_H-M   'P 1'
_cell_length_a   3.96365023
_cell_length_b   6.00620231
_cell_length_c   6.00620231
_cell_angle_alpha   95.91231296
_cell_angle_beta   96.94943338
_cell_angle_gamma   96.94943333
_symmetry_Int_Tables_number   1
_chemical_formula_structural   MnH4(BrO)2
_chemical_formula_sum   'Mn1 H4 Br2 O2'
_cell_volume   139.88552241
_cell_formula_units_Z   1
loop_
 _symmetry_equiv_pos_site_id
 _symmetry_equiv_pos_as_xyz
  1  'x, y, z'
loop_
 _atom_site_type_symbol
 _atom_site_label
 _atom_site_symmetry_multiplicity
 _atom_site_fract_x
 _atom_site_fract_y
 _atom_site_fract_z
 _atom_site_occupancy
  H  H0  1  0.855663  0.225508  0.610023  1
  H  H1  1  0.144337  0.389978  0.774491  1
  H  H2  1  0.855664  0.610023  0.225509  1
  H  H3  1  0.144337  0.774491  0.389978  1
  O  O4  1  0.000001  0.758014  0.241985  1
  O  O5  1  0.000000  0.241985  0.758014  1
  Mn  Mn6  1  0.000000  0.000000  0.000000  1
  Br  Br7  1  0.423429  0.758627  0.758627  1
  Br  Br8  1  0.576571  0.241374  0.241373  1
