# generated using pymatgen
data_B
_symmetry_space_group_name_H-M   'P 1'
_cell_length_a   4.92557177
_cell_length_b   8.86624987
_cell_length_c   8.86624987
_cell_angle_alpha   90.00000000
_cell_angle_beta   90.00000000
_cell_angle_gamma   90.00000000
_symmetry_Int_Tables_number   1
_chemical_formula_structural   B
_chemical_formula_sum   B50
_cell_volume   387.20110184
_cell_formula_units_Z   50
loop_
 _symmetry_equiv_pos_site_id
 _symmetry_equiv_pos_as_xyz
  1  'x, y, z'
loop_
 _atom_site_type_symbol
 _atom_site_label
 _atom_site_symmetry_multiplicity
 _atom_site_fract_x
 _atom_site_fract_y
 _atom_site_fract_z
 _atom_site_occupancy
  B  B0  1  0.750000  0.250000  0.750000  1
  B  B1  1  0.250000  0.750000  0.250000  1
  B  B2  1  0.642525  0.378527  0.878527  1
  B  B3  1  0.142525  0.621473  0.378527  1
  B  B4  1  0.142525  0.878527  0.121473  1
  B  B5  1  0.642525  0.121473  0.621473  1
  B  B6  1  0.857475  0.378527  0.621473  1
  B  B7  1  0.857475  0.121473  0.878527  1
  B  B8  1  0.357475  0.878527  0.378527  1
  B  B9  1  0.357475  0.621473  0.121473  1
  B  B10  1  0.823989  0.495630  0.995630  1
  B  B11  1  0.323989  0.504370  0.495630  1
  B  B12  1  0.323989  0.995630  0.004370  1
  B  B13  1  0.823989  0.004370  0.504370  1
  B  B14  1  0.676011  0.495630  0.504370  1
  B  B15  1  0.676011  0.004370  0.995630  1
  B  B16  1  0.176011  0.995630  0.495630  1
  B  B17  1  0.176011  0.504370  0.004370  1
  B  B18  1  0.655751  0.579762  0.835770  1
  B  B19  1  0.155751  0.664230  0.579762  1
  B  B20  1  0.155751  0.835770  0.920238  1
  B  B21  1  0.655751  0.920238  0.664230  1
  B  B22  1  0.844249  0.579762  0.664230  1
  B  B23  1  0.844249  0.920238  0.835770  1
  B  B24  1  0.344249  0.835770  0.579762  1
  B  B25  1  0.344249  0.664230  0.920238  1
  B  B26  1  0.344249  0.420238  0.164230  1
  B  B27  1  0.844249  0.335770  0.420238  1
  B  B28  1  0.844249  0.164230  0.079762  1
  B  B29  1  0.344249  0.079762  0.335770  1
  B  B30  1  0.155751  0.420238  0.335770  1
  B  B31  1  0.155751  0.079762  0.164230  1
  B  B32  1  0.655751  0.164230  0.420238  1
  B  B33  1  0.655751  0.335770  0.079762  1
  B  B34  1  0.337703  0.478505  0.832957  1
  B  B35  1  0.837703  0.667043  0.478505  1
  B  B36  1  0.837703  0.832957  0.021495  1
  B  B37  1  0.337703  0.021495  0.667043  1
  B  B38  1  0.162297  0.478505  0.667043  1
  B  B39  1  0.162297  0.021495  0.832957  1
  B  B40  1  0.662297  0.832957  0.478505  1
  B  B41  1  0.662297  0.667043  0.021495  1
  B  B42  1  0.662297  0.521495  0.167043  1
  B  B43  1  0.162297  0.332957  0.521495  1
  B  B44  1  0.162297  0.167043  0.978505  1
  B  B45  1  0.662297  0.978505  0.332957  1
  B  B46  1  0.837703  0.521495  0.332957  1
  B  B47  1  0.837703  0.978505  0.167043  1
  B  B48  1  0.337703  0.167043  0.521495  1
  B  B49  1  0.337703  0.332957  0.978505  1
