# generated using pymatgen
data_TlZnSClO4
_symmetry_space_group_name_H-M   'P 1'
_cell_length_a   7.35804790
_cell_length_b   8.31015649
_cell_length_c   9.76250710
_cell_angle_alpha   90.00000000
_cell_angle_beta   90.00000000
_cell_angle_gamma   94.37490666
_symmetry_Int_Tables_number   1
_chemical_formula_structural   TlZnSClO4
_chemical_formula_sum   'Tl4 Zn4 S4 Cl4 O16'
_cell_volume   595.20408845
_cell_formula_units_Z   4
loop_
 _symmetry_equiv_pos_site_id
 _symmetry_equiv_pos_as_xyz
  1  'x, y, z'
loop_
 _atom_site_type_symbol
 _atom_site_label
 _atom_site_symmetry_multiplicity
 _atom_site_fract_x
 _atom_site_fract_y
 _atom_site_fract_z
 _atom_site_occupancy
  Tl  Tl0  1  0.625371  0.291800  0.587453  1
  Tl  Tl1  1  0.374629  0.208200  0.087453  1
  Tl  Tl2  1  0.625371  0.791800  0.912547  1
  Tl  Tl3  1  0.374629  0.708200  0.412547  1
  Zn  Zn4  1  0.903750  0.458698  0.198408  1
  Zn  Zn5  1  0.096250  0.041302  0.698408  1
  Zn  Zn6  1  0.903750  0.958698  0.301592  1
  Zn  Zn7  1  0.096250  0.541302  0.801592  1
  S  S8  1  0.108050  0.769174  0.066150  1
  S  S9  1  0.891950  0.230826  0.933850  1
  S  S10  1  0.891950  0.730826  0.566150  1
  S  S11  1  0.108050  0.269174  0.433850  1
  Cl  Cl12  1  0.376046  0.461251  0.818292  1
  Cl  Cl13  1  0.376046  0.961251  0.681708  1
  Cl  Cl14  1  0.623954  0.038749  0.318292  1
  Cl  Cl15  1  0.623954  0.538749  0.181707  1
  O  O16  1  0.052079  0.231470  0.579018  1
  O  O17  1  0.961175  0.367553  0.379336  1
  O  O18  1  0.038825  0.632447  0.620664  1
  O  O19  1  0.052079  0.731470  0.920982  1
  O  O20  1  0.961175  0.867553  0.120664  1
  O  O21  1  0.111768  0.614113  0.146369  1
  O  O22  1  0.288568  0.355762  0.425851  1
  O  O23  1  0.947921  0.768530  0.420982  1
  O  O24  1  0.111768  0.114113  0.353631  1
  O  O25  1  0.711432  0.144238  0.925851  1
  O  O26  1  0.288568  0.855762  0.074149  1
  O  O27  1  0.711432  0.644238  0.574149  1
  O  O28  1  0.888232  0.385887  0.853631  1
  O  O29  1  0.038825  0.132447  0.879336  1
  O  O30  1  0.888232  0.885887  0.646369  1
  O  O31  1  0.947921  0.268530  0.079018  1
