# generated using pymatgen
data_ThTa2O7
_symmetry_space_group_name_H-M   'P 1'
_cell_length_a   3.91518146
_cell_length_b   8.05553903
_cell_length_c   8.41860600
_cell_angle_alpha   95.68653303
_cell_angle_beta   90.00000000
_cell_angle_gamma   104.06436540
_symmetry_Int_Tables_number   1
_chemical_formula_structural   ThTa2O7
_chemical_formula_sum   'Th2 Ta4 O14'
_cell_volume   256.20712950
_cell_formula_units_Z   2
loop_
 _symmetry_equiv_pos_site_id
 _symmetry_equiv_pos_as_xyz
  1  'x, y, z'
loop_
 _atom_site_type_symbol
 _atom_site_label
 _atom_site_symmetry_multiplicity
 _atom_site_fract_x
 _atom_site_fract_y
 _atom_site_fract_z
 _atom_site_occupancy
  O  O0  1  0.987414  0.974827  0.858584  1
  O  O1  1  0.012586  0.025173  0.141416  1
  O  O2  1  0.943631  0.887262  0.392036  1
  O  O3  1  0.056369  0.112738  0.607964  1
  O  O4  1  0.607537  0.215073  0.935823  1
  O  O5  1  0.392463  0.784927  0.064177  1
  O  O6  1  0.413922  0.827845  0.610691  1
  O  O7  1  0.586078  0.172155  0.389309  1
  O  O8  1  0.195300  0.390599  0.497769  1
  O  O9  1  0.804700  0.609401  0.502231  1
  O  O10  1  0.195807  0.391613  0.831784  1
  O  O11  1  0.804193  0.608387  0.168216  1
  O  O12  1  0.168010  0.336020  0.192374  1
  O  O13  1  0.831990  0.663980  0.807626  1
  Ta  Ta14  1  0.891850  0.783700  0.019810  1
  Ta  Ta15  1  0.108150  0.216300  0.980190  1
  Ta  Ta16  1  0.928710  0.857419  0.633010  1
  Ta  Ta17  1  0.071290  0.142581  0.366990  1
  Th  Th18  1  0.688227  0.376454  0.666509  1
  Th  Th19  1  0.311773  0.623546  0.333491  1
