# generated using pymatgen
data_Li2PWO4F
_symmetry_space_group_name_H-M   'P 1'
_cell_length_a   6.03072354
_cell_length_b   5.28083548
_cell_length_c   8.32919267
_cell_angle_alpha   82.47623711
_cell_angle_beta   61.95951983
_cell_angle_gamma   96.81154917
_symmetry_Int_Tables_number   1
_chemical_formula_structural   Li2PWO4F
_chemical_formula_sum   'Li4 P2 W2 O8 F2'
_cell_volume   227.13581001
_cell_formula_units_Z   2
loop_
 _symmetry_equiv_pos_site_id
 _symmetry_equiv_pos_as_xyz
  1  'x, y, z'
loop_
 _atom_site_type_symbol
 _atom_site_label
 _atom_site_symmetry_multiplicity
 _atom_site_fract_x
 _atom_site_fract_y
 _atom_site_fract_z
 _atom_site_occupancy
  Li  Li0  1  0.946734  0.550938  0.147020  1
  Li  Li1  1  0.457947  0.794119  0.955829  1
  Li  Li2  1  0.583010  0.119428  0.392672  1
  Li  Li3  1  0.291331  0.660628  0.691847  1
  O  O4  1  0.714227  0.195108  0.566746  1
  O  O5  1  0.344789  0.774519  0.446611  1
  O  O6  1  0.696802  0.630824  0.682866  1
  O  O7  1  0.610230  0.193264  0.901136  1
  O  O8  1  0.177623  0.666932  0.232084  1
  O  O9  1  0.648150  0.701096  0.122276  1
  O  O10  1  0.334125  0.318180  0.377783  1
  O  O11  1  0.301876  0.318195  0.785075  1
  F  F12  1  0.182807  0.786699  0.910918  1
  F  F13  1  0.873448  0.194721  0.162370  1
  P  P14  1  0.370509  0.609671  0.294300  1
  P  P15  1  0.587348  0.332256  0.733931  1
  W  W16  1  0.937152  0.047037  0.907655  1
  W  W17  1  0.014009  0.974754  0.530292  1
