# generated using pymatgen
data_Sr2LuIrO6
_symmetry_space_group_name_H-M   'P 1'
_cell_length_a   5.79459194
_cell_length_b   5.77861250
_cell_length_c   8.19038043
_cell_angle_alpha   90.20556518
_cell_angle_beta   90.00000000
_cell_angle_gamma   90.00000000
_symmetry_Int_Tables_number   1
_chemical_formula_structural   Sr2LuIrO6
_chemical_formula_sum   'Sr4 Lu2 Ir2 O12'
_cell_volume   274.25067784
_cell_formula_units_Z   2
loop_
 _symmetry_equiv_pos_site_id
 _symmetry_equiv_pos_as_xyz
  1  'x, y, z'
loop_
 _atom_site_type_symbol
 _atom_site_label
 _atom_site_symmetry_multiplicity
 _atom_site_fract_x
 _atom_site_fract_y
 _atom_site_fract_z
 _atom_site_occupancy
  Sr  Sr0  1  0.473628  0.495298  0.750261  1
  Sr  Sr1  1  0.026372  0.995298  0.250261  1
  Sr  Sr2  1  0.973628  0.004702  0.749739  1
  Sr  Sr3  1  0.526372  0.504702  0.249739  1
  Lu  Lu4  1  0.000000  0.500000  0.500000  1
  Lu  Lu5  1  0.500000  0.000000  0.000000  1
  Ir  Ir6  1  0.500000  0.000000  0.500000  1
  Ir  Ir7  1  0.000000  0.500000  0.000000  1
  O  O8  1  0.292178  0.729645  0.469130  1
  O  O9  1  0.512592  0.939553  0.738955  1
  O  O10  1  0.229028  0.206297  0.533284  1
  O  O11  1  0.207822  0.229645  0.969130  1
  O  O12  1  0.270972  0.706297  0.033284  1
  O  O13  1  0.487408  0.060447  0.261045  1
  O  O14  1  0.770972  0.793703  0.466716  1
  O  O15  1  0.729028  0.293703  0.966716  1
  O  O16  1  0.707822  0.270355  0.530870  1
  O  O17  1  0.012592  0.560447  0.761045  1
  O  O18  1  0.987408  0.439553  0.238955  1
  O  O19  1  0.792178  0.770355  0.030870  1
