# generated using pymatgen
data_HoSeClO3
_symmetry_space_group_name_H-M   'P 1'
_cell_length_a   6.98929190
_cell_length_b   7.27968357
_cell_length_c   8.85561413
_cell_angle_alpha   90.00000000
_cell_angle_beta   90.00000000
_cell_angle_gamma   90.00000000
_symmetry_Int_Tables_number   1
_chemical_formula_structural   HoSeClO3
_chemical_formula_sum   'Ho4 Se4 Cl4 O12'
_cell_volume   450.57217168
_cell_formula_units_Z   4
loop_
 _symmetry_equiv_pos_site_id
 _symmetry_equiv_pos_as_xyz
  1  'x, y, z'
loop_
 _atom_site_type_symbol
 _atom_site_label
 _atom_site_symmetry_multiplicity
 _atom_site_fract_x
 _atom_site_fract_y
 _atom_site_fract_z
 _atom_site_occupancy
  O  O0  1  0.250000  0.252180  0.822070  1
  O  O1  1  0.750000  0.747820  0.177930  1
  O  O2  1  0.250000  0.752180  0.677930  1
  O  O3  1  0.750000  0.247820  0.322070  1
  O  O4  1  0.927802  0.640861  0.432544  1
  O  O5  1  0.427802  0.359139  0.567456  1
  O  O6  1  0.572198  0.140861  0.067456  1
  O  O7  1  0.927802  0.140861  0.067456  1
  O  O8  1  0.072198  0.359139  0.567456  1
  O  O9  1  0.572198  0.640861  0.432544  1
  O  O10  1  0.427802  0.859139  0.932544  1
  O  O11  1  0.072198  0.859139  0.932544  1
  Cl  Cl12  1  0.750000  0.558828  0.817232  1
  Cl  Cl13  1  0.750000  0.058828  0.682768  1
  Cl  Cl14  1  0.250000  0.441172  0.182768  1
  Cl  Cl15  1  0.250000  0.941172  0.317232  1
  Se  Se16  1  0.250000  0.209198  0.633267  1
  Se  Se17  1  0.750000  0.790802  0.366733  1
  Se  Se18  1  0.750000  0.290802  0.133267  1
  Se  Se19  1  0.250000  0.709198  0.866733  1
  Ho  Ho20  1  0.250000  0.604365  0.460989  1
  Ho  Ho21  1  0.750000  0.395635  0.539011  1
  Ho  Ho22  1  0.250000  0.104365  0.039011  1
  Ho  Ho23  1  0.750000  0.895635  0.960989  1
