# generated using pymatgen
data_La3W(ClO2)3
_symmetry_space_group_name_H-M   'P 1'
_cell_length_a   9.50695361
_cell_length_b   9.50695361
_cell_length_c   5.48535997
_cell_angle_alpha   90.00000000
_cell_angle_beta   90.00000000
_cell_angle_gamma   120.00000000
_symmetry_Int_Tables_number   1
_chemical_formula_structural   La3W(ClO2)3
_chemical_formula_sum   'La6 W2 Cl6 O12'
_cell_volume   429.35696671
_cell_formula_units_Z   2
loop_
 _symmetry_equiv_pos_site_id
 _symmetry_equiv_pos_as_xyz
  1  'x, y, z'
loop_
 _atom_site_type_symbol
 _atom_site_label
 _atom_site_symmetry_multiplicity
 _atom_site_fract_x
 _atom_site_fract_y
 _atom_site_fract_z
 _atom_site_occupancy
  O  O0  1  0.364302  0.838619  0.479801  1
  O  O1  1  0.525683  0.364302  0.979802  1
  O  O2  1  0.838619  0.474317  0.979802  1
  O  O3  1  0.161382  0.525684  0.479801  1
  O  O4  1  0.474316  0.635698  0.479801  1
  O  O5  1  0.635698  0.161381  0.979802  1
  O  O6  1  0.635698  0.161381  0.520198  1
  O  O7  1  0.474316  0.635698  0.020199  1
  O  O8  1  0.161382  0.525684  0.020199  1
  O  O9  1  0.525683  0.364302  0.520198  1
  O  O10  1  0.364302  0.838619  0.020199  1
  O  O11  1  0.838619  0.474317  0.520198  1
  Cl  Cl12  1  0.806841  0.759072  0.750000  1
  Cl  Cl13  1  0.952231  0.193159  0.750000  1
  Cl  Cl14  1  0.047769  0.806841  0.249999  1
  Cl  Cl15  1  0.193159  0.240928  0.249999  1
  Cl  Cl16  1  0.240928  0.047769  0.750000  1
  Cl  Cl17  1  0.759072  0.952230  0.249999  1
  La  La18  1  0.089612  0.684599  0.750000  1
  La  La19  1  0.405014  0.089613  0.249999  1
  La  La20  1  0.910388  0.315401  0.249999  1
  La  La21  1  0.594986  0.910387  0.750000  1
  La  La22  1  0.684600  0.594987  0.249999  1
  La  La23  1  0.315401  0.405014  0.750000  1
  W  W24  1  0.333333  0.666666  0.249999  1
  W  W25  1  0.666667  0.333334  0.750000  1
