# generated using pymatgen
data_GaH36C12S6(IO2)3
_symmetry_space_group_name_H-M   'P 1'
_cell_length_a   10.31288933
_cell_length_b   10.31288933
_cell_length_c   10.31288933
_cell_angle_alpha   65.03761248
_cell_angle_beta   65.03761250
_cell_angle_gamma   65.03761254
_symmetry_Int_Tables_number   1
_chemical_formula_structural   GaH36C12S6(IO2)3
_chemical_formula_sum   'Ga1 H36 C12 S6 I3 O6'
_cell_volume   860.86964224
_cell_formula_units_Z   1
loop_
 _symmetry_equiv_pos_site_id
 _symmetry_equiv_pos_as_xyz
  1  'x, y, z'
loop_
 _atom_site_type_symbol
 _atom_site_label
 _atom_site_symmetry_multiplicity
 _atom_site_fract_x
 _atom_site_fract_y
 _atom_site_fract_z
 _atom_site_occupancy
  H  H0  1  0.226539  0.555523  0.756679  1
  H  H1  1  0.555523  0.756679  0.226539  1
  H  H2  1  0.756679  0.226539  0.555523  1
  H  H3  1  0.773461  0.444477  0.243321  1
  H  H4  1  0.444477  0.243321  0.773461  1
  H  H5  1  0.243321  0.773461  0.444477  1
  H  H6  1  0.031570  0.650267  0.831143  1
  H  H7  1  0.650267  0.831143  0.031570  1
  H  H8  1  0.831143  0.031570  0.650267  1
  H  H9  1  0.968430  0.349733  0.168857  1
  H  H10  1  0.349733  0.168857  0.968430  1
  H  H11  1  0.168857  0.968430  0.349733  1
  H  H12  1  0.141598  0.512664  0.958250  1
  H  H13  1  0.512664  0.958250  0.141598  1
  H  H14  1  0.958250  0.141598  0.512664  1
  H  H15  1  0.292738  0.101189  0.585646  1
  H  H16  1  0.858402  0.487336  0.041750  1
  H  H17  1  0.041750  0.858402  0.487336  1
  H  H18  1  0.414354  0.707262  0.898811  1
  H  H19  1  0.707262  0.898811  0.414354  1
  H  H20  1  0.898811  0.414354  0.707262  1
  H  H21  1  0.585646  0.292738  0.101189  1
  H  H22  1  0.001746  0.656231  0.455325  1
  H  H23  1  0.455325  0.001746  0.656231  1
  H  H24  1  0.656231  0.455325  0.001746  1
  H  H25  1  0.998254  0.343769  0.544675  1
  H  H26  1  0.544675  0.998254  0.343769  1
  H  H27  1  0.343769  0.544675  0.998254  1
  H  H28  1  0.200363  0.556422  0.414642  1
  H  H29  1  0.414642  0.200363  0.556422  1
  H  H30  1  0.556422  0.414642  0.200363  1
  H  H31  1  0.799637  0.443578  0.585358  1
  H  H32  1  0.585358  0.799637  0.443578  1
  H  H33  1  0.443578  0.585358  0.799637  1
  H  H34  1  0.101189  0.585646  0.292738  1
  H  H35  1  0.487336  0.041750  0.858402  1
  C  C36  1  0.367329  0.633362  0.892217  1
  C  C37  1  0.633362  0.892217  0.367329  1
  C  C38  1  0.892217  0.367329  0.633362  1
  C  C39  1  0.632671  0.366638  0.107783  1
  C  C40  1  0.150189  0.857616  0.400200  1
  C  C41  1  0.400200  0.150189  0.857616  1
  C  C42  1  0.857616  0.400200  0.150189  1
  C  C43  1  0.849811  0.142384  0.599800  1
  C  C44  1  0.107783  0.632671  0.366638  1
  C  C45  1  0.142384  0.599800  0.849811  1
  C  C46  1  0.366638  0.107783  0.632671  1
  C  C47  1  0.599800  0.849811  0.142384  1
  O  O48  1  0.083834  0.789125  0.989562  1
  O  O49  1  0.789125  0.989562  0.083834  1
  O  O50  1  0.010438  0.916166  0.210875  1
  O  O51  1  0.916166  0.210875  0.010438  1
  O  O52  1  0.210875  0.010438  0.916166  1
  O  O53  1  0.989562  0.083834  0.789125  1
  S  S54  1  0.196530  0.745276  0.845161  1
  S  S55  1  0.745276  0.845161  0.196530  1
  S  S56  1  0.845161  0.196530  0.745276  1
  S  S57  1  0.803470  0.254724  0.154839  1
  S  S58  1  0.254724  0.154839  0.803470  1
  S  S59  1  0.154839  0.803470  0.254724  1
  Ga  Ga60  1  0.000000  0.000000  0.000000  1
  I  I61  1  0.500000  0.500000  0.500000  1
  I  I62  1  0.248353  0.248353  0.248353  1
  I  I63  1  0.751648  0.751648  0.751648  1
