# generated using pymatgen
data_UCl5
_symmetry_space_group_name_H-M   'P 1'
_cell_length_a   6.91335385
_cell_length_b   7.54583648
_cell_length_c   10.26720502
_cell_angle_alpha   108.54983263
_cell_angle_beta   91.04258310
_cell_angle_gamma   116.20380734
_symmetry_Int_Tables_number   1
_chemical_formula_structural   UCl5
_chemical_formula_sum   'U2 Cl10'
_cell_volume   447.60133210
_cell_formula_units_Z   2
loop_
 _symmetry_equiv_pos_site_id
 _symmetry_equiv_pos_as_xyz
  1  'x, y, z'
loop_
 _atom_site_type_symbol
 _atom_site_label
 _atom_site_symmetry_multiplicity
 _atom_site_fract_x
 _atom_site_fract_y
 _atom_site_fract_z
 _atom_site_occupancy
  Cl  Cl0  1  0.937828  0.192246  0.420424  1
  Cl  Cl1  1  0.062172  0.807754  0.579576  1
  Cl  Cl2  1  0.230185  0.171003  0.957540  1
  Cl  Cl3  1  0.769815  0.828997  0.042460  1
  Cl  Cl4  1  0.102800  0.618203  0.847695  1
  Cl  Cl5  1  0.897200  0.381797  0.152305  1
  Cl  Cl6  1  0.699355  0.976715  0.747763  1
  Cl  Cl7  1  0.300645  0.023285  0.252237  1
  Cl  Cl8  1  0.568133  0.439704  0.673500  1
  Cl  Cl9  1  0.431867  0.560296  0.326500  1
  U  U10  1  0.103852  0.211804  0.211284  1
  U  U11  1  0.896148  0.788196  0.788716  1
