# generated using pymatgen
data_Sr(YS2)2
_symmetry_space_group_name_H-M   'P 1'
_cell_length_a   4.00376418
_cell_length_b   12.06357584
_cell_length_c   14.40180683
_cell_angle_alpha   90.00000000
_cell_angle_beta   90.00000000
_cell_angle_gamma   90.00000000
_symmetry_Int_Tables_number   1
_chemical_formula_structural   Sr(YS2)2
_chemical_formula_sum   'Sr4 Y8 S16'
_cell_volume   695.60313414
_cell_formula_units_Z   4
loop_
 _symmetry_equiv_pos_site_id
 _symmetry_equiv_pos_as_xyz
  1  'x, y, z'
loop_
 _atom_site_type_symbol
 _atom_site_label
 _atom_site_symmetry_multiplicity
 _atom_site_fract_x
 _atom_site_fract_y
 _atom_site_fract_z
 _atom_site_occupancy
  S  S0  1  0.250000  0.630187  0.973117  1
  S  S1  1  0.750000  0.369813  0.026883  1
  S  S2  1  0.250000  0.130187  0.526883  1
  S  S3  1  0.750000  0.869813  0.473117  1
  S  S4  1  0.750000  0.292609  0.325304  1
  S  S5  1  0.250000  0.707391  0.674696  1
  S  S6  1  0.750000  0.792609  0.174696  1
  S  S7  1  0.250000  0.207391  0.825304  1
  S  S8  1  0.750000  0.585866  0.421505  1
  S  S9  1  0.250000  0.414134  0.578495  1
  S  S10  1  0.750000  0.085866  0.078495  1
  S  S11  1  0.250000  0.914134  0.921505  1
  S  S12  1  0.750000  0.977654  0.715852  1
  S  S13  1  0.250000  0.022346  0.284148  1
  S  S14  1  0.750000  0.477654  0.784148  1
  S  S15  1  0.250000  0.522346  0.215852  1
  Sr  Sr16  1  0.250000  0.757929  0.338093  1
  Sr  Sr17  1  0.750000  0.242071  0.661907  1
  Sr  Sr18  1  0.250000  0.257929  0.161907  1
  Sr  Sr19  1  0.750000  0.742071  0.838093  1
  Y  Y20  1  0.250000  0.432233  0.389858  1
  Y  Y21  1  0.750000  0.567767  0.610142  1
  Y  Y22  1  0.250000  0.932233  0.110142  1
  Y  Y23  1  0.750000  0.067767  0.889858  1
  Y  Y24  1  0.250000  0.919380  0.600813  1
  Y  Y25  1  0.750000  0.080620  0.399187  1
  Y  Y26  1  0.250000  0.419380  0.899187  1
  Y  Y27  1  0.750000  0.580620  0.100813  1
