# generated using pymatgen
data_Pu5Ir4
_symmetry_space_group_name_H-M   'P 1'
_cell_length_a   6.83549781
_cell_length_b   7.52533778
_cell_length_c   14.13705674
_cell_angle_alpha   90.00000000
_cell_angle_beta   90.00000000
_cell_angle_gamma   90.00000000
_symmetry_Int_Tables_number   1
_chemical_formula_structural   Pu5Ir4
_chemical_formula_sum   'Pu20 Ir16'
_cell_volume   727.20213938
_cell_formula_units_Z   4
loop_
 _symmetry_equiv_pos_site_id
 _symmetry_equiv_pos_as_xyz
  1  'x, y, z'
loop_
 _atom_site_type_symbol
 _atom_site_label
 _atom_site_symmetry_multiplicity
 _atom_site_fract_x
 _atom_site_fract_y
 _atom_site_fract_z
 _atom_site_occupancy
  Ir  Ir0  1  0.042006  0.870729  0.750000  1
  Ir  Ir1  1  0.542006  0.629271  0.750000  1
  Ir  Ir2  1  0.457994  0.370729  0.250000  1
  Ir  Ir3  1  0.957994  0.129271  0.250000  1
  Ir  Ir4  1  0.830299  0.369278  0.750000  1
  Ir  Ir5  1  0.330299  0.130722  0.750000  1
  Ir  Ir6  1  0.669701  0.869278  0.250000  1
  Ir  Ir7  1  0.169701  0.630722  0.250000  1
  Ir  Ir8  1  0.803833  0.457641  0.033132  1
  Ir  Ir9  1  0.303833  0.042359  0.466868  1
  Ir  Ir10  1  0.696167  0.957641  0.966868  1
  Ir  Ir11  1  0.196167  0.542359  0.533132  1
  Ir  Ir12  1  0.196167  0.542359  0.966868  1
  Ir  Ir13  1  0.696167  0.957641  0.533132  1
  Ir  Ir14  1  0.303833  0.042359  0.033132  1
  Ir  Ir15  1  0.803833  0.457641  0.466868  1
  Pu  Pu16  1  0.699403  0.029250  0.750000  1
  Pu  Pu17  1  0.199403  0.470750  0.750000  1
  Pu  Pu18  1  0.800597  0.529250  0.250000  1
  Pu  Pu19  1  0.300597  0.970750  0.250000  1
  Pu  Pu20  1  0.855235  0.665025  0.882325  1
  Pu  Pu21  1  0.355235  0.834975  0.617675  1
  Pu  Pu22  1  0.644765  0.165025  0.117675  1
  Pu  Pu23  1  0.144765  0.334975  0.382325  1
  Pu  Pu24  1  0.144765  0.334975  0.117675  1
  Pu  Pu25  1  0.644765  0.165025  0.382325  1
  Pu  Pu26  1  0.355235  0.834975  0.882325  1
  Pu  Pu27  1  0.855235  0.665025  0.617675  1
  Pu  Pu28  1  0.000675  0.169789  0.904718  1
  Pu  Pu29  1  0.500675  0.330211  0.595282  1
  Pu  Pu30  1  0.499325  0.669789  0.095282  1
  Pu  Pu31  1  0.999325  0.830211  0.404718  1
  Pu  Pu32  1  0.999325  0.830211  0.095282  1
  Pu  Pu33  1  0.499325  0.669789  0.404718  1
  Pu  Pu34  1  0.500675  0.330211  0.904718  1
  Pu  Pu35  1  0.000675  0.169789  0.595282  1
