# generated using pymatgen
data_Dy4In(NiGe2)2
_symmetry_space_group_name_H-M   'P 1'
_cell_length_a   4.24202195
_cell_length_b   7.05920983
_cell_length_c   8.04437386
_cell_angle_alpha   108.03402180
_cell_angle_beta   105.28757653
_cell_angle_gamma   90.00000003
_symmetry_Int_Tables_number   1
_chemical_formula_structural   Dy4In(NiGe2)2
_chemical_formula_sum   'Dy4 In1 Ni2 Ge4'
_cell_volume   220.07513963
_cell_formula_units_Z   1
loop_
 _symmetry_equiv_pos_site_id
 _symmetry_equiv_pos_as_xyz
  1  'x, y, z'
loop_
 _atom_site_type_symbol
 _atom_site_label
 _atom_site_symmetry_multiplicity
 _atom_site_fract_x
 _atom_site_fract_y
 _atom_site_fract_z
 _atom_site_occupancy
  Ni  Ni0  1  0.216636  0.643922  0.433271  1
  Ni  Ni1  1  0.783364  0.356078  0.566729  1
  Ge  Ge2  1  0.065410  0.662267  0.130821  1
  Ge  Ge3  1  0.934590  0.337733  0.869179  1
  Ge  Ge4  1  0.204161  0.272643  0.408322  1
  Ge  Ge5  1  0.795839  0.727357  0.591678  1
  In  In6  1  0.000000  0.000000  0.000000  1
  Dy  Dy7  1  0.344311  0.061987  0.688621  1
  Dy  Dy8  1  0.655689  0.938013  0.311379  1
  Dy  Dy9  1  0.408172  0.609012  0.816344  1
  Dy  Dy10  1  0.591828  0.390988  0.183656  1
