# generated using pymatgen
data_KTiF4
_symmetry_space_group_name_H-M   'P 1'
_cell_length_a   7.81958633
_cell_length_b   8.00857048
_cell_length_c   12.50309780
_cell_angle_alpha   90.00000000
_cell_angle_beta   90.00000000
_cell_angle_gamma   90.00000000
_symmetry_Int_Tables_number   1
_chemical_formula_structural   KTiF4
_chemical_formula_sum   'K8 Ti8 F32'
_cell_volume   782.99034883
_cell_formula_units_Z   8
loop_
 _symmetry_equiv_pos_site_id
 _symmetry_equiv_pos_as_xyz
  1  'x, y, z'
loop_
 _atom_site_type_symbol
 _atom_site_label
 _atom_site_symmetry_multiplicity
 _atom_site_fract_x
 _atom_site_fract_y
 _atom_site_fract_z
 _atom_site_occupancy
  F  F0  1  0.250000  0.840605  0.216312  1
  F  F1  1  0.750000  0.159395  0.783688  1
  F  F2  1  0.750000  0.340605  0.283688  1
  F  F3  1  0.250000  0.659395  0.716312  1
  F  F4  1  0.250000  0.403525  0.211221  1
  F  F5  1  0.750000  0.596475  0.788779  1
  F  F6  1  0.750000  0.903525  0.288779  1
  F  F7  1  0.250000  0.096475  0.711221  1
  F  F8  1  0.534148  0.877397  0.746637  1
  F  F9  1  0.034148  0.122603  0.253363  1
  F  F10  1  0.465852  0.377397  0.753363  1
  F  F11  1  0.965852  0.622603  0.246637  1
  F  F12  1  0.465852  0.122603  0.253363  1
  F  F13  1  0.965852  0.877397  0.746637  1
  F  F14  1  0.534148  0.622603  0.246637  1
  F  F15  1  0.034148  0.377397  0.753363  1
  F  F16  1  0.051122  0.117897  0.899401  1
  F  F17  1  0.551122  0.882103  0.100599  1
  F  F18  1  0.948878  0.617897  0.600599  1
  F  F19  1  0.448878  0.382103  0.399401  1
  F  F20  1  0.948878  0.882103  0.100599  1
  F  F21  1  0.448878  0.117897  0.899401  1
  F  F22  1  0.051122  0.382103  0.399401  1
  F  F23  1  0.551122  0.617897  0.600599  1
  F  F24  1  0.048617  0.634659  0.903416  1
  F  F25  1  0.548617  0.365341  0.096584  1
  F  F26  1  0.951383  0.134659  0.596584  1
  F  F27  1  0.451383  0.865341  0.403416  1
  F  F28  1  0.951383  0.365341  0.096584  1
  F  F29  1  0.451383  0.634659  0.903416  1
  F  F30  1  0.048617  0.865341  0.403416  1
  F  F31  1  0.548617  0.134659  0.596584  1
  K  K32  1  0.250000  0.877087  0.985613  1
  K  K33  1  0.750000  0.122913  0.014387  1
  K  K34  1  0.750000  0.377087  0.514387  1
  K  K35  1  0.250000  0.622913  0.485613  1
  K  K36  1  0.250000  0.375797  0.973425  1
  K  K37  1  0.750000  0.624203  0.026575  1
  K  K38  1  0.750000  0.875797  0.526575  1
  K  K39  1  0.250000  0.124203  0.473425  1
  Ti  Ti40  1  0.500593  0.627433  0.751810  1
  Ti  Ti41  1  0.000593  0.372567  0.248190  1
  Ti  Ti42  1  0.499407  0.127433  0.748190  1
  Ti  Ti43  1  0.999407  0.872567  0.251810  1
  Ti  Ti44  1  0.499407  0.372567  0.248190  1
  Ti  Ti45  1  0.999407  0.627433  0.751810  1
  Ti  Ti46  1  0.500593  0.872567  0.251810  1
  Ti  Ti47  1  0.000593  0.127433  0.748190  1
