# generated using pymatgen
data_Sm3(Ge2Ru)2
_symmetry_space_group_name_H-M   'P 1'
_cell_length_a   4.37056643
_cell_length_b   5.90995801
_cell_length_c   8.31069267
_cell_angle_alpha   107.70728545
_cell_angle_beta   90.00000000
_cell_angle_gamma   111.70099555
_symmetry_Int_Tables_number   1
_chemical_formula_structural   Sm3(Ge2Ru)2
_chemical_formula_sum   'Sm3 Ge4 Ru2'
_cell_volume   188.46057463
_cell_formula_units_Z   1
loop_
 _symmetry_equiv_pos_site_id
 _symmetry_equiv_pos_as_xyz
  1  'x, y, z'
loop_
 _atom_site_type_symbol
 _atom_site_label
 _atom_site_symmetry_multiplicity
 _atom_site_fract_x
 _atom_site_fract_y
 _atom_site_fract_z
 _atom_site_occupancy
  Ge  Ge0  1  0.286154  0.572308  0.919324  1
  Ge  Ge1  1  0.713846  0.427692  0.080676  1
  Ge  Ge2  1  0.901146  0.802292  0.597132  1
  Ge  Ge3  1  0.098854  0.197708  0.402868  1
  Ru  Ru4  1  0.314810  0.629620  0.638582  1
  Ru  Ru5  1  0.685190  0.370380  0.361418  1
  Sm  Sm6  1  0.000000  0.000000  0.000000  1
  Sm  Sm7  1  0.619441  0.238883  0.697357  1
  Sm  Sm8  1  0.380559  0.761117  0.302643  1
