# generated using pymatgen
data_Na3SiSe4
_symmetry_space_group_name_H-M   'P 1'
_cell_length_a   7.38454392
_cell_length_b   13.91295649
_cell_length_c   17.29445400
_cell_angle_alpha   90.00000000
_cell_angle_beta   90.00000000
_cell_angle_gamma   99.07362726
_symmetry_Int_Tables_number   1
_chemical_formula_structural   Na3SiSe4
_chemical_formula_sum   'Na24 Si8 Se32'
_cell_volume   1754.61213004
_cell_formula_units_Z   8
loop_
 _symmetry_equiv_pos_site_id
 _symmetry_equiv_pos_as_xyz
  1  'x, y, z'
loop_
 _atom_site_type_symbol
 _atom_site_label
 _atom_site_symmetry_multiplicity
 _atom_site_fract_x
 _atom_site_fract_y
 _atom_site_fract_z
 _atom_site_occupancy
  Na  Na0  1  0.948939  0.283189  0.948257  1
  Na  Na1  1  0.051061  0.216811  0.448257  1
  Na  Na2  1  0.051061  0.716811  0.051742  1
  Na  Na3  1  0.948939  0.783189  0.551743  1
  Na  Na4  1  0.423156  0.766128  0.673356  1
  Na  Na5  1  0.576844  0.733872  0.173356  1
  Na  Na6  1  0.576844  0.233872  0.326644  1
  Na  Na7  1  0.423156  0.266128  0.826644  1
  Na  Na8  1  0.017414  0.285601  0.699885  1
  Na  Na9  1  0.982586  0.214399  0.199885  1
  Na  Na10  1  0.982586  0.714399  0.300115  1
  Na  Na11  1  0.017414  0.785601  0.800115  1
  Na  Na12  1  0.581156  0.021350  0.608971  1
  Na  Na13  1  0.418844  0.478650  0.108971  1
  Na  Na14  1  0.418844  0.978650  0.391029  1
  Na  Na15  1  0.581156  0.521350  0.891029  1
  Na  Na16  1  0.704226  0.507528  0.671275  1
  Na  Na17  1  0.248575  0.003149  0.933168  1
  Na  Na18  1  0.248575  0.503149  0.566832  1
  Na  Na19  1  0.751425  0.996851  0.066832  1
  Na  Na20  1  0.704226  0.007528  0.828725  1
  Na  Na21  1  0.295774  0.492472  0.328725  1
  Na  Na22  1  0.295774  0.992472  0.171275  1
  Na  Na23  1  0.751425  0.496851  0.433168  1
  Si  Si24  1  0.399015  0.231071  0.025696  1
  Si  Si25  1  0.600985  0.268929  0.525696  1
  Si  Si26  1  0.600985  0.768929  0.974304  1
  Si  Si27  1  0.399015  0.731071  0.474304  1
  Si  Si28  1  0.114853  0.526904  0.776459  1
  Si  Si29  1  0.885147  0.973096  0.276459  1
  Si  Si30  1  0.885147  0.473096  0.223541  1
  Si  Si31  1  0.114853  0.026904  0.723541  1
  Se  Se32  1  0.327768  0.364593  0.966365  1
  Se  Se33  1  0.802271  0.387822  0.107411  1
  Se  Se34  1  0.802271  0.887822  0.392589  1
  Se  Se35  1  0.197729  0.612178  0.892589  1
  Se  Se36  1  0.148104  0.128063  0.066632  1
  Se  Se37  1  0.851896  0.371937  0.566632  1
  Se  Se38  1  0.851896  0.871937  0.933368  1
  Se  Se39  1  0.148104  0.628063  0.433368  1
  Se  Se40  1  0.334911  0.443290  0.733261  1
  Se  Se41  1  0.665089  0.056710  0.233261  1
  Se  Se42  1  0.665089  0.556710  0.266739  1
  Se  Se43  1  0.334911  0.943290  0.766739  1
  Se  Se44  1  0.525159  0.281272  0.147940  1
  Se  Se45  1  0.474841  0.218728  0.647940  1
  Se  Se46  1  0.474841  0.718728  0.852060  1
  Se  Se47  1  0.525159  0.781272  0.352060  1
  Se  Se48  1  0.197729  0.112178  0.607411  1
  Se  Se49  1  0.672232  0.135407  0.466365  1
  Se  Se50  1  0.672232  0.635407  0.033635  1
  Se  Se51  1  0.327768  0.864593  0.533635  1
  Se  Se52  1  0.057359  0.136129  0.814691  1
  Se  Se53  1  0.942641  0.363871  0.314691  1
  Se  Se54  1  0.942641  0.863871  0.185309  1
  Se  Se55  1  0.057359  0.636129  0.685309  1
  Se  Se56  1  0.863179  0.424562  0.818604  1
  Se  Se57  1  0.136821  0.075438  0.318604  1
  Se  Se58  1  0.136821  0.575438  0.181396  1
  Se  Se59  1  0.863179  0.924562  0.681396  1
  Se  Se60  1  0.403703  0.346193  0.456756  1
  Se  Se61  1  0.596297  0.153807  0.956756  1
  Se  Se62  1  0.596297  0.653807  0.543244  1
  Se  Se63  1  0.403703  0.846193  0.043244  1
