# generated using pymatgen
data_Na4Cd3Se5
_symmetry_space_group_name_H-M   'P 1'
_cell_length_a   4.31451776
_cell_length_b   14.29013489
_cell_length_c   20.50362624
_cell_angle_alpha   90.00000000
_cell_angle_beta   90.00000000
_cell_angle_gamma   90.00000000
_symmetry_Int_Tables_number   1
_chemical_formula_structural   Na4Cd3Se5
_chemical_formula_sum   'Na16 Cd12 Se20'
_cell_volume   1264.15191188
_cell_formula_units_Z   4
loop_
 _symmetry_equiv_pos_site_id
 _symmetry_equiv_pos_as_xyz
  1  'x, y, z'
loop_
 _atom_site_type_symbol
 _atom_site_label
 _atom_site_symmetry_multiplicity
 _atom_site_fract_x
 _atom_site_fract_y
 _atom_site_fract_z
 _atom_site_occupancy
  Na  Na0  1  0.250000  0.776016  0.333873  1
  Na  Na1  1  0.750000  0.223984  0.666127  1
  Na  Na2  1  0.250000  0.276016  0.166127  1
  Na  Na3  1  0.750000  0.723984  0.833873  1
  Na  Na4  1  0.250000  0.611603  0.448078  1
  Na  Na5  1  0.750000  0.388397  0.551922  1
  Na  Na6  1  0.250000  0.111603  0.051922  1
  Na  Na7  1  0.750000  0.888397  0.948078  1
  Na  Na8  1  0.250000  0.506951  0.918541  1
  Na  Na9  1  0.750000  0.493049  0.081459  1
  Na  Na10  1  0.250000  0.006951  0.581459  1
  Na  Na11  1  0.750000  0.993049  0.418541  1
  Na  Na12  1  0.250000  0.001141  0.233085  1
  Na  Na13  1  0.750000  0.998859  0.766915  1
  Na  Na14  1  0.250000  0.501141  0.266915  1
  Na  Na15  1  0.750000  0.498859  0.733085  1
  Se  Se16  1  0.250000  0.615296  0.151439  1
  Se  Se17  1  0.750000  0.861313  0.252751  1
  Se  Se18  1  0.750000  0.361313  0.247249  1
  Se  Se19  1  0.250000  0.638687  0.752751  1
  Se  Se20  1  0.750000  0.646266  0.968400  1
  Se  Se21  1  0.250000  0.353734  0.031600  1
  Se  Se22  1  0.750000  0.146266  0.531600  1
  Se  Se23  1  0.250000  0.853734  0.468400  1
  Se  Se24  1  0.750000  0.614403  0.343495  1
  Se  Se25  1  0.250000  0.385597  0.656505  1
  Se  Se26  1  0.750000  0.114403  0.156505  1
  Se  Se27  1  0.250000  0.885597  0.843495  1
  Se  Se28  1  0.750000  0.607202  0.554431  1
  Se  Se29  1  0.250000  0.392798  0.445569  1
  Se  Se30  1  0.750000  0.107202  0.945569  1
  Se  Se31  1  0.250000  0.892798  0.054431  1
  Se  Se32  1  0.250000  0.115296  0.348561  1
  Se  Se33  1  0.750000  0.884704  0.651439  1
  Se  Se34  1  0.250000  0.138687  0.747249  1
  Se  Se35  1  0.750000  0.384704  0.848561  1
  Cd  Cd36  1  0.250000  0.075732  0.869978  1
  Cd  Cd37  1  0.750000  0.924268  0.130022  1
  Cd  Cd38  1  0.250000  0.575732  0.630022  1
  Cd  Cd39  1  0.750000  0.424268  0.369978  1
  Cd  Cd40  1  0.250000  0.817158  0.716962  1
  Cd  Cd41  1  0.750000  0.182842  0.283038  1
  Cd  Cd42  1  0.250000  0.317158  0.783038  1
  Cd  Cd43  1  0.750000  0.682842  0.216962  1
  Cd  Cd44  1  0.250000  0.706232  0.035395  1
  Cd  Cd45  1  0.750000  0.293768  0.964605  1
  Cd  Cd46  1  0.250000  0.206232  0.464605  1
  Cd  Cd47  1  0.750000  0.793768  0.535395  1
