# generated using pymatgen
data_FeAsO4
_symmetry_space_group_name_H-M   'P 1'
_cell_length_a   5.12437800
_cell_length_b   7.72096208
_cell_length_c   8.26984110
_cell_angle_alpha   90.00000000
_cell_angle_beta   90.00000000
_cell_angle_gamma   104.93966961
_symmetry_Int_Tables_number   1
_chemical_formula_structural   FeAsO4
_chemical_formula_sum   'Fe4 As4 O16'
_cell_volume   316.13734037
_cell_formula_units_Z   4
loop_
 _symmetry_equiv_pos_site_id
 _symmetry_equiv_pos_as_xyz
  1  'x, y, z'
loop_
 _atom_site_type_symbol
 _atom_site_label
 _atom_site_symmetry_multiplicity
 _atom_site_fract_x
 _atom_site_fract_y
 _atom_site_fract_z
 _atom_site_occupancy
  O  O0  1  0.057478  0.869161  0.735156  1
  O  O1  1  0.442523  0.630840  0.235156  1
  O  O2  1  0.942522  0.130839  0.264844  1
  O  O3  1  0.557477  0.369161  0.764844  1
  O  O4  1  0.844028  0.110052  0.922373  1
  O  O5  1  0.655972  0.389947  0.422372  1
  O  O6  1  0.155973  0.889948  0.077627  1
  O  O7  1  0.344028  0.610052  0.577628  1
  O  O8  1  0.072257  0.248945  0.603428  1
  O  O9  1  0.427743  0.251054  0.103427  1
  O  O10  1  0.927743  0.751054  0.396572  1
  O  O11  1  0.572257  0.748946  0.896573  1
  O  O12  1  0.607594  0.977562  0.625319  1
  O  O13  1  0.392406  0.022437  0.374680  1
  O  O14  1  0.892406  0.522438  0.125319  1
  O  O15  1  0.107594  0.477562  0.874681  1
  Fe  Fe16  1  0.264745  0.674149  0.040626  1
  Fe  Fe17  1  0.235255  0.825850  0.540625  1
  Fe  Fe18  1  0.735255  0.325850  0.959375  1
  Fe  Fe19  1  0.764745  0.174149  0.459375  1
  As  As20  1  0.773872  0.927849  0.797564  1
  As  As21  1  0.726128  0.572151  0.297565  1
  As  As22  1  0.226128  0.072150  0.202436  1
  As  As23  1  0.273872  0.427850  0.702435  1
