# generated using pymatgen
data_P(HO)3
_symmetry_space_group_name_H-M   'P 1'
_cell_length_a   6.94141060
_cell_length_b   7.32099936
_cell_length_c   12.21619363
_cell_angle_alpha   90.00000000
_cell_angle_beta   90.00000000
_cell_angle_gamma   90.00000000
_symmetry_Int_Tables_number   1
_chemical_formula_structural   P(HO)3
_chemical_formula_sum   'P8 H24 O24'
_cell_volume   620.80329214
_cell_formula_units_Z   8
loop_
 _symmetry_equiv_pos_site_id
 _symmetry_equiv_pos_as_xyz
  1  'x, y, z'
loop_
 _atom_site_type_symbol
 _atom_site_label
 _atom_site_symmetry_multiplicity
 _atom_site_fract_x
 _atom_site_fract_y
 _atom_site_fract_z
 _atom_site_occupancy
  P  P0  1  -0.003209  0.004430  0.128345  1
  P  P1  1  0.496791  0.995570  0.871655  1
  P  P2  1  0.496791  0.495570  0.628345  1
  P  P3  1  -0.003209  0.504430  0.371655  1
  O  O4  1  0.965464  0.215463  0.120991  1
  O  O5  1  0.465464  0.784537  0.879009  1
  O  O6  1  0.465464  0.284537  0.620991  1
  O  O7  1  0.965464  0.715463  0.379009  1
  O  O8  1  0.963358  0.945969  0.006395  1
  O  O9  1  0.463358  0.054031  0.993605  1
  O  O10  1  0.463358  0.554031  0.506395  1
  O  O11  1  0.963358  0.445969  0.493605  1
  O  O12  1  0.868414  0.908293  0.211379  1
  O  O13  1  0.368414  0.091707  0.788621  1
  O  O14  1  0.368414  0.591707  0.711379  1
  O  O15  1  0.868414  0.408293  0.288621  1
  H  H16  1  0.190145  0.970502  0.154459  1
  H  H17  1  0.690145  0.029498  0.845541  1
  H  H18  1  0.690145  0.529498  0.654459  1
  H  H19  1  0.190145  0.470502  0.345541  1
  H  H20  1  0.936739  0.286406  0.191410  1
  H  H21  1  0.436739  0.713594  0.808590  1
  H  H22  1  0.436739  0.213594  0.691410  1
  H  H23  1  0.936739  0.786406  0.308590  1
  H  H24  1  0.983193  0.811936  0.986786  1
  H  H25  1  0.483193  0.188064  0.013214  1
  H  H26  1  0.483193  0.688064  0.486786  1
  H  H27  1  0.983193  0.311936  0.513214  1
  P  P28  1  0.465785  0.039179  0.379511  1
  P  P29  1  0.965785  0.960821  0.620489  1
  P  P30  1  0.965785  0.460821  0.879511  1
  P  P31  1  0.465785  0.539179  0.120489  1
  O  O32  1  0.245000  0.078037  0.370612  1
  O  O33  1  0.745000  0.921963  0.629388  1
  O  O34  1  0.745000  0.421963  0.870612  1
  O  O35  1  0.245000  0.578037  0.129388  1
  O  O36  1  0.516525  0.987864  0.258749  1
  O  O37  1  0.016525  0.012136  0.741251  1
  O  O38  1  0.016525  0.512136  0.758749  1
  O  O39  1  0.516525  0.487864  0.241251  1
  O  O40  1  0.520707  0.898070  0.465126  1
  O  O41  1  0.020707  0.101930  0.534874  1
  O  O42  1  0.020707  0.601930  0.965126  1
  O  O43  1  0.520707  0.398070  0.034874  1
  H  H44  1  0.560093  0.203523  0.404567  1
  H  H45  1  0.060093  0.796477  0.595433  1
  H  H46  1  0.060093  0.296477  0.904567  1
  H  H47  1  0.560093  0.703523  0.095433  1
  H  H48  1  0.162965  0.075574  0.440779  1
  H  H49  1  0.662965  0.924427  0.559221  1
  H  H50  1  0.662965  0.424426  0.940779  1
  H  H51  1  0.162965  0.575573  0.059221  1
  H  H52  1  0.657921  0.960929  0.240088  1
  H  H53  1  0.157921  0.039071  0.759912  1
  H  H54  1  0.157921  0.539071  0.740088  1
  H  H55  1  0.657921  0.460929  0.259912  1
