# generated using pymatgen
data_V2Pb2O7
_symmetry_space_group_name_H-M   'P 1'
_cell_length_a   7.24462006
_cell_length_b   7.36218933
_cell_length_c   13.50422847
_cell_angle_alpha   90.00000000
_cell_angle_beta   103.46695584
_cell_angle_gamma   90.00000000
_symmetry_Int_Tables_number   1
_chemical_formula_structural   V2Pb2O7
_chemical_formula_sum   'V8 Pb8 O28'
_cell_volume   700.46097602
_cell_formula_units_Z   4
loop_
 _symmetry_equiv_pos_site_id
 _symmetry_equiv_pos_as_xyz
  1  'x, y, z'
loop_
 _atom_site_type_symbol
 _atom_site_label
 _atom_site_symmetry_multiplicity
 _atom_site_fract_x
 _atom_site_fract_y
 _atom_site_fract_z
 _atom_site_occupancy
  O  O0  1  0.450532  0.404638  0.842860  1
  O  O1  1  0.049468  0.904638  0.657140  1
  O  O2  1  0.549468  0.595362  0.157140  1
  O  O3  1  0.950532  0.095362  0.342860  1
  O  O4  1  0.363490  0.676077  0.651857  1
  O  O5  1  0.136510  0.176077  0.848143  1
  O  O6  1  0.636510  0.323923  0.348143  1
  O  O7  1  0.863490  0.823923  0.151857  1
  O  O8  1  0.329856  0.003777  0.549418  1
  O  O9  1  0.170144  0.503777  0.950582  1
  O  O10  1  0.670144  0.996223  0.450582  1
  O  O11  1  0.829856  0.496223  0.049418  1
  O  O12  1  0.571100  0.790253  0.969748  1
  O  O13  1  0.928900  0.290253  0.530252  1
  O  O14  1  0.428900  0.209747  0.030252  1
  O  O15  1  0.071100  0.709747  0.469748  1
  O  O16  1  0.299459  0.384220  0.456905  1
  O  O17  1  0.200541  0.884220  0.043095  1
  O  O18  1  0.700541  0.615780  0.543095  1
  O  O19  1  0.799459  0.115780  0.956905  1
  O  O20  1  0.161758  0.192686  0.165679  1
  O  O21  1  0.338242  0.692686  0.334321  1
  O  O22  1  0.838242  0.807314  0.834321  1
  O  O23  1  0.661758  0.307314  0.665679  1
  O  O24  1  0.008916  0.491213  0.291330  1
  O  O25  1  0.491084  0.991213  0.208670  1
  O  O26  1  0.991084  0.508787  0.708670  1
  O  O27  1  0.508916  0.008787  0.791330  1
  V  V28  1  0.800396  0.175126  0.415396  1
  V  V29  1  0.699604  0.675126  0.084604  1
  V  V30  1  0.199604  0.824874  0.584604  1
  V  V31  1  0.300396  0.324874  0.915396  1
  V  V32  1  0.817555  0.433525  0.611187  1
  V  V33  1  0.682445  0.933525  0.888813  1
  V  V34  1  0.182445  0.566475  0.388813  1
  V  V35  1  0.317555  0.066475  0.111187  1
  Pb  Pb36  1  0.331081  0.331908  0.656424  1
  Pb  Pb37  1  0.168919  0.831908  0.843576  1
  Pb  Pb38  1  0.668919  0.668092  0.343576  1
  Pb  Pb39  1  0.831081  0.168092  0.156424  1
  Pb  Pb40  1  0.320718  0.103727  0.369455  1
  Pb  Pb41  1  0.179282  0.603727  0.130545  1
  Pb  Pb42  1  0.679282  0.896273  0.630545  1
  Pb  Pb43  1  0.820718  0.396273  0.869455  1
