# generated using pymatgen
data_NiBiO3
_symmetry_space_group_name_H-M   'P 1'
_cell_length_a   5.37151214
_cell_length_b   5.68496402
_cell_length_c   7.85577473
_cell_angle_alpha   89.86402379
_cell_angle_beta   90.28214195
_cell_angle_gamma   90.32645939
_symmetry_Int_Tables_number   1
_chemical_formula_structural   NiBiO3
_chemical_formula_sum   'Ni4 Bi4 O12'
_cell_volume   239.88317812
_cell_formula_units_Z   4
loop_
 _symmetry_equiv_pos_site_id
 _symmetry_equiv_pos_as_xyz
  1  'x, y, z'
loop_
 _atom_site_type_symbol
 _atom_site_label
 _atom_site_symmetry_multiplicity
 _atom_site_fract_x
 _atom_site_fract_y
 _atom_site_fract_z
 _atom_site_occupancy
  O  O0  1  0.679849  0.317701  0.564399  1
  O  O1  1  0.320151  0.682299  0.435601  1
  O  O2  1  0.201155  0.207061  0.427650  1
  O  O3  1  0.798845  0.792939  0.572350  1
  O  O4  1  0.317547  0.681679  0.071091  1
  O  O5  1  0.682453  0.318321  0.928910  1
  O  O6  1  0.802696  0.798181  0.933296  1
  O  O7  1  0.197304  0.201817  0.066704  1
  O  O8  1  0.150450  0.461961  0.749923  1
  O  O9  1  0.849550  0.538039  0.250077  1
  O  O10  1  0.382829  0.928585  0.750660  1
  O  O11  1  0.617171  0.071414  0.249340  1
  Ni  Ni12  1  0.999999  0.500000  0.500001  1
  Ni  Ni13  1  0.499999  1.000000  0.500000  1
  Ni  Ni14  1  1.000000  0.500001  0.000001  1
  Ni  Ni15  1  0.500000  0.000000  1.000000  1
  Bi  Bi16  1  0.530849  0.569345  0.746488  1
  Bi  Bi17  1  0.469151  0.430655  0.253512  1
  Bi  Bi18  1  0.020367  0.942259  0.247566  1
  Bi  Bi19  1  0.979633  0.057741  0.752433  1
