# generated using pymatgen
data_Hg3(TeCl)2
_symmetry_space_group_name_H-M   'P 1'
_cell_length_a   8.35140040
_cell_length_b   8.35140050
_cell_length_c   8.35140049
_cell_angle_alpha   109.47122057
_cell_angle_beta   109.47122082
_cell_angle_gamma   109.47122402
_symmetry_Int_Tables_number   1
_chemical_formula_structural   Hg3(TeCl)2
_chemical_formula_sum   'Hg6 Te4 Cl4'
_cell_volume   448.39010358
_cell_formula_units_Z   2
loop_
 _symmetry_equiv_pos_site_id
 _symmetry_equiv_pos_as_xyz
  1  'x, y, z'
loop_
 _atom_site_type_symbol
 _atom_site_label
 _atom_site_symmetry_multiplicity
 _atom_site_fract_x
 _atom_site_fract_y
 _atom_site_fract_z
 _atom_site_occupancy
  Hg  Hg0  1  0.250000  0.566878  0.316878  1
  Hg  Hg1  1  0.933122  0.183122  0.750000  1
  Hg  Hg2  1  0.183122  0.750000  0.933122  1
  Hg  Hg3  1  0.566878  0.316878  0.250000  1
  Hg  Hg4  1  0.316878  0.250000  0.566878  1
  Hg  Hg5  1  0.750000  0.933122  0.183122  1
  Te  Te6  1  0.558444  0.558444  0.558444  1
  Te  Te7  1  0.000000  0.941556  0.500000  1
  Te  Te8  1  0.500000  0.000000  0.941556  1
  Te  Te9  1  0.941556  0.500000  0.000000  1
  Cl  Cl10  1  0.021012  0.021012  0.021012  1
  Cl  Cl11  1  1.000000  0.478988  0.500000  1
  Cl  Cl12  1  0.500000  0.000000  0.478988  1
  Cl  Cl13  1  0.478988  0.500000  1.000000  1
