# generated using pymatgen
data_NdMnPO
_symmetry_space_group_name_H-M   'P 1'
_cell_length_a   4.10455596
_cell_length_b   4.10455596
_cell_length_c   8.90883745
_cell_angle_alpha   90.00000000
_cell_angle_beta   90.00000000
_cell_angle_gamma   90.00000000
_symmetry_Int_Tables_number   1
_chemical_formula_structural   NdMnPO
_chemical_formula_sum   'Nd2 Mn2 P2 O2'
_cell_volume   150.09056657
_cell_formula_units_Z   2
loop_
 _symmetry_equiv_pos_site_id
 _symmetry_equiv_pos_as_xyz
  1  'x, y, z'
loop_
 _atom_site_type_symbol
 _atom_site_label
 _atom_site_symmetry_multiplicity
 _atom_site_fract_x
 _atom_site_fract_y
 _atom_site_fract_z
 _atom_site_occupancy
  O  O0  1  0.250001  0.750000  0.000000  1
  O  O1  1  0.750000  0.250001  0.000000  1
  P  P2  1  0.750000  0.750000  0.326775  1
  P  P3  1  0.250001  0.250001  0.673225  1
  Mn  Mn4  1  0.250001  0.750000  0.500000  1
  Mn  Mn5  1  0.750000  0.250001  0.500000  1
  Nd  Nd6  1  0.750000  0.750000  0.870242  1
  Nd  Nd7  1  0.250001  0.250001  0.129758  1
