# generated using pymatgen
data_Np(SiAu)2
_symmetry_space_group_name_H-M   'P 1'
_cell_length_a   4.20184820
_cell_length_b   4.20184820
_cell_length_c   6.01827905
_cell_angle_alpha   110.43169667
_cell_angle_beta   110.43169664
_cell_angle_gamma   90.00000004
_symmetry_Int_Tables_number   1
_chemical_formula_structural   Np(SiAu)2
_chemical_formula_sum   'Np1 Si2 Au2'
_cell_volume   92.40424952
_cell_formula_units_Z   1
loop_
 _symmetry_equiv_pos_site_id
 _symmetry_equiv_pos_as_xyz
  1  'x, y, z'
loop_
 _atom_site_type_symbol
 _atom_site_label
 _atom_site_symmetry_multiplicity
 _atom_site_fract_x
 _atom_site_fract_y
 _atom_site_fract_z
 _atom_site_occupancy
  Si  Si0  1  0.608523  0.608523  0.217046  1
  Si  Si1  1  0.391477  0.391477  0.782954  1
  Au  Au2  1  0.750000  0.250000  0.500000  1
  Au  Au3  1  0.250000  0.750000  0.500000  1
  Np  Np4  1  0.000000  0.000000  0.000000  1
