# generated using pymatgen
data_CsSn2Br5
_symmetry_space_group_name_H-M   'P 1'
_cell_length_a   8.61771399
_cell_length_b   8.61899048
_cell_length_c   10.10276860
_cell_angle_alpha   115.27883006
_cell_angle_beta   115.24580971
_cell_angle_gamma   89.99999998
_symmetry_Int_Tables_number   1
_chemical_formula_structural   CsSn2Br5
_chemical_formula_sum   'Cs2 Sn4 Br10'
_cell_volume   598.31622166
_cell_formula_units_Z   2
loop_
 _symmetry_equiv_pos_site_id
 _symmetry_equiv_pos_as_xyz
  1  'x, y, z'
loop_
 _atom_site_type_symbol
 _atom_site_label
 _atom_site_symmetry_multiplicity
 _atom_site_fract_x
 _atom_site_fract_y
 _atom_site_fract_z
 _atom_site_occupancy
  Br  Br0  1  0.965189  0.465158  0.248749  1
  Br  Br1  1  0.716325  0.216367  0.750919  1
  Br  Br2  1  0.034811  0.534842  0.751251  1
  Br  Br3  1  0.216440  0.034842  0.751251  1
  Br  Br4  1  0.534594  0.716367  0.750919  1
  Br  Br5  1  0.783560  0.965158  0.248749  1
  Br  Br6  1  0.500000  0.500000  0.000000  1
  Br  Br7  1  0.000000  0.000000  0.000000  1
  Br  Br8  1  0.283675  0.783633  0.249081  1
  Br  Br9  1  0.465406  0.283633  0.249081  1
  Sn  Sn10  1  0.684713  0.184814  0.999768  1
  Sn  Sn11  1  0.815055  0.684814  0.999768  1
  Sn  Sn12  1  0.184945  0.315186  0.000232  1
  Sn  Sn13  1  0.315287  0.815186  0.000232  1
  Cs  Cs14  1  0.249954  0.250000  0.500000  1
  Cs  Cs15  1  0.750046  0.750000  0.500000  1
