# generated using pymatgen
data_Be3As2(H2O5)2
_symmetry_space_group_name_H-M   'P 1'
_cell_length_a   4.74300255
_cell_length_b   8.65709232
_cell_length_c   10.02948066
_cell_angle_alpha   94.32262781
_cell_angle_beta   90.00000000
_cell_angle_gamma   105.89869959
_symmetry_Int_Tables_number   1
_chemical_formula_structural   Be3As2(H2O5)2
_chemical_formula_sum   'Be6 As4 H8 O20'
_cell_volume   394.84543156
_cell_formula_units_Z   2
loop_
 _symmetry_equiv_pos_site_id
 _symmetry_equiv_pos_as_xyz
  1  'x, y, z'
loop_
 _atom_site_type_symbol
 _atom_site_label
 _atom_site_symmetry_multiplicity
 _atom_site_fract_x
 _atom_site_fract_y
 _atom_site_fract_z
 _atom_site_occupancy
  H  H0  1  0.721808  0.814739  0.896521  1
  H  H1  1  0.852356  0.898010  0.337937  1
  H  H2  1  0.954346  0.101990  0.162063  1
  H  H3  1  0.147644  0.101990  0.662063  1
  H  H4  1  0.045654  0.898010  0.837937  1
  H  H5  1  0.092932  0.814739  0.396521  1
  H  H6  1  0.278192  0.185261  0.103479  1
  H  H7  1  0.907068  0.185261  0.603479  1
  Be  Be8  1  0.207213  0.505814  0.338771  1
  Be  Be9  1  0.701399  0.494186  0.161229  1
  Be  Be10  1  0.792787  0.494186  0.661229  1
  Be  Be11  1  0.298601  0.505814  0.838771  1
  Be  Be12  1  0.683826  0.000000  0.750000  1
  Be  Be13  1  0.316174  0.000000  0.250000  1
  O  O14  1  0.578342  0.330968  0.058752  1
  O  O15  1  0.752626  0.330968  0.558752  1
  O  O16  1  0.421658  0.669032  0.941248  1
  O  O17  1  0.247374  0.669032  0.441248  1
  O  O18  1  0.469466  0.878425  0.168411  1
  O  O19  1  0.930624  0.642780  0.101139  1
  O  O20  1  0.530534  0.121575  0.831589  1
  O  O21  1  0.408959  0.878425  0.668411  1
  O  O22  1  0.402645  0.554173  0.202511  1
  O  O23  1  0.848473  0.445827  0.297489  1
  O  O24  1  0.597355  0.445827  0.797489  1
  O  O25  1  0.151527  0.554173  0.702511  1
  O  O26  1  0.591041  0.121575  0.331589  1
  O  O27  1  0.287845  0.357220  0.398861  1
  O  O28  1  0.069376  0.357220  0.898861  1
  O  O29  1  0.712155  0.642780  0.601139  1
  O  O30  1  0.939437  0.089956  0.646073  1
  O  O31  1  0.150519  0.089956  0.146073  1
  O  O32  1  0.060563  0.910044  0.353927  1
  O  O33  1  0.849481  0.910044  0.853927  1
  As  As34  1  0.697209  0.310678  0.898960  1
  As  As35  1  0.613469  0.310678  0.398960  1
  As  As36  1  0.302791  0.689322  0.101040  1
  As  As37  1  0.386531  0.689322  0.601040  1
