# generated using pymatgen
data_SbAsF8
_symmetry_space_group_name_H-M   'P 1'
_cell_length_a   5.73666512
_cell_length_b   7.00908663
_cell_length_c   8.35854140
_cell_angle_alpha   90.00000000
_cell_angle_beta   90.00000000
_cell_angle_gamma   95.35804395
_symmetry_Int_Tables_number   1
_chemical_formula_structural   SbAsF8
_chemical_formula_sum   'Sb2 As2 F16'
_cell_volume   334.61828169
_cell_formula_units_Z   2
loop_
 _symmetry_equiv_pos_site_id
 _symmetry_equiv_pos_as_xyz
  1  'x, y, z'
loop_
 _atom_site_type_symbol
 _atom_site_label
 _atom_site_symmetry_multiplicity
 _atom_site_fract_x
 _atom_site_fract_y
 _atom_site_fract_z
 _atom_site_occupancy
  F  F0  1  0.230078  0.786274  0.477237  1
  F  F1  1  0.769922  0.213726  0.977237  1
  F  F2  1  0.769922  0.213726  0.522763  1
  F  F3  1  0.230078  0.786274  0.022763  1
  F  F4  1  0.982233  0.965514  0.250000  1
  F  F5  1  0.017767  0.034486  0.750000  1
  F  F6  1  0.297785  0.291673  0.093973  1
  F  F7  1  0.702215  0.708327  0.593973  1
  F  F8  1  0.702215  0.708327  0.906027  1
  F  F9  1  0.297785  0.291673  0.406027  1
  F  F10  1  0.463607  -0.001261  0.250000  1
  F  F11  1  0.536393  1.001261  0.750000  1
  F  F12  1  0.463733  0.616352  0.250000  1
  F  F13  1  0.536267  0.383648  0.750000  1
  F  F14  1  0.978285  0.567167  0.250000  1
  F  F15  1  0.021715  0.432833  0.750000  1
  As  As16  1  0.500532  0.298226  0.250000  1
  As  As17  1  0.499468  0.701774  0.750000  1
  Sb  Sb18  1  0.203489  0.782584  0.250000  1
  Sb  Sb19  1  0.796511  0.217416  0.750000  1
