# generated using pymatgen
data_U3Co4Ge7
_symmetry_space_group_name_H-M   'P 1'
_cell_length_a   4.13810151
_cell_length_b   4.13810151
_cell_length_c   13.88967511
_cell_angle_alpha   98.56684862
_cell_angle_beta   98.56684860
_cell_angle_gamma   90.00000000
_symmetry_Int_Tables_number   1
_chemical_formula_structural   U3Co4Ge7
_chemical_formula_sum   'U3 Co4 Ge7'
_cell_volume   232.50749815
_cell_formula_units_Z   1
loop_
 _symmetry_equiv_pos_site_id
 _symmetry_equiv_pos_as_xyz
  1  'x, y, z'
loop_
 _atom_site_type_symbol
 _atom_site_label
 _atom_site_symmetry_multiplicity
 _atom_site_fract_x
 _atom_site_fract_y
 _atom_site_fract_z
 _atom_site_occupancy
  Co  Co0  1  0.750000  0.250000  0.500000  1
  Co  Co1  1  0.250000  0.750000  0.500000  1
  Co  Co2  1  0.882311  0.882311  0.764622  1
  Co  Co3  1  0.117689  0.117689  0.235378  1
  Ge  Ge4  1  0.580762  0.080762  0.161525  1
  Ge  Ge5  1  0.796762  0.796762  0.593525  1
  Ge  Ge6  1  0.203238  0.203238  0.406475  1
  Ge  Ge7  1  0.500000  0.500000  0.000000  1
  Ge  Ge8  1  0.919238  0.419238  0.838475  1
  Ge  Ge9  1  0.419238  0.919238  0.838475  1
  Ge  Ge10  1  0.080762  0.580762  0.161525  1
  U  U11  1  0.673420  0.673420  0.346839  1
  U  U12  1  0.326580  0.326580  0.653161  1
  U  U13  1  0.000000  0.000000  0.000000  1
