# generated using pymatgen
data_OsBr4
_symmetry_space_group_name_H-M   'P 1'
_cell_length_a   6.43324678
_cell_length_b   13.14401235
_cell_length_c   15.46428937
_cell_angle_alpha   90.00000000
_cell_angle_beta   90.00000000
_cell_angle_gamma   90.00000000
_symmetry_Int_Tables_number   1
_chemical_formula_structural   OsBr4
_chemical_formula_sum   'Os8 Br32'
_cell_volume   1307.63982091
_cell_formula_units_Z   8
loop_
 _symmetry_equiv_pos_site_id
 _symmetry_equiv_pos_as_xyz
  1  'x, y, z'
loop_
 _atom_site_type_symbol
 _atom_site_label
 _atom_site_symmetry_multiplicity
 _atom_site_fract_x
 _atom_site_fract_y
 _atom_site_fract_z
 _atom_site_occupancy
  Os  Os0  1  0.596619  0.870814  0.815506  1
  Os  Os1  1  0.903381  0.370814  0.815506  1
  Os  Os2  1  0.903381  0.129186  0.315506  1
  Os  Os3  1  0.403381  0.370814  0.684494  1
  Os  Os4  1  0.403381  0.129186  0.184494  1
  Os  Os5  1  0.596619  0.629186  0.315506  1
  Os  Os6  1  0.096619  0.629186  0.184494  1
  Os  Os7  1  0.096619  0.870814  0.684494  1
  Br  Br8  1  0.231228  0.475617  0.806293  1
  Br  Br9  1  0.758819  0.013272  0.422101  1
  Br  Br10  1  0.241181  0.986728  0.577899  1
  Br  Br11  1  0.951031  0.755445  0.577926  1
  Br  Br12  1  0.925423  0.733166  0.306332  1
  Br  Br13  1  0.925423  0.766834  0.806332  1
  Br  Br14  1  0.258819  0.486728  0.577899  1
  Br  Br15  1  0.548969  0.255445  0.577926  1
  Br  Br16  1  0.048969  0.244555  0.422074  1
  Br  Br17  1  0.758819  0.486728  0.922101  1
  Br  Br18  1  0.241181  0.513272  0.077899  1
  Br  Br19  1  0.731228  0.024383  0.193707  1
  Br  Br20  1  0.425423  0.733166  0.193668  1
  Br  Br21  1  0.768772  0.975617  0.693707  1
  Br  Br22  1  0.451031  0.744555  0.422074  1
  Br  Br23  1  0.951031  0.744555  0.077926  1
  Br  Br24  1  0.574577  0.233166  0.306332  1
  Br  Br25  1  0.268772  0.975617  0.806293  1
  Br  Br26  1  0.768772  0.524383  0.193707  1
  Br  Br27  1  0.574577  0.266834  0.806332  1
  Br  Br28  1  0.231228  0.024383  0.306293  1
  Br  Br29  1  0.268772  0.524383  0.306293  1
  Br  Br30  1  0.548969  0.244555  0.077926  1
  Br  Br31  1  0.741181  0.986728  0.922101  1
  Br  Br32  1  0.048969  0.255445  0.922074  1
  Br  Br33  1  0.731228  0.475617  0.693707  1
  Br  Br34  1  0.741181  0.513272  0.422101  1
  Br  Br35  1  0.258819  0.013272  0.077899  1
  Br  Br36  1  0.425423  0.766834  0.693668  1
  Br  Br37  1  0.074577  0.233166  0.193668  1
  Br  Br38  1  0.451031  0.755445  0.922074  1
  Br  Br39  1  0.074577  0.266834  0.693668  1
