# generated using pymatgen
data_K2CeNb5O15
_symmetry_space_group_name_H-M   'P 1'
_cell_length_a   3.98706387
_cell_length_b   12.81862108
_cell_length_c   12.81862108
_cell_angle_alpha   90.00000000
_cell_angle_beta   90.00000000
_cell_angle_gamma   90.00000000
_symmetry_Int_Tables_number   1
_chemical_formula_structural   K2CeNb5O15
_chemical_formula_sum   'K4 Ce2 Nb10 O30'
_cell_volume   655.14255890
_cell_formula_units_Z   2
loop_
 _symmetry_equiv_pos_site_id
 _symmetry_equiv_pos_as_xyz
  1  'x, y, z'
loop_
 _atom_site_type_symbol
 _atom_site_label
 _atom_site_symmetry_multiplicity
 _atom_site_fract_x
 _atom_site_fract_y
 _atom_site_fract_z
 _atom_site_occupancy
  O  O0  1  0.499999  0.716760  0.216760  1
  O  O1  1  0.499999  0.783241  0.716760  1
  O  O2  1  0.499999  0.216760  0.283241  1
  O  O3  1  0.499999  0.283241  0.783241  1
  O  O4  1  0.499999  0.440021  0.369268  1
  O  O5  1  0.499999  0.559979  0.630731  1
  O  O6  1  0.499999  0.369268  0.559979  1
  O  O7  1  0.499999  0.630731  0.440021  1
  O  O8  1  0.499999  0.869268  0.940021  1
  O  O9  1  0.499999  0.059979  0.869268  1
  O  O10  1  0.499999  0.940021  0.130732  1
  O  O11  1  0.499999  0.130732  0.059979  1
  O  O12  1  0.499999  0.157947  0.501768  1
  O  O13  1  0.499999  0.842052  0.498231  1
  O  O14  1  0.499999  0.501768  0.842052  1
  O  O15  1  0.499999  0.498231  0.157947  1
  O  O16  1  0.000000  0.000000  0.500000  1
  O  O17  1  0.000000  0.500000  0.000000  1
  O  O18  1  0.000000  0.076748  0.190003  1
  O  O19  1  0.000000  0.809998  0.076748  1
  O  O20  1  0.000000  0.190003  0.923252  1
  O  O21  1  0.000000  0.923252  0.809998  1
  O  O22  1  0.000000  0.576748  0.309997  1
  O  O23  1  0.499999  0.001768  0.657948  1
  O  O24  1  0.000000  0.690003  0.576748  1
  O  O25  1  0.000000  0.309997  0.423252  1
  O  O26  1  0.499999  0.998231  0.342052  1
  O  O27  1  0.499999  0.657948  0.998231  1
  O  O28  1  0.499999  0.342052  0.001768  1
  O  O29  1  0.000000  0.423252  0.690003  1
  K  K30  1  0.000000  0.830148  0.330148  1
  K  K31  1  0.000000  0.669852  0.830148  1
  K  K32  1  0.000000  0.330148  0.169852  1
  K  K33  1  0.000000  0.169852  0.669852  1
  Nb  Nb34  1  0.499999  0.423376  0.713003  1
  Nb  Nb35  1  0.499999  0.000000  0.500000  1
  Nb  Nb36  1  0.499999  0.286996  0.423376  1
  Nb  Nb37  1  0.499999  0.713003  0.576623  1
  Nb  Nb38  1  0.499999  0.500000  0.000000  1
  Nb  Nb39  1  0.499999  0.576623  0.286996  1
  Nb  Nb40  1  0.499999  0.076623  0.213003  1
  Nb  Nb41  1  0.499999  0.213003  0.923376  1
  Nb  Nb42  1  0.499999  0.786996  0.076623  1
  Nb  Nb43  1  0.499999  0.923376  0.786996  1
  Ce  Ce44  1  0.000000  0.500000  0.500000  1
  Ce  Ce45  1  0.000000  0.000000  0.000000  1
