# generated using pymatgen
data_Sc(US2)3
_symmetry_space_group_name_H-M   'P 1'
_cell_length_a   3.77679719
_cell_length_b   13.33947153
_cell_length_c   16.31977440
_cell_angle_alpha   90.00000000
_cell_angle_beta   90.00000000
_cell_angle_gamma   90.00000000
_symmetry_Int_Tables_number   1
_chemical_formula_structural   Sc(US2)3
_chemical_formula_sum   'Sc4 U12 S24'
_cell_volume   822.19804476
_cell_formula_units_Z   4
loop_
 _symmetry_equiv_pos_site_id
 _symmetry_equiv_pos_as_xyz
  1  'x, y, z'
loop_
 _atom_site_type_symbol
 _atom_site_label
 _atom_site_symmetry_multiplicity
 _atom_site_fract_x
 _atom_site_fract_y
 _atom_site_fract_z
 _atom_site_occupancy
  Sc  Sc0  1  0.500000  0.000000  0.500000  1
  Sc  Sc1  1  -0.000000  0.500000  0.500000  1
  Sc  Sc2  1  0.500000  0.000000  -0.000000  1
  Sc  Sc3  1  -0.000000  0.500000  -0.000000  1
  U  U4  1  0.500000  0.449456  0.716803  1
  U  U5  1  -0.000000  0.179476  0.651311  1
  U  U6  1  0.500000  0.749733  0.098638  1
  U  U7  1  0.000000  0.249733  0.401362  1
  U  U8  1  -0.000000  0.820524  0.348689  1
  U  U9  1  -0.000000  0.050544  0.216803  1
  U  U10  1  0.500000  0.550544  0.283197  1
  U  U11  1  0.500000  0.320524  0.151311  1
  U  U12  1  0.500000  0.250267  0.901362  1
  U  U13  1  -0.000000  0.949456  0.783197  1
  U  U14  1  0.500000  0.679476  0.848689  1
  U  U15  1  -0.000000  0.750267  0.598638  1
  S  S16  1  0.000000  0.626023  0.390823  1
  S  S17  1  0.000000  0.907769  0.078576  1
  S  S18  1  0.500000  0.126023  0.109177  1
  S  S19  1  0.500000  0.475499  0.893833  1
  S  S20  1  0.000000  0.310346  0.024441  1
  S  S21  1  -0.000000  0.373977  0.609177  1
  S  S22  1  0.000000  0.975499  0.606167  1
  S  S23  1  0.500000  0.873977  0.890823  1
  S  S24  1  0.500000  0.189654  0.524441  1
  S  S25  1  -0.000000  0.685664  0.211353  1
  S  S26  1  0.500000  0.407769  0.421424  1
  S  S27  1  0.000000  0.092231  0.921424  1
  S  S28  1  -0.000000  0.024501  0.393833  1
  S  S29  1  0.500000  0.099908  0.753643  1
  S  S30  1  0.500000  0.185664  0.288647  1
  S  S31  1  0.000000  0.314336  0.788647  1
  S  S32  1  0.500000  0.592231  0.578576  1
  S  S33  1  0.500000  0.810346  0.475559  1
  S  S34  1  0.500000  0.524501  0.106167  1
  S  S35  1  0.500000  0.814336  0.711353  1
  S  S36  1  0.000000  0.599908  0.746357  1
  S  S37  1  -0.000000  0.689654  0.975559  1
  S  S38  1  0.000000  0.400092  0.253643  1
  S  S39  1  0.500000  0.900092  0.246357  1
