# generated using pymatgen
data_NbCrSe5
_symmetry_space_group_name_H-M   'P 1'
_cell_length_a   3.54995878
_cell_length_b   9.50287965
_cell_length_c   10.51093133
_cell_angle_alpha   116.15648288
_cell_angle_beta   90.00000000
_cell_angle_gamma   90.00000000
_symmetry_Int_Tables_number   1
_chemical_formula_structural   NbCrSe5
_chemical_formula_sum   'Nb2 Cr2 Se10'
_cell_volume   318.27271493
_cell_formula_units_Z   2
loop_
 _symmetry_equiv_pos_site_id
 _symmetry_equiv_pos_as_xyz
  1  'x, y, z'
loop_
 _atom_site_type_symbol
 _atom_site_label
 _atom_site_symmetry_multiplicity
 _atom_site_fract_x
 _atom_site_fract_y
 _atom_site_fract_z
 _atom_site_occupancy
  Cr  Cr0  1  0.250000  0.569203  0.895504  1
  Cr  Cr1  1  0.750000  0.430797  0.104496  1
  Se  Se2  1  0.750000  0.482643  0.365330  1
  Se  Se3  1  0.250000  0.635811  0.150756  1
  Se  Se4  1  0.250000  0.517357  0.634670  1
  Se  Se5  1  0.750000  0.169795  0.495628  1
  Se  Se6  1  0.250000  0.830205  0.504372  1
  Se  Se7  1  0.250000  0.960969  0.757719  1
  Se  Se8  1  0.250000  0.233825  0.088322  1
  Se  Se9  1  0.750000  0.039031  0.242281  1
  Se  Se10  1  0.750000  0.766175  0.911678  1
  Se  Se11  1  0.750000  0.364189  0.849244  1
  Nb  Nb12  1  0.750000  0.727700  0.636448  1
  Nb  Nb13  1  0.250000  0.272300  0.363552  1
