# generated using pymatgen
data_Hf27P16
_symmetry_space_group_name_H-M   'P 1'
_cell_length_a   3.54380910
_cell_length_b   14.93891896
_cell_length_c   14.93891896
_cell_angle_alpha   77.22219722
_cell_angle_beta   83.18811385
_cell_angle_gamma   83.18811389
_symmetry_Int_Tables_number   1
_chemical_formula_structural   Hf27P16
_chemical_formula_sum   'Hf27 P16'
_cell_volume   762.35319299
_cell_formula_units_Z   1
loop_
 _symmetry_equiv_pos_site_id
 _symmetry_equiv_pos_as_xyz
  1  'x, y, z'
loop_
 _atom_site_type_symbol
 _atom_site_label
 _atom_site_symmetry_multiplicity
 _atom_site_fract_x
 _atom_site_fract_y
 _atom_site_fract_z
 _atom_site_occupancy
  P  P0  1  0.000000  0.138519  0.861481  1
  P  P1  1  0.000000  0.861481  0.138519  1
  P  P2  1  0.500000  0.691299  0.308701  1
  P  P3  1  0.500000  0.308701  0.691299  1
  P  P4  1  0.439881  0.560119  0.560119  1
  P  P5  1  0.560119  0.439881  0.439881  1
  P  P6  1  0.124690  0.875310  0.875310  1
  P  P7  1  0.875310  0.124690  0.124690  1
  P  P8  1  0.656782  0.611748  0.074689  1
  P  P9  1  0.343218  0.388252  0.925311  1
  P  P10  1  0.343218  0.925311  0.388252  1
  P  P11  1  0.656782  0.074689  0.611748  1
  P  P12  1  0.714517  0.361213  0.209754  1
  P  P13  1  0.285483  0.638787  0.790246  1
  P  P14  1  0.285483  0.790246  0.638787  1
  P  P15  1  0.714517  0.209754  0.361213  1
  Hf  Hf16  1  0.579967  0.013024  0.827042  1
  Hf  Hf17  1  0.420033  0.986976  0.172958  1
  Hf  Hf18  1  0.420033  0.172958  0.986976  1
  Hf  Hf19  1  0.579967  0.827042  0.013024  1
  Hf  Hf20  1  0.284702  0.215298  0.215298  1
  Hf  Hf21  1  0.715298  0.784702  0.784702  1
  Hf  Hf22  1  0.146732  0.353268  0.353268  1
  Hf  Hf23  1  0.853268  0.646732  0.646732  1
  Hf  Hf24  1  0.000000  0.583844  0.416156  1
  Hf  Hf25  1  0.000000  0.416156  0.583844  1
  Hf  Hf26  1  0.000000  0.000000  0.000000  1
  Hf  Hf27  1  0.784595  0.529461  0.901348  1
  Hf  Hf28  1  0.215405  0.470539  0.098652  1
  Hf  Hf29  1  0.215405  0.098652  0.470539  1
  Hf  Hf30  1  0.784595  0.901348  0.529461  1
  Hf  Hf31  1  0.928822  0.316828  0.825528  1
  Hf  Hf32  1  0.071178  0.683172  0.174472  1
  Hf  Hf33  1  0.071178  0.174472  0.683172  1
  Hf  Hf34  1  0.928822  0.825528  0.316828  1
  Hf  Hf35  1  0.817430  0.315831  0.049308  1
  Hf  Hf36  1  0.182570  0.684169  0.950692  1
  Hf  Hf37  1  0.182570  0.950692  0.684169  1
  Hf  Hf38  1  0.817430  0.049308  0.315831  1
  Hf  Hf39  1  0.608570  0.522830  0.260030  1
  Hf  Hf40  1  0.391430  0.477170  0.739970  1
  Hf  Hf41  1  0.391430  0.739970  0.477170  1
  Hf  Hf42  1  0.608570  0.260030  0.522830  1
