# generated using pymatgen
data_PBr2N
_symmetry_space_group_name_H-M   'P 1'
_cell_length_a   7.01646211
_cell_length_b   14.31017164
_cell_length_c   15.24623060
_cell_angle_alpha   90.00000000
_cell_angle_beta   90.00000000
_cell_angle_gamma   90.00000000
_symmetry_Int_Tables_number   1
_chemical_formula_structural   PBr2N
_chemical_formula_sum   'P12 Br24 N12'
_cell_volume   1530.82487746
_cell_formula_units_Z   12
loop_
 _symmetry_equiv_pos_site_id
 _symmetry_equiv_pos_as_xyz
  1  'x, y, z'
loop_
 _atom_site_type_symbol
 _atom_site_label
 _atom_site_symmetry_multiplicity
 _atom_site_fract_x
 _atom_site_fract_y
 _atom_site_fract_z
 _atom_site_occupancy
  N  N0  1  0.408062  0.750000  0.861199  1
  N  N1  1  0.908062  0.250000  0.638801  1
  N  N2  1  0.591938  0.250000  0.138801  1
  N  N3  1  0.091938  0.750000  0.361199  1
  N  N4  1  0.540237  0.846232  0.005437  1
  N  N5  1  0.040237  0.153768  0.494563  1
  N  N6  1  0.459763  0.346232  0.994563  1
  N  N7  1  0.959763  0.653768  0.505437  1
  N  N8  1  0.459763  0.153768  0.994563  1
  N  N9  1  0.959763  0.846232  0.505437  1
  N  N10  1  0.540237  0.653768  0.005437  1
  N  N11  1  0.040237  0.346232  0.494563  1
  P  P12  1  0.579816  0.750000  0.055753  1
  P  P13  1  0.079816  0.250000  0.444247  1
  P  P14  1  0.420184  0.250000  0.944247  1
  P  P15  1  0.920184  0.750000  0.555753  1
  P  P16  1  0.443131  0.847243  0.910676  1
  P  P17  1  0.943131  0.152757  0.589324  1
  P  P18  1  0.556869  0.347243  0.089324  1
  P  P19  1  0.056869  0.652757  0.410676  1
  P  P20  1  0.556869  0.152757  0.089324  1
  P  P21  1  0.056869  0.847243  0.410676  1
  P  P22  1  0.443131  0.652757  0.910676  1
  P  P23  1  0.943131  0.347243  0.589324  1
  Br  Br24  1  0.416729  0.750000  0.179887  1
  Br  Br25  1  0.916729  0.250000  0.320113  1
  Br  Br26  1  0.583271  0.250000  0.820113  1
  Br  Br27  1  0.083271  0.750000  0.679887  1
  Br  Br28  1  0.876303  0.750000  0.101937  1
  Br  Br29  1  0.376303  0.250000  0.398063  1
  Br  Br30  1  0.123697  0.250000  0.898063  1
  Br  Br31  1  0.623697  0.750000  0.601937  1
  Br  Br32  1  0.168145  0.922266  0.918648  1
  Br  Br33  1  0.668145  0.077734  0.581352  1
  Br  Br34  1  0.831855  0.422266  0.081352  1
  Br  Br35  1  0.331855  0.577734  0.418648  1
  Br  Br36  1  0.831855  0.077734  0.081352  1
  Br  Br37  1  0.331855  0.922266  0.418648  1
  Br  Br38  1  0.168145  0.577734  0.918648  1
  Br  Br39  1  0.668145  0.422266  0.581352  1
  Br  Br40  1  0.611149  0.938392  0.824032  1
  Br  Br41  1  0.111149  0.061608  0.675968  1
  Br  Br42  1  0.388851  0.438392  0.175968  1
  Br  Br43  1  0.888851  0.561608  0.324032  1
  Br  Br44  1  0.388851  0.061608  0.175968  1
  Br  Br45  1  0.888851  0.938392  0.324032  1
  Br  Br46  1  0.611149  0.561608  0.824032  1
  Br  Br47  1  0.111149  0.438392  0.675968  1
