# generated using pymatgen
data_Sm2InPd2
_symmetry_space_group_name_H-M   'P 1'
_cell_length_a   3.83598879
_cell_length_b   7.81784677
_cell_length_c   7.81784677
_cell_angle_alpha   90.00000000
_cell_angle_beta   90.00000000
_cell_angle_gamma   90.00000000
_symmetry_Int_Tables_number   1
_chemical_formula_structural   Sm2InPd2
_chemical_formula_sum   'Sm4 In2 Pd4'
_cell_volume   234.45075592
_cell_formula_units_Z   2
loop_
 _symmetry_equiv_pos_site_id
 _symmetry_equiv_pos_as_xyz
  1  'x, y, z'
loop_
 _atom_site_type_symbol
 _atom_site_label
 _atom_site_symmetry_multiplicity
 _atom_site_fract_x
 _atom_site_fract_y
 _atom_site_fract_z
 _atom_site_occupancy
  Pd  Pd0  1  0.000000  0.126991  0.373009  1
  Pd  Pd1  1  0.000000  0.373009  0.873009  1
  Pd  Pd2  1  0.000000  0.626991  0.126991  1
  Pd  Pd3  1  0.000000  0.873009  0.626991  1
  In  In4  1  0.000000  0.000000  0.000000  1
  In  In5  1  0.000000  0.500000  0.500000  1
  Sm  Sm6  1  0.500000  0.824911  0.324911  1
  Sm  Sm7  1  0.500000  0.675089  0.824911  1
  Sm  Sm8  1  0.500000  0.324911  0.175089  1
  Sm  Sm9  1  0.500000  0.175089  0.675089  1
