# generated using pymatgen
data_TlAgSe
_symmetry_space_group_name_H-M   'P 1'
_cell_length_a   4.70091345
_cell_length_b   8.47508160
_cell_length_c   7.68612704
_cell_angle_alpha   90.00000000
_cell_angle_beta   90.00000000
_cell_angle_gamma   90.00000000
_symmetry_Int_Tables_number   1
_chemical_formula_structural   TlAgSe
_chemical_formula_sum   'Tl4 Ag4 Se4'
_cell_volume   306.22010574
_cell_formula_units_Z   4
loop_
 _symmetry_equiv_pos_site_id
 _symmetry_equiv_pos_as_xyz
  1  'x, y, z'
loop_
 _atom_site_type_symbol
 _atom_site_label
 _atom_site_symmetry_multiplicity
 _atom_site_fract_x
 _atom_site_fract_y
 _atom_site_fract_z
 _atom_site_occupancy
  Se  Se0  1  0.250000  0.815415  0.400283  1
  Se  Se1  1  0.750000  0.184585  0.599717  1
  Se  Se2  1  0.250000  0.315415  0.099717  1
  Se  Se3  1  0.750000  0.684585  0.900283  1
  Ag  Ag4  1  0.750000  0.324672  0.915558  1
  Ag  Ag5  1  0.250000  0.675328  0.084442  1
  Ag  Ag6  1  0.750000  0.824672  0.584442  1
  Ag  Ag7  1  0.250000  0.175328  0.415558  1
  Tl  Tl8  1  0.250000  -0.000763  0.816423  1
  Tl  Tl9  1  0.750000  1.000763  0.183577  1
  Tl  Tl10  1  0.250000  0.499237  0.683577  1
  Tl  Tl11  1  0.750000  0.500763  0.316423  1
