# generated using pymatgen
data_Nb3Cl5O2
_symmetry_space_group_name_H-M   'P 1'
_cell_length_a   6.78745943
_cell_length_b   8.19295221
_cell_length_c   14.85800636
_cell_angle_alpha   90.00000000
_cell_angle_beta   90.00000000
_cell_angle_gamma   90.00000000
_symmetry_Int_Tables_number   1
_chemical_formula_structural   Nb3Cl5O2
_chemical_formula_sum   'Nb12 Cl20 O8'
_cell_volume   826.24378977
_cell_formula_units_Z   4
loop_
 _symmetry_equiv_pos_site_id
 _symmetry_equiv_pos_as_xyz
  1  'x, y, z'
loop_
 _atom_site_type_symbol
 _atom_site_label
 _atom_site_symmetry_multiplicity
 _atom_site_fract_x
 _atom_site_fract_y
 _atom_site_fract_z
 _atom_site_occupancy
  O  O0  1  0.721131  0.490786  0.274025  1
  O  O1  1  0.721131  0.509214  0.725975  1
  O  O2  1  0.778869  0.990786  0.225975  1
  O  O3  1  0.778869  0.009214  0.774025  1
  O  O4  1  0.278869  0.509214  0.725975  1
  O  O5  1  0.278869  0.490786  0.274025  1
  O  O6  1  0.221131  0.009214  0.774025  1
  O  O7  1  0.221131  0.990786  0.225975  1
  Cl  Cl8  1  0.500000  0.173948  0.613141  1
  Cl  Cl9  1  0.500000  0.826052  0.386859  1
  Cl  Cl10  1  0.000000  0.673948  0.886859  1
  Cl  Cl11  1  0.000000  0.326052  0.113141  1
  Cl  Cl12  1  0.236977  0.000000  0.000000  1
  Cl  Cl13  1  0.263023  0.500000  0.500000  1
  Cl  Cl14  1  0.763023  0.000000  0.000000  1
  Cl  Cl15  1  0.736977  0.500000  0.500000  1
  Cl  Cl16  1  0.000000  0.209666  0.371144  1
  Cl  Cl17  1  0.000000  0.790334  0.628856  1
  Cl  Cl18  1  0.500000  0.709666  0.128856  1
  Cl  Cl19  1  0.500000  0.290334  0.871144  1
  Cl  Cl20  1  0.500000  0.206688  0.356977  1
  Cl  Cl21  1  0.500000  0.793312  0.643023  1
  Cl  Cl22  1  0.000000  0.706688  0.143023  1
  Cl  Cl23  1  0.000000  0.293312  0.856977  1
  Cl  Cl24  1  0.500000  0.274172  0.131131  1
  Cl  Cl25  1  0.500000  0.725828  0.868869  1
  Cl  Cl26  1  0.000000  0.774172  0.368869  1
  Cl  Cl27  1  0.000000  0.225828  0.631131  1
  Nb  Nb28  1  0.711045  0.739700  0.260270  1
  Nb  Nb29  1  0.711045  0.260300  0.739730  1
  Nb  Nb30  1  0.788955  0.239700  0.239730  1
  Nb  Nb31  1  0.788955  0.760300  0.760270  1
  Nb  Nb32  1  0.288955  0.260300  0.739730  1
  Nb  Nb33  1  0.288955  0.739700  0.260270  1
  Nb  Nb34  1  0.211045  0.760300  0.760270  1
  Nb  Nb35  1  0.211045  0.239700  0.239730  1
  Nb  Nb36  1  0.500000  0.473055  0.635622  1
  Nb  Nb37  1  0.500000  0.526945  0.364378  1
  Nb  Nb38  1  0.000000  0.973055  0.864378  1
  Nb  Nb39  1  0.000000  0.026945  0.135622  1
