# generated using pymatgen
data_Rb3Au3Cl8
_symmetry_space_group_name_H-M   'P 1'
_cell_length_a   7.27038699
_cell_length_b   7.27038699
_cell_length_c   18.76096200
_cell_angle_alpha   83.39086187
_cell_angle_beta   83.39086186
_cell_angle_gamma   64.04993610
_symmetry_Int_Tables_number   1
_chemical_formula_structural   Rb3Au3Cl8
_chemical_formula_sum   'Rb6 Au6 Cl16'
_cell_volume   883.43684623
_cell_formula_units_Z   2
loop_
 _symmetry_equiv_pos_site_id
 _symmetry_equiv_pos_as_xyz
  1  'x, y, z'
loop_
 _atom_site_type_symbol
 _atom_site_label
 _atom_site_symmetry_multiplicity
 _atom_site_fract_x
 _atom_site_fract_y
 _atom_site_fract_z
 _atom_site_occupancy
  Cl  Cl0  1  0.497684  0.097703  0.246575  1
  Cl  Cl1  1  0.902297  0.502316  0.253425  1
  Cl  Cl2  1  0.502316  0.902297  0.753425  1
  Cl  Cl3  1  0.097703  0.497684  0.746575  1
  Cl  Cl4  1  0.245886  0.671668  0.375922  1
  Cl  Cl5  1  0.328332  0.754114  0.124078  1
  Cl  Cl6  1  0.754114  0.328332  0.624078  1
  Cl  Cl7  1  0.671668  0.245886  0.875922  1
  Cl  Cl8  1  0.284579  0.841108  0.570748  1
  Cl  Cl9  1  0.158892  0.715421  0.929252  1
  Cl  Cl10  1  0.715421  0.158892  0.429252  1
  Cl  Cl11  1  0.841108  0.284579  0.070748  1
  Cl  Cl12  1  0.205428  0.148371  0.936234  1
  Cl  Cl13  1  0.851629  0.794572  0.563766  1
  Cl  Cl14  1  0.794572  0.851629  0.063766  1
  Cl  Cl15  1  0.148371  0.205428  0.436234  1
  Rb  Rb16  1  0.015767  0.984233  0.750000  1
  Rb  Rb17  1  0.984233  0.015767  0.250000  1
  Rb  Rb18  1  0.322046  0.313051  0.583780  1
  Rb  Rb19  1  0.686949  0.677954  0.916220  1
  Rb  Rb20  1  0.677954  0.686949  0.416220  1
  Rb  Rb21  1  0.313051  0.322046  0.083780  1
  Au  Au22  1  0.000000  0.000000  0.000000  1
  Au  Au23  1  0.000000  0.000000  0.500000  1
  Au  Au24  1  0.388464  0.382267  0.808831  1
  Au  Au25  1  0.617733  0.611536  0.691169  1
  Au  Au26  1  0.611536  0.617733  0.191169  1
  Au  Au27  1  0.382267  0.388464  0.308831  1
