# generated using pymatgen
data_RbH3(SeO3)2
_symmetry_space_group_name_H-M   'P 1'
_cell_length_a   6.06172064
_cell_length_b   6.48811369
_cell_length_c   18.27762218
_cell_angle_alpha   90.00000000
_cell_angle_beta   90.00000000
_cell_angle_gamma   90.00000000
_symmetry_Int_Tables_number   1
_chemical_formula_structural   RbH3(SeO3)2
_chemical_formula_sum   'Rb4 H12 Se8 O24'
_cell_volume   718.84302760
_cell_formula_units_Z   4
loop_
 _symmetry_equiv_pos_site_id
 _symmetry_equiv_pos_as_xyz
  1  'x, y, z'
loop_
 _atom_site_type_symbol
 _atom_site_label
 _atom_site_symmetry_multiplicity
 _atom_site_fract_x
 _atom_site_fract_y
 _atom_site_fract_z
 _atom_site_occupancy
  H  H0  1  0.275786  0.500098  0.030557  1
  H  H1  1  0.775786  0.499902  0.469443  1
  H  H2  1  0.224214  0.000098  0.969443  1
  H  H3  1  0.724214  0.999902  0.530557  1
  H  H4  1  0.599103  0.782186  0.115471  1
  H  H5  1  0.099103  0.217814  0.384529  1
  H  H6  1  0.900897  0.282186  0.884529  1
  H  H7  1  0.400897  0.717814  0.615471  1
  H  H8  1  0.979455  0.959477  0.263451  1
  H  H9  1  0.479455  0.040523  0.236549  1
  H  H10  1  0.520545  0.459477  0.736549  1
  H  H11  1  0.020545  0.540523  0.763451  1
  O  O12  1  0.230081  0.810026  0.663219  1
  O  O13  1  0.730081  0.189974  0.836781  1
  O  O14  1  0.269919  0.310026  0.336781  1
  O  O15  1  0.769919  0.689974  0.163219  1
  O  O16  1  0.039594  0.678986  0.791011  1
  O  O17  1  0.539594  0.321014  0.708989  1
  O  O18  1  0.460406  0.178986  0.208989  1
  O  O19  1  0.960406  0.821014  0.291011  1
  O  O20  1  0.490434  0.672954  0.773829  1
  O  O21  1  0.990434  0.327046  0.726171  1
  O  O22  1  0.009566  0.172954  0.226171  1
  O  O23  1  0.509566  0.827046  0.273829  1
  O  O24  1  0.916694  0.573644  0.536481  1
  O  O25  1  0.416694  0.426356  0.963519  1
  O  O26  1  0.583306  0.073644  0.463519  1
  O  O27  1  0.083306  0.926356  0.036481  1
  O  O28  1  0.508313  0.658883  0.574968  1
  O  O29  1  0.008313  0.341117  0.925032  1
  O  O30  1  0.991687  0.158883  0.425032  1
  O  O31  1  0.491687  0.841117  0.074968  1
  O  O32  1  0.808393  0.968809  0.578323  1
  O  O33  1  0.308393  0.031191  0.921677  1
  O  O34  1  0.691607  0.468809  0.421677  1
  O  O35  1  0.191607  0.531191  0.078323  1
  Se  Se36  1  0.212878  0.797161  0.103600  1
  Se  Se37  1  0.712878  0.202839  0.396400  1
  Se  Se38  1  0.287122  0.297161  0.896400  1
  Se  Se39  1  0.787122  0.702839  0.603600  1
  Se  Se40  1  0.730600  0.674476  0.256049  1
  Se  Se41  1  0.230600  0.325524  0.243951  1
  Se  Se42  1  0.769400  0.174476  0.743951  1
  Se  Se43  1  0.269400  0.825524  0.756049  1
  Rb  Rb44  1  0.267770  0.732597  0.413137  1
  Rb  Rb45  1  0.767770  0.267403  0.086863  1
  Rb  Rb46  1  0.232230  0.232597  0.586863  1
  Rb  Rb47  1  0.732230  0.767403  0.913137  1
