# generated using pymatgen
data_Bi2TeO5
_symmetry_space_group_name_H-M   'P 1'
_cell_length_a   5.60780034
_cell_length_b   8.85540173
_cell_length_c   11.71846304
_cell_angle_alpha   90.00000000
_cell_angle_beta   90.00000000
_cell_angle_gamma   108.45934115
_symmetry_Int_Tables_number   1
_chemical_formula_structural   Bi2TeO5
_chemical_formula_sum   'Bi8 Te4 O20'
_cell_volume   551.98979180
_cell_formula_units_Z   4
loop_
 _symmetry_equiv_pos_site_id
 _symmetry_equiv_pos_as_xyz
  1  'x, y, z'
loop_
 _atom_site_type_symbol
 _atom_site_label
 _atom_site_symmetry_multiplicity
 _atom_site_fract_x
 _atom_site_fract_y
 _atom_site_fract_z
 _atom_site_occupancy
  O  O0  1  0.872985  0.318129  0.786939  1
  O  O1  1  0.554856  0.681871  0.213061  1
  O  O2  1  0.372985  0.318129  0.213061  1
  O  O3  1  0.054856  0.681871  0.786939  1
  O  O4  1  0.463804  0.321129  0.514742  1
  O  O5  1  0.142675  0.678871  0.485258  1
  O  O6  1  0.963804  0.321129  0.485258  1
  O  O7  1  0.642675  0.678871  0.514742  1
  O  O8  1  0.894254  0.500000  0.296272  1
  O  O9  1  0.394254  0.500000  0.703728  1
  O  O10  1  0.435157  0.301758  0.933002  1
  O  O11  1  0.133399  0.698242  0.066998  1
  O  O12  1  0.810275  0.915379  0.742452  1
  O  O13  1  0.894896  0.084621  0.257548  1
  O  O14  1  0.310275  0.915379  0.257548  1
  O  O15  1  0.394896  0.084621  0.742452  1
  O  O16  1  0.738987  0.000000  0.500000  1
  O  O17  1  0.238987  0.000000  0.500000  1
  O  O18  1  0.633399  0.698242  0.933002  1
  O  O19  1  0.935157  0.301758  0.066998  1
  Te  Te20  1  0.607928  0.167582  0.867459  1
  Te  Te21  1  0.440346  0.832418  0.132541  1
  Te  Te22  1  0.107928  0.167582  0.132541  1
  Te  Te23  1  0.940346  0.832418  0.867459  1
  Bi  Bi24  1  0.246493  0.500000  0.383002  1
  Bi  Bi25  1  0.746493  0.500000  0.616998  1
  Bi  Bi26  1  0.760797  0.500000  0.129811  1
  Bi  Bi27  1  0.260797  0.500000  0.870189  1
  Bi  Bi28  1  0.114772  0.169296  0.607502  1
  Bi  Bi29  1  0.945477  0.830704  0.392498  1
  Bi  Bi30  1  0.614772  0.169296  0.392498  1
  Bi  Bi31  1  0.445477  0.830704  0.607502  1
