# generated using pymatgen
data_Ca14Si19
_symmetry_space_group_name_H-M   'P 1'
_cell_length_a   23.39807218
_cell_length_b   23.39807218
_cell_length_c   23.39807218
_cell_angle_alpha   21.35739523
_cell_angle_beta   21.35739522
_cell_angle_gamma   21.35739522
_symmetry_Int_Tables_number   1
_chemical_formula_structural   Ca14Si19
_chemical_formula_sum   'Ca28 Si38'
_cell_volume   1488.37178644
_cell_formula_units_Z   2
loop_
 _symmetry_equiv_pos_site_id
 _symmetry_equiv_pos_as_xyz
  1  'x, y, z'
loop_
 _atom_site_type_symbol
 _atom_site_label
 _atom_site_symmetry_multiplicity
 _atom_site_fract_x
 _atom_site_fract_y
 _atom_site_fract_z
 _atom_site_occupancy
  Si  Si0  1  0.939008  0.489657  0.231068  1
  Si  Si1  1  0.489657  0.231068  0.939008  1
  Si  Si2  1  0.231068  0.939008  0.489657  1
  Si  Si3  1  0.268932  0.010343  0.560992  1
  Si  Si4  1  0.010343  0.560992  0.268932  1
  Si  Si5  1  0.560992  0.268932  0.010343  1
  Si  Si6  1  0.060992  0.510343  0.768932  1
  Si  Si7  1  0.510343  0.768932  0.060992  1
  Si  Si8  1  0.768932  0.060992  0.510343  1
  Si  Si9  1  0.731068  0.989657  0.439008  1
  Si  Si10  1  0.989657  0.439008  0.731068  1
  Si  Si11  1  0.439008  0.731068  0.989657  1
  Si  Si12  1  0.714810  0.331913  0.880704  1
  Si  Si13  1  0.331913  0.880704  0.714810  1
  Si  Si14  1  0.880704  0.714810  0.331913  1
  Si  Si15  1  0.619296  0.168087  0.785190  1
  Si  Si16  1  0.168087  0.785190  0.619296  1
  Si  Si17  1  0.785190  0.619296  0.168087  1
  Si  Si18  1  0.285190  0.668087  0.119296  1
  Si  Si19  1  0.668087  0.119296  0.285190  1
  Si  Si20  1  0.119296  0.285190  0.668087  1
  Si  Si21  1  0.380704  0.831913  0.214810  1
  Si  Si22  1  0.831913  0.214810  0.380704  1
  Si  Si23  1  0.214810  0.380704  0.831913  1
  Si  Si24  1  0.333896  0.750000  0.166104  1
  Si  Si25  1  0.750000  0.166104  0.333896  1
  Si  Si26  1  0.166104  0.333896  0.750000  1
  Si  Si27  1  0.666104  0.250000  0.833896  1
  Si  Si28  1  0.152977  0.152977  0.152977  1
  Si  Si29  1  0.347023  0.347023  0.347023  1
  Si  Si30  1  0.847023  0.847023  0.847023  1
  Si  Si31  1  0.652977  0.652977  0.652977  1
  Si  Si32  1  0.219030  0.219030  0.219030  1
  Si  Si33  1  0.280970  0.280970  0.280970  1
  Si  Si34  1  0.780970  0.780970  0.780970  1
  Si  Si35  1  0.719030  0.719030  0.719030  1
  Si  Si36  1  0.833896  0.666104  0.250000  1
  Si  Si37  1  0.250000  0.833896  0.666104  1
  Ca  Ca38  1  0.690849  0.442498  0.927795  1
  Ca  Ca39  1  0.442498  0.927795  0.690849  1
  Ca  Ca40  1  0.927795  0.690849  0.442498  1
  Ca  Ca41  1  0.572205  0.057502  0.809151  1
  Ca  Ca42  1  0.057502  0.809151  0.572205  1
  Ca  Ca43  1  0.809151  0.572205  0.057502  1
  Ca  Ca44  1  0.309151  0.557502  0.072205  1
  Ca  Ca45  1  0.557502  0.072205  0.309151  1
  Ca  Ca46  1  0.072205  0.309151  0.557502  1
  Ca  Ca47  1  0.427795  0.942498  0.190849  1
  Ca  Ca48  1  0.942498  0.190849  0.427795  1
  Ca  Ca49  1  0.190849  0.427795  0.942498  1
  Ca  Ca50  1  -0.000388  0.750000  0.500388  1
  Ca  Ca51  1  0.750000  0.500388  -0.000388  1
  Ca  Ca52  1  0.500388  -0.000388  0.750000  1
  Ca  Ca53  1  1.000388  0.250000  0.499612  1
  Ca  Ca54  1  0.250000  0.499612  1.000388  1
  Ca  Ca55  1  0.499612  1.000388  0.250000  1
  Ca  Ca56  1  0.609967  0.609967  0.609967  1
  Ca  Ca57  1  0.890033  0.890033  0.890033  1
  Ca  Ca58  1  0.390033  0.390033  0.390033  1
  Ca  Ca59  1  0.109967  0.109967  0.109967  1
  Ca  Ca60  1  0.554799  0.554799  0.554799  1
  Ca  Ca61  1  0.945201  0.945201  0.945201  1
  Ca  Ca62  1  0.445201  0.445201  0.445201  1
  Ca  Ca63  1  0.054799  0.054799  0.054799  1
  Ca  Ca64  1  0.500000  0.500000  0.500000  1
  Ca  Ca65  1  0.000000  0.000000  0.000000  1
