# generated using pymatgen
data_LiGdCl4
_symmetry_space_group_name_H-M   'P 1'
_cell_length_a   6.52028169
_cell_length_b   6.52028169
_cell_length_c   8.08114062
_cell_angle_alpha   113.79251903
_cell_angle_beta   113.79251902
_cell_angle_gamma   90.00000002
_symmetry_Int_Tables_number   1
_chemical_formula_structural   LiGdCl4
_chemical_formula_sum   'Li2 Gd2 Cl8'
_cell_volume   282.15958880
_cell_formula_units_Z   2
loop_
 _symmetry_equiv_pos_site_id
 _symmetry_equiv_pos_as_xyz
  1  'x, y, z'
loop_
 _atom_site_type_symbol
 _atom_site_label
 _atom_site_symmetry_multiplicity
 _atom_site_fract_x
 _atom_site_fract_y
 _atom_site_fract_z
 _atom_site_occupancy
  Li  Li0  1  0.125000  0.375000  0.250000  1
  Li  Li1  1  0.875000  0.625000  0.750000  1
  Cl  Cl2  1  0.761319  0.466187  0.089352  1
  Cl  Cl3  1  0.623165  0.261319  0.589352  1
  Cl  Cl4  1  0.671966  0.876835  0.910648  1
  Cl  Cl5  1  0.033813  0.171966  0.410648  1
  Cl  Cl6  1  0.376835  0.738681  0.410648  1
  Cl  Cl7  1  0.238681  0.533813  0.910648  1
  Cl  Cl8  1  0.328034  0.123165  0.089352  1
  Cl  Cl9  1  0.966187  0.828034  0.589352  1
  Gd  Gd10  1  0.375000  0.125000  0.750000  1
  Gd  Gd11  1  0.625000  0.875000  0.250000  1
