# generated using pymatgen
data_Ca2Cu6P5
_symmetry_space_group_name_H-M   'P 1'
_cell_length_a   4.00764307
_cell_length_b   4.00764306
_cell_length_c   12.64465937
_cell_angle_alpha   99.11820340
_cell_angle_beta   99.11820337
_cell_angle_gamma   90.00000002
_symmetry_Int_Tables_number   1
_chemical_formula_structural   Ca2Cu6P5
_chemical_formula_sum   'Ca2 Cu6 P5'
_cell_volume   197.92251689
_cell_formula_units_Z   1
loop_
 _symmetry_equiv_pos_site_id
 _symmetry_equiv_pos_as_xyz
  1  'x, y, z'
loop_
 _atom_site_type_symbol
 _atom_site_label
 _atom_site_symmetry_multiplicity
 _atom_site_fract_x
 _atom_site_fract_y
 _atom_site_fract_z
 _atom_site_occupancy
  P  P0  1  0.802401  0.802401  0.604801  1
  P  P1  1  0.500000  0.500000  0.000000  1
  P  P2  1  0.197599  0.197599  0.395199  1
  P  P3  1  0.894253  0.894253  0.788506  1
  P  P4  1  0.105747  0.105747  0.211494  1
  Ca  Ca5  1  0.649061  0.649061  0.298121  1
  Ca  Ca6  1  0.350940  0.350940  0.701879  1
  Cu  Cu7  1  0.250000  0.750000  0.500000  1
  Cu  Cu8  1  0.446228  0.946228  0.892456  1
  Cu  Cu9  1  0.946228  0.446228  0.892456  1
  Cu  Cu10  1  0.553772  0.053772  0.107544  1
  Cu  Cu11  1  0.053772  0.553772  0.107544  1
  Cu  Cu12  1  0.750000  0.250000  0.500000  1
