# generated using pymatgen
data_Ag4Bi2O5
_symmetry_space_group_name_H-M   'P 1'
_cell_length_a   5.98093660
_cell_length_b   8.77015958
_cell_length_c   14.60488914
_cell_angle_alpha   90.00000000
_cell_angle_beta   90.00000000
_cell_angle_gamma   90.00000000
_symmetry_Int_Tables_number   1
_chemical_formula_structural   Ag4Bi2O5
_chemical_formula_sum   'Ag16 Bi8 O20'
_cell_volume   766.08147275
_cell_formula_units_Z   4
loop_
 _symmetry_equiv_pos_site_id
 _symmetry_equiv_pos_as_xyz
  1  'x, y, z'
loop_
 _atom_site_type_symbol
 _atom_site_label
 _atom_site_symmetry_multiplicity
 _atom_site_fract_x
 _atom_site_fract_y
 _atom_site_fract_z
 _atom_site_occupancy
  O  O0  1  0.630461  0.912966  0.615701  1
  O  O1  1  0.130461  0.587034  0.884299  1
  O  O2  1  0.369539  0.912966  0.884299  1
  O  O3  1  0.869539  0.587034  0.615701  1
  O  O4  1  0.369539  0.087034  0.384299  1
  O  O5  1  0.869539  0.412966  0.115701  1
  O  O6  1  0.630461  0.087034  0.115701  1
  O  O7  1  0.130461  0.412966  0.384299  1
  O  O8  1  0.456314  0.630130  0.042739  1
  O  O9  1  0.956314  0.869870  0.457261  1
  O  O10  1  0.456314  0.369870  0.542739  1
  O  O11  1  0.956314  0.130130  0.957261  1
  O  O12  1  0.543686  0.369870  0.957261  1
  O  O13  1  0.043686  0.130130  0.542739  1
  O  O14  1  0.500000  0.563420  0.250000  1
  O  O15  1  0.000000  0.936580  0.250000  1
  O  O16  1  0.500000  0.436580  0.750000  1
  O  O17  1  0.043686  0.869870  0.042739  1
  O  O18  1  0.000000  0.063420  0.750000  1
  O  O19  1  0.543686  0.630130  0.457261  1
  Ag  Ag20  1  0.990628  0.639577  0.081548  1
  Ag  Ag21  1  0.490628  0.860423  0.418452  1
  Ag  Ag22  1  0.009372  0.639577  0.418452  1
  Ag  Ag23  1  0.509372  0.860423  0.081548  1
  Ag  Ag24  1  0.990628  0.360423  0.581548  1
  Ag  Ag25  1  0.009372  0.360423  0.918452  1
  Ag  Ag26  1  0.500000  0.932842  0.750000  1
  Ag  Ag27  1  0.000000  0.567158  0.750000  1
  Ag  Ag28  1  0.500000  0.067158  0.250000  1
  Ag  Ag29  1  0.000000  0.432842  0.250000  1
  Ag  Ag30  1  0.250000  0.750000  0.247728  1
  Ag  Ag31  1  0.750000  0.750000  0.252272  1
  Ag  Ag32  1  0.750000  0.250000  0.752272  1
  Ag  Ag33  1  0.250000  0.250000  0.747728  1
  Ag  Ag34  1  0.509372  0.139577  0.581548  1
  Ag  Ag35  1  0.490628  0.139577  0.918452  1
  Bi  Bi36  1  0.509928  0.583781  0.611228  1
  Bi  Bi37  1  0.009928  0.916219  0.888772  1
  Bi  Bi38  1  0.490072  0.583781  0.888772  1
  Bi  Bi39  1  0.990072  0.916219  0.611228  1
  Bi  Bi40  1  0.490072  0.416219  0.388772  1
  Bi  Bi41  1  0.990072  0.083781  0.111228  1
  Bi  Bi42  1  0.509928  0.416219  0.111228  1
  Bi  Bi43  1  0.009928  0.083781  0.388772  1
