# generated using pymatgen
data_PbF3
_symmetry_space_group_name_H-M   'P 1'
_cell_length_a   5.38337367
_cell_length_b   5.38337367
_cell_length_c   9.21170739
_cell_angle_alpha   90.00000000
_cell_angle_beta   90.00000000
_cell_angle_gamma   90.00000000
_symmetry_Int_Tables_number   1
_chemical_formula_structural   PbF3
_chemical_formula_sum   'Pb4 F12'
_cell_volume   266.96183955
_cell_formula_units_Z   4
loop_
 _symmetry_equiv_pos_site_id
 _symmetry_equiv_pos_as_xyz
  1  'x, y, z'
loop_
 _atom_site_type_symbol
 _atom_site_label
 _atom_site_symmetry_multiplicity
 _atom_site_fract_x
 _atom_site_fract_y
 _atom_site_fract_z
 _atom_site_occupancy
  F  F0  1  0.205149  0.796132  0.595253  1
  F  F1  1  0.794851  0.203868  0.595253  1
  F  F2  1  0.796132  0.794851  0.404747  1
  F  F3  1  0.203868  0.205149  0.404747  1
  F  F4  1  0.280278  0.719722  0.250000  1
  F  F5  1  0.719722  0.719722  0.750000  1
  F  F6  1  0.280278  0.280278  0.750000  1
  F  F7  1  0.719722  0.280278  0.250000  1
  F  F8  1  0.205149  0.203868  0.095253  1
  F  F9  1  0.203868  0.794851  0.904747  1
  F  F10  1  0.796132  0.205149  0.904747  1
  F  F11  1  0.794851  0.796132  0.095253  1
  Pb  Pb12  1  0.500000  0.500000  0.500000  1
  Pb  Pb13  1  0.500000  0.500000  0.000000  1
  Pb  Pb14  1  0.000000  0.000000  0.750000  1
  Pb  Pb15  1  0.000000  0.000000  0.250000  1
