# generated using pymatgen
data_BF2
_symmetry_space_group_name_H-M   'P 1'
_cell_length_a   4.93392330
_cell_length_b   5.58510468
_cell_length_c   6.66665576
_cell_angle_alpha   90.00000000
_cell_angle_beta   90.00000000
_cell_angle_gamma   102.52241160
_symmetry_Int_Tables_number   1
_chemical_formula_structural   BF2
_chemical_formula_sum   'B4 F8'
_cell_volume   179.33933668
_cell_formula_units_Z   4
loop_
 _symmetry_equiv_pos_site_id
 _symmetry_equiv_pos_as_xyz
  1  'x, y, z'
loop_
 _atom_site_type_symbol
 _atom_site_label
 _atom_site_symmetry_multiplicity
 _atom_site_fract_x
 _atom_site_fract_y
 _atom_site_fract_z
 _atom_site_occupancy
  B  B0  1  0.489435  0.630997  0.064508  1
  B  B1  1  0.010565  0.869003  0.564508  1
  B  B2  1  0.510565  0.369003  0.935492  1
  B  B3  1  0.989435  0.130997  0.435492  1
  F  F4  1  0.679961  0.728272  0.201875  1
  F  F5  1  0.820039  0.771728  0.701875  1
  F  F6  1  0.320039  0.271728  0.798125  1
  F  F7  1  0.179961  0.228272  0.298125  1
  F  F8  1  0.285608  0.748684  0.033176  1
  F  F9  1  0.214392  0.751316  0.533176  1
  F  F10  1  0.714392  0.251316  0.966824  1
  F  F11  1  0.785608  0.248684  0.466824  1
