# generated using pymatgen
data_PbSe
_symmetry_space_group_name_H-M   'P 1'
_cell_length_a   4.41488959
_cell_length_b   4.41488959
_cell_length_c   12.40111132
_cell_angle_alpha   100.27771480
_cell_angle_beta   100.27771481
_cell_angle_gamma   89.86618454
_symmetry_Int_Tables_number   1
_chemical_formula_structural   PbSe
_chemical_formula_sum   'Pb2 Se2'
_cell_volume   233.90993596
_cell_formula_units_Z   2
loop_
 _symmetry_equiv_pos_site_id
 _symmetry_equiv_pos_as_xyz
  1  'x, y, z'
loop_
 _atom_site_type_symbol
 _atom_site_label
 _atom_site_symmetry_multiplicity
 _atom_site_fract_x
 _atom_site_fract_y
 _atom_site_fract_z
 _atom_site_occupancy
  Se  Se0  1  0.295581  0.295581  0.621158  1
  Se  Se1  1  0.674423  0.674423  0.378842  1
  Pb  Pb2  1  0.805267  0.805267  0.614537  1
  Pb  Pb3  1  0.190730  0.190730  0.385463  1
