# generated using pymatgen
data_Na2PrO3
_symmetry_space_group_name_H-M   'P 1'
_cell_length_a   6.08337902
_cell_length_b   6.08337902
_cell_length_c   11.34764204
_cell_angle_alpha   100.32656365
_cell_angle_beta   100.32656364
_cell_angle_gamma   109.81595152
_symmetry_Int_Tables_number   1
_chemical_formula_structural   Na2PrO3
_chemical_formula_sum   'Na8 Pr4 O12'
_cell_volume   375.38393651
_cell_formula_units_Z   4
loop_
 _symmetry_equiv_pos_site_id
 _symmetry_equiv_pos_as_xyz
  1  'x, y, z'
loop_
 _atom_site_type_symbol
 _atom_site_label
 _atom_site_symmetry_multiplicity
 _atom_site_fract_x
 _atom_site_fract_y
 _atom_site_fract_z
 _atom_site_occupancy
  O  O0  1  0.523795  0.303593  0.070538  1
  O  O1  1  0.696407  0.476205  0.429462  1
  O  O2  1  0.476205  0.696407  0.929462  1
  O  O3  1  0.303593  0.523795  0.570538  1
  O  O4  1  0.396169  0.146133  0.750265  1
  O  O5  1  0.853867  0.603831  0.749735  1
  O  O6  1  0.603831  0.853867  0.249735  1
  O  O7  1  0.146133  0.396169  0.250265  1
  O  O8  1  0.767889  0.052183  0.571494  1
  O  O9  1  0.052183  0.767889  0.071494  1
  O  O10  1  0.232111  0.947817  0.428506  1
  O  O11  1  0.947817  0.232111  0.928506  1
  Na  Na12  1  0.209681  0.948217  0.904575  1
  Na  Na13  1  0.117451  0.366038  0.741244  1
  Na  Na14  1  0.366038  0.117451  0.241244  1
  Na  Na15  1  0.882549  0.633962  0.258756  1
  Na  Na16  1  0.790319  0.051783  0.095425  1
  Na  Na17  1  0.948217  0.209681  0.404575  1
  Na  Na18  1  0.051783  0.790319  0.595425  1
  Na  Na19  1  0.633962  0.882549  0.758756  1
  Pr  Pr20  1  0.707728  0.460757  0.914038  1
  Pr  Pr21  1  0.539243  0.292272  0.585962  1
  Pr  Pr22  1  0.292272  0.539243  0.085962  1
  Pr  Pr23  1  0.460757  0.707728  0.414038  1
