# generated using pymatgen
data_Rb2ZnH12(SO7)2
_symmetry_space_group_name_H-M   'P 1'
_cell_length_a   6.32416222
_cell_length_b   9.22651098
_cell_length_c   12.61509431
_cell_angle_alpha   90.00000000
_cell_angle_beta   90.00000000
_cell_angle_gamma   105.50865352
_symmetry_Int_Tables_number   1
_chemical_formula_structural   Rb2ZnH12(SO7)2
_chemical_formula_sum   'Rb4 Zn2 H24 S4 O28'
_cell_volume   709.28916693
_cell_formula_units_Z   2
loop_
 _symmetry_equiv_pos_site_id
 _symmetry_equiv_pos_as_xyz
  1  'x, y, z'
loop_
 _atom_site_type_symbol
 _atom_site_label
 _atom_site_symmetry_multiplicity
 _atom_site_fract_x
 _atom_site_fract_y
 _atom_site_fract_z
 _atom_site_occupancy
  H  H0  1  0.320179  0.527202  0.642826  1
  H  H1  1  0.679821  0.972798  0.142826  1
  H  H2  1  0.679821  0.472798  0.357174  1
  H  H3  1  0.320179  0.027202  0.857174  1
  H  H4  1  0.336318  0.400595  0.561100  1
  H  H5  1  0.663682  0.099405  0.061100  1
  H  H6  1  0.927617  0.223634  0.400745  1
  H  H7  1  0.072383  0.276366  0.900745  1
  H  H8  1  0.072383  0.776366  0.599255  1
  H  H9  1  0.927617  0.723634  0.099255  1
  H  H10  1  0.087200  0.743335  0.371244  1
  H  H11  1  0.912800  0.756665  0.871244  1
  H  H12  1  0.912800  0.256665  0.628756  1
  H  H13  1  0.087200  0.243335  0.128756  1
  H  H14  1  0.319740  0.714962  0.404441  1
  H  H15  1  0.680260  0.785038  0.904441  1
  H  H16  1  0.680260  0.285038  0.595559  1
  H  H17  1  0.319740  0.214962  0.095559  1
  H  H18  1  0.007025  0.149047  0.813061  1
  H  H19  1  0.992975  0.350953  0.313061  1
  H  H20  1  0.336318  0.900595  0.938900  1
  H  H21  1  0.663682  0.599405  0.438900  1
  H  H22  1  0.007025  0.649047  0.686939  1
  H  H23  1  0.992975  0.850953  0.186939  1
  O  O24  1  0.835240  0.335059  0.614823  1
  O  O25  1  0.835240  0.835059  0.885177  1
  O  O26  1  0.025680  0.826171  0.112976  1
  O  O27  1  0.974320  0.673829  0.612976  1
  O  O28  1  0.974320  0.173829  0.887024  1
  O  O29  1  0.025680  0.326171  0.387024  1
  O  O30  1  0.298206  0.998093  0.933448  1
  O  O31  1  0.164760  0.164941  0.114823  1
  O  O32  1  0.701794  0.001907  0.066552  1
  O  O33  1  0.298206  0.498093  0.566552  1
  O  O34  1  0.944097  0.874489  0.322371  1
  O  O35  1  0.055903  0.625511  0.822371  1
  O  O36  1  0.055903  0.125511  0.677629  1
  O  O37  1  0.944097  0.374489  0.177629  1
  O  O38  1  0.607962  0.773603  0.426195  1
  O  O39  1  0.392038  0.726397  0.926195  1
  O  O40  1  0.392038  0.226397  0.573805  1
  O  O41  1  0.607962  0.273603  0.073805  1
  O  O42  1  0.775035  0.042642  0.422261  1
  O  O43  1  0.224965  0.457358  0.922261  1
  O  O44  1  0.224965  0.957358  0.577739  1
  O  O45  1  0.775035  0.542642  0.077739  1
  O  O46  1  0.701794  0.501907  0.433448  1
  O  O47  1  0.406455  0.587154  0.764356  1
  O  O48  1  0.406455  0.087154  0.735644  1
  O  O49  1  0.593545  0.412846  0.235644  1
  O  O50  1  0.164760  0.664941  0.385177  1
  O  O51  1  0.593545  0.912846  0.264356  1
  S  S52  1  0.268004  0.597826  0.858518  1
  S  S53  1  0.731996  0.902174  0.358518  1
  S  S54  1  0.731996  0.402174  0.141482  1
  S  S55  1  0.268004  0.097826  0.641482  1
  Zn  Zn56  1  0.000000  0.500000  0.500000  1
  Zn  Zn57  1  0.000000  0.000000  0.000000  1
  Rb  Rb58  1  0.347988  0.130658  0.351606  1
  Rb  Rb59  1  0.652012  0.369342  0.851606  1
  Rb  Rb60  1  0.652012  0.869342  0.648394  1
  Rb  Rb61  1  0.347988  0.630658  0.148394  1
