# generated using pymatgen
data_I2(OF2)3
_symmetry_space_group_name_H-M   'P 1'
_cell_length_a   8.74605522
_cell_length_b   9.58473084
_cell_length_c   10.08464706
_cell_angle_alpha   116.44032055
_cell_angle_beta   90.00000000
_cell_angle_gamma   90.00000000
_symmetry_Int_Tables_number   1
_chemical_formula_structural   I2(OF2)3
_chemical_formula_sum   'I8 O12 F24'
_cell_volume   756.95361720
_cell_formula_units_Z   4
loop_
 _symmetry_equiv_pos_site_id
 _symmetry_equiv_pos_as_xyz
  1  'x, y, z'
loop_
 _atom_site_type_symbol
 _atom_site_label
 _atom_site_symmetry_multiplicity
 _atom_site_fract_x
 _atom_site_fract_y
 _atom_site_fract_z
 _atom_site_occupancy
  O  O0  1  0.515026  0.512888  0.774401  1
  O  O1  1  0.015026  0.987112  0.225599  1
  O  O2  1  0.484974  0.487112  0.225599  1
  O  O3  1  0.984974  0.012888  0.774401  1
  O  O4  1  0.618478  0.709547  0.156733  1
  O  O5  1  0.118478  0.790453  0.843267  1
  O  O6  1  0.381522  0.290453  0.843267  1
  O  O7  1  0.881522  0.209547  0.156733  1
  O  O8  1  0.277258  0.599098  0.060144  1
  O  O9  1  0.777258  0.900902  0.939856  1
  O  O10  1  0.722742  0.400902  0.939856  1
  O  O11  1  0.222742  0.099098  0.060144  1
  F  F12  1  0.428646  0.796612  0.387846  1
  F  F13  1  0.408306  0.353780  0.508087  1
  F  F14  1  0.091694  0.853780  0.508087  1
  F  F15  1  0.591694  0.646220  0.491913  1
  F  F16  1  0.784512  0.341874  0.429257  1
  F  F17  1  0.908306  0.146220  0.491913  1
  F  F18  1  0.215488  0.658126  0.570743  1
  F  F19  1  0.715488  0.841874  0.429257  1
  F  F20  1  0.716320  0.055627  0.278640  1
  F  F21  1  0.216320  0.444373  0.721360  1
  F  F22  1  0.283680  0.944373  0.721360  1
  F  F23  1  0.783680  0.555627  0.278640  1
  F  F24  1  0.656286  0.004013  0.751596  1
  F  F25  1  0.156286  0.495987  0.248404  1
  F  F26  1  0.343714  0.995987  0.248404  1
  F  F27  1  0.843714  0.504013  0.751596  1
  F  F28  1  0.584370  0.151596  0.031357  1
  F  F29  1  0.084370  0.348404  0.968643  1
  F  F30  1  0.415630  0.848404  0.968643  1
  F  F31  1  0.915630  0.651596  0.031357  1
  F  F32  1  0.571354  0.203388  0.612154  1
  F  F33  1  0.071354  0.296612  0.387846  1
  F  F34  1  0.284512  0.158126  0.570743  1
  F  F35  1  0.928646  0.703388  0.612154  1
  I  I36  1  0.726371  0.578775  0.928907  1
  I  I37  1  0.226371  0.921225  0.071093  1
  I  I38  1  0.273629  0.421225  0.071093  1
  I  I39  1  0.773629  0.078775  0.928907  1
  I  I40  1  0.598327  0.664784  0.314441  1
  I  I41  1  0.098327  0.835216  0.685559  1
  I  I42  1  0.401673  0.335216  0.685559  1
  I  I43  1  0.901673  0.164784  0.314441  1
