# generated using pymatgen
data_NaSb5O8
_symmetry_space_group_name_H-M   'P 1'
_cell_length_a   7.35261684
_cell_length_b   7.51141378
_cell_length_c   9.81600567
_cell_angle_alpha   74.18054288
_cell_angle_beta   74.07553576
_cell_angle_gamma   85.94254041
_symmetry_Int_Tables_number   1
_chemical_formula_structural   NaSb5O8
_chemical_formula_sum   'Na2 Sb10 O16'
_cell_volume   501.56982801
_cell_formula_units_Z   2
loop_
 _symmetry_equiv_pos_site_id
 _symmetry_equiv_pos_as_xyz
  1  'x, y, z'
loop_
 _atom_site_type_symbol
 _atom_site_label
 _atom_site_symmetry_multiplicity
 _atom_site_fract_x
 _atom_site_fract_y
 _atom_site_fract_z
 _atom_site_occupancy
  Na  Na0  1  0.746588  0.438707  0.969306  1
  Na  Na1  1  0.253412  0.561293  0.030694  1
  Sb  Sb2  1  0.103284  0.763126  0.669219  1
  Sb  Sb3  1  0.896716  0.236874  0.330781  1
  Sb  Sb4  1  0.538261  0.401347  0.666661  1
  Sb  Sb5  1  0.461739  0.598653  0.333339  1
  Sb  Sb6  1  0.743752  0.942691  0.971838  1
  Sb  Sb7  1  0.256248  0.057309  0.028162  1
  Sb  Sb8  1  0.539473  0.823648  0.721563  1
  Sb  Sb9  1  0.460527  0.176352  0.278437  1
  Sb  Sb10  1  0.024747  0.309870  0.662433  1
  Sb  Sb11  1  0.975253  0.690130  0.337567  1
  O  O12  1  0.249192  0.821035  0.794622  1
  O  O13  1  0.750808  0.178965  0.205378  1
  O  O14  1  0.506839  0.898572  0.915789  1
  O  O15  1  0.493161  0.101428  0.084211  1
  O  O16  1  0.450558  0.643361  0.557128  1
  O  O17  1  0.549442  0.356639  0.442872  1
  O  O18  1  0.541625  0.555149  0.817853  1
  O  O19  1  0.458375  0.444851  0.182147  1
  O  O20  1  0.855350  0.809045  0.805761  1
  O  O21  1  0.144650  0.190955  0.194239  1
  O  O22  1  0.812881  0.196162  0.841565  1
  O  O23  1  0.187119  0.803838  0.158435  1
  O  O24  1  0.823319  0.457360  0.574455  1
  O  O25  1  0.176681  0.542640  0.425545  1
  O  O26  1  0.066244  0.489327  0.769418  1
  O  O27  1  0.933756  0.510673  0.230582  1
