# generated using pymatgen
data_CsH18RuN6(ClO2)4
_symmetry_space_group_name_H-M   'P 1'
_cell_length_a   10.20190908
_cell_length_b   10.20190908
_cell_length_c   10.20190908
_cell_angle_alpha   42.86091378
_cell_angle_beta   42.86091381
_cell_angle_gamma   42.86091378
_symmetry_Int_Tables_number   1
_chemical_formula_structural   CsH18RuN6(ClO2)4
_chemical_formula_sum   'Cs1 H18 Ru1 N6 Cl4 O8'
_cell_volume   445.18634933
_cell_formula_units_Z   1
loop_
 _symmetry_equiv_pos_site_id
 _symmetry_equiv_pos_as_xyz
  1  'x, y, z'
loop_
 _atom_site_type_symbol
 _atom_site_label
 _atom_site_symmetry_multiplicity
 _atom_site_fract_x
 _atom_site_fract_y
 _atom_site_fract_z
 _atom_site_occupancy
  H  H0  1  0.907314  0.666128  0.280441  1
  H  H1  1  0.333872  0.719559  0.092686  1
  H  H2  1  0.719559  0.092686  0.333872  1
  H  H3  1  0.092686  0.333872  0.719559  1
  H  H4  1  0.666128  0.280441  0.907314  1
  H  H5  1  0.280441  0.907314  0.666128  1
  H  H6  1  0.954895  0.942781  0.335063  1
  H  H7  1  0.165299  0.572807  0.178667  1
  H  H8  1  0.178667  0.165299  0.572807  1
  H  H9  1  0.572807  0.178667  0.165299  1
  H  H10  1  0.834701  0.427193  0.821333  1
  H  H11  1  0.335063  0.954895  0.942781  1
  H  H12  1  0.427193  0.821333  0.834701  1
  H  H13  1  0.057219  0.664937  0.045105  1
  H  H14  1  0.045105  0.057219  0.664937  1
  H  H15  1  0.664937  0.045105  0.057219  1
  H  H16  1  0.942781  0.335063  0.954895  1
  H  H17  1  0.821333  0.834701  0.427193  1
  N  N18  1  0.308144  0.861503  0.961852  1
  N  N19  1  0.038148  0.691856  0.138497  1
  N  N20  1  0.861503  0.961852  0.308144  1
  N  N21  1  0.961852  0.308144  0.861503  1
  N  N22  1  0.691856  0.138497  0.038148  1
  N  N23  1  0.138497  0.038148  0.691856  1
  O  O24  1  0.003335  0.725538  0.653244  1
  O  O25  1  0.725538  0.653244  0.003335  1
  O  O26  1  0.653244  0.003335  0.725538  1
  O  O27  1  0.996665  0.274462  0.346756  1
  O  O28  1  0.864519  0.864519  0.864519  1
  O  O29  1  0.346756  0.996665  0.274462  1
  O  O30  1  0.274462  0.346756  0.996665  1
  O  O31  1  0.135481  0.135481  0.135481  1
  Cl  Cl32  1  0.811712  0.811712  0.811712  1
  Cl  Cl33  1  0.188288  0.188288  0.188288  1
  Cl  Cl34  1  0.633134  0.633134  0.633134  1
  Cl  Cl35  1  0.366866  0.366866  0.366866  1
  Ru  Ru36  1  0.000000  0.000000  0.000000  1
  Cs  Cs37  1  0.500000  0.500000  0.500000  1
