# generated using pymatgen
data_Ge3PbO7
_symmetry_space_group_name_H-M   'P 1'
_cell_length_a   5.35139093
_cell_length_b   14.32613547
_cell_length_c   16.37865738
_cell_angle_alpha   90.00000000
_cell_angle_beta   90.00000000
_cell_angle_gamma   90.00000000
_symmetry_Int_Tables_number   1
_chemical_formula_structural   Ge3PbO7
_chemical_formula_sum   'Ge24 Pb8 O56'
_cell_volume   1255.66569657
_cell_formula_units_Z   8
loop_
 _symmetry_equiv_pos_site_id
 _symmetry_equiv_pos_as_xyz
  1  'x, y, z'
loop_
 _atom_site_type_symbol
 _atom_site_label
 _atom_site_symmetry_multiplicity
 _atom_site_fract_x
 _atom_site_fract_y
 _atom_site_fract_z
 _atom_site_occupancy
  O  O0  1  0.634072  0.908891  0.335805  1
  O  O1  1  0.134072  0.091109  0.164195  1
  O  O2  1  0.865928  0.408891  0.664195  1
  O  O3  1  0.365928  0.591109  0.835805  1
  O  O4  1  0.365928  0.091109  0.664195  1
  O  O5  1  0.865928  0.908891  0.835805  1
  O  O6  1  0.134072  0.591109  0.335805  1
  O  O7  1  0.634072  0.408891  0.164195  1
  O  O8  1  0.623379  0.533743  0.345018  1
  O  O9  1  0.123379  0.466257  0.154982  1
  O  O10  1  0.876621  0.033743  0.654982  1
  O  O11  1  0.376621  0.966257  0.845018  1
  O  O12  1  0.376621  0.466257  0.654982  1
  O  O13  1  0.876621  0.533743  0.845018  1
  O  O14  1  0.123379  0.966257  0.345018  1
  O  O15  1  0.623379  0.033743  0.154982  1
  O  O16  1  0.578205  0.750194  0.082554  1
  O  O17  1  0.078205  0.249806  0.417446  1
  O  O18  1  0.921795  0.250194  0.917446  1
  O  O19  1  0.421795  0.749806  0.582554  1
  O  O20  1  0.421795  0.249806  0.917446  1
  O  O21  1  0.921795  0.750194  0.582554  1
  O  O22  1  0.078205  0.749806  0.082554  1
  O  O23  1  0.578205  0.250194  0.417446  1
  O  O24  1  0.779535  0.701419  0.432085  1
  O  O25  1  0.279535  0.298581  0.067915  1
  O  O26  1  0.720465  0.201419  0.567915  1
  O  O27  1  0.220465  0.798581  0.932085  1
  O  O28  1  0.220465  0.298581  0.567915  1
  O  O29  1  0.720465  0.701419  0.932085  1
  O  O30  1  0.279535  0.798581  0.432085  1
  O  O31  1  0.779535  0.201419  0.067915  1
  O  O32  1  0.716900  0.579632  0.087774  1
  O  O33  1  0.216900  0.420368  0.412226  1
  O  O34  1  0.783100  0.079632  0.912226  1
  O  O35  1  0.283100  0.920368  0.587774  1
  O  O36  1  0.283100  0.420368  0.912226  1
  O  O37  1  0.783100  0.579632  0.587774  1
  O  O38  1  0.216900  0.920368  0.087774  1
  O  O39  1  0.716900  0.079632  0.412226  1
  O  O40  1  0.622438  0.905384  0.997255  1
  O  O41  1  0.122438  0.094616  0.502745  1
  O  O42  1  0.877562  0.405384  0.002745  1
  O  O43  1  0.377562  0.594616  0.497255  1
  O  O44  1  0.377562  0.094616  0.002745  1
  O  O45  1  0.877562  0.905384  0.497255  1
  O  O46  1  0.122438  0.594616  0.997255  1
  O  O47  1  0.622438  0.405384  0.502745  1
  O  O48  1  0.760291  0.695291  0.252407  1
  O  O49  1  0.260291  0.304709  0.247593  1
  O  O50  1  0.739709  0.195291  0.747593  1
  O  O51  1  0.239709  0.804709  0.752407  1
  O  O52  1  0.239709  0.304709  0.747593  1
  O  O53  1  0.739709  0.695291  0.752407  1
  O  O54  1  0.260291  0.804709  0.252407  1
  O  O55  1  0.760291  0.195291  0.247593  1
  Ge  Ge56  1  0.823830  0.635143  0.342104  1
  Ge  Ge57  1  0.323830  0.364857  0.157896  1
  Ge  Ge58  1  0.676170  0.135143  0.657896  1
  Ge  Ge59  1  0.176170  0.864857  0.842104  1
  Ge  Ge60  1  0.176170  0.364857  0.657896  1
  Ge  Ge61  1  0.676170  0.635143  0.842104  1
  Ge  Ge62  1  0.323830  0.864857  0.342104  1
  Ge  Ge63  1  0.823830  0.135143  0.157896  1
  Ge  Ge64  1  0.844576  0.965289  0.405251  1
  Ge  Ge65  1  0.344576  0.034711  0.094749  1
  Ge  Ge66  1  0.655424  0.465289  0.594749  1
  Ge  Ge67  1  0.155424  0.534711  0.905251  1
  Ge  Ge68  1  0.155424  0.034711  0.594749  1
  Ge  Ge69  1  0.655424  0.965289  0.905251  1
  Ge  Ge70  1  0.344576  0.534711  0.405251  1
  Ge  Ge71  1  0.844576  0.465289  0.094749  1
  Ge  Ge72  1  0.858801  0.675567  0.028975  1
  Ge  Ge73  1  0.358801  0.324433  0.471025  1
  Ge  Ge74  1  0.641199  0.175567  0.971025  1
  Ge  Ge75  1  0.141199  0.824433  0.528975  1
  Ge  Ge76  1  0.141199  0.324433  0.971025  1
  Ge  Ge77  1  0.641199  0.675567  0.528975  1
  Ge  Ge78  1  0.358801  0.824433  0.028975  1
  Ge  Ge79  1  0.858801  0.175567  0.471025  1
  Pb  Pb80  1  0.872899  0.847072  0.186857  1
  Pb  Pb81  1  0.372899  0.152928  0.313143  1
  Pb  Pb82  1  0.627101  0.347072  0.813143  1
  Pb  Pb83  1  0.127101  0.652928  0.686857  1
  Pb  Pb84  1  0.127101  0.152928  0.813143  1
  Pb  Pb85  1  0.627101  0.847072  0.686857  1
  Pb  Pb86  1  0.372899  0.652928  0.186857  1
  Pb  Pb87  1  0.872899  0.347072  0.313143  1
