# generated using pymatgen
data_Sn15Os3O14
_symmetry_space_group_name_H-M   'P 1'
_cell_length_a   7.21321407
_cell_length_b   7.26012691
_cell_length_c   13.15431373
_cell_angle_alpha   105.94815966
_cell_angle_beta   90.00000000
_cell_angle_gamma   119.78647750
_symmetry_Int_Tables_number   1
_chemical_formula_structural   Sn15Os3O14
_chemical_formula_sum   'Sn15 Os3 O14'
_cell_volume   567.11014473
_cell_formula_units_Z   1
loop_
 _symmetry_equiv_pos_site_id
 _symmetry_equiv_pos_as_xyz
  1  'x, y, z'
loop_
 _atom_site_type_symbol
 _atom_site_label
 _atom_site_symmetry_multiplicity
 _atom_site_fract_x
 _atom_site_fract_y
 _atom_site_fract_z
 _atom_site_occupancy
  O  O0  1  0.224618  0.449236  0.251799  1
  O  O1  1  0.743504  0.979448  0.815708  1
  O  O2  1  0.235945  0.979448  0.815708  1
  O  O3  1  0.424872  0.401392  0.406750  1
  O  O4  1  0.976519  0.401392  0.406750  1
  O  O5  1  0.344458  0.688915  0.632387  1
  O  O6  1  0.424113  0.848226  0.410491  1
  O  O7  1  0.624050  0.248101  0.942402  1
  O  O8  1  0.123359  0.246719  0.526439  1
  O  O9  1  0.957746  0.915492  0.990281  1
  O  O10  1  0.123623  0.818114  0.532763  1
  O  O11  1  0.694491  0.818114  0.532763  1
  O  O12  1  0.352961  0.170542  0.114887  1
  O  O13  1  0.817581  0.170542  0.114887  1
  Sn  Sn14  1  0.146632  0.817456  0.088820  1
  Sn  Sn15  1  0.095154  0.671789  0.346725  1
  Sn  Sn16  1  0.576635  0.671789  0.346725  1
  Sn  Sn17  1  0.014431  0.028861  0.619044  1
  Sn  Sn18  1  0.429297  0.338710  0.837950  1
  Sn  Sn19  1  0.909413  0.338710  0.837950  1
  Sn  Sn20  1  0.150318  0.300635  0.080311  1
  Sn  Sn21  1  0.442665  0.885329  0.872567  1
  Sn  Sn22  1  0.095431  0.190862  0.341011  1
  Sn  Sn23  1  0.489075  0.493674  0.574458  1
  Sn  Sn24  1  0.004599  0.493674  0.574458  1
  Sn  Sn25  1  0.487081  0.974161  0.579103  1
  Sn  Sn26  1  0.902536  0.805072  0.822599  1
  Sn  Sn27  1  0.670824  0.817456  0.088820  1
  Sn  Sn28  1  0.678875  0.357751  0.111209  1
  Os  Os29  1  0.288584  0.577168  0.965124  1
  Os  Os30  1  0.884092  0.768185  0.231164  1
  Os  Os31  1  0.697808  0.395615  0.694418  1
