# generated using pymatgen
data_BaEr2CoO5
_symmetry_space_group_name_H-M   'P 1'
_cell_length_a   5.72195105
_cell_length_b   7.08008161
_cell_length_c   12.28913139
_cell_angle_alpha   90.00000000
_cell_angle_beta   90.00000000
_cell_angle_gamma   90.00000000
_symmetry_Int_Tables_number   1
_chemical_formula_structural   BaEr2CoO5
_chemical_formula_sum   'Ba4 Er8 Co4 O20'
_cell_volume   497.85582112
_cell_formula_units_Z   4
loop_
 _symmetry_equiv_pos_site_id
 _symmetry_equiv_pos_as_xyz
  1  'x, y, z'
loop_
 _atom_site_type_symbol
 _atom_site_label
 _atom_site_symmetry_multiplicity
 _atom_site_fract_x
 _atom_site_fract_y
 _atom_site_fract_z
 _atom_site_occupancy
  O  O0  1  0.250000  0.421937  0.602642  1
  O  O1  1  0.750000  0.578063  0.397358  1
  O  O2  1  0.750000  0.921937  0.897358  1
  O  O3  1  0.250000  0.078064  0.102642  1
  O  O4  1  0.000190  0.861934  0.274990  1
  O  O5  1  0.500190  0.138066  0.725010  1
  O  O6  1  0.999810  0.361933  0.225010  1
  O  O7  1  0.499809  0.638066  0.774990  1
  O  O8  1  0.999810  0.138066  0.725010  1
  O  O9  1  0.499809  0.861934  0.274990  1
  O  O10  1  0.000190  0.638066  0.774990  1
  O  O11  1  0.500190  0.361933  0.225010  1
  O  O12  1  0.497371  0.664691  0.065940  1
  O  O13  1  0.997373  0.335309  0.934060  1
  O  O14  1  0.502628  0.164691  0.434060  1
  O  O15  1  0.002629  0.835308  0.565940  1
  O  O16  1  0.997373  0.164691  0.434060  1
  O  O17  1  0.497371  0.835308  0.565940  1
  O  O18  1  0.502628  0.335309  0.934060  1
  O  O19  1  0.002629  0.664691  0.065940  1
  Co  Co20  1  0.250000  0.807941  0.152163  1
  Co  Co21  1  0.750000  0.192060  0.847837  1
  Co  Co22  1  0.750000  0.307940  0.347837  1
  Co  Co23  1  0.250000  0.692059  0.652163  1
  Ba  Ba24  1  0.750000  0.079106  0.100595  1
  Ba  Ba25  1  0.750000  0.420895  0.600595  1
  Ba  Ba26  1  0.250000  0.579105  0.399405  1
  Ba  Ba27  1  0.250000  0.920895  0.899405  1
  Er  Er28  1  0.250000  0.401554  0.074416  1
  Er  Er29  1  0.750000  0.619558  0.208506  1
  Er  Er30  1  0.750000  0.880442  0.708506  1
  Er  Er31  1  0.250000  0.119559  0.291494  1
  Er  Er32  1  0.750000  0.598446  0.925584  1
  Er  Er33  1  0.750000  0.901554  0.425584  1
  Er  Er34  1  0.250000  0.098445  0.574416  1
  Er  Er35  1  0.250000  0.380441  0.791494  1
