# generated using pymatgen
data_SiNi2As
_symmetry_space_group_name_H-M   'P 1'
_cell_length_a   5.12547346
_cell_length_b   6.03717989
_cell_length_c   13.88709530
_cell_angle_alpha   90.00000000
_cell_angle_beta   90.00000000
_cell_angle_gamma   90.00000000
_symmetry_Int_Tables_number   1
_chemical_formula_structural   SiNi2As
_chemical_formula_sum   'Si8 Ni16 As8'
_cell_volume   429.71401830
_cell_formula_units_Z   8
loop_
 _symmetry_equiv_pos_site_id
 _symmetry_equiv_pos_as_xyz
  1  'x, y, z'
loop_
 _atom_site_type_symbol
 _atom_site_label
 _atom_site_symmetry_multiplicity
 _atom_site_fract_x
 _atom_site_fract_y
 _atom_site_fract_z
 _atom_site_occupancy
  Si  Si0  1  0.820471  0.932434  0.942289  1
  Si  Si1  1  0.820471  0.432434  0.557711  1
  Si  Si2  1  0.320471  0.567566  0.942289  1
  Si  Si3  1  0.679529  0.932434  0.442289  1
  Si  Si4  1  0.179529  0.067566  0.057711  1
  Si  Si5  1  0.179529  0.567566  0.442289  1
  Si  Si6  1  0.679529  0.432434  0.057711  1
  Si  Si7  1  0.320471  0.067566  0.557711  1
  Ni  Ni8  1  0.016477  0.695914  0.834170  1
  Ni  Ni9  1  0.483523  0.195914  0.165830  1
  Ni  Ni10  1  0.516477  0.304086  0.665830  1
  Ni  Ni11  1  0.989426  0.805209  0.556412  1
  Ni  Ni12  1  0.016477  0.195914  0.665830  1
  Ni  Ni13  1  0.516477  0.804086  0.834170  1
  Ni  Ni14  1  0.483523  0.695914  0.334170  1
  Ni  Ni15  1  0.983523  0.304086  0.165830  1
  Ni  Ni16  1  0.010574  0.194791  0.443588  1
  Ni  Ni17  1  0.989426  0.305209  0.943588  1
  Ni  Ni18  1  0.489426  0.694791  0.556412  1
  Ni  Ni19  1  0.510574  0.805209  0.056412  1
  Ni  Ni20  1  0.489426  0.194791  0.943588  1
  Ni  Ni21  1  0.010574  0.694791  0.056412  1
  Ni  Ni22  1  0.510574  0.305209  0.443588  1
  Ni  Ni23  1  0.983523  0.804086  0.334170  1
  As  As24  1  0.683992  0.931075  0.682814  1
  As  As25  1  0.183992  0.068925  0.817186  1
  As  As26  1  0.816008  0.431075  0.317186  1
  As  As27  1  0.316008  0.568925  0.182814  1
  As  As28  1  0.316008  0.068925  0.317186  1
  As  As29  1  0.816008  0.931075  0.182814  1
  As  As30  1  0.183992  0.568925  0.682814  1
  As  As31  1  0.683992  0.431075  0.817186  1
