# generated using pymatgen
data_LaSO
_symmetry_space_group_name_H-M   'P 1'
_cell_length_a   5.94540016
_cell_length_b   5.95045617
_cell_length_c   7.29578856
_cell_angle_alpha   114.06675632
_cell_angle_beta   90.00000000
_cell_angle_gamma   90.00000000
_symmetry_Int_Tables_number   1
_chemical_formula_structural   LaSO
_chemical_formula_sum   'La4 S4 O4'
_cell_volume   235.67206764
_cell_formula_units_Z   4
loop_
 _symmetry_equiv_pos_site_id
 _symmetry_equiv_pos_as_xyz
  1  'x, y, z'
loop_
 _atom_site_type_symbol
 _atom_site_label
 _atom_site_symmetry_multiplicity
 _atom_site_fract_x
 _atom_site_fract_y
 _atom_site_fract_z
 _atom_site_occupancy
  O  O0  1  0.250000  0.505437  0.500000  1
  O  O1  1  0.750000  0.994563  0.500000  1
  O  O2  1  0.750000  0.494563  0.500000  1
  O  O3  1  0.250000  0.005437  0.500000  1
  S  S4  1  0.374440  0.625252  0.000000  1
  S  S5  1  0.874440  0.874748  0.000000  1
  S  S6  1  0.125560  0.125252  0.000000  1
  S  S7  1  0.625560  0.374748  0.000000  1
  La  La8  1  0.500000  0.838919  0.677837  1
  La  La9  1  0.000000  0.661081  0.322163  1
  La  La10  1  0.500000  0.161081  0.322163  1
  La  La11  1  0.000000  0.338919  0.677837  1
