# generated using pymatgen
data_Si2Bi14IrI12
_symmetry_space_group_name_H-M   'P 1'
_cell_length_a   10.57587056
_cell_length_b   10.57587056
_cell_length_c   20.74388720
_cell_angle_alpha   90.00000000
_cell_angle_beta   90.00000000
_cell_angle_gamma   90.00000000
_symmetry_Int_Tables_number   1
_chemical_formula_structural   Si2Bi14IrI12
_chemical_formula_sum   'Si4 Bi28 Ir2 I24'
_cell_volume   2320.18382981
_cell_formula_units_Z   2
loop_
 _symmetry_equiv_pos_site_id
 _symmetry_equiv_pos_as_xyz
  1  'x, y, z'
loop_
 _atom_site_type_symbol
 _atom_site_label
 _atom_site_symmetry_multiplicity
 _atom_site_fract_x
 _atom_site_fract_y
 _atom_site_fract_z
 _atom_site_occupancy
  Si  Si0  1  0.500000  0.500000  0.908136  1
  Si  Si1  1  0.500000  0.500000  0.591864  1
  Si  Si2  1  0.500000  0.500000  0.091864  1
  Si  Si3  1  0.500000  0.500000  0.408136  1
  I  I4  1  0.215392  0.630383  0.500000  1
  I  I5  1  0.784608  0.369617  0.500000  1
  I  I6  1  0.630383  0.215392  0.000000  1
  I  I7  1  0.630383  0.784608  0.500000  1
  I  I8  1  0.369617  0.215392  0.500000  1
  I  I9  1  0.784608  0.630383  0.000000  1
  I  I10  1  0.215392  0.369617  0.000000  1
  I  I11  1  0.369617  0.784608  0.000000  1
  I  I12  1  0.070211  0.295630  0.652821  1
  I  I13  1  0.929789  0.704370  0.652821  1
  I  I14  1  0.295630  0.070211  0.847179  1
  I  I15  1  0.295630  0.929789  0.652821  1
  I  I16  1  0.704370  0.070211  0.652821  1
  I  I17  1  0.929789  0.295630  0.847179  1
  I  I18  1  0.070211  0.704370  0.847179  1
  I  I19  1  0.704370  0.929789  0.847179  1
  I  I20  1  0.929789  0.704370  0.347179  1
  I  I21  1  0.070211  0.295630  0.347179  1
  I  I22  1  0.704370  0.929789  0.152821  1
  I  I23  1  0.704370  0.070211  0.347179  1
  I  I24  1  0.295630  0.929789  0.347179  1
  I  I25  1  0.070211  0.704370  0.152821  1
  I  I26  1  0.929789  0.295630  0.152821  1
  I  I27  1  0.295630  0.070211  0.152821  1
  Ir  Ir28  1  0.000000  0.000000  0.000000  1
  Ir  Ir29  1  0.000000  0.000000  0.500000  1
  Bi  Bi30  1  0.304460  0.415348  0.819380  1
  Bi  Bi31  1  0.695540  0.584652  0.819380  1
  Bi  Bi32  1  0.415348  0.304460  0.680620  1
  Bi  Bi33  1  0.415348  0.695540  0.819380  1
  Bi  Bi34  1  0.584652  0.304460  0.819380  1
  Bi  Bi35  1  0.695540  0.415348  0.680620  1
  Bi  Bi36  1  0.304460  0.584652  0.680620  1
  Bi  Bi37  1  0.584652  0.695540  0.680620  1
  Bi  Bi38  1  0.695540  0.584652  0.180620  1
  Bi  Bi39  1  0.304460  0.415348  0.180620  1
  Bi  Bi40  1  0.584652  0.695540  0.319380  1
  Bi  Bi41  1  0.584652  0.304460  0.180620  1
  Bi  Bi42  1  0.415348  0.695540  0.180620  1
  Bi  Bi43  1  0.304460  0.584652  0.319380  1
  Bi  Bi44  1  0.695540  0.415348  0.319380  1
  Bi  Bi45  1  0.415348  0.304460  0.319380  1
  Bi  Bi46  1  0.000000  0.000000  0.629712  1
  Bi  Bi47  1  0.000000  0.000000  0.870288  1
  Bi  Bi48  1  0.000000  0.000000  0.370288  1
  Bi  Bi49  1  0.000000  0.000000  0.129712  1
  Bi  Bi50  1  0.940746  0.750958  0.500000  1
  Bi  Bi51  1  0.059254  0.249042  0.500000  1
  Bi  Bi52  1  0.750958  0.940746  0.000000  1
  Bi  Bi53  1  0.750958  0.059254  0.500000  1
  Bi  Bi54  1  0.249042  0.940746  0.500000  1
  Bi  Bi55  1  0.059254  0.750958  0.000000  1
  Bi  Bi56  1  0.940746  0.249042  0.000000  1
  Bi  Bi57  1  0.249042  0.059254  0.000000  1
