# generated using pymatgen
data_Li2ThN2
_symmetry_space_group_name_H-M   'P 1'
_cell_length_a   6.40712340
_cell_length_b   6.40712340
_cell_length_c   5.54453798
_cell_angle_alpha   90.00000000
_cell_angle_beta   90.00000000
_cell_angle_gamma   119.99999993
_symmetry_Int_Tables_number   1
_chemical_formula_structural   Li2ThN2
_chemical_formula_sum   'Li6 Th3 N6'
_cell_volume   197.11613356
_cell_formula_units_Z   3
loop_
 _symmetry_equiv_pos_site_id
 _symmetry_equiv_pos_as_xyz
  1  'x, y, z'
loop_
 _atom_site_type_symbol
 _atom_site_label
 _atom_site_symmetry_multiplicity
 _atom_site_fract_x
 _atom_site_fract_y
 _atom_site_fract_z
 _atom_site_occupancy
  Li  Li0  1  0.328827  0.337956  0.403577  1
  Li  Li1  1  0.009129  0.671173  0.403577  1
  Li  Li2  1  0.662044  0.990871  0.403577  1
  Li  Li3  1  0.337956  0.009129  0.596423  1
  Li  Li4  1  0.671173  0.662044  0.596423  1
  Li  Li5  1  0.990871  0.328827  0.596423  1
  N  N6  1  0.667606  0.001982  0.772856  1
  N  N7  1  0.998018  0.665624  0.772856  1
  N  N8  1  0.334376  0.332394  0.772856  1
  N  N9  1  0.332394  0.998018  0.227144  1
  N  N10  1  0.665624  0.667606  0.227144  1
  N  N11  1  0.001982  0.334376  0.227144  1
  Th  Th12  1  0.666667  0.333333  0.005048  1
  Th  Th13  1  0.333333  0.666667  0.994952  1
  Th  Th14  1  0.000000  0.000000  0.000000  1
