# generated using pymatgen
data_PtBr3
_symmetry_space_group_name_H-M   'P 1'
_cell_length_a   13.74759260
_cell_length_b   13.74759260
_cell_length_c   13.74759259
_cell_angle_alpha   115.10259711
_cell_angle_beta   115.10259712
_cell_angle_gamma   115.10259714
_symmetry_Int_Tables_number   1
_chemical_formula_structural   PtBr3
_chemical_formula_sum   'Pt12 Br36'
_cell_volume   1440.44578029
_cell_formula_units_Z   12
loop_
 _symmetry_equiv_pos_site_id
 _symmetry_equiv_pos_as_xyz
  1  'x, y, z'
loop_
 _atom_site_type_symbol
 _atom_site_label
 _atom_site_symmetry_multiplicity
 _atom_site_fract_x
 _atom_site_fract_y
 _atom_site_fract_z
 _atom_site_occupancy
  Br  Br0  1  0.762712  0.832903  0.347042  1
  Br  Br1  1  0.832903  0.347042  0.762712  1
  Br  Br2  1  0.347042  0.762712  0.832903  1
  Br  Br3  1  0.237288  0.167097  0.652958  1
  Br  Br4  1  0.167097  0.652958  0.237288  1
  Br  Br5  1  0.652958  0.237288  0.167097  1
  Br  Br6  1  0.554395  0.396497  0.050148  1
  Br  Br7  1  0.396497  0.050148  0.554395  1
  Br  Br8  1  0.050148  0.554395  0.396497  1
  Br  Br9  1  0.445605  0.603503  0.949851  1
  Br  Br10  1  0.603503  0.949851  0.445605  1
  Br  Br11  1  0.949851  0.445605  0.603503  1
  Br  Br12  1  0.699670  0.776401  0.602326  1
  Br  Br13  1  0.602326  0.699670  0.776401  1
  Br  Br14  1  0.776401  0.602326  0.699670  1
  Br  Br15  1  0.300330  0.223599  0.397674  1
  Br  Br16  1  0.397674  0.300330  0.223599  1
  Br  Br17  1  0.223599  0.397674  0.300330  1
  Br  Br18  1  0.174313  0.903194  0.923594  1
  Br  Br19  1  0.923594  0.174313  0.903194  1
  Br  Br20  1  0.903194  0.923594  0.174313  1
  Br  Br21  1  0.825687  0.096806  0.076406  1
  Br  Br22  1  0.076406  0.825687  0.096806  1
  Br  Br23  1  0.096806  0.076406  0.825687  1
  Br  Br24  1  0.310369  0.973438  0.728695  1
  Br  Br25  1  0.728695  0.310369  0.973438  1
  Br  Br26  1  0.973438  0.728695  0.310369  1
  Br  Br27  1  0.689631  0.026562  0.271305  1
  Br  Br28  1  0.271305  0.689631  0.026562  1
  Br  Br29  1  0.026562  0.271305  0.689631  1
  Br  Br30  1  0.373089  0.536510  0.148662  1
  Br  Br31  1  0.148662  0.373089  0.536510  1
  Br  Br32  1  0.536510  0.148662  0.373089  1
  Br  Br33  1  0.626911  0.463490  0.851338  1
  Br  Br34  1  0.851338  0.626911  0.463490  1
  Br  Br35  1  0.463490  0.851338  0.626911  1
  Pt  Pt36  1  0.228885  0.801300  0.475611  1
  Pt  Pt37  1  0.801300  0.475611  0.228885  1
  Pt  Pt38  1  0.475611  0.228885  0.801300  1
  Pt  Pt39  1  0.771115  0.198700  0.524389  1
  Pt  Pt40  1  0.198700  0.524389  0.771115  1
  Pt  Pt41  1  0.524389  0.771115  0.198700  1
  Pt  Pt42  1  0.757024  0.935039  0.835475  1
  Pt  Pt43  1  0.935039  0.835475  0.757024  1
  Pt  Pt44  1  0.835475  0.757024  0.935039  1
  Pt  Pt45  1  0.242976  0.064961  0.164525  1
  Pt  Pt46  1  0.064961  0.164525  0.242976  1
  Pt  Pt47  1  0.164525  0.242976  0.064961  1
