# generated using pymatgen
data_Cd(W3Br7)2
_symmetry_space_group_name_H-M   'P 1'
_cell_length_a   13.70908228
_cell_length_b   13.70908228
_cell_length_c   13.70908228
_cell_angle_alpha   90.00000000
_cell_angle_beta   90.00000000
_cell_angle_gamma   90.00000000
_symmetry_Int_Tables_number   1
_chemical_formula_structural   Cd(W3Br7)2
_chemical_formula_sum   'Cd4 W24 Br56'
_cell_volume   2576.47035040
_cell_formula_units_Z   4
loop_
 _symmetry_equiv_pos_site_id
 _symmetry_equiv_pos_as_xyz
  1  'x, y, z'
loop_
 _atom_site_type_symbol
 _atom_site_label
 _atom_site_symmetry_multiplicity
 _atom_site_fract_x
 _atom_site_fract_y
 _atom_site_fract_z
 _atom_site_occupancy
  Br  Br0  1  0.421462  0.183577  0.873951  1
  Br  Br1  1  0.873951  0.421462  0.183577  1
  Br  Br2  1  0.183577  0.873951  0.421462  1
  Br  Br3  1  0.316423  0.626049  0.421462  1
  Br  Br4  1  0.873951  0.078538  0.316423  1
  Br  Br5  1  0.316423  0.873951  0.078538  1
  Br  Br6  1  0.626049  0.078538  0.183577  1
  Br  Br7  1  0.626049  0.421462  0.316423  1
  Br  Br8  1  0.183577  0.626049  0.078538  1
  Br  Br9  1  0.421462  0.316423  0.626049  1
  Br  Br10  1  0.078538  0.183577  0.626049  1
  Br  Br11  1  0.078538  0.316423  0.873951  1
  Br  Br12  1  0.578538  0.816423  0.126049  1
  Br  Br13  1  0.126049  0.578538  0.816423  1
  Br  Br14  1  0.816423  0.126049  0.578538  1
  Br  Br15  1  0.683577  0.373951  0.578538  1
  Br  Br16  1  0.126049  0.921462  0.683577  1
  Br  Br17  1  0.683577  0.126049  0.921462  1
  Br  Br18  1  0.373951  0.921462  0.816423  1
  Br  Br19  1  0.373951  0.578538  0.683577  1
  Br  Br20  1  0.816423  0.373951  0.921462  1
  Br  Br21  1  0.578538  0.683577  0.373951  1
  Br  Br22  1  0.921462  0.816423  0.373951  1
  Br  Br23  1  0.921462  0.683577  0.126049  1
  Br  Br24  1  0.816131  0.924342  0.062068  1
  Br  Br25  1  0.062068  0.816131  0.924342  1
  Br  Br26  1  0.924342  0.062068  0.816131  1
  Br  Br27  1  0.575658  0.437932  0.816131  1
  Br  Br28  1  0.062068  0.683869  0.575658  1
  Br  Br29  1  0.575658  0.062068  0.683869  1
  Br  Br30  1  0.437932  0.683869  0.924342  1
  Br  Br31  1  0.437932  0.816131  0.575658  1
  Br  Br32  1  0.924342  0.437932  0.683869  1
  Br  Br33  1  0.816131  0.575658  0.437932  1
  Br  Br34  1  0.683869  0.924342  0.437932  1
  Br  Br35  1  0.683869  0.575658  0.062068  1
  Br  Br36  1  0.183869  0.075658  0.937932  1
  Br  Br37  1  0.937932  0.183869  0.075658  1
  Br  Br38  1  0.075658  0.937932  0.183869  1
  Br  Br39  1  0.424342  0.562068  0.183869  1
  Br  Br40  1  0.937932  0.316131  0.424342  1
  Br  Br41  1  0.424342  0.937932  0.316131  1
  Br  Br42  1  0.562068  0.316131  0.075658  1
  Br  Br43  1  0.562068  0.183869  0.424342  1
  Br  Br44  1  0.075658  0.562068  0.316131  1
  Br  Br45  1  0.183869  0.424342  0.562068  1
  Br  Br46  1  0.316131  0.075658  0.562068  1
  Br  Br47  1  0.316131  0.424342  0.937932  1
  Br  Br48  1  0.637037  0.637037  0.637037  1
  Br  Br49  1  0.862963  0.862963  0.637037  1
  Br  Br50  1  0.637037  0.862963  0.862963  1
  Br  Br51  1  0.862963  0.637037  0.862963  1
  Br  Br52  1  0.362963  0.362963  0.362963  1
  Br  Br53  1  0.137037  0.137037  0.362963  1
  Br  Br54  1  0.362963  0.137037  0.137037  1
  Br  Br55  1  0.137037  0.362963  0.137037  1
  Cd  Cd56  1  0.000000  0.000000  0.000000  1
  Cd  Cd57  1  0.500000  0.500000  0.000000  1
  Cd  Cd58  1  0.000000  0.500000  0.500000  1
  Cd  Cd59  1  0.500000  0.000000  0.500000  1
  W  W60  1  0.523485  0.131910  0.028759  1
  W  W61  1  0.028759  0.523485  0.131910  1
  W  W62  1  0.131910  0.028759  0.523485  1
  W  W63  1  0.368090  0.471241  0.523485  1
  W  W64  1  0.028759  0.976515  0.368090  1
  W  W65  1  0.368090  0.028759  0.976515  1
  W  W66  1  0.471241  0.976515  0.131910  1
  W  W67  1  0.471241  0.523485  0.368090  1
  W  W68  1  0.131910  0.471241  0.976515  1
  W  W69  1  0.523485  0.368090  0.471241  1
  W  W70  1  0.976515  0.131910  0.471241  1
  W  W71  1  0.976515  0.368090  0.028759  1
  W  W72  1  0.476515  0.868090  0.971241  1
  W  W73  1  0.971241  0.476515  0.868090  1
  W  W74  1  0.868090  0.971241  0.476515  1
  W  W75  1  0.631910  0.528759  0.476515  1
  W  W76  1  0.971241  0.023485  0.631910  1
  W  W77  1  0.631910  0.971241  0.023485  1
  W  W78  1  0.528759  0.023485  0.868090  1
  W  W79  1  0.528759  0.476515  0.631910  1
  W  W80  1  0.868090  0.528759  0.023485  1
  W  W81  1  0.476515  0.631910  0.528759  1
  W  W82  1  0.023485  0.868090  0.528759  1
  W  W83  1  0.023485  0.631910  0.971241  1
