# generated using pymatgen
data_La2Ni12P5
_symmetry_space_group_name_H-M   'P 1'
_cell_length_a   3.68750281
_cell_length_b   10.92631496
_cell_length_c   13.15220278
_cell_angle_alpha   107.84056278
_cell_angle_beta   90.00000000
_cell_angle_gamma   90.00000000
_symmetry_Int_Tables_number   1
_chemical_formula_structural   La2Ni12P5
_chemical_formula_sum   'La4 Ni24 P10'
_cell_volume   504.43093097
_cell_formula_units_Z   2
loop_
 _symmetry_equiv_pos_site_id
 _symmetry_equiv_pos_as_xyz
  1  'x, y, z'
loop_
 _atom_site_type_symbol
 _atom_site_label
 _atom_site_symmetry_multiplicity
 _atom_site_fract_x
 _atom_site_fract_y
 _atom_site_fract_z
 _atom_site_occupancy
  P  P0  1  0.250000  0.992609  0.871380  1
  P  P1  1  0.750000  0.007391  0.128620  1
  P  P2  1  0.250000  0.699939  0.983869  1
  P  P3  1  0.750000  0.300061  0.016131  1
  P  P4  1  0.250000  0.548325  0.259406  1
  P  P5  1  0.750000  0.451675  0.740594  1
  P  P6  1  0.250000  0.008109  0.378770  1
  P  P7  1  0.750000  0.991891  0.621230  1
  P  P8  1  0.250000  0.688673  0.611954  1
  P  P9  1  0.750000  0.311327  0.388046  1
  Ni  Ni10  1  0.250000  0.427941  0.014461  1
  Ni  Ni11  1  0.250000  0.434282  0.448325  1
  Ni  Ni12  1  0.750000  0.493684  0.341014  1
  Ni  Ni13  1  0.250000  0.506316  0.658986  1
  Ni  Ni14  1  0.750000  0.489205  0.150849  1
  Ni  Ni15  1  0.250000  0.510795  0.849151  1
  Ni  Ni16  1  0.750000  0.565718  0.551675  1
  Ni  Ni17  1  0.250000  0.655902  0.135196  1
  Ni  Ni18  1  0.750000  0.343340  0.561540  1
  Ni  Ni19  1  0.250000  0.656660  0.438460  1
  Ni  Ni20  1  0.750000  0.094535  0.304964  1
  Ni  Ni21  1  0.250000  0.905465  0.695036  1
  Ni  Ni22  1  0.750000  0.080937  0.990311  1
  Ni  Ni23  1  0.250000  0.919063  0.009689  1
  Ni  Ni24  1  0.750000  0.078395  0.490304  1
  Ni  Ni25  1  0.250000  0.921605  0.509696  1
  Ni  Ni26  1  0.750000  0.060561  0.796386  1
  Ni  Ni27  1  0.250000  0.939439  0.203614  1
  Ni  Ni28  1  0.250000  0.213268  0.438053  1
  Ni  Ni29  1  0.750000  0.786732  0.561947  1
  Ni  Ni30  1  0.250000  0.201387  0.918471  1
  Ni  Ni31  1  0.750000  0.798613  0.081529  1
  Ni  Ni32  1  0.750000  0.344098  0.864804  1
  Ni  Ni33  1  0.750000  0.572059  0.985539  1
  La  La34  1  0.250000  0.252614  0.187950  1
  La  La35  1  0.750000  0.747386  0.812049  1
  La  La36  1  0.250000  0.221059  0.683253  1
  La  La37  1  0.750000  0.778941  0.316747  1
