# generated using pymatgen
data_BaPr2CuO5
_symmetry_space_group_name_H-M   'P 1'
_cell_length_a   5.90272256
_cell_length_b   6.82016797
_cell_length_c   6.82016797
_cell_angle_alpha   90.00000000
_cell_angle_beta   90.00000000
_cell_angle_gamma   90.00000000
_symmetry_Int_Tables_number   1
_chemical_formula_structural   BaPr2CuO5
_chemical_formula_sum   'Ba2 Pr4 Cu2 O10'
_cell_volume   274.56331676
_cell_formula_units_Z   2
loop_
 _symmetry_equiv_pos_site_id
 _symmetry_equiv_pos_as_xyz
  1  'x, y, z'
loop_
 _atom_site_type_symbol
 _atom_site_label
 _atom_site_symmetry_multiplicity
 _atom_site_fract_x
 _atom_site_fract_y
 _atom_site_fract_z
 _atom_site_occupancy
  O  O0  1  0.241866  0.638600  0.138600  1
  O  O1  1  0.241866  0.361400  0.861400  1
  O  O2  1  0.241866  0.138600  0.361400  1
  O  O3  1  0.241866  0.861400  0.638600  1
  O  O4  1  0.758134  0.638600  0.138600  1
  O  O5  1  0.758134  0.861400  0.638600  1
  O  O6  1  0.758134  0.138600  0.361400  1
  O  O7  1  0.758134  0.361400  0.861400  1
  O  O8  1  0.500000  0.000000  0.000000  1
  O  O9  1  0.500000  0.500000  0.500000  1
  Cu  Cu10  1  0.000000  0.500000  0.000000  1
  Cu  Cu11  1  0.000000  0.000000  0.500000  1
  Ba  Ba12  1  0.000000  0.500000  0.500000  1
  Ba  Ba13  1  0.000000  0.000000  0.000000  1
  Pr  Pr14  1  0.500000  0.826807  0.326807  1
  Pr  Pr15  1  0.500000  0.673193  0.826807  1
  Pr  Pr16  1  0.500000  0.326807  0.173193  1
  Pr  Pr17  1  0.500000  0.173193  0.673193  1
