# generated using pymatgen
data_Tl5SbO5
_symmetry_space_group_name_H-M   'P 1'
_cell_length_a   8.21188650
_cell_length_b   8.21188650
_cell_length_c   14.13347842
_cell_angle_alpha   90.00000000
_cell_angle_beta   90.00000000
_cell_angle_gamma   95.12383717
_symmetry_Int_Tables_number   1
_chemical_formula_structural   Tl5SbO5
_chemical_formula_sum   'Tl20 Sb4 O20'
_cell_volume   949.28368531
_cell_formula_units_Z   4
loop_
 _symmetry_equiv_pos_site_id
 _symmetry_equiv_pos_as_xyz
  1  'x, y, z'
loop_
 _atom_site_type_symbol
 _atom_site_label
 _atom_site_symmetry_multiplicity
 _atom_site_fract_x
 _atom_site_fract_y
 _atom_site_fract_z
 _atom_site_occupancy
  O  O0  1  0.062793  0.937207  0.845274  1
  O  O1  1  0.937207  0.062793  0.345274  1
  O  O2  1  0.945945  0.054055  0.112042  1
  O  O3  1  0.054055  0.945945  0.612042  1
  O  O4  1  0.819319  0.180681  0.764176  1
  O  O5  1  0.180681  0.819319  0.264176  1
  O  O6  1  0.694523  0.305477  0.029879  1
  O  O7  1  0.305477  0.694523  0.529879  1
  O  O8  1  0.246657  0.018590  0.011595  1
  O  O9  1  0.753343  0.981410  0.511595  1
  O  O10  1  0.981410  0.753343  0.011595  1
  O  O11  1  0.018590  0.246657  0.511595  1
  O  O12  1  0.483828  0.777423  0.362452  1
  O  O13  1  0.516172  0.222577  0.862452  1
  O  O14  1  0.222577  0.516172  0.362452  1
  O  O15  1  0.777423  0.483828  0.862452  1
  O  O16  1  0.241661  0.998627  0.440051  1
  O  O17  1  0.758339  0.001373  0.940051  1
  O  O18  1  0.001373  0.758339  0.440051  1
  O  O19  1  0.998627  0.241661  0.940051  1
  Sb  Sb20  1  0.244185  0.755815  0.395867  1
  Sb  Sb21  1  0.755815  0.244185  0.895867  1
  Sb  Sb22  1  0.006360  0.993640  0.979302  1
  Sb  Sb23  1  0.993640  0.006360  0.479302  1
  Tl  Tl24  1  0.742027  0.257973  0.599304  1
  Tl  Tl25  1  0.257973  0.742027  0.099304  1
  Tl  Tl26  1  0.474921  0.525079  0.260447  1
  Tl  Tl27  1  0.525079  0.474921  0.760447  1
  Tl  Tl28  1  0.312217  0.360979  0.504555  1
  Tl  Tl29  1  0.687783  0.639021  0.004555  1
  Tl  Tl30  1  0.639021  0.687783  0.504555  1
  Tl  Tl31  1  0.360979  0.312217  0.004555  1
  Tl  Tl32  1  0.198203  0.118785  0.248673  1
  Tl  Tl33  1  0.801797  0.881215  0.748673  1
  Tl  Tl34  1  0.881215  0.801797  0.248673  1
  Tl  Tl35  1  0.118785  0.198203  0.748673  1
  Tl  Tl36  1  0.963041  0.361081  0.109583  1
  Tl  Tl37  1  0.036959  0.638919  0.609583  1
  Tl  Tl38  1  0.638919  0.036959  0.109583  1
  Tl  Tl39  1  0.361081  0.963041  0.609583  1
  Tl  Tl40  1  0.928200  0.396775  0.366645  1
  Tl  Tl41  1  0.071800  0.603225  0.866645  1
  Tl  Tl42  1  0.603225  0.071800  0.366645  1
  Tl  Tl43  1  0.396775  0.928200  0.866645  1
