# generated using pymatgen
data_Er(IO3)3
_symmetry_space_group_name_H-M   'P 1'
_cell_length_a   6.15383465
_cell_length_b   8.76679220
_cell_length_c   15.25836476
_cell_angle_alpha   96.69076336
_cell_angle_beta   90.00000000
_cell_angle_gamma   90.00000000
_symmetry_Int_Tables_number   1
_chemical_formula_structural   Er(IO3)3
_chemical_formula_sum   'Er4 I12 O36'
_cell_volume   817.57315636
_cell_formula_units_Z   4
loop_
 _symmetry_equiv_pos_site_id
 _symmetry_equiv_pos_as_xyz
  1  'x, y, z'
loop_
 _atom_site_type_symbol
 _atom_site_label
 _atom_site_symmetry_multiplicity
 _atom_site_fract_x
 _atom_site_fract_y
 _atom_site_fract_z
 _atom_site_occupancy
  Er  Er0  1  0.211767  0.957633  0.606354  1
  Er  Er1  1  0.711767  0.542367  0.893646  1
  Er  Er2  1  0.288233  0.457633  0.106354  1
  Er  Er3  1  0.788233  0.042367  0.393646  1
  I  I4  1  0.853702  0.666031  0.519274  1
  I  I5  1  0.146298  0.333969  0.480726  1
  I  I6  1  0.404149  0.615738  0.698007  1
  I  I7  1  0.810855  0.714158  0.139788  1
  I  I8  1  0.095851  0.115738  0.198007  1
  I  I9  1  0.646298  0.166031  0.019274  1
  I  I10  1  0.353702  0.833969  0.980726  1
  I  I11  1  0.689145  0.214158  0.639788  1
  I  I12  1  0.595851  0.384262  0.301993  1
  I  I13  1  0.904149  0.884262  0.801993  1
  I  I14  1  0.310855  0.785842  0.360212  1
  I  I15  1  0.189145  0.285842  0.860212  1
  O  O16  1  0.014286  0.274005  0.135625  1
  O  O17  1  0.675241  0.587535  0.744164  1
  O  O18  1  0.026235  0.728952  0.615813  1
  O  O19  1  0.567612  0.912512  0.060091  1
  O  O20  1  0.395164  0.425942  0.830725  1
  O  O21  1  0.363574  0.854764  0.475244  1
  O  O22  1  0.067612  0.587488  0.439909  1
  O  O23  1  0.824759  0.087535  0.244164  1
  O  O24  1  0.583096  0.547441  0.389251  1
  O  O25  1  0.632276  0.360084  0.983284  1
  O  O26  1  0.473765  0.228952  0.115813  1
  O  O27  1  0.552801  0.875280  0.316619  1
  O  O28  1  0.416904  0.452559  0.610749  1
  O  O29  1  0.324759  0.412465  0.255836  1
  O  O30  1  0.863574  0.645236  0.024756  1
  O  O31  1  0.432388  0.087488  0.939909  1
  O  O32  1  0.175241  0.912465  0.755836  1
  O  O33  1  0.604836  0.574058  0.169275  1
  O  O34  1  0.104836  0.925942  0.330725  1
  O  O35  1  0.052801  0.624720  0.183381  1
  O  O36  1  0.916904  0.047441  0.889251  1
  O  O37  1  0.985714  0.725995  0.864375  1
  O  O38  1  0.447199  0.124720  0.683381  1
  O  O39  1  0.136426  0.354764  0.975244  1
  O  O40  1  0.973765  0.271048  0.384187  1
  O  O41  1  0.132276  0.139916  0.516716  1
  O  O42  1  0.895164  0.074058  0.669275  1
  O  O43  1  0.947199  0.375280  0.816619  1
  O  O44  1  0.526235  0.771048  0.884187  1
  O  O45  1  0.867724  0.860084  0.483284  1
  O  O46  1  0.367724  0.639916  0.016716  1
  O  O47  1  0.932388  0.412512  0.560091  1
  O  O48  1  0.485714  0.774005  0.635625  1
  O  O49  1  0.514286  0.225995  0.364375  1
  O  O50  1  0.083096  0.952559  0.110749  1
  O  O51  1  0.636426  0.145236  0.524756  1
