# generated using pymatgen
data_Na2SO3
_symmetry_space_group_name_H-M   'P 1'
_cell_length_a   5.52276463
_cell_length_b   5.52276463
_cell_length_c   6.19934792
_cell_angle_alpha   90.00000000
_cell_angle_beta   90.00000000
_cell_angle_gamma   119.99999993
_symmetry_Int_Tables_number   1
_chemical_formula_structural   Na2SO3
_chemical_formula_sum   'Na4 S2 O6'
_cell_volume   163.75316864
_cell_formula_units_Z   2
loop_
 _symmetry_equiv_pos_site_id
 _symmetry_equiv_pos_as_xyz
  1  'x, y, z'
loop_
 _atom_site_type_symbol
 _atom_site_label
 _atom_site_symmetry_multiplicity
 _atom_site_fract_x
 _atom_site_fract_y
 _atom_site_fract_z
 _atom_site_occupancy
  O  O0  1  0.738441  0.120772  0.734792  1
  O  O1  1  0.382331  0.261559  0.734792  1
  O  O2  1  0.879228  0.617669  0.734792  1
  O  O3  1  0.261559  0.879228  0.265208  1
  O  O4  1  0.120772  0.382331  0.265208  1
  O  O5  1  0.617669  0.738441  0.265208  1
  Na  Na6  1  0.333333  0.666667  0.665876  1
  Na  Na7  1  0.000000  0.000000  0.500000  1
  Na  Na8  1  0.666667  0.333333  0.334124  1
  Na  Na9  1  0.000000  0.000000  0.000000  1
  S  S10  1  0.333333  0.666667  0.164861  1
  S  S11  1  0.666667  0.333333  0.835139  1
