# generated using pymatgen
data_Al2PbO4
_symmetry_space_group_name_H-M   'P 1'
_cell_length_a   5.15820464
_cell_length_b   5.32817230
_cell_length_c   8.56974882
_cell_angle_alpha   90.00000000
_cell_angle_beta   90.00000000
_cell_angle_gamma   118.95025608
_symmetry_Int_Tables_number   1
_chemical_formula_structural   Al2PbO4
_chemical_formula_sum   'Al4 Pb2 O8'
_cell_volume   206.09761672
_cell_formula_units_Z   2
loop_
 _symmetry_equiv_pos_site_id
 _symmetry_equiv_pos_as_xyz
  1  'x, y, z'
loop_
 _atom_site_type_symbol
 _atom_site_label
 _atom_site_symmetry_multiplicity
 _atom_site_fract_x
 _atom_site_fract_y
 _atom_site_fract_z
 _atom_site_occupancy
  O  O0  1  0.538161  0.372570  0.250000  1
  O  O1  1  0.165591  0.627430  0.750000  1
  O  O2  1  0.358264  0.000000  0.500000  1
  O  O3  1  0.358264  0.000000  0.000000  1
  O  O4  1  0.000988  0.382503  0.445697  1
  O  O5  1  0.618485  0.617497  0.554303  1
  O  O6  1  0.618485  0.617497  0.945697  1
  O  O7  1  0.000988  0.382503  0.054303  1
  Al  Al8  1  0.639722  0.343844  0.445678  1
  Al  Al9  1  0.295878  0.656156  0.554322  1
  Al  Al10  1  0.639722  0.343844  0.054322  1
  Al  Al11  1  0.295878  0.656156  0.945678  1
  Pb  Pb12  1  0.029999  0.060425  0.250000  1
  Pb  Pb13  1  0.969573  0.939575  0.750000  1
