# generated using pymatgen
data_Sb4F15
_symmetry_space_group_name_H-M   'P 1'
_cell_length_a   11.18202810
_cell_length_b   11.41240123
_cell_length_c   19.65754346
_cell_angle_alpha   90.00000000
_cell_angle_beta   90.00000000
_cell_angle_gamma   90.00000000
_symmetry_Int_Tables_number   1
_chemical_formula_structural   Sb4F15
_chemical_formula_sum   'Sb32 F120'
_cell_volume   2508.57364744
_cell_formula_units_Z   8
loop_
 _symmetry_equiv_pos_site_id
 _symmetry_equiv_pos_as_xyz
  1  'x, y, z'
loop_
 _atom_site_type_symbol
 _atom_site_label
 _atom_site_symmetry_multiplicity
 _atom_site_fract_x
 _atom_site_fract_y
 _atom_site_fract_z
 _atom_site_occupancy
  F  F0  1  0.733401  0.244668  0.060144  1
  F  F1  1  0.266599  0.755332  0.560144  1
  F  F2  1  0.266599  0.744668  0.060144  1
  F  F3  1  0.733401  0.255332  0.560144  1
  F  F4  1  0.758780  0.046161  0.130524  1
  F  F5  1  0.241220  0.953839  0.630524  1
  F  F6  1  0.241220  0.546161  0.130524  1
  F  F7  1  0.758780  0.453839  0.630524  1
  F  F8  1  0.756002  0.048097  0.982077  1
  F  F9  1  0.243998  0.951903  0.482077  1
  F  F10  1  0.243998  0.548097  0.982077  1
  F  F11  1  0.756002  0.451903  0.482077  1
  F  F12  1  0.818562  0.910943  0.866314  1
  F  F13  1  0.181438  0.089057  0.366314  1
  F  F14  1  0.181438  0.410943  0.866314  1
  F  F15  1  0.818562  0.589057  0.366314  1
  F  F16  1  0.009266  0.981052  0.948858  1
  F  F17  1  0.990734  0.018948  0.448858  1
  F  F18  1  0.990734  0.481052  0.948858  1
  F  F19  1  0.009266  0.518948  0.448858  1
  F  F20  1  0.013940  0.991039  0.809650  1
  F  F21  1  0.986060  0.008961  0.309650  1
  F  F22  1  0.986060  0.491039  0.809650  1
  F  F23  1  0.013940  0.508961  0.309650  1
  F  F24  1  0.800541  0.921365  0.247278  1
  F  F25  1  0.199459  0.078635  0.747278  1
  F  F26  1  0.199459  0.421365  0.247278  1
  F  F27  1  0.800541  0.578635  0.747278  1
  F  F28  1  0.995656  0.983205  0.167049  1
  F  F29  1  0.004344  0.016796  0.667049  1
  F  F30  1  0.004344  0.483204  0.167049  1
  F  F31  1  0.995656  0.516795  0.667049  1
  F  F32  1  0.931320  0.228567  0.982865  1
  F  F33  1  0.068680  0.771433  0.482865  1
  F  F34  1  0.068680  0.728567  0.982865  1
  F  F35  1  0.931320  0.271433  0.482865  1
  F  F36  1  0.936937  0.227896  0.128395  1
  F  F37  1  0.063063  0.772104  0.628395  1
  F  F38  1  0.063063  0.727896  0.128395  1
  F  F39  1  0.936937  0.272104  0.628395  1
  F  F40  1  0.086083  0.185280  0.869723  1
  F  F41  1  0.913917  0.814720  0.369723  1
  F  F42  1  0.913917  0.685280  0.869723  1
  F  F43  1  0.086083  0.314720  0.369723  1
  F  F44  1  0.080695  0.299551  0.752007  1
  F  F45  1  0.919305  0.700449  0.252007  1
  F  F46  1  0.919305  0.799551  0.752007  1
  F  F47  1  0.080695  0.200449  0.252007  1
  F  F48  1  0.275418  0.248280  0.960379  1
  F  F49  1  0.724582  0.751720  0.460379  1
  F  F50  1  0.724582  0.748280  0.960379  1
  F  F51  1  0.275418  0.251720  0.460379  1
  F  F52  1  0.252983  0.251697  0.152908  1
  F  F53  1  0.747017  0.748303  0.652908  1
  F  F54  1  0.747017  0.751697  0.152908  1
  F  F55  1  0.252983  0.248303  0.652908  1
  F  F56  1  0.120814  0.347196  0.051610  1
  F  F57  1  0.879186  0.652804  0.551610  1
  F  F58  1  0.879186  0.847196  0.051610  1
  F  F59  1  0.120814  0.152804  0.551610  1
  F  F60  1  0.360834  0.383573  0.059849  1
  F  F61  1  0.639166  0.616427  0.559849  1
  F  F62  1  0.639166  0.883573  0.059849  1
  F  F63  1  0.360834  0.116427  0.559849  1
  F  F64  1  0.152428  0.112074  0.052855  1
  F  F65  1  0.847572  0.887926  0.552855  1
  F  F66  1  0.847572  0.612074  0.052855  1
  F  F67  1  0.152428  0.387926  0.552855  1
  F  F68  1  0.400083  0.149562  0.063160  1
  F  F69  1  0.599917  0.850438  0.563160  1
  F  F70  1  0.599917  0.649562  0.063160  1
  F  F71  1  0.400083  0.350438  0.563160  1
  F  F72  1  0.499113  0.133557  0.339294  1
  F  F73  1  0.500887  0.866443  0.839294  1
  F  F74  1  0.500887  0.633557  0.339294  1
  F  F75  1  0.499113  0.366443  0.839294  1
  F  F76  1  0.660341  0.952584  0.365236  1
  F  F77  1  0.339659  0.047416  0.865236  1
  F  F78  1  0.339659  0.452584  0.365236  1
  F  F79  1  0.660341  0.547416  0.865236  1
  F  F80  1  0.501950  0.019751  0.461453  1
  F  F81  1  0.498050  0.980249  0.961453  1
  F  F82  1  0.498050  0.519751  0.461453  1
  F  F83  1  0.501950  0.480249  0.961453  1
  F  F84  1  0.583040  0.246346  0.450446  1
  F  F85  1  0.416960  0.753654  0.950446  1
  F  F86  1  0.416960  0.746346  0.450446  1
  F  F87  1  0.583040  0.253654  0.950446  1
  F  F88  1  0.741194  0.172665  0.351502  1
  F  F89  1  0.258806  0.827335  0.851502  1
  F  F90  1  0.258806  0.672665  0.351502  1
  F  F91  1  0.741194  0.327335  0.851502  1
  F  F92  1  0.737559  0.070709  0.474952  1
  F  F93  1  0.262441  0.929291  0.974952  1
  F  F94  1  0.262441  0.570709  0.474952  1
  F  F95  1  0.737559  0.429291  0.974952  1
  F  F96  1  0.685289  0.924253  0.746137  1
  F  F97  1  0.314711  0.075747  0.246137  1
  F  F98  1  0.314711  0.424253  0.746137  1
  F  F99  1  0.685289  0.575747  0.246137  1
  F  F100  1  0.565097  0.110100  0.803461  1
  F  F101  1  0.434903  0.889900  0.303461  1
  F  F102  1  0.434903  0.610100  0.803461  1
  F  F103  1  0.565097  0.389900  0.303461  1
  F  F104  1  0.741721  0.060032  0.639310  1
  F  F105  1  0.258279  0.939968  0.139310  1
  F  F106  1  0.258279  0.560032  0.639310  1
  F  F107  1  0.741721  0.439968  0.139310  1
  F  F108  1  0.508398  0.032401  0.674466  1
  F  F109  1  0.491602  0.967599  0.174466  1
  F  F110  1  0.491602  0.532401  0.674466  1
  F  F111  1  0.508398  0.467599  0.174466  1
  F  F112  1  0.623862  0.244373  0.693050  1
  F  F113  1  0.376138  0.755627  0.193050  1
  F  F114  1  0.376138  0.744373  0.693050  1
  F  F115  1  0.623862  0.255627  0.193050  1
  F  F116  1  0.797208  0.129734  0.765257  1
  F  F117  1  0.202792  0.870266  0.265257  1
  F  F118  1  0.202792  0.629734  0.765257  1
  F  F119  1  0.797208  0.370266  0.265257  1
  Sb  Sb120  1  0.640329  0.083684  0.053917  1
  Sb  Sb121  1  0.359671  0.916316  0.553917  1
  Sb  Sb122  1  0.359671  0.583684  0.053917  1
  Sb  Sb123  1  0.640329  0.416316  0.553917  1
  Sb  Sb124  1  0.914971  0.070919  0.885569  1
  Sb  Sb125  1  0.085029  0.929081  0.385569  1
  Sb  Sb126  1  0.085029  0.570919  0.885569  1
  Sb  Sb127  1  0.914971  0.429081  0.385569  1
  Sb  Sb128  1  0.884228  0.071907  0.220631  1
  Sb  Sb129  1  0.115772  0.928093  0.720631  1
  Sb  Sb130  1  0.115772  0.571907  0.220631  1
  Sb  Sb131  1  0.884228  0.428093  0.720631  1
  Sb  Sb132  1  0.895851  0.342364  0.055976  1
  Sb  Sb133  1  0.104149  0.657636  0.555976  1
  Sb  Sb134  1  0.104149  0.842364  0.055976  1
  Sb  Sb135  1  0.895851  0.157636  0.555976  1
  Sb  Sb136  1  0.215080  0.254777  0.809575  1
  Sb  Sb137  1  0.784920  0.745223  0.309575  1
  Sb  Sb138  1  0.784920  0.754777  0.809575  1
  Sb  Sb139  1  0.215080  0.245223  0.309575  1
  Sb  Sb140  1  0.257819  0.241824  0.056675  1
  Sb  Sb141  1  0.742181  0.758176  0.556675  1
  Sb  Sb142  1  0.742181  0.741824  0.056675  1
  Sb  Sb143  1  0.257819  0.258176  0.556675  1
  Sb  Sb144  1  0.617982  0.099925  0.405342  1
  Sb  Sb145  1  0.382018  0.900075  0.905342  1
  Sb  Sb146  1  0.382018  0.599925  0.405342  1
  Sb  Sb147  1  0.617982  0.400075  0.905342  1
  Sb  Sb148  1  0.648571  0.085194  0.721005  1
  Sb  Sb149  1  0.351429  0.914806  0.221005  1
  Sb  Sb150  1  0.351429  0.585194  0.721005  1
  Sb  Sb151  1  0.648571  0.414806  0.221005  1
