# generated using pymatgen
data_AgMo3(PO7)2
_symmetry_space_group_name_H-M   'P 1'
_cell_length_a   6.50796281
_cell_length_b   8.34042651
_cell_length_c   10.71220435
_cell_angle_alpha   109.39716052
_cell_angle_beta   90.00000000
_cell_angle_gamma   90.00000000
_symmetry_Int_Tables_number   1
_chemical_formula_structural   AgMo3(PO7)2
_chemical_formula_sum   'Ag2 Mo6 P4 O28'
_cell_volume   548.44612837
_cell_formula_units_Z   2
loop_
 _symmetry_equiv_pos_site_id
 _symmetry_equiv_pos_as_xyz
  1  'x, y, z'
loop_
 _atom_site_type_symbol
 _atom_site_label
 _atom_site_symmetry_multiplicity
 _atom_site_fract_x
 _atom_site_fract_y
 _atom_site_fract_z
 _atom_site_occupancy
  O  O0  1  0.250000  0.941677  0.581537  1
  O  O1  1  0.750001  0.058323  0.418463  1
  O  O2  1  0.250000  0.781671  0.184085  1
  O  O3  1  0.750001  0.218328  0.815915  1
  O  O4  1  0.531269  0.289318  0.625421  1
  O  O5  1  0.031268  0.710683  0.374579  1
  O  O6  1  0.468732  0.710683  0.374579  1
  O  O7  1  0.968731  0.289318  0.625421  1
  O  O8  1  0.061564  0.759524  0.694738  1
  O  O9  1  0.561563  0.240475  0.305262  1
  O  O10  1  0.938437  0.240475  0.305262  1
  O  O11  1  0.438437  0.759524  0.694738  1
  O  O12  1  0.750001  0.606222  0.075304  1
  O  O13  1  0.250000  0.393777  0.924696  1
  O  O14  1  0.750001  0.970544  0.171433  1
  O  O15  1  0.250000  0.029455  0.828566  1
  O  O16  1  0.440019  0.775768  0.978993  1
  O  O17  1  0.940018  0.224232  0.021008  1
  O  O18  1  0.559981  0.224232  0.021008  1
  O  O19  1  0.059982  0.775768  0.978993  1
  O  O20  1  0.250000  0.069470  0.382892  1
  O  O21  1  0.250000  0.366989  0.192913  1
  O  O22  1  0.750001  0.955767  0.887120  1
  O  O23  1  0.250000  0.044233  0.112880  1
  O  O24  1  0.750001  0.571391  0.535516  1
  O  O25  1  0.250000  0.428610  0.464484  1
  O  O26  1  0.750001  0.930530  0.617107  1
  O  O27  1  0.750001  0.633011  0.807087  1
  P  P28  1  0.250000  0.847478  0.065437  1
  P  P29  1  0.750001  0.152521  0.934563  1
  P  P30  1  0.750001  0.123773  0.298802  1
  P  P31  1  0.250000  0.876226  0.701198  1
  Mo  Mo32  1  0.750001  0.760831  0.001857  1
  Mo  Mo33  1  0.250000  0.239168  0.998143  1
  Mo  Mo34  1  0.750001  0.741593  0.679003  1
  Mo  Mo35  1  0.750001  0.167764  0.620072  1
  Mo  Mo36  1  0.250000  0.258407  0.320997  1
  Mo  Mo37  1  0.250000  0.832236  0.379929  1
  Ag  Ag38  1  0.250000  0.468147  0.720782  1
  Ag  Ag39  1  0.750001  0.531854  0.279219  1
