# generated using pymatgen
data_TlBO2
_symmetry_space_group_name_H-M   'P 1'
_cell_length_a   7.62571622
_cell_length_b   7.62571622
_cell_length_c   9.47190494
_cell_angle_alpha   90.00000000
_cell_angle_beta   90.00000000
_cell_angle_gamma   90.00000000
_symmetry_Int_Tables_number   1
_chemical_formula_structural   TlBO2
_chemical_formula_sum   'Tl8 B8 O16'
_cell_volume   550.80593352
_cell_formula_units_Z   8
loop_
 _symmetry_equiv_pos_site_id
 _symmetry_equiv_pos_as_xyz
  1  'x, y, z'
loop_
 _atom_site_type_symbol
 _atom_site_label
 _atom_site_symmetry_multiplicity
 _atom_site_fract_x
 _atom_site_fract_y
 _atom_site_fract_z
 _atom_site_occupancy
  B  B0  1  0.549192  0.591725  0.021744  1
  B  B1  1  0.408275  0.549192  0.271744  1
  B  B2  1  0.591725  0.450808  0.771744  1
  B  B3  1  0.450808  0.408275  0.521744  1
  B  B4  1  0.857134  0.539176  0.918206  1
  B  B5  1  0.460824  0.857134  0.168206  1
  B  B6  1  0.539176  0.142866  0.668206  1
  B  B7  1  0.142866  0.460824  0.418206  1
  O  O8  1  0.217771  0.503701  0.288054  1
  O  O9  1  0.496299  0.217771  0.538054  1
  O  O10  1  0.503701  0.782229  0.038054  1
  O  O11  1  0.782229  0.496299  0.788054  1
  O  O12  1  0.513623  0.466389  0.383115  1
  O  O13  1  0.533611  0.513623  0.633115  1
  O  O14  1  0.466389  0.486377  0.133115  1
  O  O15  1  0.486377  0.533611  0.883115  1
  O  O16  1  0.255786  0.427494  0.532371  1
  O  O17  1  0.572506  0.255786  0.782371  1
  O  O18  1  0.427494  0.744214  0.282371  1
  O  O19  1  0.744214  0.572506  0.032371  1
  O  O20  1  0.967182  0.447344  0.437081  1
  O  O21  1  0.552656  0.967182  0.687081  1
  O  O22  1  0.447344  0.032818  0.187081  1
  O  O23  1  0.032818  0.552656  0.937081  1
  Tl  Tl24  1  0.731004  0.979488  0.905646  1
  Tl  Tl25  1  0.020512  0.731004  0.155646  1
  Tl  Tl26  1  0.979488  0.268996  0.655646  1
  Tl  Tl27  1  0.268996  0.020512  0.405646  1
  Tl  Tl28  1  0.732556  0.724703  0.499283  1
  Tl  Tl29  1  0.275297  0.732556  0.749283  1
  Tl  Tl30  1  0.724703  0.267444  0.249283  1
  Tl  Tl31  1  0.267444  0.275297  0.999283  1
