# generated using pymatgen
data_BaC20
_symmetry_space_group_name_H-M   'P 1'
_cell_length_a   11.47532534
_cell_length_b   11.47532534
_cell_length_c   11.47532534
_cell_angle_alpha   90.00000000
_cell_angle_beta   90.00000000
_cell_angle_gamma   90.00000000
_symmetry_Int_Tables_number   1
_chemical_formula_structural   BaC20
_chemical_formula_sum   'Ba6 C120'
_cell_volume   1511.10631856
_cell_formula_units_Z   6
loop_
 _symmetry_equiv_pos_site_id
 _symmetry_equiv_pos_as_xyz
  1  'x, y, z'
loop_
 _atom_site_type_symbol
 _atom_site_label
 _atom_site_symmetry_multiplicity
 _atom_site_fract_x
 _atom_site_fract_y
 _atom_site_fract_z
 _atom_site_occupancy
  C  C0  1  0.000000  0.304927  0.062206  1
  C  C1  1  0.500000  0.437794  0.804927  1
  C  C2  1  0.500000  0.562206  0.195073  1
  C  C3  1  0.562206  0.804927  0.500000  1
  C  C4  1  0.437794  0.804927  0.500000  1
  C  C5  1  0.195073  0.500000  0.562206  1
  C  C6  1  0.804927  0.500000  0.562206  1
  C  C7  1  0.062206  0.000000  0.304927  1
  C  C8  1  0.304927  0.062206  0.000000  1
  C  C9  1  0.695073  0.937794  0.000000  1
  C  C10  1  0.062206  0.000000  0.695073  1
  C  C11  1  0.695073  0.062206  0.000000  1
  C  C12  1  0.937794  0.000000  0.304927  1
  C  C13  1  0.937794  0.000000  0.695073  1
  C  C14  1  0.304927  0.937794  0.000000  1
  C  C15  1  0.000000  0.695073  0.937794  1
  C  C16  1  0.000000  0.304927  0.937794  1
  C  C17  1  0.000000  0.695073  0.062206  1
  C  C18  1  0.804927  0.500000  0.437794  1
  C  C19  1  0.195073  0.500000  0.437794  1
  C  C20  1  0.562206  0.195073  0.500000  1
  C  C21  1  0.437794  0.195073  0.500000  1
  C  C22  1  0.500000  0.562206  0.804927  1
  C  C23  1  0.500000  0.437794  0.195073  1
  C  C24  1  0.125117  0.102153  0.265567  1
  C  C25  1  0.625117  0.234433  0.602153  1
  C  C26  1  0.625117  0.765567  0.397847  1
  C  C27  1  0.765567  0.602153  0.374883  1
  C  C28  1  0.234433  0.602153  0.625117  1
  C  C29  1  0.397847  0.625117  0.765567  1
  C  C30  1  0.602153  0.374883  0.765567  1
  C  C31  1  0.265567  0.125117  0.102153  1
  C  C32  1  0.102153  0.265567  0.125117  1
  C  C33  1  0.897847  0.734433  0.125117  1
  C  C34  1  0.265567  0.874883  0.897847  1
  C  C35  1  0.897847  0.265567  0.874883  1
  C  C36  1  0.734433  0.874883  0.102153  1
  C  C37  1  0.734433  0.125117  0.897847  1
  C  C38  1  0.102153  0.734433  0.874883  1
  C  C39  1  0.125117  0.897847  0.734433  1
  C  C40  1  0.874883  0.102153  0.734433  1
  C  C41  1  0.874883  0.897847  0.265567  1
  C  C42  1  0.602153  0.625117  0.234433  1
  C  C43  1  0.397847  0.374883  0.234433  1
  C  C44  1  0.765567  0.397847  0.625117  1
  C  C45  1  0.234433  0.397847  0.374883  1
  C  C46  1  0.374883  0.765567  0.602153  1
  C  C47  1  0.374883  0.234433  0.397847  1
  C  C48  1  0.874883  0.897847  0.734433  1
  C  C49  1  0.374883  0.765567  0.397847  1
  C  C50  1  0.374883  0.234433  0.602153  1
  C  C51  1  0.234433  0.397847  0.625117  1
  C  C52  1  0.765567  0.397847  0.374883  1
  C  C53  1  0.602153  0.374883  0.234433  1
  C  C54  1  0.397847  0.625117  0.234433  1
  C  C55  1  0.734433  0.874883  0.897847  1
  C  C56  1  0.897847  0.734433  0.874883  1
  C  C57  1  0.102153  0.265567  0.874883  1
  C  C58  1  0.734433  0.125117  0.102153  1
  C  C59  1  0.102153  0.734433  0.125117  1
  C  C60  1  0.265567  0.125117  0.897847  1
  C  C61  1  0.265567  0.874883  0.102153  1
  C  C62  1  0.897847  0.265567  0.125117  1
  C  C63  1  0.874883  0.102153  0.265567  1
  C  C64  1  0.125117  0.897847  0.265567  1
  C  C65  1  0.125117  0.102153  0.734433  1
  C  C66  1  0.397847  0.374883  0.765567  1
  C  C67  1  0.602153  0.625117  0.765567  1
  C  C68  1  0.234433  0.602153  0.374883  1
  C  C69  1  0.765567  0.602153  0.625117  1
  C  C70  1  0.625117  0.234433  0.397847  1
  C  C71  1  0.625117  0.765567  0.602153  1
  C  C72  1  0.062820  0.202236  0.226652  1
  C  C73  1  0.562820  0.273348  0.702236  1
  C  C74  1  0.562820  0.726652  0.297764  1
  C  C75  1  0.726652  0.702236  0.437180  1
  C  C76  1  0.273348  0.702236  0.562820  1
  C  C77  1  0.297764  0.562820  0.726652  1
  C  C78  1  0.702236  0.437180  0.726652  1
  C  C79  1  0.226652  0.062820  0.202236  1
  C  C80  1  0.202236  0.226652  0.062820  1
  C  C81  1  0.797764  0.773348  0.062820  1
  C  C82  1  0.226652  0.937180  0.797764  1
  C  C83  1  0.797764  0.226652  0.937180  1
  C  C84  1  0.773348  0.937180  0.202236  1
  C  C85  1  0.773348  0.062820  0.797764  1
  C  C86  1  0.202236  0.773348  0.937180  1
  C  C87  1  0.062820  0.797764  0.773348  1
  C  C88  1  0.937180  0.202236  0.773348  1
  C  C89  1  0.937180  0.797764  0.226652  1
  C  C90  1  0.702236  0.562820  0.273348  1
  C  C91  1  0.297764  0.437180  0.273348  1
  C  C92  1  0.726652  0.297764  0.562820  1
  C  C93  1  0.273348  0.297764  0.437180  1
  C  C94  1  0.437180  0.726652  0.702236  1
  C  C95  1  0.437180  0.273348  0.297764  1
  C  C96  1  0.937180  0.797764  0.773348  1
  C  C97  1  0.437180  0.726652  0.297764  1
  C  C98  1  0.437180  0.273348  0.702236  1
  C  C99  1  0.273348  0.297764  0.562820  1
  C  C100  1  0.726652  0.297764  0.437180  1
  C  C101  1  0.702236  0.437180  0.273348  1
  C  C102  1  0.297764  0.562820  0.273348  1
  C  C103  1  0.773348  0.937180  0.797764  1
  C  C104  1  0.797764  0.773348  0.937180  1
  C  C105  1  0.202236  0.226652  0.937180  1
  C  C106  1  0.773348  0.062820  0.202236  1
  C  C107  1  0.202236  0.773348  0.062820  1
  C  C108  1  0.226652  0.062820  0.797764  1
  C  C109  1  0.226652  0.937180  0.202236  1
  C  C110  1  0.797764  0.226652  0.062820  1
  C  C111  1  0.937180  0.202236  0.226652  1
  C  C112  1  0.062820  0.797764  0.226652  1
  C  C113  1  0.062820  0.202236  0.773348  1
  C  C114  1  0.297764  0.437180  0.726652  1
  C  C115  1  0.702236  0.562820  0.726652  1
  C  C116  1  0.273348  0.702236  0.437180  1
  C  C117  1  0.726652  0.702236  0.562820  1
  C  C118  1  0.562820  0.273348  0.297764  1
  C  C119  1  0.562820  0.726652  0.702236  1
  Ba  Ba120  1  0.250000  0.000000  0.500000  1
  Ba  Ba121  1  0.750000  0.000000  0.500000  1
  Ba  Ba122  1  0.000000  0.500000  0.250000  1
  Ba  Ba123  1  0.000000  0.500000  0.750000  1
  Ba  Ba124  1  0.500000  0.750000  0.000000  1
  Ba  Ba125  1  0.500000  0.250000  0.000000  1
