# generated using pymatgen
data_K2CaNi(NO2)6
_symmetry_space_group_name_H-M   'P 1'
_cell_length_a   7.43929224
_cell_length_b   7.43929225
_cell_length_c   7.43929225
_cell_angle_alpha   60.00000004
_cell_angle_beta   60.00000002
_cell_angle_gamma   60.00000004
_symmetry_Int_Tables_number   1
_chemical_formula_structural   K2CaNi(NO2)6
_chemical_formula_sum   'K2 Ca1 Ni1 N6 O12'
_cell_volume   291.12524199
_cell_formula_units_Z   1
loop_
 _symmetry_equiv_pos_site_id
 _symmetry_equiv_pos_as_xyz
  1  'x, y, z'
loop_
 _atom_site_type_symbol
 _atom_site_label
 _atom_site_symmetry_multiplicity
 _atom_site_fract_x
 _atom_site_fract_y
 _atom_site_fract_z
 _atom_site_occupancy
  N  N0  1  0.797500  0.202499  0.797500  1
  N  N1  1  0.202500  0.797500  0.797500  1
  N  N2  1  0.797500  0.797500  0.202500  1
  N  N3  1  0.202500  0.202499  0.797501  1
  N  N4  1  0.797500  0.202499  0.202500  1
  N  N5  1  0.202500  0.797500  0.202500  1
  O  O6  1  0.836331  0.367586  0.632414  1
  O  O7  1  0.163669  0.632414  0.367586  1
  O  O8  1  0.367586  0.632414  0.836331  1
  O  O9  1  0.632414  0.163668  0.836331  1
  O  O10  1  0.367587  0.836331  0.163669  1
  O  O11  1  0.367587  0.163668  0.632413  1
  O  O12  1  0.836332  0.163668  0.367587  1
  O  O13  1  0.632413  0.367586  0.163669  1
  O  O14  1  0.836331  0.632414  0.163669  1
  O  O15  1  0.632414  0.836331  0.367586  1
  O  O16  1  0.163669  0.836331  0.632414  1
  O  O17  1  0.163668  0.367586  0.836331  1
  K  K18  1  0.250000  0.250000  0.249999  1
  K  K19  1  0.750001  0.750001  0.749999  1
  Ca  Ca20  1  0.500000  0.500000  0.500000  1
  Ni  Ni21  1  0.000000  0.000000  0.000000  1
