# generated using pymatgen
data_Mn4Nb7Ge8
_symmetry_space_group_name_H-M   'P 1'
_cell_length_a   5.23136674
_cell_length_b   13.85728845
_cell_length_c   16.57659274
_cell_angle_alpha   90.00000000
_cell_angle_beta   90.00000000
_cell_angle_gamma   90.00000000
_symmetry_Int_Tables_number   1
_chemical_formula_structural   Mn4Nb7Ge8
_chemical_formula_sum   'Mn16 Nb28 Ge32'
_cell_volume   1201.67960905
_cell_formula_units_Z   4
loop_
 _symmetry_equiv_pos_site_id
 _symmetry_equiv_pos_as_xyz
  1  'x, y, z'
loop_
 _atom_site_type_symbol
 _atom_site_label
 _atom_site_symmetry_multiplicity
 _atom_site_fract_x
 _atom_site_fract_y
 _atom_site_fract_z
 _atom_site_occupancy
  Mn  Mn0  1  0.998970  0.057556  0.616644  1
  Mn  Mn1  1  0.498970  0.942444  0.383356  1
  Mn  Mn2  1  0.501030  0.557556  0.883356  1
  Mn  Mn3  1  0.001030  0.442444  0.116644  1
  Mn  Mn4  1  0.001030  0.942444  0.383356  1
  Mn  Mn5  1  0.501030  0.057556  0.616644  1
  Mn  Mn6  1  0.498970  0.442444  0.116644  1
  Mn  Mn7  1  0.998970  0.557556  0.883356  1
  Mn  Mn8  1  0.750000  0.134223  0.346272  1
  Mn  Mn9  1  0.250000  0.865777  0.653728  1
  Mn  Mn10  1  0.750000  0.634223  0.153728  1
  Mn  Mn11  1  0.250000  0.365777  0.846272  1
  Mn  Mn12  1  0.750000  0.310407  0.251633  1
  Mn  Mn13  1  0.250000  0.689593  0.748367  1
  Mn  Mn14  1  0.750000  0.810407  0.248367  1
  Mn  Mn15  1  0.250000  0.189593  0.751633  1
  Ge  Ge16  1  0.995266  0.220312  0.878413  1
  Ge  Ge17  1  0.495266  0.779688  0.121587  1
  Ge  Ge18  1  0.504734  0.720312  0.621587  1
  Ge  Ge19  1  0.004734  0.279688  0.378413  1
  Ge  Ge20  1  0.004734  0.779688  0.121587  1
  Ge  Ge21  1  0.504734  0.220312  0.878413  1
  Ge  Ge22  1  0.495266  0.279688  0.378413  1
  Ge  Ge23  1  0.995266  0.720312  0.621587  1
  Ge  Ge24  1  0.750000  0.194993  0.688425  1
  Ge  Ge25  1  0.250000  0.805006  0.311575  1
  Ge  Ge26  1  0.750000  0.694994  0.811575  1
  Ge  Ge27  1  0.250000  0.305007  0.188425  1
  Ge  Ge28  1  0.750000  0.421722  0.811073  1
  Ge  Ge29  1  0.250000  0.578278  0.188927  1
  Ge  Ge30  1  0.750000  0.921722  0.688927  1
  Ge  Ge31  1  0.250000  0.078278  0.311073  1
  Ge  Ge32  1  0.750000  0.055187  0.482956  1
  Ge  Ge33  1  0.250000  0.944813  0.517044  1
  Ge  Ge34  1  0.750000  0.555187  0.017044  1
  Ge  Ge35  1  0.250000  0.444813  0.982956  1
  Ge  Ge36  1  0.750000  0.450480  0.559633  1
  Ge  Ge37  1  0.250000  0.549520  0.440367  1
  Ge  Ge38  1  0.750000  0.950480  0.940367  1
  Ge  Ge39  1  0.250000  0.049520  0.059633  1
  Ge  Ge40  1  0.750000  0.283972  0.101821  1
  Ge  Ge41  1  0.250000  0.716028  0.898179  1
  Ge  Ge42  1  0.750000  0.783972  0.398179  1
  Ge  Ge43  1  0.250000  0.216028  0.601821  1
  Ge  Ge44  1  0.750000  0.489179  0.243635  1
  Ge  Ge45  1  0.250000  0.510821  0.756365  1
  Ge  Ge46  1  0.750000  0.989179  0.256365  1
  Ge  Ge47  1  0.250000  0.010821  0.743635  1
  Nb  Nb48  1  0.003200  0.362939  0.678851  1
  Nb  Nb49  1  0.503200  0.637061  0.321149  1
  Nb  Nb50  1  0.496800  0.862939  0.821149  1
  Nb  Nb51  1  0.996800  0.137061  0.178851  1
  Nb  Nb52  1  0.996800  0.637061  0.321149  1
  Nb  Nb53  1  0.496800  0.362939  0.678851  1
  Nb  Nb54  1  0.503200  0.137061  0.178851  1
  Nb  Nb55  1  0.003200  0.862939  0.821149  1
  Nb  Nb56  1  0.750000  0.067452  0.805046  1
  Nb  Nb57  1  0.250000  0.932548  0.194954  1
  Nb  Nb58  1  0.750000  0.567452  0.694954  1
  Nb  Nb59  1  0.250000  0.432548  0.305046  1
  Nb  Nb60  1  0.750000  0.369270  0.961600  1
  Nb  Nb61  1  0.250000  0.630730  0.038400  1
  Nb  Nb62  1  0.750000  0.869270  0.538400  1
  Nb  Nb63  1  0.250000  0.130730  0.461600  1
  Nb  Nb64  1  0.750000  0.250615  0.522389  1
  Nb  Nb65  1  0.250000  0.749385  0.477611  1
  Nb  Nb66  1  0.750000  0.750615  0.977611  1
  Nb  Nb67  1  0.250000  0.249385  0.022389  1
  Nb  Nb68  1  0.750000  0.451235  0.401120  1
  Nb  Nb69  1  0.250000  0.548765  0.598880  1
  Nb  Nb70  1  0.750000  0.951235  0.098880  1
  Nb  Nb71  1  0.250000  0.048765  0.901120  1
  Nb  Nb72  1  0.750000  0.128991  0.005056  1
  Nb  Nb73  1  0.250000  0.871009  0.994944  1
  Nb  Nb74  1  0.750000  0.628991  0.494944  1
  Nb  Nb75  1  0.250000  0.371009  0.505056  1
