# generated using pymatgen
data_AgBi2F12
_symmetry_space_group_name_H-M   'P 1'
_cell_length_a   5.41645532
_cell_length_b   5.74875264
_cell_length_c   9.22547871
_cell_angle_alpha   76.00243868
_cell_angle_beta   88.64846092
_cell_angle_gamma   64.75530252
_symmetry_Int_Tables_number   1
_chemical_formula_structural   AgBi2F12
_chemical_formula_sum   'Ag1 Bi2 F12'
_cell_volume   251.07300063
_cell_formula_units_Z   1
loop_
 _symmetry_equiv_pos_site_id
 _symmetry_equiv_pos_as_xyz
  1  'x, y, z'
loop_
 _atom_site_type_symbol
 _atom_site_label
 _atom_site_symmetry_multiplicity
 _atom_site_fract_x
 _atom_site_fract_y
 _atom_site_fract_z
 _atom_site_occupancy
  F  F0  1  0.231333  0.759228  0.627419  1
  F  F1  1  0.768667  0.240772  0.372581  1
  F  F2  1  0.680519  0.752376  0.777530  1
  F  F3  1  0.683117  0.763085  0.123661  1
  F  F4  1  0.316883  0.236915  0.876339  1
  F  F5  1  0.135683  0.786818  0.291646  1
  F  F6  1  0.864317  0.213182  0.708354  1
  F  F7  1  0.685794  0.766984  0.433374  1
  F  F8  1  0.314206  0.233016  0.566626  1
  F  F9  1  0.799197  0.250511  0.047834  1
  F  F10  1  0.200803  0.749489  0.952166  1
  F  F11  1  0.319481  0.247624  0.222470  1
  Ag  Ag12  1  0.500000  0.500000  0.500000  1
  Bi  Bi13  1  0.724966  0.017531  0.227104  1
  Bi  Bi14  1  0.275034  0.982469  0.772896  1
