# generated using pymatgen
data_Ba2UCuO6
_symmetry_space_group_name_H-M   'P 1'
_cell_length_a   7.30809111
_cell_length_b   7.30260985
_cell_length_c   6.55251779
_cell_angle_alpha   123.94175166
_cell_angle_beta   123.97058887
_cell_angle_gamma   89.88565448
_symmetry_Int_Tables_number   1
_chemical_formula_structural   Ba2UCuO6
_chemical_formula_sum   'Ba2 U1 Cu1 O6'
_cell_volume   214.78999949
_cell_formula_units_Z   1
loop_
 _symmetry_equiv_pos_site_id
 _symmetry_equiv_pos_as_xyz
  1  'x, y, z'
loop_
 _atom_site_type_symbol
 _atom_site_label
 _atom_site_symmetry_multiplicity
 _atom_site_fract_x
 _atom_site_fract_y
 _atom_site_fract_z
 _atom_site_occupancy
  O  O0  1  0.195776  0.196233  1.000000  1
  U  U1  1  0.000005  0.999999  0.000000  1
  O  O2  1  0.196527  0.803969  0.000000  1
  O  O3  1  0.718631  0.718629  0.437258  1
  O  O4  1  0.804227  0.803772  0.000000  1
  O  O5  1  0.281374  0.281371  0.562742  1
  O  O6  1  0.803477  0.196026  1.000000  1
  Cu  Cu7  1  0.499993  0.500001  0.000000  1
  Ba  Ba8  1  0.500004  0.000001  0.000000  1
  Ba  Ba9  1  0.999985  0.499999  0.000000  1
