# generated using pymatgen
data_U2N3
_symmetry_space_group_name_H-M   'P 1'
_cell_length_a   9.23474754
_cell_length_b   9.23474755
_cell_length_c   9.23474754
_cell_angle_alpha   109.47122062
_cell_angle_beta   109.47122063
_cell_angle_gamma   109.47122063
_symmetry_Int_Tables_number   1
_chemical_formula_structural   U2N3
_chemical_formula_sum   'U16 N24'
_cell_volume   606.25200980
_cell_formula_units_Z   8
loop_
 _symmetry_equiv_pos_site_id
 _symmetry_equiv_pos_as_xyz
  1  'x, y, z'
loop_
 _atom_site_type_symbol
 _atom_site_label
 _atom_site_symmetry_multiplicity
 _atom_site_fract_x
 _atom_site_fract_y
 _atom_site_fract_z
 _atom_site_occupancy
  N  N0  1  0.525278  0.762624  0.528791  1
  N  N1  1  0.996487  0.971209  0.733833  1
  N  N2  1  0.262654  0.766167  0.737376  1
  N  N3  1  0.503513  0.237346  0.974722  1
  N  N4  1  0.971209  0.733833  0.996487  1
  N  N5  1  0.737376  0.262654  0.766167  1
  N  N6  1  0.237346  0.974722  0.503513  1
  N  N7  1  0.528791  0.525278  0.762624  1
  N  N8  1  0.762624  0.528791  0.525278  1
  N  N9  1  0.733833  0.996487  0.971209  1
  N  N10  1  0.766167  0.737376  0.262654  1
  N  N11  1  0.974722  0.503513  0.237346  1
  N  N12  1  0.474722  0.237376  0.471209  1
  N  N13  1  0.003513  0.028791  0.266167  1
  N  N14  1  0.737346  0.233833  0.262624  1
  N  N15  1  0.496487  0.762654  0.025278  1
  N  N16  1  0.028791  0.266167  0.003513  1
  N  N17  1  0.262624  0.737346  0.233833  1
  N  N18  1  0.762654  0.025278  0.496487  1
  N  N19  1  0.471209  0.474722  0.237376  1
  N  N20  1  0.237376  0.471209  0.474722  1
  N  N21  1  0.266167  0.003513  0.028791  1
  N  N22  1  0.233833  0.262624  0.737346  1
  N  N23  1  0.025278  0.496487  0.762654  1
  U  U24  1  0.500000  0.500000  0.500000  1
  U  U25  1  0.000000  0.000000  0.500000  1
  U  U26  1  0.500000  0.000000  0.000000  1
  U  U27  1  0.000000  0.500000  0.000000  1
  U  U28  1  0.250000  0.228595  0.978595  1
  U  U29  1  0.271405  0.521405  0.750000  1
  U  U30  1  0.521405  0.750000  0.271405  1
  U  U31  1  0.228595  0.978595  0.250000  1
  U  U32  1  0.978595  0.250000  0.228595  1
  U  U33  1  0.750000  0.271405  0.521405  1
  U  U34  1  0.750000  0.771405  0.021405  1
  U  U35  1  0.728595  0.478595  0.250000  1
  U  U36  1  0.478595  0.250000  0.728595  1
  U  U37  1  0.771405  0.021405  0.750000  1
  U  U38  1  0.021405  0.750000  0.771405  1
  U  U39  1  0.250000  0.728595  0.478595  1
