# generated using pymatgen
data_Na2ZnH8(SO6)2
_symmetry_space_group_name_H-M   'P 1'
_cell_length_a   5.58452132
_cell_length_b   8.34115553
_cell_length_c   11.17388303
_cell_angle_alpha   90.00000000
_cell_angle_beta   99.51425581
_cell_angle_gamma   90.00000000
_symmetry_Int_Tables_number   1
_chemical_formula_structural   Na2ZnH8(SO6)2
_chemical_formula_sum   'Na4 Zn2 H16 S4 O24'
_cell_volume   513.33501588
_cell_formula_units_Z   2
loop_
 _symmetry_equiv_pos_site_id
 _symmetry_equiv_pos_as_xyz
  1  'x, y, z'
loop_
 _atom_site_type_symbol
 _atom_site_label
 _atom_site_symmetry_multiplicity
 _atom_site_fract_x
 _atom_site_fract_y
 _atom_site_fract_z
 _atom_site_occupancy
  Na  Na0  1  0.875915  0.571450  0.138504  1
  Na  Na1  1  0.124085  0.428550  0.861496  1
  Na  Na2  1  0.124085  0.071450  0.361496  1
  Na  Na3  1  0.875915  0.928550  0.638504  1
  Zn  Zn4  1  0.000000  0.000000  0.000000  1
  Zn  Zn5  1  0.000000  0.500000  0.500000  1
  H  H6  1  0.675178  0.302593  0.358445  1
  H  H7  1  0.324822  0.802593  0.141555  1
  H  H8  1  0.765289  0.946884  0.181705  1
  H  H9  1  0.760530  0.277377  0.983513  1
  H  H10  1  0.234711  0.053116  0.818295  1
  H  H11  1  0.765289  0.553116  0.681705  1
  H  H12  1  0.234711  0.446884  0.318295  1
  H  H13  1  0.675178  0.197407  0.858445  1
  H  H14  1  0.227048  0.637232  0.345227  1
  H  H15  1  0.772952  0.362768  0.654773  1
  H  H16  1  0.227048  0.862768  0.845227  1
  H  H17  1  0.760530  0.222623  0.483513  1
  H  H18  1  0.239470  0.722623  0.016487  1
  H  H19  1  0.239470  0.777377  0.516487  1
  H  H20  1  0.324822  0.697407  0.641555  1
  H  H21  1  0.772952  0.137232  0.154773  1
  S  S22  1  0.622290  0.712237  0.864111  1
  S  S23  1  0.622290  0.787763  0.364111  1
  S  S24  1  0.377710  0.287763  0.135889  1
  S  S25  1  0.377710  0.212237  0.635889  1
  O  O26  1  0.217505  0.084003  0.577651  1
  O  O27  1  0.316908  0.370091  0.576329  1
  O  O28  1  0.217505  0.415997  0.077651  1
  O  O29  1  0.782495  0.915997  0.422349  1
  O  O30  1  0.359853  0.222632  0.768958  1
  O  O31  1  0.639277  0.176859  0.627230  1
  O  O32  1  0.316908  0.129909  0.076329  1
  O  O33  1  0.640147  0.722632  0.731042  1
  O  O34  1  0.176781  0.783494  0.080844  1
  O  O35  1  0.360723  0.823141  0.372770  1
  O  O36  1  0.127565  0.537046  0.336249  1
  O  O37  1  0.639277  0.323141  0.127230  1
  O  O38  1  0.359853  0.277368  0.268958  1
  O  O39  1  0.823219  0.216506  0.919156  1
  O  O40  1  0.782495  0.584003  0.922349  1
  O  O41  1  0.823219  0.283494  0.419156  1
  O  O42  1  0.872435  0.037046  0.163750  1
  O  O43  1  0.360723  0.676859  0.872770  1
  O  O44  1  0.683092  0.629909  0.423671  1
  O  O45  1  0.127565  0.962954  0.836249  1
  O  O46  1  0.683092  0.870091  0.923671  1
  O  O47  1  0.872435  0.462954  0.663751  1
  O  O48  1  0.640147  0.777368  0.231042  1
  O  O49  1  0.176781  0.716506  0.580844  1
