# generated using pymatgen
data_KCoH6(N3O4)2
_symmetry_space_group_name_H-M   'P 1'
_cell_length_a   6.83828297
_cell_length_b   11.44381999
_cell_length_c   13.00983870
_cell_angle_alpha   90.00000000
_cell_angle_beta   90.00000000
_cell_angle_gamma   90.00000000
_symmetry_Int_Tables_number   1
_chemical_formula_structural   KCoH6(N3O4)2
_chemical_formula_sum   'K4 Co4 H24 N24 O32'
_cell_volume   1018.09896963
_cell_formula_units_Z   4
loop_
 _symmetry_equiv_pos_site_id
 _symmetry_equiv_pos_as_xyz
  1  'x, y, z'
loop_
 _atom_site_type_symbol
 _atom_site_label
 _atom_site_symmetry_multiplicity
 _atom_site_fract_x
 _atom_site_fract_y
 _atom_site_fract_z
 _atom_site_occupancy
  H  H0  1  0.937399  0.191333  0.046199  1
  H  H1  1  0.437398  0.308667  0.953801  1
  H  H2  1  0.062601  0.691333  0.453801  1
  H  H3  1  0.562602  0.808667  0.546199  1
  H  H4  1  0.895781  0.283691  0.141581  1
  H  H5  1  0.395782  0.216308  0.858419  1
  H  H6  1  0.104218  0.783691  0.358419  1
  H  H7  1  0.604219  0.716308  0.641581  1
  H  H8  1  0.071918  0.601441  0.793787  1
  H  H9  1  0.571918  0.898559  0.206213  1
  H  H10  1  0.061760  0.997405  0.761886  1
  H  H11  1  0.561760  0.502596  0.238114  1
  H  H12  1  0.938240  0.497405  0.738114  1
  H  H13  1  0.438239  0.002596  0.261886  1
  H  H14  1  0.870861  0.055447  0.823390  1
  H  H15  1  0.370861  0.444554  0.176610  1
  H  H16  1  0.129138  0.555446  0.676611  1
  H  H17  1  0.629139  0.944554  0.323390  1
  H  H18  1  0.430893  0.818073  0.652599  1
  H  H19  1  0.930893  0.681927  0.347401  1
  H  H20  1  0.569107  0.318074  0.847401  1
  H  H21  1  0.069108  0.181926  0.152599  1
  H  H22  1  0.928082  0.101441  0.706212  1
  H  H23  1  0.428081  0.398558  0.293787  1
  N  N24  1  0.523554  0.978753  0.772108  1
  N  N25  1  0.023553  0.521246  0.227892  1
  N  N26  1  0.476446  0.478753  0.727892  1
  N  N27  1  0.976446  0.021246  0.272108  1
  N  N28  1  0.679028  0.028751  0.578950  1
  N  N29  1  0.179028  0.471249  0.421050  1
  N  N30  1  0.320973  0.528751  0.921050  1
  N  N31  1  0.820972  0.971249  0.078951  1
  N  N32  1  0.293671  0.692340  0.196600  1
  N  N33  1  0.793671  0.807660  0.803400  1
  N  N34  1  0.539736  0.148807  0.110526  1
  N  N35  1  0.039736  0.351193  0.889474  1
  N  N36  1  0.460263  0.648808  0.389474  1
  N  N37  1  0.960264  0.851192  0.610526  1
  N  N38  1  0.931370  0.198831  0.124876  1
  N  N39  1  0.431371  0.301170  0.875124  1
  N  N40  1  0.068629  0.698831  0.375124  1
  N  N41  1  0.568630  0.801169  0.624876  1
  N  N42  1  0.577567  0.970729  0.253131  1
  N  N43  1  0.077568  0.529271  0.746868  1
  N  N44  1  0.422432  0.470729  0.246869  1
  N  N45  1  0.922433  0.029271  0.753132  1
  N  N46  1  0.706329  0.192341  0.303399  1
  N  N47  1  0.206328  0.307659  0.696600  1
  O  O48  1  0.555385  0.049140  0.843652  1
  O  O49  1  0.055384  0.450860  0.156349  1
  O  O50  1  0.444615  0.549140  0.656349  1
  O  O51  1  0.944615  0.950860  0.343651  1
  O  O52  1  0.352904  0.942152  0.757259  1
  O  O53  1  0.852903  0.557848  0.242741  1
  O  O54  1  0.647097  0.442153  0.742741  1
  O  O55  1  0.147097  0.057848  0.257259  1
  O  O56  1  0.534691  0.010862  0.522720  1
  O  O57  1  0.034690  0.489138  0.477279  1
  O  O58  1  0.465310  0.510863  0.977280  1
  O  O59  1  0.965309  0.989137  0.022721  1
  O  O60  1  0.778925  0.119916  0.568104  1
  O  O61  1  0.278926  0.380084  0.431895  1
  O  O62  1  0.221075  0.619916  0.931896  1
  O  O63  1  0.721075  0.880084  0.068104  1
  O  O64  1  0.846036  0.248837  0.341562  1
  O  O65  1  0.346035  0.251163  0.658438  1
  O  O66  1  0.153966  0.748837  0.158439  1
  O  O67  1  0.653965  0.751163  0.841562  1
  O  O68  1  0.973803  0.742630  0.601887  1
  O  O69  1  0.038099  0.295689  0.661055  1
  O  O70  1  0.461902  0.704311  0.161055  1
  O  O71  1  0.961901  0.795689  0.838945  1
  O  O72  1  0.416893  0.082966  0.070081  1
  O  O73  1  0.916894  0.417034  0.929920  1
  O  O74  1  0.583106  0.582966  0.429920  1
  O  O75  1  0.083106  0.917034  0.570081  1
  O  O76  1  0.526198  0.257370  0.101887  1
  O  O77  1  0.026197  0.242630  0.898114  1
  O  O78  1  0.473803  0.757370  0.398114  1
  O  O79  1  0.538099  0.204311  0.338945  1
  K  K80  1  0.813385  0.633948  0.023562  1
  K  K81  1  0.313386  0.866052  0.976439  1
  K  K82  1  0.186614  0.133948  0.476438  1
  K  K83  1  0.686615  0.366052  0.523561  1
  Co  Co84  1  0.743583  0.915671  0.689457  1
  Co  Co85  1  0.243583  0.584329  0.310543  1
  Co  Co86  1  0.256416  0.415672  0.810543  1
  Co  Co87  1  0.756417  0.084329  0.189457  1
