# generated using pymatgen
data_UFeSi
_symmetry_space_group_name_H-M   'P 1'
_cell_length_a   3.99257729
_cell_length_b   6.39038184
_cell_length_c   7.25923816
_cell_angle_alpha   90.00000000
_cell_angle_beta   90.00000000
_cell_angle_gamma   90.00000000
_symmetry_Int_Tables_number   1
_chemical_formula_structural   UFeSi
_chemical_formula_sum   'U4 Fe4 Si4'
_cell_volume   185.21288049
_cell_formula_units_Z   4
loop_
 _symmetry_equiv_pos_site_id
 _symmetry_equiv_pos_as_xyz
  1  'x, y, z'
loop_
 _atom_site_type_symbol
 _atom_site_label
 _atom_site_symmetry_multiplicity
 _atom_site_fract_x
 _atom_site_fract_y
 _atom_site_fract_z
 _atom_site_occupancy
  Si  Si0  1  0.250000  0.383822  0.698060  1
  Si  Si1  1  0.750000  0.616178  0.301940  1
  Si  Si2  1  0.750000  0.883822  0.801940  1
  Si  Si3  1  0.250000  0.116178  0.198060  1
  Fe  Fe4  1  0.250000  0.441830  0.375335  1
  Fe  Fe5  1  0.750000  0.558170  0.624665  1
  Fe  Fe6  1  0.750000  0.941830  0.124665  1
  Fe  Fe7  1  0.250000  0.058170  0.875335  1
  U  U8  1  0.250000  0.840525  0.511320  1
  U  U9  1  0.750000  0.159475  0.488680  1
  U  U10  1  0.750000  0.340525  0.988680  1
  U  U11  1  0.250000  0.659475  0.011320  1
