# generated using pymatgen
data_MnH6(CO3)2
_symmetry_space_group_name_H-M   'P 1'
_cell_length_a   7.36633919
_cell_length_b   8.94855120
_cell_length_c   9.66996385
_cell_angle_alpha   97.32461219
_cell_angle_beta   90.00000000
_cell_angle_gamma   90.00000000
_symmetry_Int_Tables_number   1
_chemical_formula_structural   MnH6(CO3)2
_chemical_formula_sum   'Mn4 H24 C8 O24'
_cell_volume   632.22375208
_cell_formula_units_Z   4
loop_
 _symmetry_equiv_pos_site_id
 _symmetry_equiv_pos_as_xyz
  1  'x, y, z'
loop_
 _atom_site_type_symbol
 _atom_site_label
 _atom_site_symmetry_multiplicity
 _atom_site_fract_x
 _atom_site_fract_y
 _atom_site_fract_z
 _atom_site_occupancy
  H  H0  1  0.647267  0.534142  0.282157  1
  H  H1  1  0.147267  0.465858  0.217843  1
  H  H2  1  0.352733  0.465858  0.717843  1
  H  H3  1  0.852733  0.534142  0.782157  1
  H  H4  1  0.097727  0.303342  0.260741  1
  H  H5  1  0.402273  0.303342  0.760741  1
  H  H6  1  0.902273  0.696658  0.739259  1
  H  H7  1  0.897019  0.794842  0.492916  1
  H  H8  1  0.717562  0.062972  0.771061  1
  H  H9  1  0.217562  0.937028  0.728939  1
  H  H10  1  0.282438  0.937028  0.228939  1
  H  H11  1  0.782438  0.062972  0.271061  1
  H  H12  1  0.397019  0.205158  0.007084  1
  H  H13  1  0.102981  0.205158  0.507084  1
  H  H14  1  0.602981  0.794842  0.992916  1
  H  H15  1  0.974055  0.671630  0.108174  1
  H  H16  1  0.608537  0.230906  0.041148  1
  H  H17  1  0.891463  0.230906  0.541148  1
  H  H18  1  0.391463  0.769094  0.958852  1
  H  H19  1  0.597727  0.696658  0.239259  1
  H  H20  1  0.525945  0.671630  0.608174  1
  H  H21  1  0.474055  0.328370  0.391826  1
  H  H22  1  0.025945  0.328370  0.891826  1
  H  H23  1  0.108537  0.769094  0.458852  1
  C  C24  1  0.114100  0.674317  0.066929  1
  C  C25  1  0.614100  0.325683  0.433071  1
  C  C26  1  0.885900  0.325683  0.933071  1
  C  C27  1  0.385900  0.674317  0.566929  1
  C  C28  1  0.284340  0.040960  0.778354  1
  C  C29  1  0.215660  0.040960  0.278354  1
  C  C30  1  0.784340  0.959040  0.721646  1
  C  C31  1  0.715660  0.959040  0.221646  1
  O  O32  1  0.339096  0.789229  0.509232  1
  O  O33  1  0.839096  0.210771  0.990768  1
  O  O34  1  0.660904  0.210771  0.490768  1
  O  O35  1  0.160904  0.789229  0.009232  1
  O  O36  1  0.515527  0.728951  0.935389  1
  O  O37  1  0.015527  0.271049  0.564611  1
  O  O38  1  0.484473  0.271049  0.064611  1
  O  O39  1  0.216273  0.563276  0.081418  1
  O  O40  1  0.261227  0.090601  0.402688  1
  O  O41  1  0.238773  0.090601  0.902688  1
  O  O42  1  0.738773  0.909399  0.597312  1
  O  O43  1  0.599050  0.896900  0.292447  1
  O  O44  1  0.099050  0.103100  0.207553  1
  O  O45  1  0.400950  0.103100  0.707553  1
  O  O46  1  0.716273  0.436724  0.418582  1
  O  O47  1  0.761227  0.909399  0.097312  1
  O  O48  1  0.889256  0.588687  0.703105  1
  O  O49  1  0.389256  0.411313  0.796895  1
  O  O50  1  0.110744  0.411313  0.296895  1
  O  O51  1  0.610744  0.588687  0.203105  1
  O  O52  1  0.783727  0.436724  0.918582  1
  O  O53  1  0.283727  0.563276  0.581418  1
  O  O54  1  0.984473  0.728951  0.435389  1
  O  O55  1  0.900950  0.896900  0.792447  1
  Mn  Mn56  1  0.000000  0.500000  0.500000  1
  Mn  Mn57  1  0.500000  0.500000  0.000000  1
  Mn  Mn58  1  0.500000  0.000000  0.500000  1
  Mn  Mn59  1  0.000000  0.000000  0.000000  1
