# generated using pymatgen
data_U2Si(H2O5)2
_symmetry_space_group_name_H-M   'P 1'
_cell_length_a   7.03788472
_cell_length_b   7.03788473
_cell_length_c   10.30538865
_cell_angle_alpha   103.11822319
_cell_angle_beta   103.11822315
_cell_angle_gamma   109.59283724
_symmetry_Int_Tables_number   1
_chemical_formula_structural   U2Si(H2O5)2
_chemical_formula_sum   'U4 Si2 H8 O20'
_cell_volume   442.05263161
_cell_formula_units_Z   2
loop_
 _symmetry_equiv_pos_site_id
 _symmetry_equiv_pos_as_xyz
  1  'x, y, z'
loop_
 _atom_site_type_symbol
 _atom_site_label
 _atom_site_symmetry_multiplicity
 _atom_site_fract_x
 _atom_site_fract_y
 _atom_site_fract_z
 _atom_site_occupancy
  H  H0  1  0.390135  0.076469  0.397128  1
  H  H1  1  0.679341  0.493007  0.102872  1
  H  H2  1  0.923531  0.609865  0.102872  1
  H  H3  1  0.506993  0.320659  0.397128  1
  H  H4  1  0.609865  0.923531  0.602872  1
  H  H5  1  0.320659  0.506993  0.897128  1
  H  H6  1  0.076469  0.390135  0.897128  1
  H  H7  1  0.493007  0.679341  0.602872  1
  O  O8  1  0.319043  0.403226  0.588928  1
  O  O9  1  0.596774  0.680957  0.911072  1
  O  O10  1  0.185703  0.769885  0.088928  1
  O  O11  1  0.680957  0.596774  0.411072  1
  O  O12  1  0.230115  0.814297  0.411072  1
  O  O13  1  0.769885  0.185703  0.588928  1
  O  O14  1  0.365221  0.953607  0.864212  1
  O  O15  1  0.089395  0.001009  0.635788  1
  O  O16  1  0.046393  0.634779  0.635788  1
  O  O17  1  0.998991  0.910605  0.864212  1
  O  O18  1  0.634779  0.046393  0.135788  1
  O  O19  1  0.910605  0.998991  0.364212  1
  O  O20  1  0.953607  0.365221  0.364212  1
  O  O21  1  0.001009  0.089395  0.135788  1
  O  O22  1  0.580482  0.830482  0.660963  1
  O  O23  1  0.169518  0.419518  0.839037  1
  O  O24  1  0.419518  0.169518  0.339037  1
  O  O25  1  0.830482  0.580482  0.160963  1
  O  O26  1  0.403226  0.319043  0.088928  1
  O  O27  1  0.814297  0.230115  0.911072  1
  Si  Si28  1  0.875000  0.125000  0.250000  1
  Si  Si29  1  0.125000  0.875000  0.750000  1
  U  U30  1  0.956368  0.706368  0.412735  1
  U  U31  1  0.293632  0.043632  0.087265  1
  U  U32  1  0.043632  0.293632  0.587265  1
  U  U33  1  0.706368  0.956368  0.912735  1
