# generated using pymatgen
data_Pb3SO6
_symmetry_space_group_name_H-M   'P 1'
_cell_length_a   5.88815014
_cell_length_b   7.36357248
_cell_length_c   8.33041132
_cell_angle_alpha   104.03780691
_cell_angle_beta   90.00000000
_cell_angle_gamma   90.00000000
_symmetry_Int_Tables_number   1
_chemical_formula_structural   Pb3SO6
_chemical_formula_sum   'Pb6 S2 O12'
_cell_volume   350.40190179
_cell_formula_units_Z   2
loop_
 _symmetry_equiv_pos_site_id
 _symmetry_equiv_pos_as_xyz
  1  'x, y, z'
loop_
 _atom_site_type_symbol
 _atom_site_label
 _atom_site_symmetry_multiplicity
 _atom_site_fract_x
 _atom_site_fract_y
 _atom_site_fract_z
 _atom_site_occupancy
  O  O0  1  0.500537  0.177887  0.621154  1
  O  O1  1  0.000537  0.822113  0.378846  1
  O  O2  1  0.499463  0.822113  0.378846  1
  O  O3  1  0.999463  0.177887  0.621154  1
  O  O4  1  0.250000  0.816119  0.725097  1
  O  O5  1  0.750000  0.183881  0.274903  1
  O  O6  1  0.250000  0.837544  0.022274  1
  O  O7  1  0.750000  0.162456  0.977726  1
  O  O8  1  0.544501  0.418500  0.164993  1
  O  O9  1  0.044501  0.581500  0.835007  1
  O  O10  1  0.455499  0.581500  0.835007  1
  O  O11  1  0.955499  0.418500  0.164993  1
  S  S12  1  0.250000  0.706333  0.857166  1
  S  S13  1  0.750000  0.293667  0.142834  1
  Pb  Pb14  1  0.250000  0.239072  0.842690  1
  Pb  Pb15  1  0.750000  0.760928  0.157310  1
  Pb  Pb16  1  0.250000  0.607438  0.414018  1
  Pb  Pb17  1  0.750000  0.392562  0.585982  1
  Pb  Pb18  1  0.250000  0.077495  0.377804  1
  Pb  Pb19  1  0.750000  0.922505  0.622196  1
