# generated using pymatgen
data_K2SbCl5
_symmetry_space_group_name_H-M   'P 1'
_cell_length_a   9.09560979
_cell_length_b   9.07470589
_cell_length_c   12.76840606
_cell_angle_alpha   90.00000000
_cell_angle_beta   90.00000000
_cell_angle_gamma   109.13952894
_symmetry_Int_Tables_number   1
_chemical_formula_structural   K2SbCl5
_chemical_formula_sum   'K8 Sb4 Cl20'
_cell_volume   995.64730883
_cell_formula_units_Z   4
loop_
 _symmetry_equiv_pos_site_id
 _symmetry_equiv_pos_as_xyz
  1  'x, y, z'
loop_
 _atom_site_type_symbol
 _atom_site_label
 _atom_site_symmetry_multiplicity
 _atom_site_fract_x
 _atom_site_fract_y
 _atom_site_fract_z
 _atom_site_occupancy
  Cl  Cl0  1  0.607539  0.639117  0.885523  1
  Cl  Cl1  1  0.828665  0.035426  0.424575  1
  Cl  Cl2  1  0.171335  0.464574  0.924575  1
  Cl  Cl3  1  0.171335  0.964574  0.575425  1
  Cl  Cl4  1  0.753255  0.041118  0.906398  1
  Cl  Cl5  1  0.246745  0.458882  0.406398  1
  Cl  Cl6  1  0.246745  0.958882  0.093602  1
  Cl  Cl7  1  0.753255  0.541118  0.593602  1
  Cl  Cl8  1  0.002601  0.786880  0.848873  1
  Cl  Cl9  1  0.997399  0.713120  0.348873  1
  Cl  Cl10  1  0.997399  0.213120  0.151127  1
  Cl  Cl11  1  0.002601  0.286880  0.651127  1
  Cl  Cl12  1  0.587002  0.790865  0.139058  1
  Cl  Cl13  1  0.607539  0.139117  0.614477  1
  Cl  Cl14  1  0.412998  0.209135  0.860942  1
  Cl  Cl15  1  0.587002  0.290865  0.360942  1
  Cl  Cl16  1  0.412998  0.709135  0.639058  1
  Cl  Cl17  1  0.392461  0.860883  0.385523  1
  Cl  Cl18  1  0.392461  0.360883  0.114477  1
  Cl  Cl19  1  0.828665  0.535426  0.075425  1
  K  K20  1  0.821342  0.905362  0.671928  1
  K  K21  1  0.631415  0.155981  0.131357  1
  K  K22  1  0.368585  0.344019  0.631357  1
  K  K23  1  0.368585  0.844019  0.868643  1
  K  K24  1  0.821342  0.405362  0.828072  1
  K  K25  1  0.178658  0.094638  0.328072  1
  K  K26  1  0.631415  0.655981  0.368643  1
  K  K27  1  0.178658  0.594638  0.171928  1
  Sb  Sb28  1  0.808352  0.293240  0.496462  1
  Sb  Sb29  1  0.191648  0.206760  0.996462  1
  Sb  Sb30  1  0.191648  0.706760  0.503538  1
  Sb  Sb31  1  0.808352  0.793240  0.003538  1
