# generated using pymatgen
data_K2H12Ru(SO7)2
_symmetry_space_group_name_H-M   'P 1'
_cell_length_a   6.17955010
_cell_length_b   12.42615916
_cell_length_c   8.97361953
_cell_angle_alpha   90.00000000
_cell_angle_beta   104.92353080
_cell_angle_gamma   90.00000000
_symmetry_Int_Tables_number   1
_chemical_formula_structural   K2H12Ru(SO7)2
_chemical_formula_sum   'K4 H24 Ru2 S4 O28'
_cell_volume   665.82499688
_cell_formula_units_Z   2
loop_
 _symmetry_equiv_pos_site_id
 _symmetry_equiv_pos_as_xyz
  1  'x, y, z'
loop_
 _atom_site_type_symbol
 _atom_site_label
 _atom_site_symmetry_multiplicity
 _atom_site_fract_x
 _atom_site_fract_y
 _atom_site_fract_z
 _atom_site_occupancy
  K  K0  1  0.354267  0.845593  0.640334  1
  K  K1  1  0.645733  0.345593  0.859666  1
  K  K2  1  0.645733  0.154407  0.359666  1
  K  K3  1  0.354267  0.654407  0.140334  1
  H  H4  1  0.682447  0.412945  0.277814  1
  H  H5  1  0.317553  0.912945  0.222186  1
  H  H6  1  0.317553  0.587055  0.722186  1
  H  H7  1  0.682447  0.087055  0.777814  1
  H  H8  1  0.917759  0.374450  0.250447  1
  H  H9  1  0.082241  0.874450  0.249553  1
  H  H10  1  0.082241  0.625550  0.749553  1
  H  H11  1  0.917759  0.125550  0.750447  1
  H  H12  1  0.012691  0.690818  0.365668  1
  H  H13  1  0.987309  0.190818  0.134332  1
  H  H14  1  0.987309  0.309182  0.634332  1
  H  H15  1  0.012691  0.809182  0.865668  1
  H  H16  1  0.940922  0.603073  0.232824  1
  H  H17  1  0.059078  0.103073  0.267176  1
  H  H18  1  0.059078  0.396927  0.767176  1
  H  H19  1  0.940922  0.896927  0.732824  1
  H  H20  1  0.331573  0.350881  0.530363  1
  H  H21  1  0.668427  0.850881  0.969637  1
  H  H22  1  0.668427  0.649119  0.469637  1
  H  H23  1  0.331573  0.149119  0.030363  1
  H  H24  1  0.358633  0.442750  0.412026  1
  H  H25  1  0.641367  0.942750  0.087974  1
  H  H26  1  0.641367  0.557250  0.587974  1
  H  H27  1  0.358633  0.057250  0.912026  1
  Ru  Ru28  1  0.000000  0.500000  0.500000  1
  Ru  Ru29  1  0.000000  0.000000  0.000000  1
  S  S30  1  0.270143  0.133648  0.584700  1
  S  S31  1  0.729857  0.633648  0.915300  1
  S  S32  1  0.729857  0.866352  0.415300  1
  S  S33  1  0.270143  0.366352  0.084700  1
  O  O34  1  0.834510  0.385844  0.330721  1
  O  O35  1  0.165490  0.885844  0.169279  1
  O  O36  1  0.165490  0.614156  0.669279  1
  O  O37  1  0.834510  0.114156  0.830721  1
  O  O38  1  0.051053  0.617868  0.334008  1
  O  O39  1  0.948947  0.117868  0.165992  1
  O  O40  1  0.948947  0.382132  0.665992  1
  O  O41  1  0.051053  0.882132  0.834008  1
  O  O42  1  0.318266  0.430198  0.510707  1
  O  O43  1  0.681734  0.930198  0.989293  1
  O  O44  1  0.681734  0.569802  0.489293  1
  O  O45  1  0.318266  0.069802  0.010707  1
  O  O46  1  0.048080  0.172044  0.605574  1
  O  O47  1  0.951920  0.672044  0.894426  1
  O  O48  1  0.951920  0.827956  0.394426  1
  O  O49  1  0.048080  0.327956  0.105574  1
  O  O50  1  0.382304  0.061695  0.715007  1
  O  O51  1  0.617696  0.561695  0.784993  1
  O  O52  1  0.617696  0.938305  0.284993  1
  O  O53  1  0.382304  0.438305  0.215007  1
  O  O54  1  0.419106  0.228598  0.584151  1
  O  O55  1  0.580894  0.728598  0.915849  1
  O  O56  1  0.580894  0.771402  0.415849  1
  O  O57  1  0.419106  0.271402  0.084151  1
  O  O58  1  0.236012  0.073875  0.437320  1
  O  O59  1  0.763988  0.573875  0.062680  1
  O  O60  1  0.763988  0.926125  0.562680  1
  O  O61  1  0.236012  0.426125  0.937320  1
