# generated using pymatgen
data_Na3ReO5
_symmetry_space_group_name_H-M   'P 1'
_cell_length_a   5.60196603
_cell_length_b   5.60196603
_cell_length_c   13.81995220
_cell_angle_alpha   90.00000000
_cell_angle_beta   90.00000000
_cell_angle_gamma   120.00000008
_symmetry_Int_Tables_number   1
_chemical_formula_structural   Na3ReO5
_chemical_formula_sum   'Na9 Re3 O15'
_cell_volume   375.59354019
_cell_formula_units_Z   3
loop_
 _symmetry_equiv_pos_site_id
 _symmetry_equiv_pos_as_xyz
  1  'x, y, z'
loop_
 _atom_site_type_symbol
 _atom_site_label
 _atom_site_symmetry_multiplicity
 _atom_site_fract_x
 _atom_site_fract_y
 _atom_site_fract_z
 _atom_site_occupancy
  O  O0  1  0.503095  0.173441  0.400575  1
  O  O1  1  0.670346  0.496905  0.067242  1
  O  O2  1  0.826559  0.329654  0.733909  1
  O  O3  1  0.329882  0.969529  0.004953  1
  O  O4  1  0.639647  0.670118  0.671620  1
  O  O5  1  0.030471  0.360353  0.338287  1
  O  O6  1  0.995469  0.162528  0.941527  1
  O  O7  1  0.167058  0.004531  0.608194  1
  O  O8  1  0.837472  0.832942  0.274861  1
  O  O9  1  0.650981  0.822500  0.444154  1
  O  O10  1  0.171519  0.349019  0.110820  1
  O  O11  1  0.177500  0.828481  0.777487  1
  O  O12  1  0.495968  0.508429  0.897800  1
  O  O13  1  0.491571  0.987538  0.231133  1
  O  O14  1  0.012462  0.504032  0.564466  1
  Na  Na15  1  0.957151  0.592356  0.919757  1
  Na  Na16  1  0.635205  0.042849  0.586424  1
  Na  Na17  1  0.407644  0.364795  0.253091  1
  Na  Na18  1  0.022089  0.731930  0.421067  1
  Na  Na19  1  0.709841  0.977911  0.087734  1
  Na  Na20  1  0.268070  0.290159  0.754401  1
  Na  Na21  1  0.327675  0.384126  0.502677  1
  Na  Na22  1  0.056451  0.672325  0.169344  1
  Na  Na23  1  0.615874  0.943549  0.836011  1
  Re  Re24  1  0.332851  0.292513  0.004422  1
  Re  Re25  1  0.959662  0.667149  0.671088  1
  Re  Re26  1  0.707487  0.040338  0.337755  1
