# generated using pymatgen
data_AlSiH9C3Cl2O
_symmetry_space_group_name_H-M   'P 1'
_cell_length_a   7.07420605
_cell_length_b   9.42964951
_cell_length_c   15.48361038
_cell_angle_alpha   90.00000000
_cell_angle_beta   101.56254850
_cell_angle_gamma   90.00000000
_symmetry_Int_Tables_number   1
_chemical_formula_structural   AlSiH9C3Cl2O
_chemical_formula_sum   'Al4 Si4 H36 C12 Cl8 O4'
_cell_volume   1011.90902438
_cell_formula_units_Z   4
loop_
 _symmetry_equiv_pos_site_id
 _symmetry_equiv_pos_as_xyz
  1  'x, y, z'
loop_
 _atom_site_type_symbol
 _atom_site_label
 _atom_site_symmetry_multiplicity
 _atom_site_fract_x
 _atom_site_fract_y
 _atom_site_fract_z
 _atom_site_occupancy
  H  H0  1  0.824967  0.083864  0.396145  1
  H  H1  1  0.675033  0.583864  0.103855  1
  H  H2  1  0.175033  0.916136  0.603855  1
  H  H3  1  0.324967  0.416136  0.896145  1
  H  H4  1  0.798442  0.140788  0.502057  1
  H  H5  1  0.701558  0.640788  0.997943  1
  H  H6  1  0.201558  0.859212  0.497943  1
  H  H7  1  0.298442  0.359212  0.002057  1
  H  H8  1  0.927062  0.248280  0.438588  1
  H  H9  1  0.572938  0.748280  0.061412  1
  H  H10  1  0.072938  0.751720  0.561412  1
  H  H11  1  0.427062  0.251720  0.938588  1
  H  H12  1  0.611946  0.266094  0.227055  1
  H  H13  1  0.157203  0.613811  0.057977  1
  H  H14  1  0.657203  0.886189  0.557977  1
  H  H15  1  0.842797  0.386189  0.942023  1
  H  H16  1  0.379297  0.050684  0.338281  1
  H  H17  1  0.342797  0.113811  0.442023  1
  H  H18  1  0.620703  0.949316  0.661719  1
  H  H19  1  0.879297  0.449316  0.838281  1
  H  H20  1  0.225382  0.198569  0.342675  1
  H  H21  1  0.274618  0.698569  0.157325  1
  H  H22  1  0.774618  0.801431  0.657325  1
  H  H23  1  0.725382  0.301431  0.842675  1
  H  H24  1  0.945722  0.100919  0.743024  1
  H  H25  1  0.554278  0.600919  0.756976  1
  H  H26  1  0.054278  0.899081  0.256976  1
  H  H27  1  0.445722  0.399081  0.243024  1
  H  H28  1  0.198703  0.072199  0.779786  1
  H  H29  1  0.301297  0.572199  0.720214  1
  H  H30  1  0.801297  0.927801  0.220214  1
  H  H31  1  0.698703  0.427801  0.279786  1
  H  H32  1  0.111946  0.233906  0.727055  1
  H  H33  1  0.388054  0.733906  0.772945  1
  H  H34  1  0.888054  0.766094  0.272945  1
  H  H35  1  0.120703  0.550684  0.161719  1
  C  C36  1  0.859527  0.353282  0.875841  1
  C  C37  1  0.640473  0.853282  0.624159  1
  C  C38  1  0.140473  0.646718  0.124159  1
  C  C39  1  0.359527  0.146718  0.375841  1
  C  C40  1  0.583166  0.348294  0.273155  1
  C  C41  1  0.916834  0.848294  0.226845  1
  C  C42  1  0.416834  0.651706  0.726845  1
  C  C43  1  0.083166  0.151706  0.773155  1
  C  C44  1  0.802054  0.177800  0.434987  1
  C  C45  1  0.697946  0.677800  0.065013  1
  C  C46  1  0.197946  0.822200  0.565013  1
  C  C47  1  0.302054  0.322200  0.934987  1
  O  O48  1  0.459346  0.592822  0.549740  1
  O  O49  1  0.540654  0.407178  0.450260  1
  O  O50  1  0.959346  0.907178  0.049740  1
  O  O51  1  0.040654  0.092822  0.950260  1
  Al  Al52  1  0.603357  0.430498  0.569860  1
  Al  Al53  1  0.103357  0.069502  0.069860  1
  Al  Al54  1  0.396643  0.569502  0.430140  1
  Al  Al55  1  0.896643  0.930498  0.930140  1
  Si  Si56  1  0.571941  0.266333  0.381703  1
  Si  Si57  1  0.928059  0.766333  0.118297  1
  Si  Si58  1  0.071941  0.233667  0.881703  1
  Si  Si59  1  0.428059  0.733667  0.618297  1
  Cl  Cl60  1  0.485088  0.268979  0.637775  1
  Cl  Cl61  1  0.014912  0.768979  0.862225  1
  Cl  Cl62  1  0.514912  0.731021  0.362225  1
  Cl  Cl63  1  0.985088  0.231021  0.137775  1
  Cl  Cl64  1  0.898006  0.474634  0.620357  1
  Cl  Cl65  1  0.601994  0.974634  0.879643  1
  Cl  Cl66  1  0.101994  0.525366  0.379643  1
  Cl  Cl67  1  0.398006  0.025366  0.120357  1
