# generated using pymatgen
data_Ba5Pt2O9
_symmetry_space_group_name_H-M   'P 1'
_cell_length_a   10.34119773
_cell_length_b   10.34119773
_cell_length_c   9.03017552
_cell_angle_alpha   90.00000000
_cell_angle_beta   90.00000000
_cell_angle_gamma   119.99999998
_symmetry_Int_Tables_number   1
_chemical_formula_structural   Ba5Pt2O9
_chemical_formula_sum   'Ba15 Pt6 O27'
_cell_volume   836.31234562
_cell_formula_units_Z   3
loop_
 _symmetry_equiv_pos_site_id
 _symmetry_equiv_pos_as_xyz
  1  'x, y, z'
loop_
 _atom_site_type_symbol
 _atom_site_label
 _atom_site_symmetry_multiplicity
 _atom_site_fract_x
 _atom_site_fract_y
 _atom_site_fract_z
 _atom_site_occupancy
  O  O0  1  0.148142  0.148142  0.500000  1
  O  O1  1  0.000000  0.851858  0.500000  1
  O  O2  1  0.851858  0.000000  0.500000  1
  O  O3  1  0.176010  0.682536  0.532773  1
  O  O4  1  0.317464  0.493474  0.532773  1
  O  O5  1  0.506526  0.823990  0.532773  1
  O  O6  1  0.493474  0.317464  0.467227  1
  O  O7  1  0.823990  0.506526  0.467227  1
  O  O8  1  0.682536  0.176010  0.467227  1
  O  O9  1  0.522021  0.172511  0.746970  1
  O  O10  1  0.827489  0.349509  0.746970  1
  O  O11  1  0.650491  0.477979  0.746970  1
  O  O12  1  0.349509  0.827489  0.253030  1
  O  O13  1  0.477979  0.650491  0.253030  1
  O  O14  1  0.172511  0.522021  0.253030  1
  O  O15  1  0.006185  0.173969  0.778903  1
  O  O16  1  0.826031  0.832216  0.778903  1
  O  O17  1  0.167784  0.993815  0.778903  1
  O  O18  1  0.832216  0.826031  0.221097  1
  O  O19  1  0.993815  0.167784  0.221097  1
  O  O20  1  0.173969  0.006185  0.221097  1
  O  O21  1  0.825377  0.509935  0.026969  1
  O  O22  1  0.490065  0.315442  0.026969  1
  O  O23  1  0.684558  0.174623  0.026969  1
  O  O24  1  0.315442  0.490065  0.973031  1
  O  O25  1  0.174623  0.684558  0.973031  1
  O  O26  1  0.509935  0.825377  0.973031  1
  Ba  Ba27  1  0.032299  0.696748  0.263910  1
  Ba  Ba28  1  0.303252  0.335551  0.263910  1
  Ba  Ba29  1  0.664449  0.967701  0.263910  1
  Ba  Ba30  1  0.335551  0.303252  0.736090  1
  Ba  Ba31  1  0.967701  0.664449  0.736090  1
  Ba  Ba32  1  0.696748  0.032299  0.736090  1
  Ba  Ba33  1  0.000000  0.000000  0.000000  1
  Ba  Ba34  1  0.333333  0.666667  0.752003  1
  Ba  Ba35  1  0.666667  0.333333  0.247997  1
  Ba  Ba36  1  0.633834  0.633834  0.000000  1
  Ba  Ba37  1  0.000000  0.366166  0.000000  1
  Ba  Ba38  1  0.366166  0.000000  0.000000  1
  Ba  Ba39  1  0.670954  0.670954  0.500000  1
  Ba  Ba40  1  0.000000  0.329046  0.500000  1
  Ba  Ba41  1  0.329046  0.000000  0.500000  1
  Pt  Pt42  1  0.333333  0.666667  0.098254  1
  Pt  Pt43  1  0.666667  0.333333  0.901746  1
  Pt  Pt44  1  0.333333  0.666667  0.407850  1
  Pt  Pt45  1  0.666667  0.333333  0.592150  1
  Pt  Pt46  1  0.000000  0.000000  0.345407  1
  Pt  Pt47  1  0.000000  0.000000  0.654593  1
