# generated using pymatgen
data_CaAl2O4
_symmetry_space_group_name_H-M   'P 1'
_cell_length_a   8.21673466
_cell_length_b   8.78282043
_cell_length_c   15.35008380
_cell_angle_alpha   90.23892746
_cell_angle_beta   90.00000000
_cell_angle_gamma   90.00000000
_symmetry_Int_Tables_number   1
_chemical_formula_structural   CaAl2O4
_chemical_formula_sum   'Ca12 Al24 O48'
_cell_volume   1107.74612898
_cell_formula_units_Z   12
loop_
 _symmetry_equiv_pos_site_id
 _symmetry_equiv_pos_as_xyz
  1  'x, y, z'
loop_
 _atom_site_type_symbol
 _atom_site_label
 _atom_site_symmetry_multiplicity
 _atom_site_fract_x
 _atom_site_fract_y
 _atom_site_fract_z
 _atom_site_occupancy
  O  O0  1  0.743480  0.576827  0.303906  1
  O  O1  1  0.243480  0.923173  0.196094  1
  O  O2  1  0.256520  0.423173  0.696094  1
  O  O3  1  0.756520  0.076827  0.803906  1
  O  O4  1  0.227033  0.752117  0.367137  1
  O  O5  1  0.727033  0.747883  0.132863  1
  O  O6  1  0.772967  0.247883  0.632863  1
  O  O7  1  0.272967  0.252117  0.867137  1
  O  O8  1  0.856641  0.744594  0.454449  1
  O  O9  1  0.356641  0.755406  0.045551  1
  O  O10  1  0.143359  0.255406  0.545551  1
  O  O11  1  0.643359  0.244594  0.954449  1
  O  O12  1  0.523723  0.822034  0.446981  1
  O  O13  1  0.023723  0.677966  0.053019  1
  O  O14  1  0.476277  0.177966  0.553019  1
  O  O15  1  0.976277  0.322034  0.946981  1
  O  O16  1  0.727322  0.915701  0.305660  1
  O  O17  1  0.227322  0.584299  0.194340  1
  O  O18  1  0.272678  0.084299  0.694340  1
  O  O19  1  0.772678  0.415701  0.805660  1
  O  O20  1  0.363852  0.444325  0.351362  1
  O  O21  1  0.025364  0.067934  0.312043  1
  O  O22  1  0.974636  0.932066  0.687957  1
  O  O23  1  0.474636  0.567934  0.812043  1
  O  O24  1  0.354686  0.068151  0.358731  1
  O  O25  1  0.854686  0.431849  0.141269  1
  O  O26  1  0.645314  0.931849  0.641269  1
  O  O27  1  0.145314  0.568151  0.858731  1
  O  O28  1  0.759851  0.064919  0.473952  1
  O  O29  1  0.259851  0.435081  0.026048  1
  O  O30  1  0.240149  0.935081  0.526048  1
  O  O31  1  0.740149  0.564919  0.973952  1
  O  O32  1  0.744742  0.250656  0.297046  1
  O  O33  1  0.244742  0.249344  0.202954  1
  O  O34  1  0.255258  0.749344  0.702954  1
  O  O35  1  0.755258  0.750656  0.797046  1
  O  O36  1  0.760109  0.923528  0.975975  1
  O  O37  1  0.260109  0.576472  0.524025  1
  O  O38  1  0.239891  0.076472  0.024025  1
  O  O39  1  0.739891  0.423528  0.475975  1
  O  O40  1  0.467965  0.983600  0.889766  1
  O  O41  1  0.967965  0.516400  0.610234  1
  O  O42  1  0.532035  0.016400  0.110234  1
  O  O43  1  0.032035  0.483600  0.389766  1
  O  O44  1  0.136148  0.944325  0.851362  1
  O  O45  1  0.636148  0.555675  0.648638  1
  O  O46  1  0.863852  0.055675  0.148638  1
  O  O47  1  0.525364  0.432066  0.187957  1
  Al  Al48  1  0.835827  0.561113  0.407581  1
  Al  Al49  1  0.335827  0.938887  0.092419  1
  Al  Al50  1  0.164173  0.438887  0.592419  1
  Al  Al51  1  0.664173  0.061113  0.907581  1
  Al  Al52  1  0.226735  0.562920  0.409241  1
  Al  Al53  1  0.726735  0.937080  0.090759  1
  Al  Al54  1  0.773265  0.437080  0.590759  1
  Al  Al55  1  0.273265  0.062920  0.909241  1
  Al  Al56  1  0.720156  0.888157  0.420616  1
  Al  Al57  1  0.220156  0.611843  0.079384  1
  Al  Al58  1  0.279844  0.111843  0.579384  1
  Al  Al59  1  0.779844  0.388157  0.920616  1
  Al  Al60  1  0.331293  0.901079  0.422015  1
  Al  Al61  1  0.831293  0.598921  0.077985  1
  Al  Al62  1  0.668707  0.098921  0.577985  1
  Al  Al63  1  0.168707  0.401079  0.922015  1
  Al  Al64  1  0.224401  0.082795  0.267270  1
  Al  Al65  1  0.724401  0.417205  0.232730  1
  Al  Al66  1  0.775599  0.917205  0.732730  1
  Al  Al67  1  0.275599  0.582795  0.767270  1
  Al  Al68  1  0.829618  0.075356  0.262019  1
  Al  Al69  1  0.329618  0.424644  0.237981  1
  Al  Al70  1  0.170382  0.924644  0.737981  1
  Al  Al71  1  0.670382  0.575356  0.762019  1
  Ca  Ca72  1  0.045498  0.761526  0.253401  1
  Ca  Ca73  1  0.545498  0.738474  0.246599  1
  Ca  Ca74  1  0.954502  0.238474  0.746599  1
  Ca  Ca75  1  0.454502  0.261526  0.753401  1
  Ca  Ca76  1  0.967965  0.232153  0.429699  1
  Ca  Ca77  1  0.467965  0.267847  0.070301  1
  Ca  Ca78  1  0.032035  0.767847  0.570301  1
  Ca  Ca79  1  0.532035  0.732153  0.929699  1
  Ca  Ca80  1  0.534808  0.260552  0.410127  1
  Ca  Ca81  1  0.034808  0.239448  0.089873  1
  Ca  Ca82  1  0.465192  0.739448  0.589873  1
  Ca  Ca83  1  0.965192  0.760552  0.910127  1
