# generated using pymatgen
data_BaMnP2O7
_symmetry_space_group_name_H-M   'P 1'
_cell_length_a   5.64543312
_cell_length_b   8.69709581
_cell_length_c   13.15204584
_cell_angle_alpha   90.00000000
_cell_angle_beta   90.37940267
_cell_angle_gamma   90.00000000
_symmetry_Int_Tables_number   1
_chemical_formula_structural   BaMnP2O7
_chemical_formula_sum   'Ba4 Mn4 P8 O28'
_cell_volume   645.73646737
_cell_formula_units_Z   4
loop_
 _symmetry_equiv_pos_site_id
 _symmetry_equiv_pos_as_xyz
  1  'x, y, z'
loop_
 _atom_site_type_symbol
 _atom_site_label
 _atom_site_symmetry_multiplicity
 _atom_site_fract_x
 _atom_site_fract_y
 _atom_site_fract_z
 _atom_site_occupancy
  O  O0  1  0.235642  0.627199  0.447577  1
  O  O1  1  0.264358  0.127199  0.052423  1
  O  O2  1  0.764358  0.372801  0.552423  1
  O  O3  1  0.735642  0.872802  0.947577  1
  O  O4  1  0.500446  0.577386  0.295079  1
  O  O5  1  0.999553  0.077387  0.204921  1
  O  O6  1  0.499554  0.422613  0.704921  1
  O  O7  1  0.000447  0.922613  0.795079  1
  O  O8  1  0.183471  0.407816  0.097372  1
  O  O9  1  0.316529  0.907816  0.402628  1
  O  O10  1  0.816529  0.592184  0.902628  1
  O  O11  1  0.683471  0.092184  0.597372  1
  O  O12  1  0.803907  0.684330  0.087141  1
  O  O13  1  0.696092  0.184329  0.412859  1
  O  O14  1  0.196093  0.315671  0.912859  1
  O  O15  1  0.303908  0.815671  0.587141  1
  O  O16  1  0.561778  0.875434  0.766796  1
  O  O17  1  0.938222  0.375434  0.733204  1
  O  O18  1  0.438222  0.124567  0.233204  1
  O  O19  1  0.061778  0.624567  0.266796  1
  O  O20  1  0.808076  0.620841  0.648699  1
  O  O21  1  0.691924  0.120842  0.851301  1
  O  O22  1  0.420472  0.669361  0.979676  1
  O  O23  1  0.308076  0.879158  0.148699  1
  O  O24  1  0.920473  0.830639  0.479676  1
  O  O25  1  0.579528  0.330639  0.020324  1
  O  O26  1  0.079527  0.169361  0.520324  1
  O  O27  1  0.191924  0.379158  0.351301  1
  P  P28  1  0.310507  0.305202  0.019160  1
  P  P29  1  0.189493  0.805202  0.480840  1
  P  P30  1  0.689493  0.694798  0.980840  1
  P  P31  1  0.810507  0.194798  0.519160  1
  P  P32  1  0.251760  0.548744  0.335849  1
  P  P33  1  0.751760  0.951256  0.835849  1
  P  P34  1  0.748240  0.451256  0.664151  1
  P  P35  1  0.248240  0.048743  0.164151  1
  Mn  Mn36  1  0.683490  0.840973  0.607345  1
  Mn  Mn37  1  0.316510  0.159027  0.392655  1
  Mn  Mn38  1  0.816510  0.340973  0.892655  1
  Mn  Mn39  1  0.183490  0.659027  0.107345  1
  Ba  Ba40  1  0.781712  0.354642  0.219379  1
  Ba  Ba41  1  0.718287  0.854642  0.280621  1
  Ba  Ba42  1  0.218288  0.645358  0.780621  1
  Ba  Ba43  1  0.281713  0.145358  0.719379  1
