# generated using pymatgen
data_Ca3MnNiO6
_symmetry_space_group_name_H-M   'P 1'
_cell_length_a   6.39976727
_cell_length_b   6.39976728
_cell_length_c   6.39976727
_cell_angle_alpha   92.16574269
_cell_angle_beta   92.16574262
_cell_angle_gamma   92.16574273
_symmetry_Int_Tables_number   1
_chemical_formula_structural   Ca3MnNiO6
_chemical_formula_sum   'Ca6 Mn2 Ni2 O12'
_cell_volume   261.53912966
_cell_formula_units_Z   2
loop_
 _symmetry_equiv_pos_site_id
 _symmetry_equiv_pos_as_xyz
  1  'x, y, z'
loop_
 _atom_site_type_symbol
 _atom_site_label
 _atom_site_symmetry_multiplicity
 _atom_site_fract_x
 _atom_site_fract_y
 _atom_site_fract_z
 _atom_site_occupancy
  O  O0  1  0.210752  0.420783  0.541969  1
  O  O1  1  0.789249  0.579216  0.458031  1
  O  O2  1  0.579217  0.458032  0.789249  1
  O  O3  1  0.458032  0.789249  0.579217  1
  O  O4  1  0.041969  0.920784  0.710751  1
  O  O5  1  0.920783  0.710751  0.041968  1
  O  O6  1  0.289249  0.958032  0.079216  1
  O  O7  1  0.079217  0.289249  0.958032  1
  O  O8  1  0.958032  0.079216  0.289249  1
  O  O9  1  0.541968  0.210752  0.420783  1
  O  O10  1  0.420783  0.541968  0.210751  1
  O  O11  1  0.710751  0.041968  0.920784  1
  Ca  Ca12  1  0.611646  0.888355  0.250000  1
  Ca  Ca13  1  0.111646  0.750000  0.388355  1
  Ca  Ca14  1  0.750000  0.388354  0.111646  1
  Ca  Ca15  1  0.388355  0.111645  0.750000  1
  Ca  Ca16  1  0.888354  0.250000  0.611645  1
  Ca  Ca17  1  0.250000  0.611646  0.888354  1
  Mn  Mn18  1  0.499999  0.499999  0.499999  1
  Mn  Mn19  1  0.000000  0.000000  0.000000  1
  Ni  Ni20  1  0.750000  0.750000  0.750000  1
  Ni  Ni21  1  0.250000  0.250000  0.250000  1
