# generated using pymatgen
data_CoTe(PbO3)2
_symmetry_space_group_name_H-M   'P 1'
_cell_length_a   5.70331863
_cell_length_b   5.70331863
_cell_length_c   5.70331863
_cell_angle_alpha   91.24177276
_cell_angle_beta   119.28567055
_cell_angle_gamma   119.28567069
_symmetry_Int_Tables_number   1
_chemical_formula_structural   CoTe(PbO3)2
_chemical_formula_sum   'Co1 Te1 Pb2 O6'
_cell_volume   132.56274979
_cell_formula_units_Z   1
loop_
 _symmetry_equiv_pos_site_id
 _symmetry_equiv_pos_as_xyz
  1  'x, y, z'
loop_
 _atom_site_type_symbol
 _atom_site_label
 _atom_site_symmetry_multiplicity
 _atom_site_fract_x
 _atom_site_fract_y
 _atom_site_fract_z
 _atom_site_occupancy
  O  O0  1  0.000000  0.744607  0.744607  1
  O  O1  1  0.000000  0.255393  0.255393  1
  O  O2  1  0.477627  0.738813  0.738813  1
  O  O3  1  0.000000  0.738813  0.261187  1
  O  O4  1  0.522373  0.261187  0.261187  1
  O  O5  1  0.000000  0.261187  0.738813  1
  Co  Co6  1  0.000000  0.000000  0.000000  1
  Te  Te7  1  0.000000  0.500000  0.500000  1
  Pb  Pb8  1  0.500000  0.750000  0.250000  1
  Pb  Pb9  1  0.500000  0.250000  0.750000  1
