# generated using pymatgen
data_Eu(FeAs)2
_symmetry_space_group_name_H-M   'P 1'
_cell_length_a   3.98497355
_cell_length_b   3.98497354
_cell_length_c   6.08280368
_cell_angle_alpha   109.12078015
_cell_angle_beta   109.12078008
_cell_angle_gamma   90.00000002
_symmetry_Int_Tables_number   1
_chemical_formula_structural   Eu(FeAs)2
_chemical_formula_sum   'Eu1 Fe2 As2'
_cell_volume   85.60563994
_cell_formula_units_Z   1
loop_
 _symmetry_equiv_pos_site_id
 _symmetry_equiv_pos_as_xyz
  1  'x, y, z'
loop_
 _atom_site_type_symbol
 _atom_site_label
 _atom_site_symmetry_multiplicity
 _atom_site_fract_x
 _atom_site_fract_y
 _atom_site_fract_z
 _atom_site_occupancy
  Fe  Fe0  1  0.750000  0.250000  0.500000  1
  Fe  Fe1  1  0.250000  0.750000  0.500000  1
  As  As2  1  0.640846  0.640846  0.281692  1
  As  As3  1  0.359154  0.359154  0.718308  1
  Eu  Eu4  1  0.000000  0.000000  0.000000  1
