# generated using pymatgen
data_Sc7(CCl5)2
_symmetry_space_group_name_H-M   'P 1'
_cell_length_a   3.52433883
_cell_length_b   9.69998425
_cell_length_c   12.02827680
_cell_angle_alpha   100.26145175
_cell_angle_beta   90.00000000
_cell_angle_gamma   100.46688716
_symmetry_Int_Tables_number   1
_chemical_formula_structural   Sc7(CCl5)2
_chemical_formula_sum   'Sc7 C2 Cl10'
_cell_volume   397.66648568
_cell_formula_units_Z   1
loop_
 _symmetry_equiv_pos_site_id
 _symmetry_equiv_pos_as_xyz
  1  'x, y, z'
loop_
 _atom_site_type_symbol
 _atom_site_label
 _atom_site_symmetry_multiplicity
 _atom_site_fract_x
 _atom_site_fract_y
 _atom_site_fract_z
 _atom_site_occupancy
  C  C0  1  0.739829  0.479657  0.623892  1
  C  C1  1  0.260171  0.520343  0.376108  1
  Cl  Cl2  1  0.546762  0.093523  0.879755  1
  Cl  Cl3  1  0.453238  0.906477  0.120245  1
  Cl  Cl4  1  0.214238  0.428477  0.869160  1
  Cl  Cl5  1  0.785762  0.571523  0.130840  1
  Cl  Cl6  1  0.877645  0.755290  0.865619  1
  Cl  Cl7  1  0.924292  0.848585  0.374360  1
  Cl  Cl8  1  0.075708  0.151415  0.625640  1
  Cl  Cl9  1  0.598296  0.196592  0.385493  1
  Cl  Cl10  1  0.401704  0.803408  0.614507  1
  Cl  Cl11  1  0.122355  0.244710  0.134381  1
  Sc  Sc12  1  0.182559  0.365119  0.506331  1
  Sc  Sc13  1  0.817441  0.634881  0.493669  1
  Sc  Sc14  1  0.300136  0.600272  0.720658  1
  Sc  Sc15  1  0.699864  0.399728  0.279342  1
  Sc  Sc16  1  0.657773  0.315545  0.727834  1
  Sc  Sc17  1  0.342227  0.684455  0.272166  1
  Sc  Sc18  1  0.000000  0.000000  0.000000  1
