# generated using pymatgen
data_Ta5B6
_symmetry_space_group_name_H-M   'P 1'
_cell_length_a   3.15934368
_cell_length_b   3.30715779
_cell_length_c   11.48079641
_cell_angle_alpha   90.00000000
_cell_angle_beta   97.90856029
_cell_angle_gamma   90.00000000
_symmetry_Int_Tables_number   1
_chemical_formula_structural   Ta5B6
_chemical_formula_sum   'Ta5 B6'
_cell_volume   118.81558876
_cell_formula_units_Z   1
loop_
 _symmetry_equiv_pos_site_id
 _symmetry_equiv_pos_as_xyz
  1  'x, y, z'
loop_
 _atom_site_type_symbol
 _atom_site_label
 _atom_site_symmetry_multiplicity
 _atom_site_fract_x
 _atom_site_fract_y
 _atom_site_fract_z
 _atom_site_occupancy
  B  B0  1  0.460290  0.500000  0.920580  1
  B  B1  1  0.539710  0.500000  0.079420  1
  B  B2  1  0.273132  0.000000  0.546265  1
  B  B3  1  0.726868  0.000000  0.453735  1
  B  B4  1  0.082312  0.500000  0.164624  1
  B  B5  1  0.917688  0.500000  0.835376  1
  Ta  Ta6  1  0.194505  0.500000  0.389010  1
  Ta  Ta7  1  0.805495  0.500000  0.610990  1
  Ta  Ta8  1  0.385728  0.000000  0.771456  1
  Ta  Ta9  1  0.614272  0.000000  0.228544  1
  Ta  Ta10  1  0.000000  0.000000  0.000000  1
