# generated using pymatgen
data_NaMn3P3(HO6)2
_symmetry_space_group_name_H-M   'P 1'
_cell_length_a   6.74763975
_cell_length_b   8.77922661
_cell_length_c   8.77922662
_cell_angle_alpha   91.12721541
_cell_angle_beta   106.95284282
_cell_angle_gamma   106.95284290
_symmetry_Int_Tables_number   1
_chemical_formula_structural   NaMn3P3(HO6)2
_chemical_formula_sum   'Na2 Mn6 P6 H4 O24'
_cell_volume   472.73038351
_cell_formula_units_Z   2
loop_
 _symmetry_equiv_pos_site_id
 _symmetry_equiv_pos_as_xyz
  1  'x, y, z'
loop_
 _atom_site_type_symbol
 _atom_site_label
 _atom_site_symmetry_multiplicity
 _atom_site_fract_x
 _atom_site_fract_y
 _atom_site_fract_z
 _atom_site_occupancy
  H  H0  1  0.188397  0.370646  0.381749  1
  H  H1  1  0.311603  0.618251  0.629354  1
  H  H2  1  0.811603  0.629354  0.618251  1
  H  H3  1  0.688397  0.381749  0.370646  1
  O  O4  1  0.097207  0.148078  0.152366  1
  O  O5  1  0.402793  0.847634  0.851922  1
  O  O6  1  0.902793  0.851922  0.847634  1
  O  O7  1  0.597207  0.152366  0.148078  1
  O  O8  1  0.198868  0.609534  0.963771  1
  O  O9  1  0.301132  0.036229  0.390466  1
  O  O10  1  0.801132  0.390466  0.036229  1
  O  O11  1  0.698868  0.963771  0.609534  1
  O  O12  1  0.152883  0.262679  0.437835  1
  O  O13  1  0.347117  0.562165  0.737321  1
  O  O14  1  0.457699  0.786753  0.286138  1
  O  O15  1  0.042301  0.713862  0.213247  1
  O  O16  1  0.542301  0.213247  0.713862  1
  O  O17  1  0.957699  0.286138  0.786753  1
  O  O18  1  0.734989  0.289048  0.499768  1
  O  O19  1  0.765011  0.500232  0.710952  1
  O  O20  1  0.265011  0.710952  0.500232  1
  O  O21  1  0.234989  0.499768  0.289048  1
  O  O22  1  0.892049  0.982706  0.323166  1
  O  O23  1  0.607951  0.676834  0.017294  1
  O  O24  1  0.107951  0.017294  0.676834  1
  O  O25  1  0.392049  0.323166  0.982706  1
  O  O26  1  0.652883  0.437835  0.262679  1
  O  O27  1  0.847117  0.737321  0.562165  1
  Na  Na28  1  0.250000  0.976945  0.023055  1
  Na  Na29  1  0.750000  0.023055  0.976945  1
  P  P30  1  0.111384  0.103424  0.323153  1
  P  P31  1  0.611384  0.323153  0.103424  1
  P  P32  1  0.250000  0.678634  0.321366  1
  P  P33  1  0.750000  0.321366  0.678634  1
  P  P34  1  0.888616  0.896576  0.676847  1
  P  P35  1  0.388616  0.676847  0.896576  1
  Mn  Mn36  1  0.872135  0.626724  0.949537  1
  Mn  Mn37  1  0.627865  0.050463  0.373276  1
  Mn  Mn38  1  0.250000  0.282874  0.717126  1
  Mn  Mn39  1  0.750000  0.717126  0.282874  1
  Mn  Mn40  1  0.127865  0.373276  0.050463  1
  Mn  Mn41  1  0.372135  0.949537  0.626724  1
