# generated using pymatgen
data_Na3AsH18Se4O9
_symmetry_space_group_name_H-M   'P 1'
_cell_length_a   12.22436262
_cell_length_b   12.22436262
_cell_length_c   12.22436262
_cell_angle_alpha   90.00000000
_cell_angle_beta   90.00000000
_cell_angle_gamma   90.00000000
_symmetry_Int_Tables_number   1
_chemical_formula_structural   Na3AsH18Se4O9
_chemical_formula_sum   'Na12 As4 H72 Se16 O36'
_cell_volume   1826.74813501
_cell_formula_units_Z   4
loop_
 _symmetry_equiv_pos_site_id
 _symmetry_equiv_pos_as_xyz
  1  'x, y, z'
loop_
 _atom_site_type_symbol
 _atom_site_label
 _atom_site_symmetry_multiplicity
 _atom_site_fract_x
 _atom_site_fract_y
 _atom_site_fract_z
 _atom_site_occupancy
  H  H0  1  0.435784  0.693241  0.877693  1
  H  H1  1  0.935784  0.806759  0.122307  1
  H  H2  1  0.564216  0.193241  0.622307  1
  H  H3  1  0.806759  0.122307  0.935784  1
  H  H4  1  0.622307  0.564216  0.193241  1
  H  H5  1  0.122307  0.935784  0.806759  1
  H  H6  1  0.693241  0.877693  0.435784  1
  H  H7  1  0.877693  0.435784  0.693241  1
  H  H8  1  0.193241  0.622307  0.564216  1
  H  H9  1  0.306759  0.377693  0.064216  1
  H  H10  1  0.377693  0.064216  0.306759  1
  H  H11  1  0.064216  0.306759  0.377693  1
  H  H12  1  0.448741  0.773275  0.777509  1
  H  H13  1  0.948741  0.726725  0.222491  1
  H  H14  1  0.551259  0.273275  0.722491  1
  H  H15  1  0.726725  0.222491  0.948741  1
  H  H16  1  0.722491  0.551259  0.273275  1
  H  H17  1  0.222491  0.948741  0.726725  1
  H  H18  1  0.773275  0.777509  0.448741  1
  H  H19  1  0.777509  0.448741  0.773275  1
  H  H20  1  0.273275  0.722491  0.551259  1
  H  H21  1  0.226725  0.277509  0.051259  1
  H  H22  1  0.277509  0.051259  0.226725  1
  H  H23  1  0.051259  0.226725  0.277509  1
  H  H24  1  0.328779  0.240261  0.535968  1
  H  H25  1  0.828779  0.259739  0.464032  1
  H  H26  1  0.671221  0.740261  0.964032  1
  H  H27  1  0.259739  0.464032  0.828779  1
  H  H28  1  0.964032  0.671221  0.740261  1
  H  H29  1  0.464032  0.828779  0.259739  1
  H  H30  1  0.240261  0.535968  0.328779  1
  H  H31  1  0.535968  0.328779  0.240261  1
  H  H32  1  0.740261  0.964032  0.671221  1
  H  H33  1  0.759739  0.035968  0.171221  1
  H  H34  1  0.194562  0.082625  0.516756  1
  H  H35  1  0.035968  0.171221  0.759739  1
  H  H36  1  0.248393  0.339426  0.516999  1
  H  H37  1  0.748393  0.160574  0.483001  1
  H  H38  1  0.751607  0.839426  0.983001  1
  H  H39  1  0.160574  0.483001  0.748393  1
  H  H40  1  0.983001  0.751607  0.839426  1
  H  H41  1  0.483001  0.748393  0.160574  1
  H  H42  1  0.339426  0.516999  0.248393  1
  H  H43  1  0.516999  0.248393  0.339426  1
  H  H44  1  0.839426  0.983001  0.751607  1
  H  H45  1  0.660574  0.016999  0.251607  1
  H  H46  1  0.016999  0.251607  0.660574  1
  H  H47  1  0.251607  0.660574  0.016999  1
  H  H48  1  0.578100  0.627772  0.358016  1
  H  H49  1  0.078100  0.872228  0.641984  1
  H  H50  1  0.421900  0.127772  0.141984  1
  H  H51  1  0.872228  0.641984  0.078100  1
  H  H52  1  0.141984  0.421900  0.127772  1
  H  H53  1  0.641984  0.078100  0.872228  1
  H  H54  1  0.627772  0.358016  0.578100  1
  H  H55  1  0.358016  0.578100  0.627772  1
  H  H56  1  0.127772  0.141984  0.421900  1
  H  H57  1  0.372228  0.858016  0.921900  1
  H  H58  1  0.858016  0.921900  0.372228  1
  H  H59  1  0.921900  0.372228  0.858016  1
  H  H60  1  0.483244  0.694562  0.417375  1
  H  H61  1  0.983244  0.805438  0.582625  1
  H  H62  1  0.516756  0.194562  0.082625  1
  H  H63  1  0.805438  0.582625  0.983244  1
  H  H64  1  0.082625  0.516756  0.194562  1
  H  H65  1  0.582625  0.983244  0.805438  1
  H  H66  1  0.694562  0.417375  0.483244  1
  H  H67  1  0.417375  0.483244  0.694562  1
  H  H68  1  0.016756  0.305438  0.917375  1
  H  H69  1  0.917375  0.016756  0.305438  1
  H  H70  1  0.305438  0.917375  0.016756  1
  H  H71  1  0.171221  0.759739  0.035968  1
  O  O72  1  0.395965  0.747425  0.833718  1
  O  O73  1  0.895965  0.752575  0.166282  1
  O  O74  1  0.604035  0.247425  0.666282  1
  O  O75  1  0.752575  0.166282  0.895965  1
  O  O76  1  0.666282  0.604035  0.247425  1
  O  O77  1  0.166282  0.895965  0.752575  1
  O  O78  1  0.747425  0.833718  0.395965  1
  O  O79  1  0.833718  0.395965  0.747425  1
  O  O80  1  0.247425  0.666282  0.604035  1
  O  O81  1  0.252575  0.333718  0.104035  1
  O  O82  1  0.333718  0.104035  0.252575  1
  O  O83  1  0.104035  0.252575  0.333718  1
  O  O84  1  0.316510  0.305769  0.490040  1
  O  O85  1  0.816510  0.194231  0.509960  1
  O  O86  1  0.683490  0.805769  0.009960  1
  O  O87  1  0.194231  0.509960  0.816510  1
  O  O88  1  0.009960  0.683490  0.805769  1
  O  O89  1  0.509960  0.816510  0.194231  1
  O  O90  1  0.305769  0.490040  0.316510  1
  O  O91  1  0.490040  0.316510  0.305769  1
  O  O92  1  0.805769  0.009960  0.683490  1
  O  O93  1  0.694231  0.990040  0.183490  1
  O  O94  1  0.990040  0.183490  0.694231  1
  O  O95  1  0.183490  0.694231  0.990040  1
  O  O96  1  0.529215  0.628466  0.423004  1
  O  O97  1  0.029215  0.871534  0.576996  1
  O  O98  1  0.470785  0.128466  0.076996  1
  O  O99  1  0.871534  0.576996  0.029215  1
  O  O100  1  0.076996  0.470785  0.128466  1
  O  O101  1  0.576996  0.029215  0.871534  1
  O  O102  1  0.628466  0.423004  0.529215  1
  O  O103  1  0.423004  0.529215  0.628466  1
  O  O104  1  0.128466  0.076996  0.470785  1
  O  O105  1  0.371534  0.923004  0.970785  1
  O  O106  1  0.923004  0.970785  0.371534  1
  O  O107  1  0.970785  0.371534  0.923004  1
  Na  Na108  1  0.399807  0.100193  0.899807  1
  Na  Na109  1  0.100193  0.899807  0.399807  1
  Na  Na110  1  0.899807  0.399807  0.100193  1
  Na  Na111  1  0.600193  0.600193  0.600193  1
  Na  Na112  1  0.550612  0.949388  0.050612  1
  Na  Na113  1  0.949388  0.050612  0.550612  1
  Na  Na114  1  0.050612  0.550612  0.949388  1
  Na  Na115  1  0.291774  0.291774  0.291774  1
  Na  Na116  1  0.449388  0.449388  0.449388  1
  Na  Na117  1  0.791774  0.208226  0.708226  1
  Na  Na118  1  0.208226  0.708226  0.791774  1
  Na  Na119  1  0.708226  0.791774  0.208226  1
  As  As120  1  0.460723  0.960723  0.539277  1
  As  As121  1  0.539277  0.460723  0.960723  1
  As  As122  1  0.960723  0.539277  0.460723  1
  As  As123  1  0.039277  0.039277  0.039277  1
  Se  Se124  1  0.653200  0.574818  0.854630  1
  Se  Se125  1  0.574818  0.854630  0.653200  1
  Se  Se126  1  0.846800  0.425182  0.354630  1
  Se  Se127  1  0.425182  0.354630  0.846800  1
  Se  Se128  1  0.346800  0.074818  0.645370  1
  Se  Se129  1  0.153200  0.925182  0.145370  1
  Se  Se130  1  0.925182  0.145370  0.153200  1
  Se  Se131  1  0.145370  0.153200  0.925182  1
  Se  Se132  1  0.072248  0.427752  0.572248  1
  Se  Se133  1  0.427752  0.572248  0.072248  1
  Se  Se134  1  0.572248  0.072248  0.427752  1
  Se  Se135  1  0.927752  0.927752  0.927752  1
  Se  Se136  1  0.645370  0.346800  0.074818  1
  Se  Se137  1  0.854630  0.653200  0.574818  1
  Se  Se138  1  0.354630  0.846800  0.425182  1
  Se  Se139  1  0.074818  0.645370  0.346800  1
