# generated using pymatgen
data_Sr2P6O17
_symmetry_space_group_name_H-M   'P 1'
_cell_length_a   7.30637676
_cell_length_b   7.34633948
_cell_length_c   13.53360544
_cell_angle_alpha   90.00000000
_cell_angle_beta   90.00000000
_cell_angle_gamma   105.37077545
_symmetry_Int_Tables_number   1
_chemical_formula_structural   Sr2P6O17
_chemical_formula_sum   'Sr4 P12 O34'
_cell_volume   700.43451013
_cell_formula_units_Z   2
loop_
 _symmetry_equiv_pos_site_id
 _symmetry_equiv_pos_as_xyz
  1  'x, y, z'
loop_
 _atom_site_type_symbol
 _atom_site_label
 _atom_site_symmetry_multiplicity
 _atom_site_fract_x
 _atom_site_fract_y
 _atom_site_fract_z
 _atom_site_occupancy
  O  O0  1  0.748747  0.788141  0.311880  1
  O  O1  1  0.251253  0.211859  0.811880  1
  O  O2  1  0.762547  0.461333  0.238454  1
  O  O3  1  0.237453  0.538667  0.738454  1
  O  O4  1  0.647387  0.712478  0.140051  1
  O  O5  1  0.352613  0.287522  0.640051  1
  O  O6  1  0.519022  0.432438  0.023108  1
  O  O7  1  0.480978  0.567562  0.523108  1
  O  O8  1  0.872357  0.611183  0.030650  1
  O  O9  1  0.127643  0.388817  0.530650  1
  O  O10  1  0.138203  0.484836  0.968524  1
  O  O11  1  0.861797  0.515164  0.468524  1
  O  O12  1  0.079629  0.794370  0.895007  1
  O  O13  1  0.920371  0.205630  0.395007  1
  O  O14  1  0.846906  0.467303  0.863634  1
  O  O15  1  0.153094  0.532697  0.363634  1
  O  O16  1  0.367903  0.232714  0.457062  1
  O  O17  1  0.632097  0.767286  0.957062  1
  O  O18  1  0.167940  0.917326  0.525271  1
  O  O19  1  0.832060  0.082674  0.025271  1
  O  O20  1  0.504824  0.952936  0.448020  1
  O  O21  1  0.495176  0.047064  0.948020  1
  O  O22  1  0.211884  0.964499  0.343879  1
  O  O23  1  0.788116  0.035501  0.843879  1
  O  O24  1  0.108808  0.988251  0.167860  1
  O  O25  1  0.891192  0.011749  0.667860  1
  O  O26  1  0.465897  0.055245  0.206916  1
  O  O27  1  0.534103  0.944755  0.706916  1
  O  O28  1  0.246884  0.725506  0.212195  1
  O  O29  1  0.753116  0.274494  0.712195  1
  O  O30  1  0.449722  0.524099  0.279471  1
  O  O31  1  0.550278  0.475901  0.779471  1
  O  O32  1  0.138644  0.370509  0.192918  1
  O  O33  1  0.861356  0.629491  0.692918  1
  P  P34  1  0.670439  0.617274  0.249013  1
  P  P35  1  0.329561  0.382726  0.749013  1
  P  P36  1  0.657402  0.616891  0.035113  1
  P  P37  1  0.342598  0.383109  0.535113  1
  P  P38  1  0.010218  0.599349  0.936912  1
  P  P39  1  0.989782  0.400651  0.436912  1
  P  P40  1  0.761487  0.472062  0.757232  1
  P  P41  1  0.238513  0.527938  0.257232  1
  P  P42  1  0.733835  0.049291  0.728911  1
  P  P43  1  0.266165  0.950709  0.228911  1
  P  P44  1  0.680485  1.000814  0.950223  1
  P  P45  1  0.319515  -0.000814  0.450223  1
  Sr  Sr46  1  0.814646  0.125398  0.217511  1
  Sr  Sr47  1  0.185354  0.874602  0.717511  1
  Sr  Sr48  1  0.216752  0.175797  0.000385  1
  Sr  Sr49  1  0.783248  0.824203  0.500385  1
