# generated using pymatgen
data_Hg4Sb2I3
_symmetry_space_group_name_H-M   'P 1'
_cell_length_a   13.91073065
_cell_length_b   13.91073065
_cell_length_c   13.91073065
_cell_angle_alpha   90.00000000
_cell_angle_beta   90.00000000
_cell_angle_gamma   90.00000000
_symmetry_Int_Tables_number   1
_chemical_formula_structural   Hg4Sb2I3
_chemical_formula_sum   'Hg32 Sb16 I24'
_cell_volume   2691.84360952
_cell_formula_units_Z   8
loop_
 _symmetry_equiv_pos_site_id
 _symmetry_equiv_pos_as_xyz
  1  'x, y, z'
loop_
 _atom_site_type_symbol
 _atom_site_label
 _atom_site_symmetry_multiplicity
 _atom_site_fract_x
 _atom_site_fract_y
 _atom_site_fract_z
 _atom_site_occupancy
  Sb  Sb0  1  0.892479  0.107521  0.607521  1
  Sb  Sb1  1  0.607521  0.892479  0.107521  1
  Sb  Sb2  1  0.107521  0.607521  0.892479  1
  Sb  Sb3  1  0.392479  0.392479  0.392479  1
  Sb  Sb4  1  0.107521  0.892479  0.392479  1
  Sb  Sb5  1  0.392479  0.107521  0.892479  1
  Sb  Sb6  1  0.892479  0.392479  0.107521  1
  Sb  Sb7  1  0.607521  0.607521  0.607521  1
  Sb  Sb8  1  0.558853  0.058853  0.441147  1
  Sb  Sb9  1  0.441147  0.558853  0.058853  1
  Sb  Sb10  1  0.058853  0.441147  0.558853  1
  Sb  Sb11  1  0.941147  0.941147  0.941147  1
  Sb  Sb12  1  0.441147  0.941147  0.558853  1
  Sb  Sb13  1  0.558853  0.441147  0.941147  1
  Sb  Sb14  1  0.941147  0.558853  0.441147  1
  Sb  Sb15  1  0.058853  0.058853  0.058853  1
  I  I16  1  0.237404  0.184324  0.567937  1
  I  I17  1  0.567937  0.237404  0.184324  1
  I  I18  1  0.184324  0.567937  0.237404  1
  I  I19  1  0.315676  0.432063  0.737404  1
  I  I20  1  0.067937  0.262596  0.815676  1
  I  I21  1  0.815676  0.067937  0.262596  1
  I  I22  1  0.932063  0.762596  0.684324  1
  I  I23  1  0.432063  0.737404  0.315676  1
  I  I24  1  0.684324  0.932063  0.762596  1
  I  I25  1  0.737404  0.315676  0.432063  1
  I  I26  1  0.762596  0.684324  0.932063  1
  I  I27  1  0.262596  0.815676  0.067937  1
  I  I28  1  0.762596  0.815676  0.432063  1
  I  I29  1  0.432063  0.762596  0.815676  1
  I  I30  1  0.815676  0.432063  0.762596  1
  I  I31  1  0.684324  0.567937  0.262596  1
  I  I32  1  0.932063  0.737404  0.184324  1
  I  I33  1  0.184324  0.932063  0.737404  1
  I  I34  1  0.067937  0.237404  0.315676  1
  I  I35  1  0.567937  0.262596  0.684324  1
  I  I36  1  0.315676  0.067937  0.237404  1
  I  I37  1  0.262596  0.684324  0.567937  1
  I  I38  1  0.237404  0.315676  0.067937  1
  I  I39  1  0.737404  0.184324  0.932063  1
  Hg  Hg40  1  0.029016  0.005694  0.249029  1
  Hg  Hg41  1  0.249029  0.029016  0.005694  1
  Hg  Hg42  1  0.005694  0.249029  0.029016  1
  Hg  Hg43  1  0.494306  0.750972  0.529016  1
  Hg  Hg44  1  0.749028  0.470984  0.994306  1
  Hg  Hg45  1  0.994306  0.749028  0.470984  1
  Hg  Hg46  1  0.250972  0.970984  0.505694  1
  Hg  Hg47  1  0.750972  0.529016  0.494306  1
  Hg  Hg48  1  0.505694  0.250972  0.970984  1
  Hg  Hg49  1  0.529016  0.494306  0.750972  1
  Hg  Hg50  1  0.970984  0.505694  0.250972  1
  Hg  Hg51  1  0.470984  0.994306  0.749028  1
  Hg  Hg52  1  0.970984  0.994306  0.750972  1
  Hg  Hg53  1  0.750972  0.970984  0.994306  1
  Hg  Hg54  1  0.994306  0.750972  0.970984  1
  Hg  Hg55  1  0.505694  0.249029  0.470984  1
  Hg  Hg56  1  0.250972  0.529016  0.005694  1
  Hg  Hg57  1  0.005694  0.250972  0.529016  1
  Hg  Hg58  1  0.749028  0.029016  0.494306  1
  Hg  Hg59  1  0.249029  0.470984  0.505694  1
  Hg  Hg60  1  0.494306  0.749028  0.029016  1
  Hg  Hg61  1  0.470984  0.505694  0.249029  1
  Hg  Hg62  1  0.029016  0.494306  0.749028  1
  Hg  Hg63  1  0.529016  0.005694  0.250972  1
  Hg  Hg64  1  0.778452  0.221548  0.721548  1
  Hg  Hg65  1  0.721548  0.778452  0.221548  1
  Hg  Hg66  1  0.221548  0.721548  0.778452  1
  Hg  Hg67  1  0.278452  0.278452  0.278452  1
  Hg  Hg68  1  0.221548  0.778452  0.278452  1
  Hg  Hg69  1  0.278452  0.221548  0.778452  1
  Hg  Hg70  1  0.778452  0.278452  0.221548  1
  Hg  Hg71  1  0.721548  0.721548  0.721548  1
