# generated using pymatgen
data_K2SnTe5
_symmetry_space_group_name_H-M   'P 1'
_cell_length_a   8.67031436
_cell_length_b   8.67031436
_cell_length_c   9.89736898
_cell_angle_alpha   115.97704830
_cell_angle_beta   115.97704828
_cell_angle_gamma   89.99999998
_symmetry_Int_Tables_number   1
_chemical_formula_structural   K2SnTe5
_chemical_formula_sum   'K4 Sn2 Te10'
_cell_volume   584.09424509
_cell_formula_units_Z   2
loop_
 _symmetry_equiv_pos_site_id
 _symmetry_equiv_pos_as_xyz
  1  'x, y, z'
loop_
 _atom_site_type_symbol
 _atom_site_label
 _atom_site_symmetry_multiplicity
 _atom_site_fract_x
 _atom_site_fract_y
 _atom_site_fract_z
 _atom_site_occupancy
  K  K0  1  0.496641  0.496641  0.993281  1
  K  K1  1  0.996641  0.996641  0.993281  1
  K  K2  1  0.745932  0.745932  0.491864  1
  K  K3  1  0.245932  0.245932  0.491864  1
  Sn  Sn4  1  0.245057  0.745057  0.490114  1
  Sn  Sn5  1  0.745057  0.245057  0.490114  1
  Te  Te6  1  0.680343  0.538419  0.718762  1
  Te  Te7  1  0.538419  0.038419  0.718762  1
  Te  Te8  1  0.495574  0.995574  0.991148  1
  Te  Te9  1  0.995574  0.495574  0.991148  1
  Te  Te10  1  0.038419  0.180343  0.718762  1
  Te  Te11  1  0.180343  0.680343  0.718762  1
  Te  Te12  1  0.813137  0.313137  0.265234  1
  Te  Te13  1  0.952097  0.813137  0.265234  1
  Te  Te14  1  0.313137  0.452097  0.265234  1
  Te  Te15  1  0.452097  0.952097  0.265234  1
