# generated using pymatgen
data_HfReSi2
_symmetry_space_group_name_H-M   'P 1'
_cell_length_a   8.10685269
_cell_length_b   9.18146719
_cell_length_c   10.08647079
_cell_angle_alpha   90.00000000
_cell_angle_beta   90.00000000
_cell_angle_gamma   90.00000000
_symmetry_Int_Tables_number   1
_chemical_formula_structural   HfReSi2
_chemical_formula_sum   'Hf12 Si24 Re12'
_cell_volume   750.76428306
_cell_formula_units_Z   12
loop_
 _symmetry_equiv_pos_site_id
 _symmetry_equiv_pos_as_xyz
  1  'x, y, z'
loop_
 _atom_site_type_symbol
 _atom_site_label
 _atom_site_symmetry_multiplicity
 _atom_site_fract_x
 _atom_site_fract_y
 _atom_site_fract_z
 _atom_site_occupancy
  Si  Si0  1  0.000000  0.368780  0.601859  1
  Si  Si1  1  0.000000  0.631220  0.398141  1
  Si  Si2  1  0.000000  0.868780  0.898141  1
  Si  Si3  1  0.000000  0.131220  0.101859  1
  Si  Si4  1  0.000000  0.465842  0.885882  1
  Si  Si5  1  0.000000  0.534158  0.114118  1
  Si  Si6  1  0.000000  0.965842  0.614118  1
  Si  Si7  1  0.000000  0.034158  0.385882  1
  Si  Si8  1  0.500000  0.375009  0.596163  1
  Si  Si9  1  0.500000  0.624991  0.403837  1
  Si  Si10  1  0.500000  0.875009  0.903837  1
  Si  Si11  1  0.500000  0.124991  0.096163  1
  Si  Si12  1  0.500000  0.464553  0.885624  1
  Si  Si13  1  0.500000  0.535447  0.114376  1
  Si  Si14  1  0.500000  0.964553  0.614376  1
  Si  Si15  1  0.500000  0.035447  0.385624  1
  Si  Si16  1  0.354384  0.834019  0.180852  1
  Si  Si17  1  0.354384  0.334019  0.319148  1
  Si  Si18  1  0.645616  0.334019  0.319148  1
  Si  Si19  1  0.645616  0.665981  0.680852  1
  Si  Si20  1  0.645616  0.165981  0.819148  1
  Si  Si21  1  0.645616  0.834019  0.180852  1
  Si  Si22  1  0.354384  0.665981  0.680852  1
  Si  Si23  1  0.354384  0.165981  0.819148  1
  Hf  Hf24  1  0.000000  0.170363  0.820579  1
  Hf  Hf25  1  0.246836  0.675051  0.951378  1
  Hf  Hf26  1  0.753164  0.824949  0.451378  1
  Hf  Hf27  1  0.753164  0.175051  0.548622  1
  Hf  Hf28  1  0.753164  0.675051  0.951378  1
  Hf  Hf29  1  0.753164  0.324949  0.048622  1
  Hf  Hf30  1  0.246836  0.175051  0.548622  1
  Hf  Hf31  1  0.246836  0.824949  0.451378  1
  Hf  Hf32  1  0.000000  0.329637  0.320579  1
  Hf  Hf33  1  0.000000  0.670363  0.679421  1
  Hf  Hf34  1  0.000000  0.829637  0.179421  1
  Hf  Hf35  1  0.246836  0.324949  0.048622  1
  Re  Re36  1  0.249447  0.085371  0.262074  1
  Re  Re37  1  0.249447  0.914629  0.737926  1
  Re  Re38  1  0.750553  0.585371  0.237926  1
  Re  Re39  1  0.750553  0.414629  0.762074  1
  Re  Re40  1  0.750553  0.914629  0.737926  1
  Re  Re41  1  0.750553  0.085371  0.262074  1
  Re  Re42  1  0.249447  0.414629  0.762074  1
  Re  Re43  1  0.249447  0.585371  0.237926  1
  Re  Re44  1  0.244808  0.000000  0.000000  1
  Re  Re45  1  0.755192  0.500000  0.500000  1
  Re  Re46  1  0.755192  0.000000  0.000000  1
  Re  Re47  1  0.244808  0.500000  0.500000  1
