# generated using pymatgen
data_Si2Hg6O7
_symmetry_space_group_name_H-M   'P 1'
_cell_length_a   6.24849375
_cell_length_b   7.17260978
_cell_length_c   7.17260978
_cell_angle_alpha   66.90216805
_cell_angle_beta   71.71003022
_cell_angle_gamma   71.71003027
_symmetry_Int_Tables_number   1
_chemical_formula_structural   Si2Hg6O7
_chemical_formula_sum   'Si2 Hg6 O7'
_cell_volume   273.97893687
_cell_formula_units_Z   1
loop_
 _symmetry_equiv_pos_site_id
 _symmetry_equiv_pos_as_xyz
  1  'x, y, z'
loop_
 _atom_site_type_symbol
 _atom_site_label
 _atom_site_symmetry_multiplicity
 _atom_site_fract_x
 _atom_site_fract_y
 _atom_site_fract_z
 _atom_site_occupancy
  O  O0  1  0.000000  0.500000  0.500000  1
  O  O1  1  0.262596  0.134553  0.480926  1
  O  O2  1  0.737404  0.519074  0.865447  1
  O  O3  1  0.737404  0.865447  0.519074  1
  O  O4  1  0.262596  0.480926  0.134553  1
  O  O5  1  0.114698  0.693705  0.693705  1
  O  O6  1  0.885302  0.306295  0.306295  1
  Si  Si7  1  0.105468  0.352670  0.352670  1
  Si  Si8  1  0.894532  0.647330  0.647330  1
  Hg  Hg9  1  0.418051  0.876333  0.357777  1
  Hg  Hg10  1  0.581949  0.642223  0.123667  1
  Hg  Hg11  1  0.581949  0.123667  0.642223  1
  Hg  Hg12  1  0.418051  0.357777  0.876333  1
  Hg  Hg13  1  0.041868  0.885096  0.885096  1
  Hg  Hg14  1  0.958132  0.114904  0.114904  1
