# generated using pymatgen
data_Al4Cu2O7
_symmetry_space_group_name_H-M   'P 1'
_cell_length_a   5.99435880
_cell_length_b   5.99435879
_cell_length_c   5.99435880
_cell_angle_alpha   59.99999997
_cell_angle_beta   60.00000000
_cell_angle_gamma   60.00000000
_symmetry_Int_Tables_number   1
_chemical_formula_structural   Al4Cu2O7
_chemical_formula_sum   'Al4 Cu2 O7'
_cell_volume   152.30466497
_cell_formula_units_Z   1
loop_
 _symmetry_equiv_pos_site_id
 _symmetry_equiv_pos_as_xyz
  1  'x, y, z'
loop_
 _atom_site_type_symbol
 _atom_site_label
 _atom_site_symmetry_multiplicity
 _atom_site_fract_x
 _atom_site_fract_y
 _atom_site_fract_z
 _atom_site_occupancy
  O  O0  1  0.750000  0.750000  0.750000  1
  O  O1  1  0.740637  0.259363  0.740637  1
  O  O2  1  0.259363  0.740637  0.259363  1
  O  O3  1  0.259363  0.740637  0.740637  1
  O  O4  1  0.740637  0.740637  0.259363  1
  O  O5  1  0.259363  0.259363  0.740637  1
  O  O6  1  0.740637  0.259363  0.259363  1
  Al  Al7  1  0.619675  0.140974  0.619675  1
  Al  Al8  1  0.140974  0.619675  0.619675  1
  Al  Al9  1  0.619675  0.619675  0.140974  1
  Al  Al10  1  0.619675  0.619675  0.619675  1
  Cu  Cu11  1  0.250000  0.250000  0.250000  1
  Cu  Cu12  1  0.000000  0.000000  0.000000  1
