# generated using pymatgen
data_Sn2SO5
_symmetry_space_group_name_H-M   'P 1'
_cell_length_a   9.06729158
_cell_length_b   11.26007321
_cell_length_c   11.26007321
_cell_angle_alpha   90.00000000
_cell_angle_beta   90.00000000
_cell_angle_gamma   90.00000000
_symmetry_Int_Tables_number   1
_chemical_formula_structural   Sn2SO5
_chemical_formula_sum   'Sn16 S8 O40'
_cell_volume   1149.63508712
_cell_formula_units_Z   8
loop_
 _symmetry_equiv_pos_site_id
 _symmetry_equiv_pos_as_xyz
  1  'x, y, z'
loop_
 _atom_site_type_symbol
 _atom_site_label
 _atom_site_symmetry_multiplicity
 _atom_site_fract_x
 _atom_site_fract_y
 _atom_site_fract_z
 _atom_site_occupancy
  O  O0  1  0.352914  0.817525  0.835111  1
  O  O1  1  0.352914  0.182475  0.164889  1
  O  O2  1  0.647086  0.164889  0.817525  1
  O  O3  1  0.647086  0.835111  0.182475  1
  O  O4  1  0.852914  0.664889  0.682475  1
  O  O5  1  0.147086  0.682475  0.335111  1
  O  O6  1  0.147086  0.317525  0.664889  1
  O  O7  1  0.852914  0.335111  0.317525  1
  O  O8  1  0.605402  0.892185  0.830411  1
  O  O9  1  0.605402  0.107815  0.169589  1
  O  O10  1  0.394598  0.169589  0.892185  1
  O  O11  1  0.394598  0.830411  0.107815  1
  O  O12  1  0.105402  0.669589  0.607815  1
  O  O13  1  0.894598  0.607815  0.330411  1
  O  O14  1  0.894598  0.392185  0.669589  1
  O  O15  1  0.557361  0.678631  0.842689  1
  O  O16  1  0.105402  0.330411  0.392185  1
  O  O17  1  0.502754  0.211942  0.341487  1
  O  O18  1  0.497246  0.341487  0.788058  1
  O  O19  1  0.497246  0.658513  0.211942  1
  O  O20  1  0.002754  0.841487  0.711942  1
  O  O21  1  0.997246  0.711942  0.158513  1
  O  O22  1  0.997246  0.288058  0.841487  1
  O  O23  1  0.002754  0.158513  0.288058  1
  O  O24  1  0.113153  0.124782  0.015185  1
  O  O25  1  0.886847  0.015185  0.875218  1
  O  O26  1  0.886847  0.984815  0.124782  1
  O  O27  1  0.113153  0.875218  0.984815  1
  O  O28  1  0.386847  0.624782  0.484815  1
  O  O29  1  0.386847  0.375218  0.515185  1
  O  O30  1  0.613153  0.484815  0.375218  1
  O  O31  1  0.613153  0.515185  0.624782  1
  O  O32  1  0.057361  0.342689  0.178631  1
  O  O33  1  0.942639  0.178631  0.657311  1
  O  O34  1  0.942639  0.821369  0.342689  1
  O  O35  1  0.057361  0.657311  0.821369  1
  O  O36  1  0.442639  0.842689  0.321369  1
  O  O37  1  0.442639  0.157311  0.678631  1
  O  O38  1  0.557361  0.321369  0.157311  1
  O  O39  1  0.502754  0.788058  0.658513  1
  S  S40  1  0.507847  0.792926  0.790181  1
  S  S41  1  0.507847  0.207074  0.209819  1
  S  S42  1  0.492153  0.209819  0.792926  1
  S  S43  1  0.492153  0.790181  0.207074  1
  S  S44  1  0.007847  0.709819  0.707074  1
  S  S45  1  0.992153  0.707074  0.290181  1
  S  S46  1  0.992153  0.292926  0.709819  1
  S  S47  1  0.007847  0.290181  0.292926  1
  Sn  Sn48  1  0.743366  0.517492  0.786124  1
  Sn  Sn49  1  0.743366  0.482508  0.213876  1
  Sn  Sn50  1  0.256634  0.213876  0.517492  1
  Sn  Sn51  1  0.256634  0.786124  0.482508  1
  Sn  Sn52  1  0.243366  0.713876  0.982508  1
  Sn  Sn53  1  0.756634  0.982508  0.286124  1
  Sn  Sn54  1  0.756634  0.017492  0.713876  1
  Sn  Sn55  1  0.243366  0.286124  0.017492  1
  Sn  Sn56  1  0.635169  0.659196  0.493579  1
  Sn  Sn57  1  0.635169  0.340804  0.506421  1
  Sn  Sn58  1  0.364831  0.506421  0.659196  1
  Sn  Sn59  1  0.364831  0.493579  0.340804  1
  Sn  Sn60  1  0.135169  0.006421  0.840804  1
  Sn  Sn61  1  0.864831  0.840804  0.993579  1
  Sn  Sn62  1  0.864831  0.159196  0.006421  1
  Sn  Sn63  1  0.135169  0.993579  0.159196  1
