# generated using pymatgen
data_P3BrCl14
_symmetry_space_group_name_H-M   'P 1'
_cell_length_a   9.01997730
_cell_length_b   9.01997730
_cell_length_c   9.01997730
_cell_angle_alpha   90.43804675
_cell_angle_beta   119.74741669
_cell_angle_gamma   119.74741668
_symmetry_Int_Tables_number   1
_chemical_formula_structural   P3BrCl14
_chemical_formula_sum   'P3 Br1 Cl14'
_cell_volume   520.88575604
_cell_formula_units_Z   1
loop_
 _symmetry_equiv_pos_site_id
 _symmetry_equiv_pos_as_xyz
  1  'x, y, z'
loop_
 _atom_site_type_symbol
 _atom_site_label
 _atom_site_symmetry_multiplicity
 _atom_site_fract_x
 _atom_site_fract_y
 _atom_site_fract_z
 _atom_site_occupancy
  P  P0  1  0.500000  0.248944  0.748944  1
  P  P1  1  0.000000  0.496404  0.496404  1
  P  P2  1  0.500000  0.748944  0.248944  1
  Cl  Cl3  1  0.000000  0.326333  0.326333  1
  Cl  Cl4  1  0.709918  0.512651  0.874024  1
  Cl  Cl5  1  0.361373  0.874024  0.164105  1
  Cl  Cl6  1  0.638627  0.802732  0.512651  1
  Cl  Cl7  1  0.290082  0.164105  0.802732  1
  Cl  Cl8  1  0.361709  0.195548  0.485279  1
  Cl  Cl9  1  0.289731  0.485279  0.123570  1
  Cl  Cl10  1  0.710269  0.833838  0.195548  1
  Cl  Cl11  1  0.638291  0.123570  0.833838  1
  Cl  Cl12  1  0.675571  0.383757  0.284713  1
  Cl  Cl13  1  0.900956  0.284713  0.609143  1
  Cl  Cl14  1  0.099044  0.708186  0.383757  1
  Cl  Cl15  1  0.324429  0.609143  0.708186  1
  Cl  Cl16  1  0.000000  0.666587  0.666587  1
  Br  Br17  1  0.000000  0.000543  0.000543  1
