# generated using pymatgen
data_Rb3B12H12Br
_symmetry_space_group_name_H-M   'P 1'
_cell_length_a   7.13287718
_cell_length_b   7.13287717
_cell_length_c   7.13287717
_cell_angle_alpha   93.11222651
_cell_angle_beta   93.11222650
_cell_angle_gamma   93.11222655
_symmetry_Int_Tables_number   1
_chemical_formula_structural   Rb3B12H12Br
_chemical_formula_sum   'Rb3 B12 H12 Br1'
_cell_volume   361.23961312
_cell_formula_units_Z   1
loop_
 _symmetry_equiv_pos_site_id
 _symmetry_equiv_pos_as_xyz
  1  'x, y, z'
loop_
 _atom_site_type_symbol
 _atom_site_label
 _atom_site_symmetry_multiplicity
 _atom_site_fract_x
 _atom_site_fract_y
 _atom_site_fract_z
 _atom_site_occupancy
  H  H0  1  0.793690  0.793690  0.269396  1
  H  H1  1  0.793690  0.269396  0.793690  1
  H  H2  1  0.269396  0.793690  0.793690  1
  H  H3  1  0.730604  0.206310  0.206310  1
  H  H4  1  0.900510  0.900510  0.607353  1
  H  H5  1  0.900510  0.607353  0.900510  1
  H  H6  1  0.607353  0.900510  0.900510  1
  H  H7  1  0.392647  0.099490  0.099490  1
  H  H8  1  0.099490  0.099490  0.392647  1
  H  H9  1  0.099490  0.392647  0.099490  1
  H  H10  1  0.206310  0.206310  0.730604  1
  H  H11  1  0.206310  0.730604  0.206310  1
  B  B12  1  0.841999  0.119973  0.119973  1
  B  B13  1  0.158001  0.880027  0.880027  1
  B  B14  1  0.880027  0.158001  0.880027  1
  B  B15  1  0.880027  0.880027  0.158001  1
  B  B16  1  0.058112  0.058112  0.229516  1
  B  B17  1  0.058112  0.229516  0.058112  1
  B  B18  1  0.229516  0.058112  0.058112  1
  B  B19  1  0.770484  0.941888  0.941888  1
  B  B20  1  0.941888  0.941888  0.770484  1
  B  B21  1  0.941888  0.770484  0.941888  1
  B  B22  1  0.119973  0.119973  0.841999  1
  B  B23  1  0.119973  0.841999  0.119973  1
  Br  Br24  1  0.500000  0.500000  0.500000  1
  Rb  Rb25  1  0.500000  0.000000  0.500000  1
  Rb  Rb26  1  0.000000  0.500000  0.500000  1
  Rb  Rb27  1  0.500000  0.500000  0.000000  1
