# generated using pymatgen
data_KTcCl3
_symmetry_space_group_name_H-M   'P 1'
_cell_length_a   8.32169979
_cell_length_b   8.32169992
_cell_length_c   9.02969137
_cell_angle_alpha   93.46904958
_cell_angle_beta   93.46904956
_cell_angle_gamma   118.10048636
_symmetry_Int_Tables_number   1
_chemical_formula_structural   KTcCl3
_chemical_formula_sum   'K4 Tc4 Cl12'
_cell_volume   547.77105335
_cell_formula_units_Z   4
loop_
 _symmetry_equiv_pos_site_id
 _symmetry_equiv_pos_as_xyz
  1  'x, y, z'
loop_
 _atom_site_type_symbol
 _atom_site_label
 _atom_site_symmetry_multiplicity
 _atom_site_fract_x
 _atom_site_fract_y
 _atom_site_fract_z
 _atom_site_occupancy
  Tc  Tc0  1  0.854833  0.954716  0.567902  1
  Tc  Tc1  1  0.954716  0.854833  0.067902  1
  Tc  Tc2  1  0.680006  0.775223  0.710414  1
  Tc  Tc3  1  0.775223  0.680006  0.210414  1
  K  K4  1  0.176034  0.510152  0.389547  1
  K  K5  1  0.510152  0.176034  0.889547  1
  K  K6  1  0.113466  0.443400  0.897009  1
  K  K7  1  0.443400  0.113466  0.397009  1
  Cl  Cl8  1  0.768408  0.972900  0.944147  1
  Cl  Cl9  1  0.972900  0.768408  0.444147  1
  Cl  Cl10  1  0.821140  0.228199  0.605817  1
  Cl  Cl11  1  0.228199  0.821140  0.105817  1
  Cl  Cl12  1  0.871413  0.661719  0.832801  1
  Cl  Cl13  1  0.661719  0.871413  0.332801  1
  Cl  Cl14  1  0.399229  0.796453  0.682500  1
  Cl  Cl15  1  0.796453  0.399229  0.182500  1
  Cl  Cl16  1  0.149837  0.125503  0.708183  1
  Cl  Cl17  1  0.125503  0.149837  0.208183  1
  Cl  Cl18  1  0.519237  0.489731  0.555280  1
  Cl  Cl19  1  0.489731  0.519237  0.055280  1
