# generated using pymatgen
data_Na3Co(NO2)6
_symmetry_space_group_name_H-M   'P 1'
_cell_length_a   6.79897123
_cell_length_b   6.79897123
_cell_length_c   6.79897123
_cell_angle_alpha   71.51115622
_cell_angle_beta   71.51115623
_cell_angle_gamma   71.51115627
_symmetry_Int_Tables_number   1
_chemical_formula_structural   Na3Co(NO2)6
_chemical_formula_sum   'Na3 Co1 N6 O12'
_cell_volume   274.36703007
_cell_formula_units_Z   1
loop_
 _symmetry_equiv_pos_site_id
 _symmetry_equiv_pos_as_xyz
  1  'x, y, z'
loop_
 _atom_site_type_symbol
 _atom_site_label
 _atom_site_symmetry_multiplicity
 _atom_site_fract_x
 _atom_site_fract_y
 _atom_site_fract_z
 _atom_site_occupancy
  N  N0  1  0.806070  0.171548  0.806069  1
  N  N1  1  0.806070  0.806069  0.171548  1
  N  N2  1  0.171548  0.806069  0.806069  1
  N  N3  1  0.828452  0.193930  0.193931  1
  N  N4  1  0.193930  0.828452  0.193931  1
  N  N5  1  0.193930  0.193930  0.828451  1
  O  O6  1  0.724104  0.724103  0.087998  1
  O  O7  1  0.087997  0.724103  0.724104  1
  O  O8  1  0.912003  0.275897  0.275896  1
  O  O9  1  0.724103  0.087997  0.724103  1
  O  O10  1  0.234558  0.628723  0.234558  1
  O  O11  1  0.275896  0.275897  0.912003  1
  O  O12  1  0.628723  0.234559  0.234558  1
  O  O13  1  0.371278  0.765442  0.765441  1
  O  O14  1  0.765442  0.371277  0.765442  1
  O  O15  1  0.765442  0.765442  0.371277  1
  O  O16  1  0.275897  0.912002  0.275896  1
  O  O17  1  0.234558  0.234559  0.628723  1
  Na  Na18  1  0.735880  0.735880  0.735880  1
  Na  Na19  1  0.264120  0.264120  0.264121  1
  Na  Na20  1  0.500001  0.500000  0.500000  1
  Co  Co21  1  0.000000  0.000000  0.000000  1
