# generated using pymatgen
data_PPbSe3
_symmetry_space_group_name_H-M   'P 1'
_cell_length_a   7.12695804
_cell_length_b   7.81131208
_cell_length_c   9.85360145
_cell_angle_alpha   90.00000000
_cell_angle_beta   91.88828172
_cell_angle_gamma   90.00000000
_symmetry_Int_Tables_number   1
_chemical_formula_structural   PPbSe3
_chemical_formula_sum   'P4 Pb4 Se12'
_cell_volume   548.26091536
_cell_formula_units_Z   4
loop_
 _symmetry_equiv_pos_site_id
 _symmetry_equiv_pos_as_xyz
  1  'x, y, z'
loop_
 _atom_site_type_symbol
 _atom_site_label
 _atom_site_symmetry_multiplicity
 _atom_site_fract_x
 _atom_site_fract_y
 _atom_site_fract_z
 _atom_site_occupancy
  P  P0  1  0.835855  0.143871  0.716130  1
  P  P1  1  0.335855  0.856129  0.216130  1
  P  P2  1  0.716598  0.357866  0.842783  1
  P  P3  1  0.216598  0.642134  0.342783  1
  Se  Se4  1  0.959936  0.547522  0.233371  1
  Se  Se5  1  0.937710  0.557033  0.837242  1
  Se  Se6  1  0.437710  0.442967  0.337242  1
  Se  Se7  1  0.093218  0.049163  0.824817  1
  Se  Se8  1  0.886530  0.253122  0.513518  1
  Se  Se9  1  0.386530  0.746878  0.013518  1
  Se  Se10  1  0.615555  0.944133  0.722253  1
  Se  Se11  1  0.593218  0.950837  0.324817  1
  Se  Se12  1  0.665616  0.248239  0.045083  1
  Se  Se13  1  0.115555  0.055867  0.222253  1
  Se  Se14  1  0.165616  0.751761  0.545083  1
  Se  Se15  1  0.459936  0.452478  0.733371  1
  Pb  Pb16  1  0.741474  0.633204  0.527858  1
  Pb  Pb17  1  0.310207  0.132463  0.527945  1
  Pb  Pb18  1  0.810207  0.867537  0.027945  1
  Pb  Pb19  1  0.241474  0.366796  0.027858  1
