# generated using pymatgen
data_Li2Sn(PO3)4
_symmetry_space_group_name_H-M   'P 1'
_cell_length_a   9.79692949
_cell_length_b   10.45557997
_cell_length_c   9.60893939
_cell_angle_alpha   90.00000000
_cell_angle_beta   90.95581111
_cell_angle_gamma   90.00000000
_symmetry_Int_Tables_number   1
_chemical_formula_structural   Li2Sn(PO3)4
_chemical_formula_sum   'Li8 Sn4 P16 O48'
_cell_volume   984.13149675
_cell_formula_units_Z   4
loop_
 _symmetry_equiv_pos_site_id
 _symmetry_equiv_pos_as_xyz
  1  'x, y, z'
loop_
 _atom_site_type_symbol
 _atom_site_label
 _atom_site_symmetry_multiplicity
 _atom_site_fract_x
 _atom_site_fract_y
 _atom_site_fract_z
 _atom_site_occupancy
  Li  Li0  1  0.006919  0.175785  0.886254  1
  Li  Li1  1  0.004454  0.182250  0.612908  1
  Li  Li2  1  0.506919  0.324215  0.886254  1
  Li  Li3  1  0.495546  0.682250  0.387091  1
  Li  Li4  1  0.504454  0.317750  0.612908  1
  Li  Li5  1  0.493081  0.675785  0.113746  1
  Li  Li6  1  0.995546  0.817750  0.387091  1
  Li  Li7  1  0.993081  0.824215  0.113746  1
  O  O8  1  0.100100  0.298369  0.751588  1
  O  O9  1  0.104221  0.722266  0.969120  1
  O  O10  1  0.096892  0.706042  0.534499  1
  O  O11  1  0.106545  0.015751  0.769246  1
  O  O12  1  0.148856  0.525147  0.832789  1
  O  O13  1  0.150798  0.125977  0.474118  1
  O  O14  1  0.156638  0.471456  0.582635  1
  O  O15  1  0.147847  0.131602  0.043797  1
  O  O16  1  0.152305  0.885726  0.255730  1
  O  O17  1  0.165232  0.564962  0.343982  1
  O  O18  1  0.166083  0.517277  0.092164  1
  O  O19  1  0.212607  0.339995  0.260284  1
  O  O20  1  0.287393  0.839995  0.739716  1
  O  O21  1  0.333917  0.017277  0.907836  1
  O  O22  1  0.334768  0.064962  0.656018  1
  O  O23  1  0.347695  0.385726  0.744270  1
  O  O24  1  0.352153  0.631602  0.956203  1
  O  O25  1  0.343362  0.971456  0.417365  1
  O  O26  1  0.349202  0.625977  0.525882  1
  O  O27  1  0.351144  0.025147  0.167211  1
  O  O28  1  0.393455  0.515751  0.230754  1
  O  O29  1  0.403108  0.206043  0.465501  1
  O  O30  1  0.395779  0.222266  0.030880  1
  O  O31  1  0.399900  0.798369  0.248412  1
  O  O32  1  0.600100  0.201631  0.751588  1
  O  O33  1  0.604221  0.777734  0.969120  1
  O  O34  1  0.596892  0.793958  0.534499  1
  O  O35  1  0.606545  0.484249  0.769246  1
  O  O36  1  0.648856  0.974853  0.832789  1
  O  O37  1  0.650798  0.374023  0.474118  1
  O  O38  1  0.656638  0.028544  0.582635  1
  O  O39  1  0.647847  0.368398  0.043797  1
  O  O40  1  0.652305  0.614274  0.255730  1
  O  O41  1  0.665232  0.935038  0.343982  1
  O  O42  1  0.666083  0.982723  0.092164  1
  O  O43  1  0.712607  0.160005  0.260284  1
  O  O44  1  0.787393  0.660005  0.739716  1
  O  O45  1  0.833917  0.482723  0.907836  1
  O  O46  1  0.834768  0.435038  0.656018  1
  O  O47  1  0.847695  0.114274  0.744270  1
  O  O48  1  0.852153  0.868398  0.956203  1
  O  O49  1  0.843362  0.528544  0.417365  1
  O  O50  1  0.849202  0.874023  0.525882  1
  O  O51  1  0.851144  0.474853  0.167211  1
  O  O52  1  0.893455  0.984249  0.230754  1
  O  O53  1  0.903108  0.293958  0.465501  1
  O  O54  1  0.895779  0.277734  0.030880  1
  O  O55  1  0.899900  0.701631  0.248412  1
  P  P56  1  0.199989  0.610006  0.963087  1
  P  P57  1  0.196610  0.407591  0.732065  1
  P  P58  1  0.198126  0.602194  0.503819  1
  P  P59  1  0.245272  0.478243  0.233608  1
  P  P60  1  0.254728  0.978243  0.766392  1
  P  P61  1  0.301874  0.102194  0.496181  1
  P  P62  1  0.303390  0.907591  0.267935  1
  P  P63  1  0.300011  0.110006  0.036913  1
  P  P64  1  0.699989  0.889994  0.963087  1
  P  P65  1  0.696610  0.092409  0.732065  1
  P  P66  1  0.698126  0.897806  0.503819  1
  P  P67  1  0.745272  0.021757  0.233608  1
  P  P68  1  0.754728  0.521757  0.766392  1
  P  P69  1  0.801874  0.397806  0.496181  1
  P  P70  1  0.803390  0.592409  0.267935  1
  P  P71  1  0.800011  0.389994  0.036913  1
  Sn  Sn72  1  0.024546  0.201753  0.253070  1
  Sn  Sn73  1  0.475454  0.701753  0.746930  1
  Sn  Sn74  1  0.524546  0.298247  0.253070  1
  Sn  Sn75  1  0.975454  0.798247  0.746930  1
