# generated using pymatgen
data_Tl3FeCl5
_symmetry_space_group_name_H-M   'P 1'
_cell_length_a   8.49745666
_cell_length_b   8.49745666
_cell_length_c   9.61482760
_cell_angle_alpha   116.22474125
_cell_angle_beta   116.22474126
_cell_angle_gamma   90.00000558
_symmetry_Int_Tables_number   1
_chemical_formula_structural   Tl3FeCl5
_chemical_formula_sum   'Tl6 Fe2 Cl10'
_cell_volume   541.99122273
_cell_formula_units_Z   2
loop_
 _symmetry_equiv_pos_site_id
 _symmetry_equiv_pos_as_xyz
  1  'x, y, z'
loop_
 _atom_site_type_symbol
 _atom_site_label
 _atom_site_symmetry_multiplicity
 _atom_site_fract_x
 _atom_site_fract_y
 _atom_site_fract_z
 _atom_site_occupancy
  Tl  Tl0  1  0.163445  0.336555  0.000000  1
  Tl  Tl1  1  0.836555  0.663445  1.000000  1
  Tl  Tl2  1  0.663445  0.163445  0.000000  1
  Tl  Tl3  1  0.750000  0.750000  0.500000  1
  Tl  Tl4  1  0.336555  0.836555  1.000000  1
  Tl  Tl5  1  0.250000  0.250000  0.500000  1
  Fe  Fe6  1  0.750000  0.250000  0.500000  1
  Fe  Fe7  1  0.250000  0.750000  0.500000  1
  Cl  Cl8  1  0.304213  0.804213  0.309826  1
  Cl  Cl9  1  0.500000  0.500000  0.000000  1
  Cl  Cl10  1  0.994387  0.494387  0.690174  1
  Cl  Cl11  1  0.505613  0.304213  0.309826  1
  Cl  Cl12  1  0.195787  0.994387  0.690174  1
  Cl  Cl13  1  0.005613  0.505613  0.309826  1
  Cl  Cl14  1  0.494387  0.695787  0.690174  1
  Cl  Cl15  1  0.804213  0.005613  0.309826  1
  Cl  Cl16  1  0.695787  0.195787  0.690174  1
  Cl  Cl17  1  0.000000  0.000000  0.000000  1
