# generated using pymatgen
data_NbBi4ClO8
_symmetry_space_group_name_H-M   'P 1'
_cell_length_a   5.54751110
_cell_length_b   5.61502607
_cell_length_c   29.43253598
_cell_angle_alpha   90.00000000
_cell_angle_beta   90.00000000
_cell_angle_gamma   90.00000000
_symmetry_Int_Tables_number   1
_chemical_formula_structural   NbBi4ClO8
_chemical_formula_sum   'Nb4 Bi16 Cl4 O32'
_cell_volume   916.80640872
_cell_formula_units_Z   4
loop_
 _symmetry_equiv_pos_site_id
 _symmetry_equiv_pos_as_xyz
  1  'x, y, z'
loop_
 _atom_site_type_symbol
 _atom_site_label
 _atom_site_symmetry_multiplicity
 _atom_site_fract_x
 _atom_site_fract_y
 _atom_site_fract_z
 _atom_site_occupancy
  O  O0  1  0.713479  0.555231  0.232596  1
  O  O1  1  0.213478  0.444768  0.767404  1
  O  O2  1  0.713479  0.944768  0.732596  1
  O  O3  1  0.213478  0.055231  0.267404  1
  O  O4  1  0.216437  0.554746  0.267466  1
  O  O5  1  0.716436  0.445256  0.732534  1
  O  O6  1  0.216437  0.945256  0.767467  1
  O  O7  1  0.716436  0.054746  0.232534  1
  O  O8  1  0.856646  0.831374  0.314461  1
  O  O9  1  0.356647  0.168626  0.685539  1
  O  O10  1  0.856646  0.668626  0.814461  1
  O  O11  1  0.356647  0.331374  0.185539  1
  O  O12  1  0.074714  0.830989  0.185534  1
  O  O13  1  0.574713  0.169011  0.814467  1
  O  O14  1  0.074714  0.669011  0.685534  1
  O  O15  1  0.574713  0.330989  0.314467  1
  O  O16  1  0.215099  0.502841  0.104965  1
  O  O17  1  0.715100  0.497161  0.895035  1
  O  O18  1  0.215099  0.997160  0.604965  1
  O  O19  1  0.715100  0.002841  0.395035  1
  O  O20  1  0.711767  0.493457  0.106367  1
  O  O21  1  0.211768  0.506542  0.893633  1
  O  O22  1  0.711767  0.006543  0.606367  1
  O  O23  1  0.211768  0.993459  0.393633  1
  O  O24  1  0.220731  0.493489  0.393698  1
  O  O25  1  0.720730  0.506510  0.606302  1
  O  O26  1  0.220731  0.006510  0.893698  1
  O  O27  1  0.720730  0.993489  0.106302  1
  O  O28  1  0.217421  0.002933  0.104978  1
  O  O29  1  0.217421  0.497067  0.604978  1
  O  O30  1  0.717422  0.997067  0.895022  1
  O  O31  1  0.717422  0.502932  0.395022  1
  Cl  Cl32  1  0.967544  0.249361  0.500011  1
  Cl  Cl33  1  0.467543  0.750639  0.499990  1
  Cl  Cl34  1  0.967544  0.250639  0.000010  1
  Cl  Cl35  1  0.467543  0.749360  0.999990  1
  Nb  Nb36  1  0.465391  0.229755  0.750002  1
  Nb  Nb37  1  0.965392  0.729755  0.749998  1
  Nb  Nb38  1  0.465391  0.270244  0.250002  1
  Nb  Nb39  1  0.965392  0.770244  0.249998  1
  Bi  Bi40  1  0.444414  0.699557  0.156627  1
  Bi  Bi41  1  0.944415  0.300443  0.843373  1
  Bi  Bi42  1  0.444414  0.800443  0.656627  1
  Bi  Bi43  1  0.944415  0.199557  0.343373  1
  Bi  Bi44  1  0.956607  0.741560  0.068429  1
  Bi  Bi45  1  0.975700  0.758228  0.931575  1
  Bi  Bi46  1  0.475699  0.258226  0.568425  1
  Bi  Bi47  1  0.975700  0.741774  0.431575  1
  Bi  Bi48  1  0.487499  0.699569  0.343493  1
  Bi  Bi49  1  0.987498  0.300431  0.656507  1
  Bi  Bi50  1  0.487499  0.800430  0.843493  1
  Bi  Bi51  1  0.987498  0.199569  0.156507  1
  Bi  Bi52  1  0.456608  0.258440  0.931571  1
  Bi  Bi53  1  0.956607  0.758440  0.568429  1
  Bi  Bi54  1  0.456608  0.241560  0.431571  1
  Bi  Bi55  1  0.475699  0.241774  0.068425  1
