# generated using pymatgen
data_Rb2CrCl4
_symmetry_space_group_name_H-M   'P 1'
_cell_length_a   5.01682526
_cell_length_b   5.01682526
_cell_length_c   8.25915776
_cell_angle_alpha   107.68074463
_cell_angle_beta   107.68074468
_cell_angle_gamma   90.00000003
_symmetry_Int_Tables_number   1
_chemical_formula_structural   Rb2CrCl4
_chemical_formula_sum   'Rb2 Cr1 Cl4'
_cell_volume   187.71985576
_cell_formula_units_Z   1
loop_
 _symmetry_equiv_pos_site_id
 _symmetry_equiv_pos_as_xyz
  1  'x, y, z'
loop_
 _atom_site_type_symbol
 _atom_site_label
 _atom_site_symmetry_multiplicity
 _atom_site_fract_x
 _atom_site_fract_y
 _atom_site_fract_z
 _atom_site_occupancy
  Cl  Cl0  1  0.895383  0.395383  0.790766  1
  Cl  Cl1  1  0.395383  0.895383  0.790766  1
  Cl  Cl2  1  0.104617  0.604617  0.209234  1
  Cl  Cl3  1  0.604617  0.104617  0.209234  1
  Cr  Cr4  1  0.000000  0.000000  0.000000  1
  Rb  Rb5  1  0.731770  0.731770  0.463541  1
  Rb  Rb6  1  0.268230  0.268230  0.536459  1
