# generated using pymatgen
data_Gd3Ga5O12
_symmetry_space_group_name_H-M   'P 1'
_cell_length_a   10.83692715
_cell_length_b   10.83692715
_cell_length_c   10.83692715
_cell_angle_alpha   109.47122064
_cell_angle_beta   109.47122063
_cell_angle_gamma   109.47122064
_symmetry_Int_Tables_number   1
_chemical_formula_structural   Gd3Ga5O12
_chemical_formula_sum   'Gd12 Ga20 O48'
_cell_volume   979.70781104
_cell_formula_units_Z   4
loop_
 _symmetry_equiv_pos_site_id
 _symmetry_equiv_pos_as_xyz
  1  'x, y, z'
loop_
 _atom_site_type_symbol
 _atom_site_label
 _atom_site_symmetry_multiplicity
 _atom_site_fract_x
 _atom_site_fract_y
 _atom_site_fract_z
 _atom_site_occupancy
  O  O0  1  0.295933  0.473711  0.378106  1
  O  O1  1  0.026289  0.322222  0.904396  1
  O  O2  1  0.121894  0.595604  0.917826  1
  O  O3  1  0.204067  0.582174  0.177778  1
  O  O4  1  0.204067  0.121894  0.026289  1
  O  O5  1  0.582174  0.177778  0.204067  1
  O  O6  1  0.595604  0.177778  0.473711  1
  O  O7  1  0.177778  0.204067  0.582174  1
  O  O8  1  0.904396  0.378106  0.582174  1
  O  O9  1  0.322222  0.917826  0.295933  1
  O  O10  1  0.917826  0.295933  0.322222  1
  O  O11  1  0.026289  0.204067  0.121894  1
  O  O12  1  0.177778  0.473711  0.595604  1
  O  O13  1  0.582174  0.904396  0.378106  1
  O  O14  1  0.121894  0.026289  0.204067  1
  O  O15  1  0.473711  0.595604  0.177778  1
  O  O16  1  0.378106  0.582174  0.904396  1
  O  O17  1  0.904396  0.026289  0.322222  1
  O  O18  1  0.595604  0.917826  0.121894  1
  O  O19  1  0.095604  0.621894  0.417826  1
  O  O20  1  0.917826  0.121894  0.595604  1
  O  O21  1  0.378106  0.295933  0.473711  1
  O  O22  1  0.322222  0.904396  0.026289  1
  O  O23  1  0.295933  0.322222  0.917826  1
  O  O24  1  0.704067  0.526289  0.621894  1
  O  O25  1  0.973711  0.677778  0.095604  1
  O  O26  1  0.878106  0.404396  0.082174  1
  O  O27  1  0.795933  0.417826  0.822222  1
  O  O28  1  0.795933  0.878106  0.973711  1
  O  O29  1  0.417826  0.822222  0.795933  1
  O  O30  1  0.404396  0.822222  0.526289  1
  O  O31  1  0.822222  0.795933  0.417826  1
  O  O32  1  0.704067  0.677778  0.082174  1
  O  O33  1  0.677778  0.095604  0.973711  1
  O  O34  1  0.621894  0.704067  0.526289  1
  O  O35  1  0.526289  0.621894  0.704067  1
  O  O36  1  0.082174  0.878106  0.404396  1
  O  O37  1  0.404396  0.082174  0.878106  1
  O  O38  1  0.095604  0.973711  0.677778  1
  O  O39  1  0.621894  0.417826  0.095604  1
  O  O40  1  0.526289  0.404396  0.822222  1
  O  O41  1  0.878106  0.973711  0.795933  1
  O  O42  1  0.417826  0.095604  0.621894  1
  O  O43  1  0.822222  0.526289  0.404396  1
  O  O44  1  0.973711  0.795933  0.878106  1
  O  O45  1  0.082174  0.704067  0.677778  1
  O  O46  1  0.677778  0.082174  0.704067  1
  O  O47  1  0.473711  0.378106  0.295933  1
  Ga  Ga48  1  0.250000  0.125000  0.875000  1
  Ga  Ga49  1  0.750000  0.875000  0.125000  1
  Ga  Ga50  1  0.375000  0.250000  0.625000  1
  Ga  Ga51  1  0.625000  0.375000  0.250000  1
  Ga  Ga52  1  0.125000  0.750000  0.875000  1
  Ga  Ga53  1  0.875000  0.125000  0.750000  1
  Ga  Ga54  1  0.750000  0.375000  0.625000  1
  Ga  Ga55  1  0.375000  0.625000  0.750000  1
  Ga  Ga56  1  0.125000  0.875000  0.250000  1
  Ga  Ga57  1  0.875000  0.250000  0.125000  1
  Ga  Ga58  1  0.625000  0.750000  0.375000  1
  Ga  Ga59  1  0.250000  0.625000  0.375000  1
  Ga  Ga60  1  0.500000  0.500000  0.500000  1
  Ga  Ga61  1  0.500000  0.500000  0.000000  1
  Ga  Ga62  1  0.500000  0.000000  0.500000  1
  Ga  Ga63  1  0.000000  0.500000  0.500000  1
  Ga  Ga64  1  0.500000  0.000000  0.000000  1
  Ga  Ga65  1  0.000000  0.000000  0.500000  1
  Ga  Ga66  1  0.000000  0.500000  0.000000  1
  Ga  Ga67  1  0.000000  0.000000  0.000000  1
  Gd  Gd68  1  0.250000  0.875000  0.625000  1
  Gd  Gd69  1  0.875000  0.625000  0.250000  1
  Gd  Gd70  1  0.625000  0.875000  0.750000  1
  Gd  Gd71  1  0.875000  0.750000  0.625000  1
  Gd  Gd72  1  0.625000  0.250000  0.875000  1
  Gd  Gd73  1  0.750000  0.625000  0.875000  1
  Gd  Gd74  1  0.750000  0.125000  0.375000  1
  Gd  Gd75  1  0.125000  0.375000  0.750000  1
  Gd  Gd76  1  0.375000  0.125000  0.250000  1
  Gd  Gd77  1  0.125000  0.250000  0.375000  1
  Gd  Gd78  1  0.375000  0.750000  0.125000  1
  Gd  Gd79  1  0.250000  0.375000  0.125000  1
