# generated using pymatgen
data_TlV5S8
_symmetry_space_group_name_H-M   'P 1'
_cell_length_a   3.26209404
_cell_length_b   8.55172468
_cell_length_c   8.93709224
_cell_angle_alpha   104.45289945
_cell_angle_beta   100.51559226
_cell_angle_gamma   89.99999997
_symmetry_Int_Tables_number   1
_chemical_formula_structural   TlV5S8
_chemical_formula_sum   'Tl1 V5 S8'
_cell_volume   237.09740798
_cell_formula_units_Z   1
loop_
 _symmetry_equiv_pos_site_id
 _symmetry_equiv_pos_as_xyz
  1  'x, y, z'
loop_
 _atom_site_type_symbol
 _atom_site_label
 _atom_site_symmetry_multiplicity
 _atom_site_fract_x
 _atom_site_fract_y
 _atom_site_fract_z
 _atom_site_occupancy
  S  S0  1  0.962661  0.320626  0.851478  1
  S  S1  1  0.111184  0.679374  0.148522  1
  S  S2  1  0.621085  0.320036  0.169782  1
  S  S3  1  0.451303  0.679964  0.830218  1
  S  S4  1  0.295666  0.339961  0.517778  1
  S  S5  1  0.777888  0.660039  0.482222  1
  S  S6  1  0.375916  0.999815  0.678518  1
  S  S7  1  0.697398  0.000185  0.321482  1
  V  V8  1  0.184648  0.496823  0.296444  1
  V  V9  1  0.888204  0.503177  0.703556  1
  V  V10  1  0.536738  0.500000  0.000000  1
  V  V11  1  0.825990  0.141395  0.578202  1
  V  V12  1  0.247788  0.858605  0.421798  1
  Tl  Tl13  1  0.014531  0.000000  0.000000  1
