# generated using pymatgen
data_AlTl2F5
_symmetry_space_group_name_H-M   'P 1'
_cell_length_a   6.38691579
_cell_length_b   6.38691573
_cell_length_c   7.57031426
_cell_angle_alpha   90.00000000
_cell_angle_beta   90.00000000
_cell_angle_gamma   89.60927787
_symmetry_Int_Tables_number   1
_chemical_formula_structural   AlTl2F5
_chemical_formula_sum   'Al2 Tl4 F10'
_cell_volume   308.80632451
_cell_formula_units_Z   2
loop_
 _symmetry_equiv_pos_site_id
 _symmetry_equiv_pos_as_xyz
  1  'x, y, z'
loop_
 _atom_site_type_symbol
 _atom_site_label
 _atom_site_symmetry_multiplicity
 _atom_site_fract_x
 _atom_site_fract_y
 _atom_site_fract_z
 _atom_site_occupancy
  Al  Al0  1  0.000000  0.000000  0.500000  1
  Al  Al1  1  0.000000  0.000000  0.000000  1
  Tl  Tl2  1  0.489670  0.965747  0.750000  1
  Tl  Tl3  1  0.510330  0.034253  0.250000  1
  Tl  Tl4  1  0.965747  0.489670  0.750000  1
  Tl  Tl5  1  0.034253  0.510330  0.250000  1
  F  F6  1  0.799726  0.799726  0.488763  1
  F  F7  1  0.201872  0.798128  0.000000  1
  F  F8  1  0.990454  0.990454  0.750000  1
  F  F9  1  0.798128  0.201872  0.000000  1
  F  F10  1  0.798128  0.201872  0.500000  1
  F  F11  1  0.201872  0.798128  0.500000  1
  F  F12  1  0.200274  0.200274  0.511237  1
  F  F13  1  0.799726  0.799726  0.011237  1
  F  F14  1  0.200274  0.200274  0.988763  1
  F  F15  1  0.009546  0.009546  0.250000  1
