# generated using pymatgen
data_NbNiP2
_symmetry_space_group_name_H-M   'P 1'
_cell_length_a   3.35780282
_cell_length_b   5.41323752
_cell_length_c   12.20697661
_cell_angle_alpha   90.00000000
_cell_angle_beta   90.00000000
_cell_angle_gamma   90.00000000
_symmetry_Int_Tables_number   1
_chemical_formula_structural   NbNiP2
_chemical_formula_sum   'Nb4 Ni4 P8'
_cell_volume   221.88113830
_cell_formula_units_Z   4
loop_
 _symmetry_equiv_pos_site_id
 _symmetry_equiv_pos_as_xyz
  1  'x, y, z'
loop_
 _atom_site_type_symbol
 _atom_site_label
 _atom_site_symmetry_multiplicity
 _atom_site_fract_x
 _atom_site_fract_y
 _atom_site_fract_z
 _atom_site_occupancy
  P  P0  1  0.250000  0.691788  0.536069  1
  P  P1  1  0.750000  0.308212  0.463931  1
  P  P2  1  0.250000  0.191788  0.963931  1
  P  P3  1  0.750000  0.808212  0.036069  1
  P  P4  1  0.250000  0.636154  0.809817  1
  P  P5  1  0.750000  0.863846  0.309817  1
  P  P6  1  0.250000  0.136154  0.690183  1
  P  P7  1  0.750000  0.363846  0.190183  1
  Ni  Ni8  1  0.250000  0.519185  0.085042  1
  Ni  Ni9  1  0.250000  0.019185  0.414958  1
  Ni  Ni10  1  0.750000  0.480815  0.914958  1
  Ni  Ni11  1  0.750000  0.980815  0.585042  1
  Nb  Nb12  1  0.750000  0.984106  0.829692  1
  Nb  Nb13  1  0.250000  0.015894  0.170308  1
  Nb  Nb14  1  0.750000  0.484106  0.670308  1
  Nb  Nb15  1  0.250000  0.515894  0.329692  1
