# generated using pymatgen
data_Sr2LuBiO6
_symmetry_space_group_name_H-M   'P 1'
_cell_length_a   5.90670763
_cell_length_b   6.00731833
_cell_length_c   8.40829378
_cell_angle_alpha   90.00000000
_cell_angle_beta   89.90470536
_cell_angle_gamma   90.00000000
_symmetry_Int_Tables_number   1
_chemical_formula_structural   Sr2LuBiO6
_chemical_formula_sum   'Sr4 Lu2 Bi2 O12'
_cell_volume   298.35505285
_cell_formula_units_Z   2
loop_
 _symmetry_equiv_pos_site_id
 _symmetry_equiv_pos_as_xyz
  1  'x, y, z'
loop_
 _atom_site_type_symbol
 _atom_site_label
 _atom_site_symmetry_multiplicity
 _atom_site_fract_x
 _atom_site_fract_y
 _atom_site_fract_z
 _atom_site_occupancy
  O  O0  1  0.789367  0.705540  0.454281  1
  O  O1  1  0.710633  0.205540  0.045719  1
  O  O2  1  0.210633  0.294460  0.545719  1
  O  O3  1  0.289367  0.794460  0.954281  1
  O  O4  1  0.702890  0.211129  0.453623  1
  O  O5  1  0.797110  0.711129  0.046377  1
  O  O6  1  0.297110  0.788871  0.546377  1
  O  O7  1  0.202890  0.288871  0.953623  1
  O  O8  1  0.086802  0.028691  0.246548  1
  O  O9  1  0.413198  0.528691  0.253452  1
  O  O10  1  0.913198  0.971309  0.753452  1
  O  O11  1  0.586802  0.471309  0.746548  1
  Sr  Sr12  1  0.990355  0.459107  0.249757  1
  Sr  Sr13  1  0.509645  0.959107  0.250243  1
  Sr  Sr14  1  0.490355  0.040893  0.749757  1
  Sr  Sr15  1  0.009645  0.540893  0.750243  1
  Lu  Lu16  1  0.500000  0.500000  0.000000  1
  Lu  Lu17  1  0.000000  0.000000  0.500000  1
  Bi  Bi18  1  0.000000  0.000000  0.000000  1
  Bi  Bi19  1  0.500000  0.500000  0.500000  1
