# generated using pymatgen
data_K2MgH8(SO6)2
_symmetry_space_group_name_H-M   'P 1'
_cell_length_a   9.62058372
_cell_length_b   10.01633189
_cell_length_c   11.85834129
_cell_angle_alpha   95.60590968
_cell_angle_beta   90.00000000
_cell_angle_gamma   90.00000000
_symmetry_Int_Tables_number   1
_chemical_formula_structural   K2MgH8(SO6)2
_chemical_formula_sum   'K8 Mg4 H32 S8 O48'
_cell_volume   1137.23968078
_cell_formula_units_Z   4
loop_
 _symmetry_equiv_pos_site_id
 _symmetry_equiv_pos_as_xyz
  1  'x, y, z'
loop_
 _atom_site_type_symbol
 _atom_site_label
 _atom_site_symmetry_multiplicity
 _atom_site_fract_x
 _atom_site_fract_y
 _atom_site_fract_z
 _atom_site_occupancy
  H  H0  1  0.513849  0.726205  0.445708  1
  H  H1  1  0.013849  0.273795  0.054292  1
  H  H2  1  0.486151  0.273795  0.554292  1
  H  H3  1  0.986151  0.726205  0.945708  1
  H  H4  1  0.481008  0.735611  0.575589  1
  H  H5  1  0.981008  0.264389  0.924411  1
  H  H6  1  0.518992  0.264389  0.424411  1
  H  H7  1  0.018992  0.735611  0.075589  1
  H  H8  1  0.220594  0.953571  0.553550  1
  H  H9  1  0.720594  0.046429  0.946450  1
  H  H10  1  0.779406  0.046429  0.446450  1
  H  H11  1  0.279406  0.953571  0.053550  1
  H  H12  1  0.221353  0.033839  0.441480  1
  H  H13  1  0.721353  0.966161  0.058520  1
  H  H14  1  0.778647  0.966161  0.558520  1
  H  H15  1  0.278647  0.033839  0.941480  1
  H  H16  1  0.135096  0.728850  0.589472  1
  H  H17  1  0.635096  0.271150  0.910528  1
  H  H18  1  0.864904  0.271150  0.410528  1
  H  H19  1  0.364904  0.728850  0.089472  1
  H  H20  1  0.754368  0.389113  0.420033  1
  H  H21  1  0.254368  0.610887  0.079967  1
  H  H22  1  0.136441  0.272368  0.419293  1
  H  H23  1  0.636441  0.727632  0.080707  1
  H  H24  1  0.863559  0.727632  0.580707  1
  H  H25  1  0.363559  0.272368  0.919293  1
  H  H26  1  0.236450  0.396733  0.420219  1
  H  H27  1  0.736450  0.603267  0.079781  1
  H  H28  1  0.763550  0.603267  0.579781  1
  H  H29  1  0.263550  0.396733  0.920219  1
  H  H30  1  0.245632  0.610887  0.579967  1
  H  H31  1  0.745632  0.389113  0.920033  1
  O  O32  1  0.846453  0.547374  0.178000  1
  O  O33  1  0.346453  0.452626  0.322000  1
  O  O34  1  0.153547  0.452626  0.822000  1
  O  O35  1  0.653547  0.547374  0.678000  1
  O  O36  1  0.011078  0.058120  0.171883  1
  O  O37  1  0.511078  0.941880  0.328117  1
  O  O38  1  0.988922  0.941880  0.828117  1
  O  O39  1  0.488922  0.058120  0.671883  1
  O  O40  1  0.505739  0.095293  0.179664  1
  O  O41  1  0.005739  0.904707  0.320336  1
  O  O42  1  0.494261  0.904707  0.820336  1
  O  O43  1  0.994261  0.095293  0.679664  1
  O  O44  1  0.511644  0.438281  0.166777  1
  O  O45  1  0.011644  0.561719  0.333223  1
  O  O46  1  0.488356  0.561719  0.833223  1
  O  O47  1  0.988356  0.438281  0.666777  1
  O  O48  1  0.025329  0.376751  0.182476  1
  O  O49  1  0.525329  0.623249  0.317524  1
  O  O50  1  0.410426  0.606390  0.646638  1
  O  O51  1  0.474671  0.376751  0.682476  1
  O  O52  1  0.341250  0.359871  0.963376  1
  O  O53  1  0.841250  0.640129  0.536624  1
  O  O54  1  0.658750  0.640129  0.036624  1
  O  O55  1  0.158750  0.359871  0.463376  1
  O  O56  1  0.342050  0.640977  0.046184  1
  O  O57  1  0.842050  0.359023  0.453816  1
  O  O58  1  0.910426  0.393610  0.853362  1
  O  O59  1  0.157950  0.640977  0.546184  1
  O  O60  1  0.218926  0.987841  0.994700  1
  O  O61  1  0.718926  0.012159  0.505300  1
  O  O62  1  0.781074  0.012159  0.005300  1
  O  O63  1  0.281074  0.987841  0.494700  1
  O  O64  1  0.990212  0.791081  0.014543  1
  O  O65  1  0.490212  0.208919  0.485457  1
  O  O66  1  0.009788  0.208919  0.985457  1
  O  O67  1  0.509788  0.791081  0.514543  1
  O  O68  1  0.589574  0.393610  0.353362  1
  O  O69  1  0.089574  0.606390  0.146638  1
  O  O70  1  0.125309  0.885431  0.658045  1
  O  O71  1  0.625309  0.114569  0.841955  1
  O  O72  1  0.874691  0.114569  0.341955  1
  O  O73  1  0.374691  0.885431  0.158045  1
  O  O74  1  0.129433  0.117603  0.349668  1
  O  O75  1  0.629432  0.882397  0.150332  1
  O  O76  1  0.870568  0.882397  0.650331  1
  O  O77  1  0.370567  0.117603  0.849669  1
  O  O78  1  0.657950  0.359023  0.953816  1
  O  O79  1  0.974671  0.623249  0.817524  1
  Mg  Mg80  1  0.500000  0.000000  0.500000  1
  Mg  Mg81  1  0.000000  0.000000  0.000000  1
  Mg  Mg82  1  0.500000  0.500000  0.000000  1
  Mg  Mg83  1  0.000000  0.500000  0.500000  1
  S  S84  1  0.506835  0.521577  0.709169  1
  S  S85  1  0.494994  0.045814  0.795658  1
  S  S86  1  0.005006  0.045814  0.295658  1
  S  S87  1  0.505006  0.954186  0.204342  1
  S  S88  1  0.993165  0.521577  0.209169  1
  S  S89  1  0.493165  0.478423  0.290831  1
  S  S90  1  0.994994  0.954186  0.704342  1
  S  S91  1  0.006835  0.478423  0.790831  1
  K  K92  1  0.758207  0.259112  0.666853  1
  K  K93  1  0.258207  0.740888  0.833147  1
  K  K94  1  0.241793  0.740888  0.333147  1
  K  K95  1  0.741793  0.259112  0.166853  1
  K  K96  1  0.230936  0.239565  0.665979  1
  K  K97  1  0.730936  0.760435  0.834021  1
  K  K98  1  0.769064  0.760435  0.334021  1
  K  K99  1  0.269064  0.239565  0.165979  1
