# generated using pymatgen
data_Na2AsH15O11
_symmetry_space_group_name_H-M   'P 1'
_cell_length_a   9.49085903
_cell_length_b   10.66241584
_cell_length_c   11.02677808
_cell_angle_alpha   90.00000000
_cell_angle_beta   90.00000000
_cell_angle_gamma   95.71282428
_symmetry_Int_Tables_number   1
_chemical_formula_structural   Na2AsH15O11
_chemical_formula_sum   'Na8 As4 H60 O44'
_cell_volume   1110.31803582
_cell_formula_units_Z   4
loop_
 _symmetry_equiv_pos_site_id
 _symmetry_equiv_pos_as_xyz
  1  'x, y, z'
loop_
 _atom_site_type_symbol
 _atom_site_label
 _atom_site_symmetry_multiplicity
 _atom_site_fract_x
 _atom_site_fract_y
 _atom_site_fract_z
 _atom_site_occupancy
  H  H0  1  0.956707  0.369477  0.445271  1
  H  H1  1  0.543293  0.130523  0.945271  1
  H  H2  1  0.043293  0.630523  0.554729  1
  H  H3  1  0.456707  0.869477  0.054729  1
  H  H4  1  0.352144  0.352118  0.112022  1
  H  H5  1  0.147856  0.147882  0.612022  1
  H  H6  1  0.647856  0.647882  0.887978  1
  H  H7  1  0.852144  0.852118  0.387978  1
  H  H8  1  0.412184  0.280888  0.998920  1
  H  H9  1  0.087816  0.219112  0.498920  1
  H  H10  1  0.587816  0.719112  0.001080  1
  H  H11  1  0.912184  0.780888  0.501080  1
  H  H12  1  0.294141  0.186993  0.252431  1
  H  H13  1  0.205859  0.313007  0.752431  1
  H  H14  1  0.705859  0.813007  0.747569  1
  H  H15  1  0.794141  0.686993  0.247569  1
  H  H16  1  0.408380  0.087653  0.252451  1
  H  H17  1  0.091620  0.412347  0.752451  1
  H  H18  1  0.591620  0.912347  0.747549  1
  H  H19  1  0.908380  0.587653  0.247549  1
  H  H20  1  0.063024  0.218178  0.028032  1
  H  H21  1  0.436976  0.281822  0.528032  1
  H  H22  1  0.936976  0.781822  0.971968  1
  H  H23  1  0.563024  0.718178  0.471968  1
  H  H24  1  0.135385  0.167936  0.908270  1
  H  H25  1  0.364615  0.332064  0.408270  1
  H  H26  1  0.864614  0.832064  0.091730  1
  H  H27  1  0.635386  0.667936  0.591730  1
  H  H28  1  0.392036  0.500409  0.258140  1
  H  H29  1  0.107964  0.999591  0.758140  1
  H  H30  1  0.607964  0.499591  0.741860  1
  H  H31  1  0.892036  0.000409  0.241860  1
  H  H32  1  0.466022  0.641505  0.276979  1
  H  H33  1  0.033978  0.858495  0.776979  1
  H  H34  1  0.533978  0.358495  0.723021  1
  H  H35  1  0.966022  0.141505  0.223021  1
  H  H36  1  0.146938  0.595344  0.088260  1
  H  H37  1  0.353062  0.904656  0.588260  1
  H  H38  1  0.853062  0.404656  0.911740  1
  H  H39  1  0.646938  0.095344  0.411740  1
  H  H40  1  0.106604  0.628859  0.950768  1
  H  H41  1  0.393396  0.871141  0.450768  1
  H  H42  1  0.893396  0.371141  0.049232  1
  H  H43  1  0.606604  0.128859  0.549232  1
  H  H44  1  0.234056  0.724829  0.491592  1
  H  H45  1  0.265944  0.775171  0.991592  1
  H  H46  1  0.765944  0.275171  0.508408  1
  H  H47  1  0.734056  0.224829  0.008408  1
  H  H48  1  0.164686  0.615429  0.402623  1
  H  H49  1  0.335314  0.884571  0.902623  1
  H  H50  1  0.835314  0.384571  0.597377  1
  H  H51  1  0.664686  0.115429  0.097377  1
  H  H52  1  0.298402  0.812231  0.269304  1
  H  H53  1  0.201598  0.687769  0.769304  1
  H  H54  1  0.701598  0.187769  0.730696  1
  H  H55  1  0.798402  0.312231  0.230696  1
  H  H56  1  0.156773  0.728535  0.243685  1
  H  H57  1  0.343227  0.771465  0.743685  1
  H  H58  1  0.843227  0.271465  0.756315  1
  H  H59  1  0.656773  0.228535  0.256315  1
  O  O60  1  0.696796  0.316818  0.249241  1
  O  O61  1  0.803204  0.183182  0.749241  1
  O  O62  1  0.303204  0.683182  0.750759  1
  O  O63  1  0.196796  0.816818  0.250759  1
  O  O64  1  0.693188  0.134721  0.012399  1
  O  O65  1  0.806812  0.365279  0.512399  1
  O  O66  1  0.306812  0.865279  0.987601  1
  O  O67  1  0.193188  0.634721  0.487601  1
  O  O68  1  0.686516  0.119528  0.492695  1
  O  O69  1  0.813484  0.380472  0.992695  1
  O  O70  1  0.313484  0.880472  0.507305  1
  O  O71  1  0.186516  0.619528  0.007305  1
  O  O72  1  0.982273  0.309231  0.174782  1
  O  O73  1  0.517727  0.190769  0.674782  1
  O  O74  1  0.017727  0.690769  0.825218  1
  O  O75  1  0.482273  0.809231  0.325218  1
  O  O76  1  0.095026  0.555330  0.247321  1
  O  O77  1  0.404974  0.944670  0.747321  1
  O  O78  1  0.904974  0.444670  0.752679  1
  O  O79  1  0.595026  0.055330  0.252679  1
  O  O80  1  0.269883  0.353444  0.256031  1
  O  O81  1  0.230117  0.146556  0.756031  1
  O  O82  1  0.730117  0.646556  0.743969  1
  O  O83  1  0.769883  0.853444  0.243969  1
  O  O84  1  0.058937  0.360061  0.420464  1
  O  O85  1  0.441063  0.139939  0.920464  1
  O  O86  1  0.941063  0.639939  0.579536  1
  O  O87  1  0.558937  0.860061  0.079536  1
  O  O88  1  0.411040  0.364293  0.037799  1
  O  O89  1  0.088960  0.135707  0.537799  1
  O  O90  1  0.588960  0.635707  0.962201  1
  O  O91  1  0.911040  0.864293  0.462201  1
  O  O92  1  0.305164  0.095549  0.252354  1
  O  O93  1  0.194836  0.404451  0.752354  1
  O  O94  1  0.694836  0.904451  0.747646  1
  O  O95  1  0.805164  0.595549  0.247646  1
  O  O96  1  0.070468  0.144273  0.976253  1
  O  O97  1  0.429532  0.355727  0.476253  1
  O  O98  1  0.929532  0.855727  0.023747  1
  O  O99  1  0.570468  0.644273  0.523747  1
  O  O100  1  0.482661  0.554526  0.254443  1
  O  O101  1  0.017339  0.945474  0.754443  1
  O  O102  1  0.517339  0.445474  0.745557  1
  O  O103  1  0.982661  0.054526  0.245557  1
  Na  Na104  1  0.647263  0.478349  0.396886  1
  Na  Na105  1  0.852737  0.021651  0.896886  1
  Na  Na106  1  0.352737  0.521651  0.603114  1
  Na  Na107  1  0.147263  0.978349  0.103114  1
  Na  Na108  1  0.635069  0.479285  0.103719  1
  Na  Na109  1  0.864931  0.020715  0.603719  1
  Na  Na110  1  0.364931  0.520715  0.896281  1
  Na  Na111  1  0.135069  0.979285  0.396281  1
  As  As112  1  0.601182  0.896026  0.233478  1
  As  As113  1  0.898818  0.603974  0.733478  1
  As  As114  1  0.398818  0.103974  0.766522  1
  As  As115  1  0.101182  0.396026  0.266522  1
