# generated using pymatgen
data_B9H8S
_symmetry_space_group_name_H-M   'P 1'
_cell_length_a   6.79692038
_cell_length_b   9.93409926
_cell_length_c   12.46996917
_cell_angle_alpha   90.00000000
_cell_angle_beta   95.62666148
_cell_angle_gamma   90.00000000
_symmetry_Int_Tables_number   1
_chemical_formula_structural   B9H8S
_chemical_formula_sum   'B36 H32 S4'
_cell_volume   837.93150405
_cell_formula_units_Z   4
loop_
 _symmetry_equiv_pos_site_id
 _symmetry_equiv_pos_as_xyz
  1  'x, y, z'
loop_
 _atom_site_type_symbol
 _atom_site_label
 _atom_site_symmetry_multiplicity
 _atom_site_fract_x
 _atom_site_fract_y
 _atom_site_fract_z
 _atom_site_occupancy
  S  S0  1  0.609495  0.789038  0.578798  1
  S  S1  1  0.890505  0.289038  0.921202  1
  S  S2  1  0.390505  0.210962  0.421202  1
  S  S3  1  0.109495  0.710962  0.078798  1
  B  B4  1  0.536733  0.927033  0.472480  1
  B  B5  1  0.963267  0.427033  0.027520  1
  B  B6  1  0.463267  0.072967  0.527520  1
  B  B7  1  0.036733  0.572967  0.972480  1
  B  B8  1  0.796105  0.841195  0.479954  1
  B  B9  1  0.703895  0.341195  0.020046  1
  B  B10  1  0.203895  0.158805  0.520046  1
  B  B11  1  0.296105  0.658805  0.979954  1
  B  B12  1  0.675208  0.667481  0.466882  1
  B  B13  1  0.824792  0.167481  0.033118  1
  B  B14  1  0.324792  0.332519  0.533118  1
  B  B15  1  0.175208  0.832519  0.966882  1
  B  B16  1  0.418381  0.749122  0.458505  1
  B  B17  1  0.081619  0.249122  0.041495  1
  B  B18  1  0.581619  0.250878  0.541495  1
  B  B19  1  0.918381  0.750878  0.958505  1
  B  B20  1  0.685658  0.922554  0.361777  1
  B  B21  1  0.814342  0.422554  0.138223  1
  B  B22  1  0.314342  0.077446  0.638223  1
  B  B23  1  0.185658  0.577446  0.861777  1
  B  B24  1  0.778903  0.747686  0.358363  1
  B  B25  1  0.721097  0.247686  0.141637  1
  B  B26  1  0.221097  0.252314  0.641637  1
  B  B27  1  0.278903  0.752314  0.858363  1
  B  B28  1  0.522284  0.684908  0.344051  1
  B  B29  1  0.977716  0.184908  0.155949  1
  B  B30  1  0.477716  0.315092  0.655949  1
  B  B31  1  0.022284  0.815092  0.844051  1
  B  B32  1  0.429412  0.859577  0.347297  1
  B  B33  1  0.070588  0.359577  0.152703  1
  B  B34  1  0.570588  0.140423  0.652703  1
  B  B35  1  0.929412  0.640423  0.847297  1
  B  B36  1  0.601595  0.809640  0.264059  1
  B  B37  1  0.898405  0.309640  0.235941  1
  B  B38  1  0.398405  0.190360  0.735941  1
  B  B39  1  0.101595  0.690360  0.764059  1
  H  H40  1  0.948092  0.876074  0.527096  1
  H  H41  1  0.551908  0.376074  0.972904  1
  H  H42  1  0.051908  0.123926  0.472904  1
  H  H43  1  0.448092  0.623926  0.027096  1
  H  H44  1  0.731233  0.562363  0.504178  1
  H  H45  1  0.768767  0.062363  0.995822  1
  H  H46  1  0.268767  0.437637  0.495822  1
  H  H47  1  0.231233  0.937637  0.004178  1
  H  H48  1  0.267878  0.709222  0.488187  1
  H  H49  1  0.232122  0.209222  0.011813  1
  H  H50  1  0.732122  0.290778  0.511813  1
  H  H51  1  0.767878  0.790778  0.988187  1
  H  H52  1  0.243920  0.973781  0.664093  1
  H  H53  1  0.256080  0.473781  0.835907  1
  H  H54  1  0.756080  0.026219  0.335907  1
  H  H55  1  0.743920  0.526219  0.164093  1
  H  H56  1  0.929632  0.703033  0.331312  1
  H  H57  1  0.570368  0.203033  0.168688  1
  H  H58  1  0.070368  0.296967  0.668688  1
  H  H59  1  0.429632  0.796967  0.831312  1
  H  H60  1  0.450319  0.585281  0.302918  1
  H  H61  1  0.049681  0.085281  0.197082  1
  H  H62  1  0.549681  0.414719  0.697082  1
  H  H63  1  0.950319  0.914719  0.802918  1
  H  H64  1  0.277821  0.909370  0.309762  1
  H  H65  1  0.222179  0.409370  0.190238  1
  H  H66  1  0.722179  0.090630  0.690238  1
  H  H67  1  0.777821  0.590630  0.809762  1
  H  H68  1  0.599456  0.816473  0.168710  1
  H  H69  1  0.900544  0.316473  0.331290  1
  H  H70  1  0.400544  0.183527  0.831290  1
  H  H71  1  0.099456  0.683527  0.668710  1
