# generated using pymatgen
data_ZnBP2H4NO8
_symmetry_space_group_name_H-M   'P 1'
_cell_length_a   7.52078206
_cell_length_b   7.87831779
_cell_length_c   7.83192033
_cell_angle_alpha   60.63999003
_cell_angle_beta   64.69769900
_cell_angle_gamma   76.66195681
_symmetry_Int_Tables_number   1
_chemical_formula_structural   ZnBP2H4NO8
_chemical_formula_sum   'Zn2 B2 P4 H8 N2 O16'
_cell_volume   365.51361361
_cell_formula_units_Z   2
loop_
 _symmetry_equiv_pos_site_id
 _symmetry_equiv_pos_as_xyz
  1  'x, y, z'
loop_
 _atom_site_type_symbol
 _atom_site_label
 _atom_site_symmetry_multiplicity
 _atom_site_fract_x
 _atom_site_fract_y
 _atom_site_fract_z
 _atom_site_occupancy
  H  H0  1  0.609667  0.251571  0.518166  1
  H  H1  1  0.390333  0.748429  0.481834  1
  H  H2  1  0.143418  0.773319  0.563837  1
  H  H3  1  0.856582  0.226681  0.436163  1
  H  H4  1  0.268303  0.859024  0.642302  1
  H  H5  1  0.746650  0.381981  0.260286  1
  H  H6  1  0.731697  0.140976  0.357698  1
  H  H7  1  0.253350  0.618019  0.739714  1
  B  B8  1  0.303478  0.003333  0.915866  1
  B  B9  1  0.696522  0.996667  0.084134  1
  N  N10  1  0.264392  0.749699  0.606832  1
  N  N11  1  0.735608  0.250301  0.393168  1
  O  O12  1  0.842448  0.033510  0.872117  1
  O  O13  1  0.989694  0.662151  0.228405  1
  O  O14  1  0.730349  0.605891  0.985883  1
  O  O15  1  0.415469  0.179397  0.824481  1
  O  O16  1  0.584531  0.820603  0.175519  1
  O  O17  1  0.157552  0.966490  0.127883  1
  O  O18  1  0.010306  0.337849  0.771595  1
  O  O19  1  0.269651  0.394109  0.014117  1
  O  O20  1  0.057979  0.216300  0.501138  1
  O  O21  1  0.942021  0.783700  0.498862  1
  O  O22  1  0.212789  0.031922  0.768148  1
  O  O23  1  0.787211  0.968078  0.231852  1
  O  O24  1  0.393957  0.547950  0.279363  1
  O  O25  1  0.606043  0.452050  0.720637  1
  O  O26  1  0.447838  0.838487  0.915595  1
  O  O27  1  0.552162  0.161513  0.084405  1
  P  P28  1  0.459419  0.299218  0.913144  1
  P  P29  1  0.972167  0.833939  0.272426  1
  P  P30  1  0.027833  0.166061  0.727574  1
  P  P31  1  0.540581  0.700782  0.086856  1
  Zn  Zn32  1  0.194028  0.452055  0.252262  1
  Zn  Zn33  1  0.805972  0.547945  0.747738  1
