# generated using pymatgen
data_EuIn2Pd
_symmetry_space_group_name_H-M   'P 1'
_cell_length_a   4.57752975
_cell_length_b   5.78640616
_cell_length_c   7.93599534
_cell_angle_alpha   90.00000000
_cell_angle_beta   90.00000000
_cell_angle_gamma   113.29976214
_symmetry_Int_Tables_number   1
_chemical_formula_structural   EuIn2Pd
_chemical_formula_sum   'Eu2 In4 Pd2'
_cell_volume   193.06167860
_cell_formula_units_Z   2
loop_
 _symmetry_equiv_pos_site_id
 _symmetry_equiv_pos_as_xyz
  1  'x, y, z'
loop_
 _atom_site_type_symbol
 _atom_site_label
 _atom_site_symmetry_multiplicity
 _atom_site_fract_x
 _atom_site_fract_y
 _atom_site_fract_z
 _atom_site_occupancy
  Pd  Pd0  1  0.781916  0.563831  0.750000  1
  Pd  Pd1  1  0.218084  0.436169  0.250000  1
  In  In2  1  0.353461  0.706923  0.553088  1
  In  In3  1  0.646539  0.293077  0.446912  1
  In  In4  1  0.353461  0.706923  0.946912  1
  In  In5  1  0.646539  0.293077  0.053088  1
  Eu  Eu6  1  0.935532  0.871064  0.250000  1
  Eu  Eu7  1  0.064468  0.128936  0.750000  1
