# generated using pymatgen
data_Te4Pt3
_symmetry_space_group_name_H-M   'P 1'
_cell_length_a   5.39373282
_cell_length_b   6.92290606
_cell_length_c   7.01574101
_cell_angle_alpha   98.74926820
_cell_angle_beta   90.00000000
_cell_angle_gamma   112.92693649
_symmetry_Int_Tables_number   1
_chemical_formula_structural   Te4Pt3
_chemical_formula_sum   'Te4 Pt3'
_cell_volume   237.96151742
_cell_formula_units_Z   1
loop_
 _symmetry_equiv_pos_site_id
 _symmetry_equiv_pos_as_xyz
  1  'x, y, z'
loop_
 _atom_site_type_symbol
 _atom_site_label
 _atom_site_symmetry_multiplicity
 _atom_site_fract_x
 _atom_site_fract_y
 _atom_site_fract_z
 _atom_site_occupancy
  Te  Te0  1  0.559635  0.119269  0.680736  1
  Te  Te1  1  0.440365  0.880731  0.319264  1
  Te  Te2  1  0.796595  0.593190  0.983990  1
  Te  Te3  1  0.203405  0.406810  0.016010  1
  Pt  Pt4  1  0.930657  0.861313  0.335092  1
  Pt  Pt5  1  0.069343  0.138687  0.664908  1
  Pt  Pt6  1  0.000000  0.000000  0.000000  1
