# generated using pymatgen
data_Ag3SI
_symmetry_space_group_name_H-M   'P 1'
_cell_length_a   4.95231875
_cell_length_b   4.95231875
_cell_length_c   4.95231875
_cell_angle_alpha   90.03021077
_cell_angle_beta   90.03021077
_cell_angle_gamma   90.03021077
_symmetry_Int_Tables_number   1
_chemical_formula_structural   Ag3SI
_chemical_formula_sum   'Ag3 S1 I1'
_cell_volume   121.45785002
_cell_formula_units_Z   1
loop_
 _symmetry_equiv_pos_site_id
 _symmetry_equiv_pos_as_xyz
  1  'x, y, z'
loop_
 _atom_site_type_symbol
 _atom_site_label
 _atom_site_symmetry_multiplicity
 _atom_site_fract_x
 _atom_site_fract_y
 _atom_site_fract_z
 _atom_site_occupancy
  Ag  Ag0  1  0.383850  0.025425  0.526811  1
  Ag  Ag1  1  0.025425  0.526811  0.383850  1
  Ag  Ag2  1  0.526811  0.383850  0.025425  1
  S  S3  1  0.528905  0.528905  0.528905  1
  I  I4  1  0.999008  0.999008  0.999008  1
