# generated using pymatgen
data_CsV3(SeO6)2
_symmetry_space_group_name_H-M   'P 1'
_cell_length_a   7.19180411
_cell_length_b   7.19180410
_cell_length_c   12.29113497
_cell_angle_alpha   90.00000000
_cell_angle_beta   90.00000000
_cell_angle_gamma   119.99999997
_symmetry_Int_Tables_number   1
_chemical_formula_structural   CsV3(SeO6)2
_chemical_formula_sum   'Cs2 V6 Se4 O24'
_cell_volume   550.55196670
_cell_formula_units_Z   2
loop_
 _symmetry_equiv_pos_site_id
 _symmetry_equiv_pos_as_xyz
  1  'x, y, z'
loop_
 _atom_site_type_symbol
 _atom_site_label
 _atom_site_symmetry_multiplicity
 _atom_site_fract_x
 _atom_site_fract_y
 _atom_site_fract_z
 _atom_site_occupancy
  O  O0  1  0.249431  0.123404  0.323366  1
  O  O1  1  0.126027  0.249431  0.823366  1
  O  O2  1  0.123404  0.873973  0.823366  1
  O  O3  1  0.876596  0.126027  0.323366  1
  O  O4  1  0.873973  0.750569  0.323366  1
  O  O5  1  0.750569  0.876596  0.823366  1
  O  O6  1  0.457350  0.916407  0.270435  1
  O  O7  1  0.540943  0.457350  0.770435  1
  O  O8  1  0.916407  0.459057  0.770435  1
  O  O9  1  0.083593  0.540943  0.270435  1
  O  O10  1  0.459057  0.542650  0.270435  1
  O  O11  1  0.542650  0.083593  0.770435  1
  O  O12  1  0.798864  0.211733  0.950635  1
  O  O13  1  0.587131  0.798864  0.450635  1
  O  O14  1  0.211733  0.412869  0.450635  1
  O  O15  1  0.788267  0.587131  0.950635  1
  O  O16  1  0.412869  0.201136  0.950635  1
  O  O17  1  0.201136  0.788267  0.450635  1
  O  O18  1  0.878351  0.131648  0.642595  1
  O  O19  1  0.746703  0.878351  0.142595  1
  O  O20  1  0.131648  0.253297  0.142595  1
  O  O21  1  0.868352  0.746703  0.642595  1
  O  O22  1  0.253297  0.121649  0.642595  1
  O  O23  1  0.121649  0.868352  0.142595  1
  V  V24  1  0.873239  0.667161  0.794280  1
  V  V25  1  0.793923  0.126761  0.794280  1
  V  V26  1  0.667161  0.793923  0.294280  1
  V  V27  1  0.126761  0.332839  0.294280  1
  V  V28  1  0.332839  0.206077  0.794280  1
  V  V29  1  0.206077  0.873239  0.294280  1
  Se  Se30  1  0.000000  0.000000  0.582770  1
  Se  Se31  1  0.666667  0.333333  0.008808  1
  Se  Se32  1  0.333333  0.666667  0.508808  1
  Se  Se33  1  0.000000  0.000000  0.082770  1
  Cs  Cs34  1  0.666667  0.333333  0.472073  1
  Cs  Cs35  1  0.333333  0.666667  0.972073  1
