# generated using pymatgen
data_HCNO
_symmetry_space_group_name_H-M   'P 1'
_cell_length_a   6.80776918
_cell_length_b   7.47560265
_cell_length_c   6.82371636
_cell_angle_alpha   72.79454470
_cell_angle_beta   60.07727800
_cell_angle_gamma   62.91367226
_symmetry_Int_Tables_number   1
_chemical_formula_structural   HCNO
_chemical_formula_sum   'H6 C6 N6 O6'
_cell_volume   266.90753664
_cell_formula_units_Z   6
loop_
 _symmetry_equiv_pos_site_id
 _symmetry_equiv_pos_as_xyz
  1  'x, y, z'
loop_
 _atom_site_type_symbol
 _atom_site_label
 _atom_site_symmetry_multiplicity
 _atom_site_fract_x
 _atom_site_fract_y
 _atom_site_fract_z
 _atom_site_occupancy
  H  H0  1  0.955484  0.263451  0.596581  1
  H  H1  1  0.611739  0.250000  0.250000  1
  H  H2  1  0.684484  0.763451  0.096581  1
  H  H3  1  0.044516  0.736549  0.403419  1
  H  H4  1  0.315516  0.236549  0.903419  1
  H  H5  1  0.388261  0.750000  0.750000  1
  C  C6  1  0.963804  0.242498  0.043782  1
  C  C7  1  0.249916  0.742498  0.543782  1
  C  C8  1  0.830318  0.750000  0.750000  1
  C  C9  1  0.169682  0.250000  0.250000  1
  C  C10  1  0.750084  0.257502  0.456218  1
  C  C11  1  0.036196  0.757502  0.956218  1
  N  N12  1  0.162075  0.241677  0.054117  1
  N  N13  1  0.236505  0.750000  0.750000  1
  N  N14  1  0.763495  0.250000  0.250000  1
  N  N15  1  0.837925  0.758323  0.945883  1
  N  N16  1  0.042131  0.741677  0.554117  1
  N  N17  1  0.957869  0.258323  0.445883  1
  O  O18  1  0.567554  0.262290  0.636249  1
  O  O19  1  0.966093  0.237710  0.863751  1
  O  O20  1  0.432446  0.737710  0.363751  1
  O  O21  1  0.033907  0.762290  0.136249  1
  O  O22  1  0.350216  0.250000  0.250000  1
  O  O23  1  0.649784  0.750000  0.750000  1
