# generated using pymatgen
data_K2MgCr2(H2O5)2
_symmetry_space_group_name_H-M   'P 1'
_cell_length_a   5.76890928
_cell_length_b   6.49673928
_cell_length_c   7.67037108
_cell_angle_alpha   111.25413413
_cell_angle_beta   95.09531966
_cell_angle_gamma   110.02751391
_symmetry_Int_Tables_number   1
_chemical_formula_structural   K2MgCr2(H2O5)2
_chemical_formula_sum   'K2 Mg1 Cr2 H4 O10'
_cell_volume   244.16458400
_cell_formula_units_Z   1
loop_
 _symmetry_equiv_pos_site_id
 _symmetry_equiv_pos_as_xyz
  1  'x, y, z'
loop_
 _atom_site_type_symbol
 _atom_site_label
 _atom_site_symmetry_multiplicity
 _atom_site_fract_x
 _atom_site_fract_y
 _atom_site_fract_z
 _atom_site_occupancy
  H  H0  1  0.106079  0.137274  0.389575  1
  H  H1  1  0.893921  0.862726  0.610425  1
  H  H2  1  0.921622  0.857929  0.297574  1
  H  H3  1  0.078378  0.142071  0.702426  1
  O  O4  1  0.040271  0.987179  0.268032  1
  O  O5  1  0.634895  0.197677  0.372454  1
  O  O6  1  0.365105  0.802323  0.627546  1
  O  O7  1  0.775110  0.640482  0.369183  1
  O  O8  1  0.224890  0.359518  0.630817  1
  O  O9  1  0.386332  0.253970  0.086428  1
  O  O10  1  0.613668  0.746030  0.913572  1
  O  O11  1  0.877317  0.287507  0.104015  1
  O  O12  1  0.122683  0.712493  0.895985  1
  O  O13  1  0.959729  0.012821  0.731968  1
  Mg  Mg14  1  0.000000  0.000000  0.000000  1
  K  K15  1  0.337353  0.705273  0.244200  1
  K  K16  1  0.662647  0.294727  0.755800  1
  Cr  Cr17  1  0.668166  0.341850  0.234729  1
  Cr  Cr18  1  0.331834  0.658150  0.765271  1
