# generated using pymatgen
data_CaH4SeO6
_symmetry_space_group_name_H-M   'P 1'
_cell_length_a   5.87994282
_cell_length_b   6.68887841
_cell_length_c   8.46802696
_cell_angle_alpha   66.73720344
_cell_angle_beta   79.92098587
_cell_angle_gamma   63.69748007
_symmetry_Int_Tables_number   1
_chemical_formula_structural   CaH4SeO6
_chemical_formula_sum   'Ca2 H8 Se2 O12'
_cell_volume   274.29510818
_cell_formula_units_Z   2
loop_
 _symmetry_equiv_pos_site_id
 _symmetry_equiv_pos_as_xyz
  1  'x, y, z'
loop_
 _atom_site_type_symbol
 _atom_site_label
 _atom_site_symmetry_multiplicity
 _atom_site_fract_x
 _atom_site_fract_y
 _atom_site_fract_z
 _atom_site_occupancy
  H  H0  1  0.929615  0.234519  0.012781  1
  H  H1  1  0.570385  0.752700  0.012781  1
  H  H2  1  0.070385  0.765481  0.987219  1
  H  H3  1  0.429615  0.247300  0.987219  1
  H  H4  1  0.757842  0.164625  0.171974  1
  H  H5  1  0.742158  0.663401  0.171974  1
  H  H6  1  0.242158  0.835375  0.828026  1
  H  H7  1  0.257842  0.336599  0.828026  1
  O  O8  1  0.556541  0.827954  0.782355  1
  O  O9  1  0.407004  0.374591  0.458123  1
  O  O10  1  0.592996  0.625409  0.541877  1
  O  O11  1  0.907004  0.832713  0.541877  1
  O  O12  1  0.434200  0.282074  0.862428  1
  O  O13  1  0.065800  0.855498  0.862428  1
  O  O14  1  0.565800  0.717926  0.137572  1
  O  O15  1  0.934200  0.144502  0.137572  1
  O  O16  1  0.443459  0.172046  0.217645  1
  O  O17  1  0.056541  0.610308  0.217645  1
  O  O18  1  0.092996  0.167287  0.458123  1
  O  O19  1  0.943459  0.389692  0.782355  1
  Ca  Ca20  1  0.750000  0.169366  0.661268  1
  Ca  Ca21  1  0.250000  0.830634  0.338732  1
  Se  Se22  1  0.250000  0.331845  0.336309  1
  Se  Se23  1  0.750000  0.668155  0.663691  1
