# generated using pymatgen
data_HoGeRh
_symmetry_space_group_name_H-M   'P 1'
_cell_length_a   4.30581047
_cell_length_b   6.90237731
_cell_length_c   7.57940067
_cell_angle_alpha   90.00000000
_cell_angle_beta   90.00000000
_cell_angle_gamma   90.00000000
_symmetry_Int_Tables_number   1
_chemical_formula_structural   HoGeRh
_chemical_formula_sum   'Ho4 Ge4 Rh4'
_cell_volume   225.26227766
_cell_formula_units_Z   4
loop_
 _symmetry_equiv_pos_site_id
 _symmetry_equiv_pos_as_xyz
  1  'x, y, z'
loop_
 _atom_site_type_symbol
 _atom_site_label
 _atom_site_symmetry_multiplicity
 _atom_site_fract_x
 _atom_site_fract_y
 _atom_site_fract_z
 _atom_site_occupancy
  Ho  Ho0  1  0.750000  0.494887  0.694632  1
  Ho  Ho1  1  0.750000  0.994887  0.805368  1
  Ho  Ho2  1  0.250000  0.505113  0.305368  1
  Ho  Ho3  1  0.250000  0.005113  0.194632  1
  Ge  Ge4  1  0.250000  0.786834  0.607741  1
  Ge  Ge5  1  0.750000  0.213166  0.392259  1
  Ge  Ge6  1  0.750000  0.713166  0.107741  1
  Ge  Ge7  1  0.250000  0.286834  0.892259  1
  Rh  Rh8  1  0.750000  0.344612  0.065065  1
  Rh  Rh9  1  0.750000  0.844612  0.434935  1
  Rh  Rh10  1  0.250000  0.655388  0.934935  1
  Rh  Rh11  1  0.250000  0.155388  0.565065  1
