# generated using pymatgen
data_Li2CuPO4
_symmetry_space_group_name_H-M   'P 1'
_cell_length_a   6.22843630
_cell_length_b   10.61615761
_cell_length_c   5.20837106
_cell_angle_alpha   90.00000000
_cell_angle_beta   90.00000000
_cell_angle_gamma   90.00000000
_symmetry_Int_Tables_number   1
_chemical_formula_structural   Li2CuPO4
_chemical_formula_sum   'Li8 Cu4 P4 O16'
_cell_volume   344.38823115
_cell_formula_units_Z   4
loop_
 _symmetry_equiv_pos_site_id
 _symmetry_equiv_pos_as_xyz
  1  'x, y, z'
loop_
 _atom_site_type_symbol
 _atom_site_label
 _atom_site_symmetry_multiplicity
 _atom_site_fract_x
 _atom_site_fract_y
 _atom_site_fract_z
 _atom_site_occupancy
  Li  Li0  1  1.002074  0.661292  0.805906  1
  Li  Li1  1  1.002074  0.161292  0.694094  1
  Li  Li2  1  0.497926  0.661292  0.805906  1
  Li  Li3  1  0.497926  0.161292  0.694094  1
  Li  Li4  1  -0.002074  0.338708  0.194094  1
  Li  Li5  1  -0.002074  0.838708  0.305906  1
  Li  Li6  1  0.502074  0.338708  0.194094  1
  Li  Li7  1  0.502074  0.838708  0.305906  1
  O  O8  1  0.750000  0.552882  0.762460  1
  O  O9  1  0.750000  0.898786  0.110716  1
  O  O10  1  0.950324  0.342442  0.802194  1
  O  O11  1  0.250000  0.601214  0.610716  1
  O  O12  1  0.049676  0.157558  0.302194  1
  O  O13  1  0.750000  0.398786  0.389284  1
  O  O14  1  0.250000  0.101214  0.889284  1
  O  O15  1  0.250000  0.447118  0.237540  1
  O  O16  1  0.049676  0.657558  0.197806  1
  O  O17  1  0.250000  0.947118  0.262460  1
  O  O18  1  0.450324  0.157558  0.302194  1
  O  O19  1  0.450324  0.657558  0.197806  1
  O  O20  1  0.549676  0.342442  0.802194  1
  O  O21  1  0.549676  0.842442  0.697806  1
  O  O22  1  0.750000  0.052882  0.737540  1
  O  O23  1  0.950324  0.842442  0.697806  1
  P  P24  1  0.250000  0.087403  0.186093  1
  P  P25  1  0.250000  0.587403  0.313907  1
  P  P26  1  0.750000  0.412597  0.686093  1
  P  P27  1  0.750000  0.912597  0.813907  1
  Cu  Cu28  1  0.750000  0.607512  0.246521  1
  Cu  Cu29  1  0.750000  0.107512  0.253479  1
  Cu  Cu30  1  0.250000  0.892488  0.746521  1
  Cu  Cu31  1  0.250000  0.392488  0.753479  1
