# generated using pymatgen
data_TbTiSi
_symmetry_space_group_name_H-M   'P 1'
_cell_length_a   4.04477333
_cell_length_b   4.04477333
_cell_length_c   7.62105951
_cell_angle_alpha   90.00000000
_cell_angle_beta   90.00000000
_cell_angle_gamma   90.00000000
_symmetry_Int_Tables_number   1
_chemical_formula_structural   TbTiSi
_chemical_formula_sum   'Tb2 Ti2 Si2'
_cell_volume   124.68199142
_cell_formula_units_Z   2
loop_
 _symmetry_equiv_pos_site_id
 _symmetry_equiv_pos_as_xyz
  1  'x, y, z'
loop_
 _atom_site_type_symbol
 _atom_site_label
 _atom_site_symmetry_multiplicity
 _atom_site_fract_x
 _atom_site_fract_y
 _atom_site_fract_z
 _atom_site_occupancy
  Si  Si0  1  0.750000  0.750000  0.764821  1
  Si  Si1  1  0.250000  0.250000  0.235179  1
  Ti  Ti2  1  0.750000  0.250000  0.000000  1
  Ti  Ti3  1  0.250000  0.750000  0.000000  1
  Tb  Tb4  1  0.750000  0.750000  0.344831  1
  Tb  Tb5  1  0.250000  0.250000  0.655169  1
