# generated using pymatgen
data_Rb3Cu2Cl7
_symmetry_space_group_name_H-M   'P 1'
_cell_length_a   7.32583328
_cell_length_b   7.32366192
_cell_length_c   13.06570921
_cell_angle_alpha   90.00000000
_cell_angle_beta   106.28084392
_cell_angle_gamma   90.00000000
_symmetry_Int_Tables_number   1
_chemical_formula_structural   Rb3Cu2Cl7
_chemical_formula_sum   'Rb6 Cu4 Cl14'
_cell_volume   672.88969970
_cell_formula_units_Z   2
loop_
 _symmetry_equiv_pos_site_id
 _symmetry_equiv_pos_as_xyz
  1  'x, y, z'
loop_
 _atom_site_type_symbol
 _atom_site_label
 _atom_site_symmetry_multiplicity
 _atom_site_fract_x
 _atom_site_fract_y
 _atom_site_fract_z
 _atom_site_occupancy
  Cl  Cl0  1  0.626417  0.965582  0.183986  1
  Cl  Cl1  1  0.442431  0.534418  0.816014  1
  Cl  Cl2  1  0.873583  0.965582  0.816014  1
  Cl  Cl3  1  0.057569  0.534418  0.183986  1
  Cl  Cl4  1  0.373583  0.034418  0.816014  1
  Cl  Cl5  1  0.557569  0.465582  0.183986  1
  Cl  Cl6  1  0.126417  0.034418  0.183986  1
  Cl  Cl7  1  0.942431  0.465582  0.816014  1
  Cl  Cl8  1  0.439610  0.250000  0.379221  1
  Cl  Cl9  1  0.060390  0.250000  0.620779  1
  Cl  Cl10  1  0.250000  0.250000  0.000000  1
  Cl  Cl11  1  0.750000  0.750000  0.000000  1
  Cl  Cl12  1  0.939610  0.750000  0.379221  1
  Cl  Cl13  1  0.560390  0.750000  0.620779  1
  Cu  Cu14  1  0.345114  0.250000  0.190228  1
  Cu  Cu15  1  0.154886  0.250000  0.809772  1
  Cu  Cu16  1  0.654886  0.750000  0.809772  1
  Cu  Cu17  1  0.845114  0.750000  0.190228  1
  Rb  Rb18  1  0.570943  0.250000  0.641886  1
  Rb  Rb19  1  0.929057  0.250000  0.358114  1
  Rb  Rb20  1  0.429057  0.750000  0.358114  1
  Rb  Rb21  1  0.070943  0.750000  0.641886  1
  Rb  Rb22  1  0.750000  0.250000  0.000000  1
  Rb  Rb23  1  0.250000  0.750000  0.000000  1
