# generated using pymatgen
data_Sr5(B5Rh7)2
_symmetry_space_group_name_H-M   'P 1'
_cell_length_a   5.65531719
_cell_length_b   5.72806055
_cell_length_c   14.79546289
_cell_angle_alpha   84.58639204
_cell_angle_beta   78.98204497
_cell_angle_gamma   60.41921350
_symmetry_Int_Tables_number   1
_chemical_formula_structural   Sr5(B5Rh7)2
_chemical_formula_sum   'Sr5 B10 Rh14'
_cell_volume   409.13155792
_cell_formula_units_Z   1
loop_
 _symmetry_equiv_pos_site_id
 _symmetry_equiv_pos_as_xyz
  1  'x, y, z'
loop_
 _atom_site_type_symbol
 _atom_site_label
 _atom_site_symmetry_multiplicity
 _atom_site_fract_x
 _atom_site_fract_y
 _atom_site_fract_z
 _atom_site_occupancy
  B  B0  1  0.964470  0.667768  0.403292  1
  B  B1  1  0.035530  0.332232  0.596707  1
  B  B2  1  0.367762  0.667768  0.596707  1
  B  B3  1  0.632238  0.332232  0.403292  1
  B  B4  1  0.063931  0.669906  0.202232  1
  B  B5  1  0.936069  0.330094  0.797768  1
  B  B6  1  0.266163  0.669906  0.797768  1
  B  B7  1  0.733837  0.330094  0.202232  1
  B  B8  1  0.166220  0.667561  0.000000  1
  B  B9  1  0.833780  0.332439  0.000000  1
  Sr  Sr10  1  0.288439  0.000000  0.423121  1
  Sr  Sr11  1  0.711561  0.000000  0.576879  1
  Sr  Sr12  1  0.395494  0.000000  0.209013  1
  Sr  Sr13  1  0.604506  0.000000  0.790987  1
  Sr  Sr14  1  0.500000  0.000000  0.000000  1
  Rh  Rh15  1  0.250000  0.500000  0.500000  1
  Rh  Rh16  1  0.750000  0.500000  0.500000  1
  Rh  Rh17  1  0.348497  0.500000  0.303006  1
  Rh  Rh18  1  0.151503  0.500000  0.696994  1
  Rh  Rh19  1  0.651503  0.500000  0.696994  1
  Rh  Rh20  1  0.848497  0.500000  0.303006  1
  Rh  Rh21  1  0.449262  0.500000  0.101475  1
  Rh  Rh22  1  0.050738  0.500000  0.898525  1
  Rh  Rh23  1  0.550738  0.500000  0.898525  1
  Rh  Rh24  1  0.949262  0.500000  0.101475  1
  Rh  Rh25  1  0.152755  0.000000  0.694489  1
  Rh  Rh26  1  0.847245  0.000000  0.305511  1
  Rh  Rh27  1  0.050484  0.000000  0.899031  1
  Rh  Rh28  1  0.949516  0.000000  0.100969  1
