# generated using pymatgen
data_Tl4SiSe4
_symmetry_space_group_name_H-M   'P 1'
_cell_length_a   7.14996310
_cell_length_b   7.14996311
_cell_length_c   25.26277176
_cell_angle_alpha   90.97043859
_cell_angle_beta   97.95926207
_cell_angle_gamma   116.80207668
_symmetry_Int_Tables_number   1
_chemical_formula_structural   Tl4SiSe4
_chemical_formula_sum   'Tl16 Si4 Se16'
_cell_volume   1137.02188050
_cell_formula_units_Z   4
loop_
 _symmetry_equiv_pos_site_id
 _symmetry_equiv_pos_as_xyz
  1  'x, y, z'
loop_
 _atom_site_type_symbol
 _atom_site_label
 _atom_site_symmetry_multiplicity
 _atom_site_fract_x
 _atom_site_fract_y
 _atom_site_fract_z
 _atom_site_occupancy
  Si  Si0  1  0.937034  0.440437  0.623521  1
  Si  Si1  1  0.683084  0.686487  0.123521  1
  Si  Si2  1  0.062966  0.559563  0.376479  1
  Si  Si3  1  0.316916  0.313513  0.876479  1
  Se  Se4  1  0.014161  0.601205  0.708664  1
  Se  Se5  1  0.009438  0.704762  0.118305  1
  Se  Se6  1  0.913542  0.108867  0.618305  1
  Se  Se7  1  0.990562  0.295238  0.881695  1
  Se  Se8  1  0.797121  0.340284  0.422310  1
  Se  Se9  1  0.086458  0.891133  0.381695  1
  Se  Se10  1  0.202879  0.659716  0.577690  1
  Se  Se11  1  0.582026  0.625189  0.922310  1
  Se  Se12  1  0.670263  0.967780  0.082700  1
  Se  Se13  1  0.385080  0.587563  0.417300  1
  Se  Se14  1  0.329737  0.032220  0.917300  1
  Se  Se15  1  0.614920  0.412437  0.582700  1
  Se  Se16  1  0.392541  0.305497  0.791336  1
  Se  Se17  1  0.985839  0.398795  0.291336  1
  Se  Se18  1  0.607459  0.694503  0.208664  1
  Se  Se19  1  0.417974  0.374811  0.077690  1
  Tl  Tl20  1  0.925116  0.175116  0.750000  1
  Tl  Tl21  1  0.074884  0.824884  0.250000  1
  Tl  Tl22  1  0.500000  0.000000  0.500000  1
  Tl  Tl23  1  0.000000  0.000000  0.000000  1
  Tl  Tl24  1  0.325584  0.052394  0.663579  1
  Tl  Tl25  1  0.888815  0.662005  0.836421  1
  Tl  Tl26  1  0.674416  0.947606  0.336421  1
  Tl  Tl27  1  0.111185  0.337995  0.163579  1
  Tl  Tl28  1  0.500117  0.905833  0.825036  1
  Tl  Tl29  1  0.580797  0.675081  0.674964  1
  Tl  Tl30  1  0.499883  0.094167  0.174964  1
  Tl  Tl31  1  0.419203  0.324919  0.325036  1
  Tl  Tl32  1  0.149461  0.278804  0.500102  1
  Tl  Tl33  1  0.278702  0.649359  -0.000102  1
  Tl  Tl34  1  0.850539  0.721196  0.499898  1
  Tl  Tl35  1  0.721298  0.350641  1.000102  1
