# generated using pymatgen
data_DyCoO3
_symmetry_space_group_name_H-M   'P 1'
_cell_length_a   5.16513919
_cell_length_b   5.48458762
_cell_length_c   7.41822374
_cell_angle_alpha   90.00000000
_cell_angle_beta   90.00000000
_cell_angle_gamma   90.00000000
_symmetry_Int_Tables_number   1
_chemical_formula_structural   DyCoO3
_chemical_formula_sum   'Dy4 Co4 O12'
_cell_volume   210.14832669
_cell_formula_units_Z   4
loop_
 _symmetry_equiv_pos_site_id
 _symmetry_equiv_pos_as_xyz
  1  'x, y, z'
loop_
 _atom_site_type_symbol
 _atom_site_label
 _atom_site_symmetry_multiplicity
 _atom_site_fract_x
 _atom_site_fract_y
 _atom_site_fract_z
 _atom_site_occupancy
  O  O0  1  0.692439  0.301436  0.449706  1
  O  O1  1  0.192439  0.198564  0.550294  1
  O  O2  1  0.807561  0.801436  0.050294  1
  O  O3  1  0.307561  0.698564  0.949706  1
  O  O4  1  0.307561  0.698564  0.550294  1
  O  O5  1  0.807561  0.801436  0.449706  1
  O  O6  1  0.192439  0.198564  0.949706  1
  O  O7  1  0.692439  0.301436  0.050294  1
  O  O8  1  0.100701  0.472106  0.250000  1
  O  O9  1  0.600701  0.027894  0.750000  1
  O  O10  1  0.399299  0.972106  0.250000  1
  O  O11  1  0.899299  0.527894  0.750000  1
  Co  Co12  1  0.500000  0.000000  0.500000  1
  Co  Co13  1  0.000000  0.500000  0.500000  1
  Co  Co14  1  0.000000  0.500000  0.000000  1
  Co  Co15  1  0.500000  0.000000  0.000000  1
  Dy  Dy16  1  0.020165  0.926944  0.750000  1
  Dy  Dy17  1  0.520165  0.573056  0.250000  1
  Dy  Dy18  1  0.479835  0.426944  0.750000  1
  Dy  Dy19  1  0.979835  0.073056  0.250000  1
