# generated using pymatgen
data_Th2S3
_symmetry_space_group_name_H-M   'P 1'
_cell_length_a   3.93768094
_cell_length_b   10.88928940
_cell_length_c   10.86433843
_cell_angle_alpha   90.00000000
_cell_angle_beta   90.00000000
_cell_angle_gamma   90.00000000
_symmetry_Int_Tables_number   1
_chemical_formula_structural   Th2S3
_chemical_formula_sum   'Th8 S12'
_cell_volume   465.84704948
_cell_formula_units_Z   4
loop_
 _symmetry_equiv_pos_site_id
 _symmetry_equiv_pos_as_xyz
  1  'x, y, z'
loop_
 _atom_site_type_symbol
 _atom_site_label
 _atom_site_symmetry_multiplicity
 _atom_site_fract_x
 _atom_site_fract_y
 _atom_site_fract_z
 _atom_site_occupancy
  Th  Th0  1  0.750000  0.014951  0.684543  1
  Th  Th1  1  0.750000  0.195843  0.013623  1
  Th  Th2  1  0.250000  0.304157  0.513623  1
  Th  Th3  1  0.750000  0.695843  0.486377  1
  Th  Th4  1  0.250000  0.485049  0.184543  1
  Th  Th5  1  0.750000  0.514951  0.815457  1
  Th  Th6  1  0.250000  0.804157  0.986377  1
  Th  Th7  1  0.250000  0.985049  0.315457  1
  S  S8  1  0.250000  0.374957  0.944783  1
  S  S9  1  0.750000  0.947909  0.123082  1
  S  S10  1  0.250000  0.052091  0.876918  1
  S  S11  1  0.250000  0.222769  0.204855  1
  S  S12  1  0.250000  0.722769  0.295145  1
  S  S13  1  0.750000  0.447909  0.376918  1
  S  S14  1  0.750000  0.777231  0.795145  1
  S  S15  1  0.250000  0.552091  0.623082  1
  S  S16  1  0.750000  0.277231  0.704855  1
  S  S17  1  0.750000  0.125043  0.444783  1
  S  S18  1  0.750000  0.625043  0.055217  1
  S  S19  1  0.250000  0.874957  0.555217  1
