# generated using pymatgen
data_Lu(NbCl3)6
_symmetry_space_group_name_H-M   'P 1'
_cell_length_a   10.13160673
_cell_length_b   10.13160673
_cell_length_c   10.13160673
_cell_angle_alpha   55.93775884
_cell_angle_beta   55.93775880
_cell_angle_gamma   55.93775881
_symmetry_Int_Tables_number   1
_chemical_formula_structural   Lu(NbCl3)6
_chemical_formula_sum   'Lu1 Nb6 Cl18'
_cell_volume   666.16635440
_cell_formula_units_Z   1
loop_
 _symmetry_equiv_pos_site_id
 _symmetry_equiv_pos_as_xyz
  1  'x, y, z'
loop_
 _atom_site_type_symbol
 _atom_site_label
 _atom_site_symmetry_multiplicity
 _atom_site_fract_x
 _atom_site_fract_y
 _atom_site_fract_z
 _atom_site_occupancy
  Cl  Cl0  1  0.160091  0.569149  0.441549  1
  Cl  Cl1  1  0.369238  0.223420  0.910696  1
  Cl  Cl2  1  0.223420  0.910696  0.369238  1
  Cl  Cl3  1  0.910696  0.369238  0.223420  1
  Cl  Cl4  1  0.630762  0.776580  0.089304  1
  Cl  Cl5  1  0.776580  0.089304  0.630762  1
  Cl  Cl6  1  0.959715  0.707338  0.157136  1
  Cl  Cl7  1  0.157136  0.959715  0.707338  1
  Cl  Cl8  1  0.707338  0.157136  0.959715  1
  Cl  Cl9  1  0.040285  0.292662  0.842864  1
  Cl  Cl10  1  0.842864  0.040285  0.292662  1
  Cl  Cl11  1  0.292662  0.842864  0.040285  1
  Cl  Cl12  1  0.430851  0.558451  0.839909  1
  Cl  Cl13  1  0.441549  0.160091  0.569149  1
  Cl  Cl14  1  0.569149  0.441549  0.160091  1
  Cl  Cl15  1  0.839909  0.430851  0.558451  1
  Cl  Cl16  1  0.558451  0.839909  0.430851  1
  Cl  Cl17  1  0.089304  0.630762  0.776580  1
  Nb  Nb18  1  0.298330  0.407535  0.651307  1
  Nb  Nb19  1  0.592465  0.348693  0.701670  1
  Nb  Nb20  1  0.348693  0.701670  0.592465  1
  Nb  Nb21  1  0.651307  0.298330  0.407535  1
  Nb  Nb22  1  0.407535  0.651307  0.298330  1
  Nb  Nb23  1  0.701670  0.592465  0.348693  1
  Lu  Lu24  1  0.000000  0.000000  0.000000  1
