# generated using pymatgen
data_KHCN2
_symmetry_space_group_name_H-M   'P 1'
_cell_length_a   7.19562145
_cell_length_b   9.13555435
_cell_length_c   9.17149583
_cell_angle_alpha   90.00000000
_cell_angle_beta   90.00000000
_cell_angle_gamma   90.00000000
_symmetry_Int_Tables_number   1
_chemical_formula_structural   KHCN2
_chemical_formula_sum   'K8 H8 C8 N16'
_cell_volume   602.89736586
_cell_formula_units_Z   8
loop_
 _symmetry_equiv_pos_site_id
 _symmetry_equiv_pos_as_xyz
  1  'x, y, z'
loop_
 _atom_site_type_symbol
 _atom_site_label
 _atom_site_symmetry_multiplicity
 _atom_site_fract_x
 _atom_site_fract_y
 _atom_site_fract_z
 _atom_site_occupancy
  H  H0  1  0.321556  0.805412  0.506876  1
  H  H1  1  0.821556  0.194588  0.993124  1
  H  H2  1  0.178444  0.305412  0.493124  1
  H  H3  1  0.678444  0.694588  0.006876  1
  H  H4  1  0.076045  0.718431  0.927619  1
  H  H5  1  0.576045  0.281569  0.572381  1
  H  H6  1  0.423955  0.218431  0.072381  1
  H  H7  1  0.923955  0.781569  0.427619  1
  C  C8  1  0.024930  0.806289  0.230992  1
  C  C9  1  0.524930  0.193711  0.269008  1
  C  C10  1  0.475070  0.306289  0.769008  1
  C  C11  1  0.975070  0.693711  0.730992  1
  C  C12  1  0.772616  0.500555  0.058597  1
  C  C13  1  0.272616  0.499445  0.441403  1
  C  C14  1  0.727384  0.000555  0.941403  1
  C  C15  1  0.227384  0.999445  0.558597  1
  N  N16  1  0.892052  0.816033  0.323421  1
  N  N17  1  0.392052  0.183967  0.176579  1
  N  N18  1  0.607948  0.316033  0.676579  1
  N  N19  1  0.107948  0.683967  0.823421  1
  N  N20  1  0.139405  0.804778  0.135432  1
  N  N21  1  0.639405  0.195222  0.364568  1
  N  N22  1  0.360595  0.304778  0.864568  1
  N  N23  1  0.860595  0.695222  0.635432  1
  N  N24  1  0.639511  0.592214  0.043072  1
  N  N25  1  0.139511  0.407786  0.456928  1
  N  N26  1  0.860489  0.092214  0.956928  1
  N  N27  1  0.360489  0.907786  0.543072  1
  N  N28  1  0.885668  0.405769  0.079785  1
  N  N29  1  0.385668  0.594231  0.420215  1
  N  N30  1  0.614332  0.905769  0.920215  1
  N  N31  1  0.114332  0.094231  0.579785  1
  K  K32  1  0.990679  0.353888  0.761057  1
  K  K33  1  0.490679  0.646112  0.738943  1
  K  K34  1  0.509321  0.853888  0.238943  1
  K  K35  1  0.009321  0.146112  0.261057  1
  K  K36  1  0.765355  0.500980  0.394832  1
  K  K37  1  0.265355  0.499020  0.105168  1
  K  K38  1  0.734645  0.000980  0.605168  1
  K  K39  1  0.234645  0.999020  0.894832  1
