# generated using pymatgen
data_KBrF4
_symmetry_space_group_name_H-M   'P 1'
_cell_length_a   6.30148258
_cell_length_b   6.30148258
_cell_length_c   7.19098794
_cell_angle_alpha   115.98599134
_cell_angle_beta   115.98599128
_cell_angle_gamma   89.99999996
_symmetry_Int_Tables_number   1
_chemical_formula_structural   KBrF4
_chemical_formula_sum   'K2 Br2 F8'
_cell_volume   224.12013287
_cell_formula_units_Z   2
loop_
 _symmetry_equiv_pos_site_id
 _symmetry_equiv_pos_as_xyz
  1  'x, y, z'
loop_
 _atom_site_type_symbol
 _atom_site_label
 _atom_site_symmetry_multiplicity
 _atom_site_fract_x
 _atom_site_fract_y
 _atom_site_fract_z
 _atom_site_occupancy
  F  F0  1  0.967663  0.467663  0.242979  1
  F  F1  1  0.724684  0.224684  0.757021  1
  F  F2  1  0.032337  0.532337  0.757021  1
  F  F3  1  0.224684  0.032337  0.757021  1
  F  F4  1  0.275316  0.775316  0.242979  1
  F  F5  1  0.467663  0.275316  0.242979  1
  F  F6  1  0.775316  0.967663  0.242979  1
  F  F7  1  0.532337  0.724684  0.757021  1
  K  K8  1  0.250000  0.250000  0.500000  1
  K  K9  1  0.750000  0.750000  0.500000  1
  Br  Br10  1  0.000000  0.500000  0.000000  1
  Br  Br11  1  0.500000  0.000000  0.000000  1
