# generated using pymatgen
data_CdH6(CO3)2
_symmetry_space_group_name_H-M   'P 1'
_cell_length_a   7.53188903
_cell_length_b   9.16067843
_cell_length_c   9.89122278
_cell_angle_alpha   96.48816588
_cell_angle_beta   90.00000000
_cell_angle_gamma   90.00000000
_symmetry_Int_Tables_number   1
_chemical_formula_structural   CdH6(CO3)2
_chemical_formula_sum   'Cd4 H24 C8 O24'
_cell_volume   678.09575638
_cell_formula_units_Z   4
loop_
 _symmetry_equiv_pos_site_id
 _symmetry_equiv_pos_as_xyz
  1  'x, y, z'
loop_
 _atom_site_type_symbol
 _atom_site_label
 _atom_site_symmetry_multiplicity
 _atom_site_fract_x
 _atom_site_fract_y
 _atom_site_fract_z
 _atom_site_occupancy
  H  H0  1  0.647498  0.540064  0.283531  1
  H  H1  1  0.147498  0.459936  0.216469  1
  H  H2  1  0.352502  0.459936  0.716469  1
  H  H3  1  0.852502  0.540064  0.783531  1
  H  H4  1  0.599068  0.698744  0.238262  1
  H  H5  1  0.099068  0.301256  0.261738  1
  H  H6  1  0.400932  0.301256  0.761738  1
  H  H7  1  0.900932  0.698744  0.738262  1
  H  H8  1  0.388635  0.768560  0.959275  1
  H  H9  1  0.888635  0.231440  0.540725  1
  H  H10  1  0.611365  0.231440  0.040725  1
  H  H11  1  0.111365  0.768560  0.459275  1
  H  H12  1  0.594915  0.796134  0.992056  1
  H  H13  1  0.094915  0.203866  0.507944  1
  H  H14  1  0.405085  0.203866  0.007944  1
  H  H15  1  0.905085  0.796134  0.492056  1
  H  H16  1  0.980748  0.678274  0.115417  1
  H  H17  1  0.480748  0.321726  0.384583  1
  H  H18  1  0.019252  0.321726  0.884583  1
  H  H19  1  0.519252  0.678274  0.615417  1
  H  H20  1  0.774308  0.053863  0.263602  1
  H  H21  1  0.274308  0.946137  0.236398  1
  H  H22  1  0.225692  0.946137  0.736398  1
  H  H23  1  0.725692  0.053863  0.763602  1
  C  C24  1  0.116690  0.674813  0.072484  1
  C  C25  1  0.616690  0.325187  0.427517  1
  C  C26  1  0.883310  0.325187  0.927516  1
  C  C27  1  0.383310  0.674813  0.572484  1
  C  C28  1  0.793699  0.954073  0.715858  1
  C  C29  1  0.293699  0.045927  0.784142  1
  C  C30  1  0.206301  0.045927  0.284142  1
  C  C31  1  0.706301  0.954073  0.215858  1
  O  O32  1  0.625361  0.595338  0.204132  1
  O  O33  1  0.125361  0.404662  0.295868  1
  O  O34  1  0.374639  0.404662  0.795868  1
  O  O35  1  0.874639  0.595338  0.704132  1
  O  O36  1  0.511052  0.735267  0.931832  1
  O  O37  1  0.011052  0.264733  0.568168  1
  O  O38  1  0.488948  0.264733  0.068168  1
  O  O39  1  0.988948  0.735267  0.431832  1
  O  O40  1  0.168582  0.784591  0.013663  1
  O  O41  1  0.668582  0.215409  0.486337  1
  O  O42  1  0.831418  0.215409  0.986337  1
  O  O43  1  0.331418  0.784591  0.513663  1
  O  O44  1  0.209205  0.561851  0.086235  1
  O  O45  1  0.709205  0.438149  0.413765  1
  O  O46  1  0.790795  0.438149  0.913765  1
  O  O47  1  0.290795  0.561851  0.586235  1
  O  O48  1  0.749911  0.905168  0.094831  1
  O  O49  1  0.249911  0.094832  0.405169  1
  O  O50  1  0.250089  0.094832  0.905169  1
  O  O51  1  0.750089  0.905168  0.594831  1
  O  O52  1  0.589842  0.894306  0.284510  1
  O  O53  1  0.089842  0.105694  0.215490  1
  O  O54  1  0.410158  0.105694  0.715490  1
  O  O55  1  0.910158  0.894306  0.784510  1
  Cd  Cd56  1  0.500000  0.500000  0.000000  1
  Cd  Cd57  1  0.000000  0.500000  0.500000  1
  Cd  Cd58  1  0.000000  0.000000  0.000000  1
  Cd  Cd59  1  0.500000  0.000000  0.500000  1
