# generated using pymatgen
data_B10H13
_symmetry_space_group_name_H-M   'P 1'
_cell_length_a   12.12997187
_cell_length_b   12.12997187
_cell_length_c   14.65835571
_cell_angle_alpha   114.44101447
_cell_angle_beta   114.44101448
_cell_angle_gamma   89.99999999
_symmetry_Int_Tables_number   1
_chemical_formula_structural   B10H13
_chemical_formula_sum   'B80 H104'
_cell_volume   1748.99902374
_cell_formula_units_Z   8
loop_
 _symmetry_equiv_pos_site_id
 _symmetry_equiv_pos_as_xyz
  1  'x, y, z'
loop_
 _atom_site_type_symbol
 _atom_site_label
 _atom_site_symmetry_multiplicity
 _atom_site_fract_x
 _atom_site_fract_y
 _atom_site_fract_z
 _atom_site_occupancy
  H  H0  1  0.971522  0.586861  0.573092  1
  H  H1  1  0.601570  0.986231  0.573092  1
  H  H2  1  0.836861  0.351570  0.073092  1
  H  H3  1  0.236231  0.721522  0.073092  1
  H  H4  1  0.736231  0.851570  0.073092  1
  H  H5  1  0.471522  0.486231  0.573092  1
  H  H6  1  0.101570  0.086861  0.573092  1
  H  H7  1  0.336861  0.221522  0.073092  1
  H  H8  1  0.826115  0.552969  0.432769  1
  H  H9  1  0.606654  0.879800  0.432769  1
  H  H10  1  0.802969  0.356654  0.932769  1
  H  H11  1  0.129800  0.576115  0.932769  1
  H  H12  1  0.629800  0.856654  0.932769  1
  H  H13  1  0.326115  0.379800  0.432769  1
  H  H14  1  0.106654  0.052969  0.432769  1
  H  H15  1  0.302969  0.076115  0.932769  1
  H  H16  1  0.827071  0.368338  0.372133  1
  H  H17  1  0.545063  0.003795  0.372133  1
  H  H18  1  0.618338  0.295063  0.872133  1
  H  H19  1  0.253795  0.577071  0.872133  1
  H  H20  1  0.753795  0.795063  0.872133  1
  H  H21  1  0.327071  0.503795  0.372133  1
  H  H22  1  0.045063  0.868338  0.372133  1
  H  H23  1  0.118338  0.077071  0.872133  1
  H  H24  1  0.972137  0.403056  0.512421  1
  H  H25  1  0.540284  0.109364  0.512421  1
  H  H26  1  0.653056  0.290284  0.012421  1
  H  H27  1  0.359364  0.722137  0.012421  1
  H  H28  1  0.859364  0.790284  0.012421  1
  H  H29  1  0.472137  0.609364  0.512421  1
  H  H30  1  0.040284  0.903056  0.512421  1
  H  H31  1  0.153056  0.222137  0.012421  1
  H  H32  1  0.016506  0.643207  0.734323  1
  H  H33  1  0.717816  0.091116  0.734323  1
  H  H34  1  0.893207  0.467816  0.234323  1
  H  H35  1  0.341116  0.766506  0.234323  1
  H  H36  1  0.841116  0.967816  0.234323  1
  H  H37  1  0.516506  0.591116  0.734323  1
  H  H38  1  0.217816  0.143207  0.734323  1
  H  H39  1  0.393207  0.266506  0.234323  1
  H  H40  1  0.901243  0.731778  0.552765  1
  H  H41  1  0.651522  0.820987  0.552765  1
  H  H42  1  0.981778  0.401522  0.052765  1
  H  H43  1  0.070987  0.651243  0.052765  1
  H  H44  1  0.570987  0.901522  0.052765  1
  H  H45  1  0.733275  0.661941  0.640313  1
  H  H46  1  0.401243  0.320987  0.552765  1
  H  H47  1  0.481778  0.151243  0.052765  1
  H  H48  1  0.647482  0.559526  0.378494  1
  H  H49  1  0.731011  0.818967  0.378494  1
  H  H50  1  0.809526  0.481011  0.878494  1
  H  H51  1  0.068967  0.397482  0.878494  1
  H  H52  1  0.568967  0.981011  0.878494  1
  H  H53  1  0.147482  0.318967  0.378494  1
  H  H54  1  0.231011  0.059526  0.378494  1
  H  H55  1  0.309526  0.897482  0.878494  1
  H  H56  1  0.649703  0.285198  0.288476  1
  H  H57  1  0.638773  1.003278  0.288476  1
  H  H58  1  0.535198  0.388773  0.788476  1
  H  H59  1  0.253278  0.399703  0.788476  1
  H  H60  1  0.753278  0.888773  0.788476  1
  H  H61  1  0.149703  0.503278  0.288476  1
  H  H62  1  0.138773  0.785198  0.288476  1
  H  H63  1  0.035198  0.899703  0.788476  1
  H  H64  1  0.908251  0.226747  0.386508  1
  H  H65  1  0.478257  0.159761  0.386508  1
  H  H66  1  0.476747  0.228257  0.886508  1
  H  H67  1  0.409761  0.658251  0.886508  1
  H  H68  1  0.909761  0.728257  0.886508  1
  H  H69  1  0.408251  0.659761  0.386508  1
  H  H70  1  0.978257  0.726747  0.386508  1
  H  H71  1  0.976747  0.158251  0.886508  1
  H  H72  1  0.019114  0.369370  0.644348  1
  H  H73  1  0.625233  0.274978  0.644348  1
  H  H74  1  0.619370  0.375233  0.144348  1
  H  H75  1  0.524978  0.769114  0.144348  1
  H  H76  1  0.024978  0.875233  0.144348  1
  H  H77  1  0.519114  0.774978  0.644348  1
  H  H78  1  0.125233  0.869370  0.644348  1
  H  H79  1  0.119370  0.269114  0.144348  1
  H  H80  1  0.217373  0.076855  0.204413  1
  H  H81  1  0.377558  0.967373  0.704413  1
  H  H82  1  0.326855  0.737041  0.704413  1
  H  H83  1  0.987041  0.127558  0.204413  1
  H  H84  1  0.487041  0.576855  0.204413  1
  H  H85  1  0.717373  0.627558  0.204413  1
  H  H86  1  0.877558  0.237041  0.704413  1
  H  H87  1  0.826855  0.467373  0.704413  1
  H  H88  1  0.161611  0.833605  0.969076  1
  H  H89  1  0.385471  0.911612  0.469076  1
  H  H90  1  0.083605  0.557464  0.469076  1
  H  H91  1  0.807464  0.135471  0.969076  1
  H  H92  1  0.307464  0.333605  0.969076  1
  H  H93  1  0.661612  0.635471  0.969076  1
  H  H94  1  0.885471  0.057464  0.469076  1
  H  H95  1  0.583605  0.411612  0.469076  1
  H  H96  1  0.411941  0.983275  0.140313  1
  H  H97  1  0.407038  0.161941  0.640313  1
  H  H98  1  0.233275  0.478372  0.640313  1
  H  H99  1  0.728372  0.157038  0.140313  1
  H  H100  1  0.228372  0.483275  0.140313  1
  H  H101  1  0.911941  0.657038  0.140313  1
  H  H102  1  0.907038  0.978372  0.640313  1
  H  H103  1  0.151522  0.231778  0.552765  1
  B  B104  1  0.935240  0.576163  0.643450  1
  B  B105  1  0.708209  0.067287  0.643450  1
  B  B106  1  0.826163  0.458209  0.143450  1
  B  B107  1  0.317287  0.685240  0.143450  1
  B  B108  1  0.817287  0.958209  0.143450  1
  B  B109  1  0.435240  0.567287  0.643450  1
  B  B110  1  0.208209  0.076163  0.643450  1
  B  B111  1  0.326163  0.185240  0.143450  1
  B  B112  1  0.869056  0.632876  0.542374  1
  B  B113  1  0.673317  0.909497  0.542374  1
  B  B114  1  0.882876  0.423317  0.042374  1
  B  B115  1  0.159497  0.619056  0.042374  1
  B  B116  1  0.659497  0.923317  0.042374  1
  B  B117  1  0.369056  0.409497  0.542374  1
  B  B118  1  0.173317  0.132877  0.542374  1
  B  B119  1  0.382877  0.119056  0.042374  1
  B  B120  1  0.724735  0.528632  0.440531  1
  B  B121  1  0.715795  0.911899  0.440531  1
  B  B122  1  0.778632  0.465795  0.940531  1
  B  B123  1  0.161899  0.474735  0.940531  1
  B  B124  1  0.661899  0.965795  0.940531  1
  B  B125  1  0.224735  0.411899  0.440531  1
  B  B126  1  0.215795  0.028632  0.440531  1
  B  B127  1  0.278632  0.974735  0.940531  1
  B  B128  1  0.726051  0.350068  0.382321  1
  B  B129  1  0.656270  0.032253  0.382321  1
  B  B130  1  0.600068  0.406270  0.882321  1
  B  B131  1  0.282253  0.476051  0.882321  1
  B  B132  1  0.782253  0.906270  0.882321  1
  B  B133  1  0.226051  0.532253  0.382321  1
  B  B134  1  0.156270  0.850068  0.382321  1
  B  B135  1  0.100068  0.976051  0.882321  1
  B  B136  1  0.872198  0.310686  0.436852  1
  B  B137  1  0.564654  0.126166  0.436852  1
  B  B138  1  0.560686  0.314654  0.936852  1
  B  B139  1  0.376166  0.622198  0.936852  1
  B  B140  1  0.876166  0.814654  0.936852  1
  B  B141  1  0.372198  0.626166  0.436852  1
  B  B142  1  0.064654  0.810686  0.436852  1
  B  B143  1  0.060686  0.122198  0.936852  1
  B  B144  1  0.936600  0.398861  0.585159  1
  B  B145  1  0.648559  0.186297  0.585159  1
  B  B146  1  0.648861  0.398559  0.085159  1
  B  B147  1  0.436297  0.686600  0.085159  1
  B  B148  1  0.936297  0.898559  0.085159  1
  B  B149  1  0.436600  0.686297  0.585159  1
  B  B150  1  0.148559  0.898861  0.585159  1
  B  B151  1  0.148861  0.186600  0.085159  1
  B  B152  1  0.776146  0.587546  0.588453  1
  B  B153  1  0.812306  1.000907  0.588453  1
  B  B154  1  0.837546  0.562306  0.088453  1
  B  B155  1  0.250907  0.526146  0.088453  1
  B  B156  1  0.750907  0.062306  0.088453  1
  B  B157  1  0.276146  0.500907  0.588453  1
  B  B158  1  0.312306  0.087546  0.588453  1
  B  B159  1  0.337546  0.026146  0.088453  1
  B  B160  1  0.690971  0.433556  0.492652  1
  B  B161  1  0.801681  0.059096  0.492652  1
  B  B162  1  0.683556  0.551681  0.992652  1
  B  B163  1  0.309096  0.440971  0.992652  1
  B  B164  1  0.809096  0.051681  0.992652  1
  B  B165  1  0.190971  0.559096  0.492652  1
  B  B166  1  0.301681  0.933556  0.492652  1
  B  B167  1  0.183556  0.940971  0.992652  1
  B  B168  1  0.777929  0.315052  0.500176  1
  B  B169  1  0.722246  0.185124  0.500176  1
  B  B170  1  0.565052  0.472246  0.000176  1
  B  B171  1  0.435124  0.527929  0.000176  1
  B  B172  1  0.935124  0.972246  0.000176  1
  B  B173  1  0.277929  0.685124  0.500176  1
  B  B174  1  0.222246  0.815052  0.500176  1
  B  B175  1  0.065052  0.027929  0.000176  1
  B  B176  1  0.822690  0.463559  0.620204  1
  B  B177  1  0.797514  0.156645  0.620204  1
  B  B178  1  0.713559  0.547514  0.120204  1
  B  B179  1  0.406645  0.572690  0.120204  1
  B  B180  1  0.906645  0.047514  0.120204  1
  B  B181  1  0.322690  0.656645  0.620204  1
  B  B182  1  0.297514  0.963559  0.620204  1
  B  B183  1  0.213559  0.072690  0.120204  1
