# generated using pymatgen
data_BaBiSe3
_symmetry_space_group_name_H-M   'P 1'
_cell_length_a   4.40284557
_cell_length_b   16.60386026
_cell_length_c   17.17848414
_cell_angle_alpha   90.00000000
_cell_angle_beta   90.00000000
_cell_angle_gamma   90.00000000
_symmetry_Int_Tables_number   1
_chemical_formula_structural   BaBiSe3
_chemical_formula_sum   'Ba8 Bi8 Se24'
_cell_volume   1255.81990013
_cell_formula_units_Z   8
loop_
 _symmetry_equiv_pos_site_id
 _symmetry_equiv_pos_as_xyz
  1  'x, y, z'
loop_
 _atom_site_type_symbol
 _atom_site_label
 _atom_site_symmetry_multiplicity
 _atom_site_fract_x
 _atom_site_fract_y
 _atom_site_fract_z
 _atom_site_occupancy
  Se  Se0  1  0.073521  0.961964  0.930765  1
  Se  Se1  1  0.573521  0.038036  0.569235  1
  Se  Se2  1  0.426479  0.461964  0.069235  1
  Se  Se3  1  0.926479  0.538036  0.430765  1
  Se  Se4  1  0.990713  0.774079  0.777328  1
  Se  Se5  1  0.490713  0.225921  0.722672  1
  Se  Se6  1  0.509287  0.274079  0.222672  1
  Se  Se7  1  0.009287  0.725921  0.277328  1
  Se  Se8  1  0.011325  0.683596  0.018477  1
  Se  Se9  1  0.511325  0.316404  0.481523  1
  Se  Se10  1  0.488675  0.183596  0.981523  1
  Se  Se11  1  0.988675  0.816404  0.518477  1
  Se  Se12  1  0.516287  0.852179  0.115694  1
  Se  Se13  1  0.016287  0.147821  0.384306  1
  Se  Se14  1  0.983713  0.352179  0.884306  1
  Se  Se15  1  0.483713  0.647821  0.615694  1
  Se  Se16  1  0.538744  0.933247  0.344724  1
  Se  Se17  1  0.038744  0.066753  0.155276  1
  Se  Se18  1  0.961256  0.433247  0.655276  1
  Se  Se19  1  0.461256  0.566753  0.844724  1
  Se  Se20  1  0.417503  0.988533  0.807024  1
  Se  Se21  1  0.917503  0.011467  0.692976  1
  Se  Se22  1  0.082497  0.488533  0.192976  1
  Se  Se23  1  0.582497  0.511467  0.307024  1
  Ba  Ba24  1  0.478124  0.852477  0.656954  1
  Ba  Ba25  1  0.978124  0.147523  0.843046  1
  Ba  Ba26  1  0.021876  0.352477  0.343046  1
  Ba  Ba27  1  0.521876  0.647523  0.156954  1
  Ba  Ba28  1  0.495524  0.710125  0.417711  1
  Ba  Ba29  1  0.995524  0.289875  0.082289  1
  Ba  Ba30  1  0.004476  0.210125  0.582289  1
  Ba  Ba31  1  0.504476  0.789875  0.917711  1
  Bi  Bi32  1  0.007639  0.618761  0.719741  1
  Bi  Bi33  1  0.507639  0.381239  0.780259  1
  Bi  Bi34  1  0.492361  0.118761  0.280259  1
  Bi  Bi35  1  0.992361  0.881239  0.219741  1
  Bi  Bi36  1  0.987089  0.969431  0.456439  1
  Bi  Bi37  1  0.487089  0.030569  0.043561  1
  Bi  Bi38  1  0.512911  0.469431  0.543561  1
  Bi  Bi39  1  0.012911  0.530569  0.956439  1
