# generated using pymatgen
data_LiPPbO4
_symmetry_space_group_name_H-M   'P 1'
_cell_length_a   5.03974754
_cell_length_b   8.11678675
_cell_length_c   18.89756993
_cell_angle_alpha   90.00000000
_cell_angle_beta   90.00000000
_cell_angle_gamma   90.00000000
_symmetry_Int_Tables_number   1
_chemical_formula_structural   LiPPbO4
_chemical_formula_sum   'Li8 P8 Pb8 O32'
_cell_volume   773.03450366
_cell_formula_units_Z   8
loop_
 _symmetry_equiv_pos_site_id
 _symmetry_equiv_pos_as_xyz
  1  'x, y, z'
loop_
 _atom_site_type_symbol
 _atom_site_label
 _atom_site_symmetry_multiplicity
 _atom_site_fract_x
 _atom_site_fract_y
 _atom_site_fract_z
 _atom_site_occupancy
  Li  Li0  1  0.695941  0.322739  0.848631  1
  Li  Li1  1  0.697145  0.510416  0.556705  1
  Li  Li2  1  0.695941  0.822739  0.651369  1
  Li  Li3  1  0.197145  0.989584  0.056705  1
  Li  Li4  1  0.195941  0.677261  0.151369  1
  Li  Li5  1  0.697145  0.010415  0.943295  1
  Li  Li6  1  0.195941  0.177261  0.348631  1
  Li  Li7  1  0.197145  0.489584  0.443295  1
  P  P8  1  0.190095  0.787592  0.320277  1
  P  P9  1  0.193432  0.232869  0.929099  1
  P  P10  1  0.693432  0.767131  0.070901  1
  P  P11  1  0.690095  0.712408  0.820277  1
  P  P12  1  0.190095  0.287592  0.179723  1
  P  P13  1  0.693432  0.267131  0.429099  1
  P  P14  1  0.193432  0.732869  0.570901  1
  P  P15  1  0.690095  0.212408  0.679723  1
  Pb  Pb16  1  0.735068  0.968136  0.228704  1
  Pb  Pb17  1  0.254971  0.172982  0.554153  1
  Pb  Pb18  1  0.254971  0.672982  0.945847  1
  Pb  Pb19  1  0.235068  0.531864  0.728704  1
  Pb  Pb20  1  0.235068  0.031864  0.771296  1
  Pb  Pb21  1  0.754971  0.827018  0.445847  1
  Pb  Pb22  1  0.754971  0.327018  0.054153  1
  Pb  Pb23  1  0.735068  0.468136  0.271296  1
  O  O24  1  0.058227  0.445487  0.147436  1
  O  O25  1  0.061639  0.585709  0.532344  1
  O  O26  1  0.116831  0.893651  0.528285  1
  O  O27  1  0.558227  0.054513  0.647436  1
  O  O28  1  0.061639  0.085709  0.967656  1
  O  O29  1  0.110051  0.635879  0.364752  1
  O  O30  1  -0.002786  0.193367  0.682457  1
  O  O31  1  0.079154  0.248586  0.852467  1
  O  O32  1  0.079027  0.769357  0.243041  1
  O  O33  1  0.579027  0.230643  0.756959  1
  O  O34  1  0.110051  0.135879  0.135248  1
  O  O35  1  0.497214  0.306633  0.182457  1
  O  O36  1  0.499206  0.716505  0.573100  1
  O  O37  1  0.116831  0.393651  0.971715  1
  O  O38  1  0.610051  0.864121  0.864752  1
  O  O39  1  -0.000794  0.783495  0.073100  1
  O  O40  1  0.616831  0.106349  0.471715  1
  O  O41  1  0.579154  0.751414  0.147533  1
  O  O42  1  -0.000794  0.283495  0.426900  1
  O  O43  1  -0.002786  0.693367  0.817543  1
  O  O44  1  0.579154  0.251414  0.352467  1
  O  O45  1  0.561639  0.914291  0.032344  1
  O  O46  1  0.561639  0.414291  0.467656  1
  O  O47  1  0.579027  0.730643  0.743041  1
  O  O48  1  0.079027  0.269357  0.256959  1
  O  O49  1  0.616831  0.606349  0.028285  1
  O  O50  1  0.079154  0.748586  0.647533  1
  O  O51  1  0.499206  0.216505  0.926900  1
  O  O52  1  0.497214  0.806633  0.317543  1
  O  O53  1  0.558227  0.554513  0.852564  1
  O  O54  1  0.058227  0.945487  0.352564  1
  O  O55  1  0.610051  0.364121  0.635248  1
