# generated using pymatgen
data_CaP2(HO2)4
_symmetry_space_group_name_H-M   'P 1'
_cell_length_a   5.57982915
_cell_length_b   7.81037962
_cell_length_c   8.46386598
_cell_angle_alpha   66.40322103
_cell_angle_beta   69.85920642
_cell_angle_gamma   86.32968126
_symmetry_Int_Tables_number   1
_chemical_formula_structural   CaP2(HO2)4
_chemical_formula_sum   'Ca2 P4 H8 O16'
_cell_volume   316.17775416
_cell_formula_units_Z   2
loop_
 _symmetry_equiv_pos_site_id
 _symmetry_equiv_pos_as_xyz
  1  'x, y, z'
loop_
 _atom_site_type_symbol
 _atom_site_label
 _atom_site_symmetry_multiplicity
 _atom_site_fract_x
 _atom_site_fract_y
 _atom_site_fract_z
 _atom_site_occupancy
  H  H0  1  0.000000  0.500000  0.000000  1
  H  H1  1  0.000000  0.000000  0.500000  1
  H  H2  1  0.630048  0.143821  0.219162  1
  H  H3  1  0.369952  0.856179  0.780838  1
  H  H4  1  0.242588  0.017619  0.001429  1
  H  H5  1  0.757412  0.982381  0.998571  1
  H  H6  1  0.342740  0.322449  0.062326  1
  H  H7  1  0.657260  0.677551  0.937674  1
  O  O8  1  0.472595  0.713973  0.969970  1
  O  O9  1  0.591516  0.814730  0.184204  1
  O  O10  1  0.527405  0.286027  0.030030  1
  O  O11  1  0.408484  0.185270  0.815796  1
  O  O12  1  0.832216  0.101306  0.881399  1
  O  O13  1  0.167784  0.898694  0.118601  1
  O  O14  1  0.195943  0.578441  0.318849  1
  O  O15  1  0.668991  0.396203  0.375343  1
  O  O16  1  0.054821  0.370202  0.115280  1
  O  O17  1  0.945179  0.629798  0.884720  1
  O  O18  1  0.331009  0.603797  0.624657  1
  O  O19  1  0.010553  0.168722  0.444332  1
  O  O20  1  0.289970  0.902946  0.684217  1
  O  O21  1  0.710030  0.097054  0.315783  1
  O  O22  1  0.989447  0.831278  0.555668  1
  O  O23  1  0.804057  0.421559  0.681151  1
  P  P24  1  0.140643  0.732146  0.686797  1
  P  P25  1  0.859357  0.267854  0.313203  1
  P  P26  1  0.365402  0.744624  0.157061  1
  P  P27  1  0.634598  0.255376  0.842939  1
  Ca  Ca28  1  0.771686  0.682352  0.419850  1
  Ca  Ca29  1  0.228314  0.317648  0.580150  1
