# generated using pymatgen
data_Sr5(AlSb3)2
_symmetry_space_group_name_H-M   'P 1'
_cell_length_a   10.41128927
_cell_length_b   12.19525472
_cell_length_c   13.65521310
_cell_angle_alpha   90.00000000
_cell_angle_beta   90.00000000
_cell_angle_gamma   90.00000000
_symmetry_Int_Tables_number   1
_chemical_formula_structural   Sr5(AlSb3)2
_chemical_formula_sum   'Sr20 Al8 Sb24'
_cell_volume   1733.77952952
_cell_formula_units_Z   4
loop_
 _symmetry_equiv_pos_site_id
 _symmetry_equiv_pos_as_xyz
  1  'x, y, z'
loop_
 _atom_site_type_symbol
 _atom_site_label
 _atom_site_symmetry_multiplicity
 _atom_site_fract_x
 _atom_site_fract_y
 _atom_site_fract_z
 _atom_site_occupancy
  Sr  Sr0  1  0.980046  0.831570  0.534436  1
  Sr  Sr1  1  0.250000  0.160834  0.186711  1
  Sr  Sr2  1  0.480046  0.668430  0.034436  1
  Sr  Sr3  1  0.519954  0.331570  0.965564  1
  Sr  Sr4  1  0.474255  0.581039  0.737508  1
  Sr  Sr5  1  0.525745  0.918961  0.237508  1
  Sr  Sr6  1  0.750000  0.339166  0.686711  1
  Sr  Sr7  1  0.480046  0.168430  0.465564  1
  Sr  Sr8  1  0.025745  0.081039  0.762492  1
  Sr  Sr9  1  0.025745  0.581039  0.737508  1
  Sr  Sr10  1  0.525745  0.418961  0.262492  1
  Sr  Sr11  1  0.750000  0.839166  0.813289  1
  Sr  Sr12  1  0.980046  0.331570  0.965564  1
  Sr  Sr13  1  0.519954  0.831570  0.534436  1
  Sr  Sr14  1  0.019954  0.668430  0.034436  1
  Sr  Sr15  1  0.474255  0.081039  0.762492  1
  Sr  Sr16  1  0.974255  0.418961  0.262492  1
  Sr  Sr17  1  0.974255  0.918961  0.237508  1
  Sr  Sr18  1  0.250000  0.660834  0.313289  1
  Sr  Sr19  1  0.019954  0.168430  0.465564  1
  Al  Al20  1  0.750000  0.579789  0.434188  1
  Al  Al21  1  0.250000  0.420211  0.565812  1
  Al  Al22  1  0.250000  0.810505  0.700930  1
  Al  Al23  1  0.750000  0.189495  0.299070  1
  Al  Al24  1  0.250000  0.920211  0.934188  1
  Al  Al25  1  0.750000  0.689495  0.200930  1
  Al  Al26  1  0.750000  0.079789  0.065812  1
  Al  Al27  1  0.250000  0.310505  0.799070  1
  Sb  Sb28  1  0.750000  0.643547  0.622500  1
  Sb  Sb29  1  0.056766  0.826922  0.830811  1
  Sb  Sb30  1  0.943234  0.673078  0.330811  1
  Sb  Sb31  1  0.250000  0.954002  0.376186  1
  Sb  Sb32  1  0.056766  0.326922  0.669189  1
  Sb  Sb33  1  0.250000  0.649571  0.562788  1
  Sb  Sb34  1  0.443234  0.326922  0.669189  1
  Sb  Sb35  1  0.556766  0.173078  0.169189  1
  Sb  Sb36  1  0.250000  0.498721  0.911489  1
  Sb  Sb37  1  0.750000  0.350429  0.437212  1
  Sb  Sb38  1  0.250000  0.149571  0.937212  1
  Sb  Sb39  1  0.250000  0.454002  0.123814  1
  Sb  Sb40  1  0.556766  0.673078  0.330811  1
  Sb  Sb41  1  0.250000  0.356453  0.377500  1
  Sb  Sb42  1  0.750000  0.143547  0.877500  1
  Sb  Sb43  1  0.943234  0.173078  0.169189  1
  Sb  Sb44  1  0.750000  0.001279  0.411489  1
  Sb  Sb45  1  0.750000  0.045998  0.623814  1
  Sb  Sb46  1  0.750000  0.545998  0.876186  1
  Sb  Sb47  1  0.750000  0.501279  0.088511  1
  Sb  Sb48  1  0.250000  -0.001279  0.588511  1
  Sb  Sb49  1  0.750000  0.850429  0.062788  1
  Sb  Sb50  1  0.443234  0.826922  0.830811  1
  Sb  Sb51  1  0.250000  0.856453  0.122500  1
