# generated using pymatgen
data_CsSbClF3
_symmetry_space_group_name_H-M   'P 1'
_cell_length_a   9.26982433
_cell_length_b   9.26982433
_cell_length_c   9.26982433
_cell_angle_alpha   98.83877789
_cell_angle_beta   115.03505485
_cell_angle_gamma   115.03505481
_symmetry_Int_Tables_number   1
_chemical_formula_structural   CsSbClF3
_chemical_formula_sum   'Cs4 Sb4 Cl4 F12'
_cell_volume   597.79068004
_cell_formula_units_Z   4
loop_
 _symmetry_equiv_pos_site_id
 _symmetry_equiv_pos_as_xyz
  1  'x, y, z'
loop_
 _atom_site_type_symbol
 _atom_site_label
 _atom_site_symmetry_multiplicity
 _atom_site_fract_x
 _atom_site_fract_y
 _atom_site_fract_z
 _atom_site_occupancy
  F  F0  1  0.747651  0.892861  0.087884  1
  F  F1  1  0.252349  0.340233  0.145210  1
  F  F2  1  0.747651  0.087884  0.892861  1
  F  F3  1  0.195022  0.854790  0.107139  1
  F  F4  1  0.804978  0.912116  0.659767  1
  F  F5  1  0.195022  0.107139  0.854790  1
  F  F6  1  0.804978  0.659767  0.912116  1
  F  F7  1  0.556561  0.465207  0.465207  1
  F  F8  1  0.443439  0.908646  0.908646  1
  F  F9  1  0.000000  0.091354  0.534793  1
  F  F10  1  0.000000  0.534793  0.091354  1
  F  F11  1  0.252349  0.145210  0.340233  1
  Cl  Cl12  1  0.289965  0.500000  0.789965  1
  Cl  Cl13  1  0.289965  0.789965  0.500000  1
  Cl  Cl14  1  0.710035  0.210035  0.500000  1
  Cl  Cl15  1  0.710035  0.500000  0.210035  1
  Sb  Sb16  1  0.000000  0.745647  0.166492  1
  Sb  Sb17  1  0.000000  0.166492  0.745647  1
  Sb  Sb18  1  0.579155  0.833508  0.833508  1
  Sb  Sb19  1  0.420845  0.254353  0.254353  1
  Cs  Cs20  1  0.000000  0.695887  0.695887  1
  Cs  Cs21  1  0.500000  0.750000  0.250000  1
  Cs  Cs22  1  0.500000  0.250000  0.750000  1
  Cs  Cs23  1  0.000000  0.304113  0.304113  1
