# generated using pymatgen
data_MnNi(BiO3)2
_symmetry_space_group_name_H-M   'P 1'
_cell_length_a   5.48362947
_cell_length_b   5.52288208
_cell_length_c   9.70646580
_cell_angle_alpha   105.41319227
_cell_angle_beta   90.00000000
_cell_angle_gamma   119.76517055
_symmetry_Int_Tables_number   1
_chemical_formula_structural   MnNi(BiO3)2
_chemical_formula_sum   'Mn2 Ni2 Bi4 O12'
_cell_volume   242.92628876
_cell_formula_units_Z   2
loop_
 _symmetry_equiv_pos_site_id
 _symmetry_equiv_pos_as_xyz
  1  'x, y, z'
loop_
 _atom_site_type_symbol
 _atom_site_label
 _atom_site_symmetry_multiplicity
 _atom_site_fract_x
 _atom_site_fract_y
 _atom_site_fract_z
 _atom_site_occupancy
  O  O0  1  0.636132  0.680809  0.860988  1
  O  O1  1  0.955324  0.319191  0.139012  1
  O  O2  1  0.446594  0.304972  0.090397  1
  O  O3  1  0.141622  0.695028  0.909603  1
  O  O4  1  0.370935  0.307920  0.590050  1
  O  O5  1  0.063015  0.692080  0.409950  1
  O  O6  1  0.555861  0.680566  0.362742  1
  O  O7  1  0.875295  0.319434  0.637258  1
  O  O8  1  0.152228  0.179570  0.830541  1
  O  O9  1  0.972657  0.820430  0.169459  1
  O  O10  1  0.358500  0.821792  0.669453  1
  O  O11  1  0.536708  0.178208  0.330547  1
  Mn  Mn12  1  0.754604  0.499457  0.250265  1
  Mn  Mn13  1  0.255147  0.500543  0.749735  1
  Ni  Ni14  1  0.487169  0.000000  0.500000  1
  Ni  Ni15  1  0.021849  0.000000  0.000000  1
  Bi  Bi16  1  0.611807  0.264316  0.872348  1
  Bi  Bi17  1  0.347491  0.735684  0.127652  1
  Bi  Bi18  1  0.893653  0.733243  0.627398  1
  Bi  Bi19  1  0.160409  0.266757  0.372602  1
