# generated using pymatgen
data_NaInS2
_symmetry_space_group_name_H-M   'P 1'
_cell_length_a   7.06150365
_cell_length_b   7.06150364
_cell_length_c   7.06150365
_cell_angle_alpha   31.68261780
_cell_angle_beta   31.68261785
_cell_angle_gamma   31.68261785
_symmetry_Int_Tables_number   1
_chemical_formula_structural   NaInS2
_chemical_formula_sum   'Na1 In1 S2'
_cell_volume   86.25847532
_cell_formula_units_Z   1
loop_
 _symmetry_equiv_pos_site_id
 _symmetry_equiv_pos_as_xyz
  1  'x, y, z'
loop_
 _atom_site_type_symbol
 _atom_site_label
 _atom_site_symmetry_multiplicity
 _atom_site_fract_x
 _atom_site_fract_y
 _atom_site_fract_z
 _atom_site_occupancy
  Na  Na0  1  0.500000  0.500000  0.500000  1
  S  S1  1  0.740124  0.740124  0.740124  1
  S  S2  1  0.259876  0.259876  0.259876  1
  In  In3  1  0.000000  0.000000  0.000000  1
