# generated using pymatgen
data_Na2SbF5
_symmetry_space_group_name_H-M   'P 1'
_cell_length_a   5.55617192
_cell_length_b   8.24007661
_cell_length_c   11.41802502
_cell_angle_alpha   90.00000000
_cell_angle_beta   90.00000000
_cell_angle_gamma   90.00000000
_symmetry_Int_Tables_number   1
_chemical_formula_structural   Na2SbF5
_chemical_formula_sum   'Na8 Sb4 F20'
_cell_volume   522.75466256
_cell_formula_units_Z   4
loop_
 _symmetry_equiv_pos_site_id
 _symmetry_equiv_pos_as_xyz
  1  'x, y, z'
loop_
 _atom_site_type_symbol
 _atom_site_label
 _atom_site_symmetry_multiplicity
 _atom_site_fract_x
 _atom_site_fract_y
 _atom_site_fract_z
 _atom_site_occupancy
  F  F0  1  0.522157  0.648563  0.177612  1
  F  F1  1  0.022157  0.351437  0.322388  1
  F  F2  1  0.977843  0.148563  0.822388  1
  F  F3  1  0.477843  0.851437  0.677612  1
  F  F4  1  0.360102  0.758576  0.965010  1
  F  F5  1  0.860102  0.241424  0.534990  1
  F  F6  1  0.139898  0.258576  0.034990  1
  F  F7  1  0.639898  0.741424  0.465010  1
  F  F8  1  0.105095  0.804904  0.306157  1
  F  F9  1  0.605095  0.195096  0.193843  1
  F  F10  1  0.394905  0.304904  0.693843  1
  F  F11  1  0.894905  0.695096  0.806157  1
  F  F12  1  0.072681  0.604185  0.551515  1
  F  F13  1  0.572681  0.395815  0.948485  1
  F  F14  1  0.427319  0.104185  0.448485  1
  F  F15  1  0.927319  0.895815  0.051515  1
  F  F16  1  0.931991  0.885972  0.624210  1
  F  F17  1  0.431991  0.114028  0.875790  1
  F  F18  1  0.568009  0.385972  0.375790  1
  F  F19  1  0.068009  0.614028  0.124210  1
  Na  Na20  1  0.679812  0.106278  0.685131  1
  Na  Na21  1  0.179812  0.893722  0.814869  1
  Na  Na22  1  0.820188  0.606278  0.314869  1
  Na  Na23  1  0.320188  0.393722  0.185131  1
  Na  Na24  1  0.260859  0.852454  0.489345  1
  Na  Na25  1  0.760859  0.147546  0.010655  1
  Na  Na26  1  0.239141  0.352454  0.510655  1
  Na  Na27  1  0.739141  0.647546  0.989345  1
  Sb  Sb28  1  0.747746  0.674621  0.634242  1
  Sb  Sb29  1  0.247746  0.325379  0.865758  1
  Sb  Sb30  1  0.752254  0.174621  0.365758  1
  Sb  Sb31  1  0.252254  0.825379  0.134242  1
