# generated using pymatgen
data_Fe4P3(HO5)3
_symmetry_space_group_name_H-M   'P 1'
_cell_length_a   7.50498709
_cell_length_b   7.56410337
_cell_length_c   10.62396229
_cell_angle_alpha   101.64926621
_cell_angle_beta   110.68380125
_cell_angle_gamma   89.99999999
_symmetry_Int_Tables_number   1
_chemical_formula_structural   Fe4P3(HO5)3
_chemical_formula_sum   'Fe8 P6 H6 O30'
_cell_volume   550.93386757
_cell_formula_units_Z   2
loop_
 _symmetry_equiv_pos_site_id
 _symmetry_equiv_pos_as_xyz
  1  'x, y, z'
loop_
 _atom_site_type_symbol
 _atom_site_label
 _atom_site_symmetry_multiplicity
 _atom_site_fract_x
 _atom_site_fract_y
 _atom_site_fract_z
 _atom_site_occupancy
  H  H0  1  0.508231  0.250000  0.000000  1
  H  H1  1  0.491769  0.750000  0.000000  1
  H  H2  1  0.995375  0.623721  0.407068  1
  H  H3  1  0.588307  0.876279  0.592932  1
  H  H4  1  0.004625  0.376279  0.592932  1
  H  H5  1  0.411693  0.123721  0.407068  1
  O  O6  1  0.302624  0.436355  0.531561  1
  O  O7  1  0.771063  0.063645  0.468439  1
  O  O8  1  0.697376  0.563645  0.468439  1
  O  O9  1  0.228937  0.936355  0.531561  1
  O  O10  1  0.072258  0.239772  0.125377  1
  O  O11  1  0.946881  0.260228  0.874623  1
  O  O12  1  0.927742  0.760228  0.874623  1
  O  O13  1  0.053119  0.739772  0.125377  1
  O  O14  1  0.622432  0.750000  0.000000  1
  O  O15  1  0.377568  0.250000  0.000000  1
  O  O16  1  0.035556  0.599206  0.326696  1
  O  O17  1  0.708860  0.900794  0.673304  1
  O  O18  1  0.964444  0.400794  0.673304  1
  O  O19  1  0.291140  0.099206  0.326696  1
  O  O20  1  0.213070  0.583467  0.960548  1
  O  O21  1  0.252522  0.916533  0.039452  1
  O  O22  1  0.786930  0.416533  0.039452  1
  O  O23  1  0.747478  0.083467  0.960548  1
  O  O24  1  0.385249  0.894991  0.774359  1
  O  O25  1  0.610890  0.605009  0.225641  1
  O  O26  1  0.614751  0.105009  0.225641  1
  O  O27  1  0.389110  0.394991  0.774359  1
  O  O28  1  0.426442  0.753300  0.372453  1
  O  O29  1  0.053989  0.746700  0.627547  1
  O  O30  1  0.573558  0.246700  0.627547  1
  O  O31  1  0.946011  0.253300  0.372453  1
  O  O32  1  0.612474  0.585051  0.716184  1
  O  O33  1  0.896290  0.914949  0.283816  1
  O  O34  1  0.387526  0.414949  0.283816  1
  O  O35  1  0.103710  0.085051  0.716184  1
  P  P36  1  0.113177  0.750000  0.000000  1
  P  P37  1  0.886823  0.250000  0.000000  1
  P  P38  1  0.195271  0.913468  0.662328  1
  P  P39  1  0.532943  0.586532  0.337672  1
  P  P40  1  0.804729  0.086532  0.337672  1
  P  P41  1  0.467057  0.413468  0.662328  1
  Fe  Fe42  1  0.158414  0.351830  0.337950  1
  Fe  Fe43  1  0.820464  0.148170  0.662050  1
  Fe  Fe44  1  0.841586  0.648170  0.662050  1
  Fe  Fe45  1  0.179536  0.851830  0.337950  1
  Fe  Fe46  1  0.199763  0.344287  0.847993  1
  Fe  Fe47  1  0.351770  0.155713  0.152007  1
  Fe  Fe48  1  0.800237  0.655713  0.152007  1
  Fe  Fe49  1  0.648230  0.844287  0.847993  1
