# generated using pymatgen
data_Re3Te4Cl5
_symmetry_space_group_name_H-M   'P 1'
_cell_length_a   9.43250601
_cell_length_b   16.00341128
_cell_length_c   20.33187716
_cell_angle_alpha   90.00000000
_cell_angle_beta   90.00000000
_cell_angle_gamma   90.00000000
_symmetry_Int_Tables_number   1
_chemical_formula_structural   Re3Te4Cl5
_chemical_formula_sum   'Re24 Te32 Cl40'
_cell_volume   3069.14307327
_cell_formula_units_Z   8
loop_
 _symmetry_equiv_pos_site_id
 _symmetry_equiv_pos_as_xyz
  1  'x, y, z'
loop_
 _atom_site_type_symbol
 _atom_site_label
 _atom_site_symmetry_multiplicity
 _atom_site_fract_x
 _atom_site_fract_y
 _atom_site_fract_z
 _atom_site_occupancy
  Cl  Cl0  1  0.984704  0.818792  0.469345  1
  Cl  Cl1  1  0.484704  0.181208  0.530655  1
  Cl  Cl2  1  0.984704  0.681208  0.969345  1
  Cl  Cl3  1  0.484704  0.318792  0.030655  1
  Cl  Cl4  1  0.807935  0.426190  0.551778  1
  Cl  Cl5  1  0.307935  0.573810  0.448222  1
  Cl  Cl6  1  0.807935  0.073810  0.051778  1
  Cl  Cl7  1  0.307935  0.926190  0.948222  1
  Cl  Cl8  1  0.223125  0.817883  0.623327  1
  Cl  Cl9  1  0.723125  0.182117  0.376673  1
  Cl  Cl10  1  0.223125  0.682117  0.123327  1
  Cl  Cl11  1  0.723125  0.317883  0.876673  1
  Cl  Cl12  1  0.445731  0.416546  0.571890  1
  Cl  Cl13  1  0.945731  0.583454  0.428110  1
  Cl  Cl14  1  0.445731  0.083454  0.071890  1
  Cl  Cl15  1  0.945731  0.916546  0.928110  1
  Cl  Cl16  1  0.405829  0.592246  0.841330  1
  Cl  Cl17  1  0.905829  0.407754  0.158670  1
  Cl  Cl18  1  0.405829  0.907754  0.341330  1
  Cl  Cl19  1  0.905829  0.092246  0.658670  1
  Cl  Cl20  1  0.609405  0.922294  0.835944  1
  Cl  Cl21  1  0.109405  0.077706  0.164056  1
  Cl  Cl22  1  0.609405  0.577706  0.335944  1
  Cl  Cl23  1  0.109405  0.422294  0.664056  1
  Cl  Cl24  1  0.015001  0.646387  0.779799  1
  Cl  Cl25  1  0.515001  0.353613  0.220201  1
  Cl  Cl26  1  0.015001  0.853613  0.279799  1
  Cl  Cl27  1  0.515001  0.146387  0.720201  1
  Cl  Cl28  1  0.735870  0.977369  0.488321  1
  Cl  Cl29  1  0.235870  0.022631  0.511679  1
  Cl  Cl30  1  0.735870  0.522631  0.988321  1
  Cl  Cl31  1  0.235870  0.477369  0.011679  1
  Cl  Cl32  1  0.696420  0.716474  0.841851  1
  Cl  Cl33  1  0.196420  0.283526  0.158149  1
  Cl  Cl34  1  0.696420  0.783526  0.341851  1
  Cl  Cl35  1  0.196420  0.216474  0.658149  1
  Cl  Cl36  1  0.368230  0.786727  0.775845  1
  Cl  Cl37  1  0.868230  0.213273  0.224155  1
  Cl  Cl38  1  0.368230  0.713273  0.275845  1
  Cl  Cl39  1  0.868230  0.286727  0.724155  1
  Te  Te40  1  0.554566  0.927308  0.657414  1
  Te  Te41  1  0.054566  0.072692  0.342586  1
  Te  Te42  1  0.554566  0.572692  0.157414  1
  Te  Te43  1  0.054566  0.427308  0.842586  1
  Te  Te44  1  0.546230  0.745648  0.534848  1
  Te  Te45  1  0.046230  0.254352  0.465152  1
  Te  Te46  1  0.546230  0.754352  0.034848  1
  Te  Te47  1  0.046230  0.245648  0.965152  1
  Te  Te48  1  0.347128  0.608749  0.662771  1
  Te  Te49  1  0.847128  0.391251  0.337229  1
  Te  Te50  1  0.347128  0.891251  0.162771  1
  Te  Te51  1  0.847128  0.108749  0.837229  1
  Te  Te52  1  0.611851  0.523026  0.538245  1
  Te  Te53  1  0.111851  0.476974  0.461755  1
  Te  Te54  1  0.611851  0.976974  0.038245  1
  Te  Te55  1  0.111851  0.023026  0.961755  1
  Te  Te56  1  0.901175  0.850536  0.728845  1
  Te  Te57  1  0.401175  0.149464  0.271155  1
  Te  Te58  1  0.901175  0.649464  0.228845  1
  Te  Te59  1  0.401175  0.350536  0.771155  1
  Te  Te60  1  0.889332  0.897863  0.558539  1
  Te  Te61  1  0.389332  0.102137  0.441461  1
  Te  Te62  1  0.889332  0.602137  0.058539  1
  Te  Te63  1  0.389332  0.397863  0.941461  1
  Te  Te64  1  0.902262  0.665087  0.606937  1
  Te  Te65  1  0.402262  0.334913  0.393063  1
  Te  Te66  1  0.902262  0.834913  0.106937  1
  Te  Te67  1  0.402262  0.165087  0.893063  1
  Te  Te68  1  0.697603  0.531339  0.730982  1
  Te  Te69  1  0.197603  0.468661  0.269018  1
  Te  Te70  1  0.697603  0.968661  0.230982  1
  Te  Te71  1  0.197603  0.031339  0.769018  1
  Re  Re72  1  0.451177  0.767178  0.658697  1
  Re  Re73  1  0.951177  0.232822  0.341303  1
  Re  Re74  1  0.451177  0.732822  0.158697  1
  Re  Re75  1  0.951177  0.267178  0.841303  1
  Re  Re76  1  0.800756  0.690637  0.728491  1
  Re  Re77  1  0.300756  0.309363  0.271509  1
  Re  Re78  1  0.800756  0.809363  0.228491  1
  Re  Re79  1  0.300756  0.190637  0.771509  1
  Re  Re80  1  0.527522  0.663003  0.755356  1
  Re  Re81  1  0.027522  0.336997  0.244644  1
  Re  Re82  1  0.527522  0.836997  0.255356  1
  Re  Re83  1  0.027522  0.163003  0.744644  1
  Re  Re84  1  0.626412  0.819012  0.752880  1
  Re  Re85  1  0.126412  0.180988  0.247120  1
  Re  Re86  1  0.626412  0.680988  0.252880  1
  Re  Re87  1  0.126412  0.319012  0.747120  1
  Re  Re88  1  0.623184  0.637084  0.633103  1
  Re  Re89  1  0.123184  0.362916  0.366897  1
  Re  Re90  1  0.623184  0.862916  0.133103  1
  Re  Re91  1  0.123184  0.137084  0.866897  1
  Re  Re92  1  0.726351  0.794953  0.630795  1
  Re  Re93  1  0.226351  0.205047  0.369205  1
  Re  Re94  1  0.726351  0.705047  0.130795  1
  Re  Re95  1  0.226351  0.294953  0.869205  1
