# generated using pymatgen
data_Eu4Cl6O
_symmetry_space_group_name_H-M   'P 1'
_cell_length_a   9.49111033
_cell_length_b   9.49111032
_cell_length_c   7.19386999
_cell_angle_alpha   90.00000000
_cell_angle_beta   90.00000000
_cell_angle_gamma   119.99999999
_symmetry_Int_Tables_number   1
_chemical_formula_structural   Eu4Cl6O
_chemical_formula_sum   'Eu8 Cl12 O2'
_cell_volume   561.21240237
_cell_formula_units_Z   2
loop_
 _symmetry_equiv_pos_site_id
 _symmetry_equiv_pos_as_xyz
  1  'x, y, z'
loop_
 _atom_site_type_symbol
 _atom_site_label
 _atom_site_symmetry_multiplicity
 _atom_site_fract_x
 _atom_site_fract_y
 _atom_site_fract_z
 _atom_site_occupancy
  O  O0  1  0.333333  0.666667  0.106597  1
  O  O1  1  0.666667  0.333333  0.606597  1
  Cl  Cl2  1  0.465829  0.931657  0.714851  1
  Cl  Cl3  1  0.534171  0.068343  0.214851  1
  Cl  Cl4  1  0.931657  0.465829  0.214851  1
  Cl  Cl5  1  0.465829  0.534171  0.714851  1
  Cl  Cl6  1  0.857858  0.142142  0.891259  1
  Cl  Cl7  1  0.715716  0.857858  0.391259  1
  Cl  Cl8  1  0.534171  0.465829  0.214851  1
  Cl  Cl9  1  0.068343  0.534171  0.714851  1
  Cl  Cl10  1  0.142142  0.857858  0.391259  1
  Cl  Cl11  1  0.284284  0.142142  0.891259  1
  Cl  Cl12  1  0.857858  0.715716  0.891259  1
  Cl  Cl13  1  0.142142  0.284284  0.391259  1
  Eu  Eu14  1  0.802962  0.197038  0.500892  1
  Eu  Eu15  1  0.605924  0.802962  0.000892  1
  Eu  Eu16  1  0.197038  0.394076  0.000892  1
  Eu  Eu17  1  0.802962  0.605924  0.500892  1
  Eu  Eu18  1  0.394076  0.197038  0.500892  1
  Eu  Eu19  1  0.197038  0.802962  0.000892  1
  Eu  Eu20  1  0.666667  0.333333  0.933496  1
  Eu  Eu21  1  0.333333  0.666667  0.433496  1
