# generated using pymatgen
data_VO2
_symmetry_space_group_name_H-M   'P 1'
_cell_length_a   3.06441512
_cell_length_b   4.81428526
_cell_length_c   9.19871017
_cell_angle_alpha   90.00000000
_cell_angle_beta   90.00000000
_cell_angle_gamma   90.00000000
_symmetry_Int_Tables_number   1
_chemical_formula_structural   VO2
_chemical_formula_sum   'V4 O8'
_cell_volume   135.70828177
_cell_formula_units_Z   4
loop_
 _symmetry_equiv_pos_site_id
 _symmetry_equiv_pos_as_xyz
  1  'x, y, z'
loop_
 _atom_site_type_symbol
 _atom_site_label
 _atom_site_symmetry_multiplicity
 _atom_site_fract_x
 _atom_site_fract_y
 _atom_site_fract_z
 _atom_site_occupancy
  O  O0  1  0.250000  0.702648  0.474936  1
  O  O1  1  0.749999  0.297352  0.525064  1
  O  O2  1  0.749999  0.202648  0.025064  1
  O  O3  1  0.250000  0.797351  0.974937  1
  O  O4  1  0.250000  0.151576  0.763807  1
  O  O5  1  0.749999  0.848424  0.236192  1
  O  O6  1  0.250000  0.348424  0.263807  1
  O  O7  1  0.749999  0.651576  0.736192  1
  V  V8  1  0.250000  0.470055  0.637339  1
  V  V9  1  0.749999  0.529945  0.362661  1
  V  V10  1  0.749999  0.970055  0.862661  1
  V  V11  1  0.250000  0.029945  0.137339  1
