# generated using pymatgen
data_Zn2(PS3)3
_symmetry_space_group_name_H-M   'P 1'
_cell_length_a   7.12886440
_cell_length_b   10.85222844
_cell_length_c   10.85222844
_cell_angle_alpha   59.74786663
_cell_angle_beta   85.62253679
_cell_angle_gamma   85.62253676
_symmetry_Int_Tables_number   1
_chemical_formula_structural   Zn2(PS3)3
_chemical_formula_sum   'Zn4 P6 S18'
_cell_volume   722.42174045
_cell_formula_units_Z   2
loop_
 _symmetry_equiv_pos_site_id
 _symmetry_equiv_pos_as_xyz
  1  'x, y, z'
loop_
 _atom_site_type_symbol
 _atom_site_label
 _atom_site_symmetry_multiplicity
 _atom_site_fract_x
 _atom_site_fract_y
 _atom_site_fract_z
 _atom_site_occupancy
  P  P0  1  0.388302  0.276237  0.276237  1
  P  P1  1  0.611698  0.723763  0.723763  1
  P  P2  1  0.639121  0.024151  0.024151  1
  P  P3  1  0.360879  0.975849  0.975849  1
  P  P4  1  0.690742  0.371062  0.371062  1
  P  P5  1  0.309258  0.628938  0.628938  1
  S  S6  1  0.690206  0.257963  0.257963  1
  S  S7  1  0.179692  0.069001  0.069001  1
  S  S8  1  0.610432  0.611004  0.611004  1
  S  S9  1  0.389568  0.388996  0.388996  1
  S  S10  1  0.658308  0.918994  0.238410  1
  S  S11  1  0.820308  0.930999  0.930999  1
  S  S12  1  0.341692  0.081006  0.761590  1
  S  S13  1  0.658308  0.238410  0.918994  1
  S  S14  1  0.269416  0.088886  0.406517  1
  S  S15  1  0.730584  0.593483  0.911114  1
  S  S16  1  0.730584  0.911114  0.593483  1
  S  S17  1  0.269416  0.406517  0.088886  1
  S  S18  1  0.814749  0.263491  0.559342  1
  S  S19  1  0.185251  0.440658  0.736509  1
  S  S20  1  0.185251  0.736509  0.440658  1
  S  S21  1  0.814749  0.559342  0.263491  1
  S  S22  1  0.341692  0.761590  0.081006  1
  S  S23  1  0.309794  0.742037  0.742037  1
  Zn  Zn24  1  0.338719  0.294362  0.952394  1
  Zn  Zn25  1  0.661281  0.047606  0.705638  1
  Zn  Zn26  1  0.661281  0.705638  0.047606  1
  Zn  Zn27  1  0.338719  0.952394  0.294362  1
