# generated using pymatgen
data_Dy3Co6Sn5
_symmetry_space_group_name_H-M   'P 1'
_cell_length_a   4.31702901
_cell_length_b   8.11491671
_cell_length_c   8.11491671
_cell_angle_alpha   72.66944265
_cell_angle_beta   74.57400928
_cell_angle_gamma   74.57400925
_symmetry_Int_Tables_number   1
_chemical_formula_structural   Dy3Co6Sn5
_chemical_formula_sum   'Dy3 Co6 Sn5'
_cell_volume   256.15782564
_cell_formula_units_Z   1
loop_
 _symmetry_equiv_pos_site_id
 _symmetry_equiv_pos_as_xyz
  1  'x, y, z'
loop_
 _atom_site_type_symbol
 _atom_site_label
 _atom_site_symmetry_multiplicity
 _atom_site_fract_x
 _atom_site_fract_y
 _atom_site_fract_z
 _atom_site_occupancy
  Co  Co0  1  0.892628  0.380245  0.834498  1
  Co  Co1  1  0.107372  0.619755  0.165502  1
  Co  Co2  1  0.892628  0.834498  0.380245  1
  Co  Co3  1  0.500000  0.695462  0.304538  1
  Co  Co4  1  0.500000  0.304538  0.695462  1
  Co  Co5  1  0.107372  0.165502  0.619755  1
  Sn  Sn6  1  0.676866  0.982097  0.664171  1
  Sn  Sn7  1  0.323134  0.335829  0.017903  1
  Sn  Sn8  1  0.676866  0.664171  0.982097  1
  Sn  Sn9  1  0.000000  0.500000  0.500000  1
  Sn  Sn10  1  0.323134  0.017903  0.335829  1
  Dy  Dy11  1  0.682183  0.317817  0.317817  1
  Dy  Dy12  1  0.317817  0.682183  0.682183  1
  Dy  Dy13  1  0.000000  0.000000  0.000000  1
