# generated using pymatgen
data_Th3Si2
_symmetry_space_group_name_H-M   'P 1'
_cell_length_a   3.41887581
_cell_length_b   9.41604897
_cell_length_c   9.41604897
_cell_angle_alpha   90.00000000
_cell_angle_beta   90.00000000
_cell_angle_gamma   90.00000000
_symmetry_Int_Tables_number   1
_chemical_formula_structural   Th3Si2
_chemical_formula_sum   'Th6 Si4'
_cell_volume   303.12429255
_cell_formula_units_Z   2
loop_
 _symmetry_equiv_pos_site_id
 _symmetry_equiv_pos_as_xyz
  1  'x, y, z'
loop_
 _atom_site_type_symbol
 _atom_site_label
 _atom_site_symmetry_multiplicity
 _atom_site_fract_x
 _atom_site_fract_y
 _atom_site_fract_z
 _atom_site_occupancy
  Si  Si0  1  0.500000  0.585286  0.085286  1
  Si  Si1  1  0.500000  0.914714  0.585286  1
  Si  Si2  1  0.500000  0.085286  0.414714  1
  Si  Si3  1  0.500000  0.414714  0.914714  1
  Th  Th4  1  0.500000  0.706412  0.793588  1
  Th  Th5  1  0.500000  0.793588  0.293588  1
  Th  Th6  1  0.500000  0.293588  0.206412  1
  Th  Th7  1  0.500000  0.206412  0.706412  1
  Th  Th8  1  0.000000  0.500000  0.500000  1
  Th  Th9  1  0.000000  0.000000  0.000000  1
