# generated using pymatgen
data_EuAsPt
_symmetry_space_group_name_H-M   'P 1'
_cell_length_a   4.24766908
_cell_length_b   4.24766908
_cell_length_c   8.14045912
_cell_angle_alpha   105.12338962
_cell_angle_beta   105.12338963
_cell_angle_gamma   90.00000006
_symmetry_Int_Tables_number   1
_chemical_formula_structural   EuAsPt
_chemical_formula_sum   'Eu2 As2 Pt2'
_cell_volume   136.51264853
_cell_formula_units_Z   2
loop_
 _symmetry_equiv_pos_site_id
 _symmetry_equiv_pos_as_xyz
  1  'x, y, z'
loop_
 _atom_site_type_symbol
 _atom_site_label
 _atom_site_symmetry_multiplicity
 _atom_site_fract_x
 _atom_site_fract_y
 _atom_site_fract_z
 _atom_site_occupancy
  As  As0  1  0.331032  0.831032  0.662064  1
  As  As1  1  0.581032  0.581032  0.162064  1
  Eu  Eu2  1  0.749774  0.249774  0.499548  1
  Eu  Eu3  1  0.999774  0.999774  0.999548  1
  Pt  Pt4  1  0.416294  0.416294  0.832588  1
  Pt  Pt5  1  0.166294  0.666294  0.332588  1
