# generated using pymatgen
data_CaAl12O19
_symmetry_space_group_name_H-M   'P 1'
_cell_length_a   5.61588059
_cell_length_b   5.61588058
_cell_length_c   22.05086989
_cell_angle_alpha   90.00000000
_cell_angle_beta   90.00000000
_cell_angle_gamma   119.99999998
_symmetry_Int_Tables_number   1
_chemical_formula_structural   CaAl12O19
_chemical_formula_sum   'Ca2 Al24 O38'
_cell_volume   602.27118820
_cell_formula_units_Z   2
loop_
 _symmetry_equiv_pos_site_id
 _symmetry_equiv_pos_as_xyz
  1  'x, y, z'
loop_
 _atom_site_type_symbol
 _atom_site_label
 _atom_site_symmetry_multiplicity
 _atom_site_fract_x
 _atom_site_fract_y
 _atom_site_fract_z
 _atom_site_occupancy
  O  O0  1  0.818412  0.636824  0.750000  1
  O  O1  1  0.181588  0.818412  0.250000  1
  O  O2  1  0.636824  0.818412  0.250000  1
  O  O3  1  0.363176  0.181588  0.750000  1
  O  O4  1  0.818412  0.181588  0.750000  1
  O  O5  1  0.181588  0.363176  0.250000  1
  O  O6  1  0.000000  0.000000  0.350070  1
  O  O7  1  0.000000  0.000000  0.850070  1
  O  O8  1  0.000000  0.000000  0.649930  1
  O  O9  1  0.000000  0.000000  0.149930  1
  O  O10  1  0.333333  0.666667  0.554756  1
  O  O11  1  0.666667  0.333333  0.054756  1
  O  O12  1  0.666667  0.333333  0.445244  1
  O  O13  1  0.333333  0.666667  0.945244  1
  O  O14  1  0.503505  0.496495  0.350443  1
  O  O15  1  0.155166  0.844834  0.447721  1
  O  O16  1  0.503505  0.007010  0.350443  1
  O  O17  1  0.007010  0.503505  0.850443  1
  O  O18  1  0.496495  0.992990  0.649557  1
  O  O19  1  0.496495  0.503505  0.850443  1
  O  O20  1  0.496495  0.992990  0.850443  1
  O  O21  1  0.503505  0.496495  0.149557  1
  O  O22  1  0.992990  0.496495  0.149557  1
  O  O23  1  0.007010  0.503505  0.649557  1
  O  O24  1  0.496495  0.503505  0.649557  1
  O  O25  1  0.503505  0.007010  0.149557  1
  O  O26  1  0.155166  0.310333  0.052279  1
  O  O27  1  0.844834  0.155166  0.552279  1
  O  O28  1  0.310333  0.155166  0.552279  1
  O  O29  1  0.689667  0.844834  0.052279  1
  O  O30  1  0.155166  0.844834  0.052279  1
  O  O31  1  0.844834  0.689667  0.947721  1
  O  O32  1  0.844834  0.155166  0.947721  1
  O  O33  1  0.844834  0.689667  0.552279  1
  O  O34  1  0.310333  0.155166  0.947721  1
  O  O35  1  0.689667  0.844834  0.447721  1
  O  O36  1  0.155166  0.310333  0.447721  1
  O  O37  1  0.992990  0.496495  0.350443  1
  Al  Al38  1  0.000000  0.000000  0.750000  1
  Al  Al39  1  0.000000  0.000000  0.250000  1
  Al  Al40  1  0.000000  0.000000  0.500000  1
  Al  Al41  1  0.000000  0.000000  0.000000  1
  Al  Al42  1  0.333333  0.666667  0.308969  1
  Al  Al43  1  0.666667  0.333333  0.808969  1
  Al  Al44  1  0.666667  0.333333  0.691031  1
  Al  Al45  1  0.333333  0.666667  0.191031  1
  Al  Al46  1  0.333333  0.666667  0.471954  1
  Al  Al47  1  0.666667  0.333333  0.971954  1
  Al  Al48  1  0.666667  0.333333  0.528046  1
  Al  Al49  1  0.333333  0.666667  0.028046  1
  Al  Al50  1  0.168345  0.831655  0.609569  1
  Al  Al51  1  0.168345  0.336689  0.609569  1
  Al  Al52  1  0.663311  0.831655  0.609569  1
  Al  Al53  1  0.336689  0.168345  0.109569  1
  Al  Al54  1  0.831655  0.663311  0.390431  1
  Al  Al55  1  0.831655  0.168345  0.109569  1
  Al  Al56  1  0.831655  0.663311  0.109569  1
  Al  Al57  1  0.168345  0.831655  0.890431  1
  Al  Al58  1  0.663311  0.831655  0.890431  1
  Al  Al59  1  0.336689  0.168345  0.390431  1
  Al  Al60  1  0.831655  0.168345  0.390431  1
  Al  Al61  1  0.168345  0.336689  0.890431  1
  Ca  Ca62  1  0.666667  0.333333  0.250000  1
  Ca  Ca63  1  0.333333  0.666667  0.750000  1
