# generated using pymatgen
data_Ba2GdNbO6
_symmetry_space_group_name_H-M   'P 1'
_cell_length_a   6.06903497
_cell_length_b   6.06903497
_cell_length_c   6.09586602
_cell_angle_alpha   119.85450562
_cell_angle_beta   119.85450554
_cell_angle_gamma   89.99999998
_symmetry_Int_Tables_number   1
_chemical_formula_structural   Ba2GdNbO6
_chemical_formula_sum   'Ba2 Gd1 Nb1 O6'
_cell_volume   159.46255337
_cell_formula_units_Z   1
loop_
 _symmetry_equiv_pos_site_id
 _symmetry_equiv_pos_as_xyz
  1  'x, y, z'
loop_
 _atom_site_type_symbol
 _atom_site_label
 _atom_site_symmetry_multiplicity
 _atom_site_fract_x
 _atom_site_fract_y
 _atom_site_fract_z
 _atom_site_occupancy
  O  O0  1  0.769738  0.700176  0.000001  1
  O  O1  1  0.299824  0.769738  1.000000  1
  O  O2  1  0.700175  0.230262  1.000000  1
  O  O3  1  0.230262  0.299824  0.999999  1
  O  O4  1  0.264462  0.264462  0.528923  1
  O  O5  1  0.735538  0.735538  0.471077  1
  Nb  Nb6  1  0.499999  0.500000  0.999999  1
  Ba  Ba7  1  0.749999  0.250000  0.499999  1
  Ba  Ba8  1  0.250000  0.750000  0.499999  1
  Gd  Gd9  1  0.000000  0.000000  0.000000  1
