# generated using pymatgen
data_BaCuN
_symmetry_space_group_name_H-M   'P 1'
_cell_length_a   5.61671007
_cell_length_b   7.80897605
_cell_length_c   9.56267001
_cell_angle_alpha   101.96085012
_cell_angle_beta   90.00000000
_cell_angle_gamma   111.07757681
_symmetry_Int_Tables_number   1
_chemical_formula_structural   BaCuN
_chemical_formula_sum   'Ba6 Cu6 N6'
_cell_volume   381.58892031
_cell_formula_units_Z   6
loop_
 _symmetry_equiv_pos_site_id
 _symmetry_equiv_pos_as_xyz
  1  'x, y, z'
loop_
 _atom_site_type_symbol
 _atom_site_label
 _atom_site_symmetry_multiplicity
 _atom_site_fract_x
 _atom_site_fract_y
 _atom_site_fract_z
 _atom_site_occupancy
  N  N0  1  0.000000  0.000000  0.500000  1
  N  N1  1  0.000000  0.000000  0.000000  1
  N  N2  1  0.383457  0.682494  0.606247  1
  N  N3  1  0.700963  0.317506  0.893753  1
  N  N4  1  0.616543  0.317506  0.393753  1
  N  N5  1  0.299037  0.682494  0.106247  1
  Cu  Cu6  1  0.158445  0.852351  0.059469  1
  Cu  Cu7  1  0.306094  0.147649  0.440531  1
  Cu  Cu8  1  0.841555  0.147649  0.940531  1
  Cu  Cu9  1  0.693906  0.852351  0.559469  1
  Cu  Cu10  1  0.000000  0.500000  0.000000  1
  Cu  Cu11  1  0.500000  0.500000  0.500000  1
  Ba  Ba12  1  0.282293  0.000000  0.750000  1
  Ba  Ba13  1  0.717707  0.000000  0.250000  1
  Ba  Ba14  1  0.593941  0.663484  0.871084  1
  Ba  Ba15  1  0.930457  0.336516  0.628916  1
  Ba  Ba16  1  0.406059  0.336516  0.128916  1
  Ba  Ba17  1  0.069543  0.663484  0.371084  1
