# generated using pymatgen
data_K2BeO2
_symmetry_space_group_name_H-M   'P 1'
_cell_length_a   5.82623107
_cell_length_b   7.13114181
_cell_length_c   8.02542425
_cell_angle_alpha   89.65297453
_cell_angle_beta   90.00000000
_cell_angle_gamma   90.00000000
_symmetry_Int_Tables_number   1
_chemical_formula_structural   K2BeO2
_chemical_formula_sum   'K8 Be4 O8'
_cell_volume   333.43164248
_cell_formula_units_Z   4
loop_
 _symmetry_equiv_pos_site_id
 _symmetry_equiv_pos_as_xyz
  1  'x, y, z'
loop_
 _atom_site_type_symbol
 _atom_site_label
 _atom_site_symmetry_multiplicity
 _atom_site_fract_x
 _atom_site_fract_y
 _atom_site_fract_z
 _atom_site_occupancy
  Be  Be0  1  0.085100  0.375473  0.023703  1
  Be  Be1  1  0.414900  0.875473  0.523703  1
  Be  Be2  1  0.914900  0.624527  0.976297  1
  Be  Be3  1  0.585100  0.124527  0.476297  1
  O  O4  1  0.794465  0.806818  0.942745  1
  O  O5  1  0.638069  0.917354  0.411071  1
  O  O6  1  0.361931  0.082646  0.588929  1
  O  O7  1  0.861931  0.417354  0.911071  1
  O  O8  1  0.294465  0.693182  0.557255  1
  O  O9  1  0.205535  0.193182  0.057255  1
  O  O10  1  0.705535  0.306818  0.442745  1
  O  O11  1  0.138069  0.582646  0.088929  1
  K  K12  1  0.656356  0.141338  0.113705  1
  K  K13  1  0.156356  0.358662  0.386295  1
  K  K14  1  0.343644  0.858662  0.886295  1
  K  K15  1  0.843644  0.641338  0.613705  1
  K  K16  1  0.561518  0.599093  0.243811  1
  K  K17  1  0.061518  0.900907  0.256189  1
  K  K18  1  0.438482  0.400907  0.756189  1
  K  K19  1  0.938482  0.099093  0.743811  1
