# generated using pymatgen
data_CS2NClO2
_symmetry_space_group_name_H-M   'P 1'
_cell_length_a   5.45884830
_cell_length_b   7.51416654
_cell_length_c   15.06726246
_cell_angle_alpha   90.00000000
_cell_angle_beta   90.00000000
_cell_angle_gamma   90.00000000
_symmetry_Int_Tables_number   1
_chemical_formula_structural   CS2NClO2
_chemical_formula_sum   'C4 S8 N4 Cl4 O8'
_cell_volume   618.03944699
_cell_formula_units_Z   4
loop_
 _symmetry_equiv_pos_site_id
 _symmetry_equiv_pos_as_xyz
  1  'x, y, z'
loop_
 _atom_site_type_symbol
 _atom_site_label
 _atom_site_symmetry_multiplicity
 _atom_site_fract_x
 _atom_site_fract_y
 _atom_site_fract_z
 _atom_site_occupancy
  C  C0  1  0.925854  0.079051  0.904573  1
  C  C1  1  0.425854  0.079051  0.595427  1
  C  C2  1  0.425854  0.920949  0.095427  1
  C  C3  1  0.925854  0.920949  0.404573  1
  S  S4  1  0.158246  0.162593  0.646313  1
  S  S5  1  0.658246  0.837407  0.353687  1
  S  S6  1  0.448036  0.495717  0.383924  1
  S  S7  1  0.658246  0.162593  0.853687  1
  S  S8  1  0.948036  0.495717  0.116076  1
  S  S9  1  0.158246  0.837407  0.146313  1
  S  S10  1  0.948036  0.504283  0.616076  1
  S  S11  1  0.448036  0.504283  0.883924  1
  N  N12  1  0.141960  0.640534  0.097640  1
  N  N13  1  0.641960  0.640534  0.402360  1
  N  N14  1  0.641960  0.359466  0.902360  1
  N  N15  1  0.141960  0.359466  0.597640  1
  Cl  Cl16  1  0.477257  0.865216  0.642658  1
  Cl  Cl17  1  0.477257  0.134784  0.142658  1
  Cl  Cl18  1  0.977257  0.865216  0.857342  1
  Cl  Cl19  1  0.977257  0.134784  0.357342  1
  O  O20  1  0.254441  0.531298  0.318309  1
  O  O21  1  0.056807  0.145736  0.959178  1
  O  O22  1  0.254441  0.468702  0.818309  1
  O  O23  1  0.754441  0.468702  0.681691  1
  O  O24  1  0.056807  0.854264  0.459178  1
  O  O25  1  0.754441  0.531298  0.181691  1
  O  O26  1  0.556807  0.854264  0.040822  1
  O  O27  1  0.556807  0.145736  0.540822  1
