# generated using pymatgen
data_AlICl6
_symmetry_space_group_name_H-M   'P 1'
_cell_length_a   6.35432717
_cell_length_b   7.43599929
_cell_length_c   11.86251825
_cell_angle_alpha   90.00000000
_cell_angle_beta   90.00000000
_cell_angle_gamma   98.49745402
_symmetry_Int_Tables_number   1
_chemical_formula_structural   AlICl6
_chemical_formula_sum   'Al2 I2 Cl12'
_cell_volume   554.36007649
_cell_formula_units_Z   2
loop_
 _symmetry_equiv_pos_site_id
 _symmetry_equiv_pos_as_xyz
  1  'x, y, z'
loop_
 _atom_site_type_symbol
 _atom_site_label
 _atom_site_symmetry_multiplicity
 _atom_site_fract_x
 _atom_site_fract_y
 _atom_site_fract_z
 _atom_site_occupancy
  Al  Al0  1  0.587974  0.510567  0.091750  1
  Al  Al1  1  0.412026  0.489433  0.591750  1
  Cl  Cl2  1  0.291585  0.548187  0.761451  1
  Cl  Cl3  1  0.708415  0.451813  0.261451  1
  Cl  Cl4  1  0.265858  0.009451  0.211076  1
  Cl  Cl5  1  0.734142  0.990549  0.711076  1
  Cl  Cl6  1  0.791838  0.999794  0.363206  1
  Cl  Cl7  1  0.208162  0.000206  0.863206  1
  Cl  Cl8  1  0.681863  0.789693  0.053562  1
  Cl  Cl9  1  0.318137  0.210307  0.553562  1
  Cl  Cl10  1  0.235907  0.476081  0.104033  1
  Cl  Cl11  1  0.764093  0.523919  0.604033  1
  Cl  Cl12  1  0.318962  0.676275  0.473616  1
  Cl  Cl13  1  0.681038  0.323725  0.973616  1
  I  I14  1  0.993096  0.798987  0.742308  1
  I  I15  1  0.006904  0.201013  0.242308  1
