# generated using pymatgen
data_Dy2Be2GeO7
_symmetry_space_group_name_H-M   'P 1'
_cell_length_a   4.82547496
_cell_length_b   7.44772040
_cell_length_c   7.44772040
_cell_angle_alpha   90.00000000
_cell_angle_beta   90.00000000
_cell_angle_gamma   90.00000000
_symmetry_Int_Tables_number   1
_chemical_formula_structural   Dy2Be2GeO7
_chemical_formula_sum   'Dy4 Be4 Ge2 O14'
_cell_volume   267.66204677
_cell_formula_units_Z   2
loop_
 _symmetry_equiv_pos_site_id
 _symmetry_equiv_pos_as_xyz
  1  'x, y, z'
loop_
 _atom_site_type_symbol
 _atom_site_label
 _atom_site_symmetry_multiplicity
 _atom_site_fract_x
 _atom_site_fract_y
 _atom_site_fract_z
 _atom_site_occupancy
  Be  Be0  1  0.047770  0.365065  0.134935  1
  Be  Be1  1  0.952230  0.865065  0.365065  1
  Be  Be2  1  0.047770  0.634935  0.865065  1
  Be  Be3  1  0.952230  0.134935  0.634935  1
  O  O4  1  0.783496  0.917861  0.171385  1
  O  O5  1  0.216504  0.171385  0.082139  1
  O  O6  1  0.216504  0.582139  0.671385  1
  O  O7  1  0.216504  0.417861  0.328615  1
  O  O8  1  0.783496  0.328615  0.582139  1
  O  O9  1  0.783496  0.671385  0.417861  1
  O  O10  1  0.812636  0.000000  0.500000  1
  O  O11  1  0.187364  0.500000  0.000000  1
  O  O12  1  0.281585  0.142017  0.642017  1
  O  O13  1  0.718415  0.642017  0.857983  1
  O  O14  1  0.718415  0.357983  0.142017  1
  O  O15  1  0.281585  0.857983  0.357983  1
  O  O16  1  0.783496  0.082139  0.828615  1
  O  O17  1  0.216504  0.828615  0.917861  1
  Ge  Ge18  1  0.000000  0.500000  0.500000  1
  Ge  Ge19  1  0.000000  0.000000  0.000000  1
  Dy  Dy20  1  0.506008  0.658121  0.158121  1
  Dy  Dy21  1  0.493992  0.158121  0.341879  1
  Dy  Dy22  1  0.493992  0.841879  0.658121  1
  Dy  Dy23  1  0.506008  0.341879  0.841879  1
