# generated using pymatgen
data_BaMnGe
_symmetry_space_group_name_H-M   'P 1'
_cell_length_a   4.74059244
_cell_length_b   4.72709830
_cell_length_c   8.14284765
_cell_angle_alpha   90.22806205
_cell_angle_beta   90.00035767
_cell_angle_gamma   90.14194102
_symmetry_Int_Tables_number   1
_chemical_formula_structural   BaMnGe
_chemical_formula_sum   'Ba2 Mn2 Ge2'
_cell_volume   182.47307454
_cell_formula_units_Z   2
loop_
 _symmetry_equiv_pos_site_id
 _symmetry_equiv_pos_as_xyz
  1  'x, y, z'
loop_
 _atom_site_type_symbol
 _atom_site_label
 _atom_site_symmetry_multiplicity
 _atom_site_fract_x
 _atom_site_fract_y
 _atom_site_fract_z
 _atom_site_occupancy
  Ba  Ba0  1  0.750314  0.750679  0.669595  1
  Ba  Ba1  1  0.249211  0.250734  0.330618  1
  Mn  Mn2  1  0.250494  0.749237  0.999736  1
  Mn  Mn3  1  0.750083  0.250184  0.000241  1
  Ge  Ge4  1  0.250067  0.250101  0.823239  1
  Ge  Ge5  1  0.749830  0.749065  0.176570  1
