# generated using pymatgen
data_Hg(Mo3Cl7)2
_symmetry_space_group_name_H-M   'P 1'
_cell_length_a   13.07792512
_cell_length_b   13.07792512
_cell_length_c   13.07792512
_cell_angle_alpha   90.00000000
_cell_angle_beta   90.00000000
_cell_angle_gamma   90.00000000
_symmetry_Int_Tables_number   1
_chemical_formula_structural   Hg(Mo3Cl7)2
_chemical_formula_sum   'Hg4 Mo24 Cl56'
_cell_volume   2236.74532968
_cell_formula_units_Z   4
loop_
 _symmetry_equiv_pos_site_id
 _symmetry_equiv_pos_as_xyz
  1  'x, y, z'
loop_
 _atom_site_type_symbol
 _atom_site_label
 _atom_site_symmetry_multiplicity
 _atom_site_fract_x
 _atom_site_fract_y
 _atom_site_fract_z
 _atom_site_occupancy
  Cl  Cl0  1  0.634884  0.634884  0.634884  1
  Cl  Cl1  1  0.865116  0.865116  0.634884  1
  Cl  Cl2  1  0.634884  0.865116  0.865116  1
  Cl  Cl3  1  0.865116  0.634884  0.865116  1
  Cl  Cl4  1  0.365116  0.365116  0.365116  1
  Cl  Cl5  1  0.134884  0.134884  0.365116  1
  Cl  Cl6  1  0.365116  0.134884  0.134884  1
  Cl  Cl7  1  0.134884  0.365116  0.134884  1
  Cl  Cl8  1  0.624015  0.318846  0.423885  1
  Cl  Cl9  1  0.423885  0.624015  0.318846  1
  Cl  Cl10  1  0.318846  0.423885  0.624015  1
  Cl  Cl11  1  0.181154  0.076115  0.624015  1
  Cl  Cl12  1  0.423885  0.875985  0.181154  1
  Cl  Cl13  1  0.181154  0.423885  0.875985  1
  Cl  Cl14  1  0.076115  0.875985  0.318846  1
  Cl  Cl15  1  0.076115  0.624015  0.181154  1
  Cl  Cl16  1  0.318846  0.076115  0.875985  1
  Cl  Cl17  1  0.624015  0.181154  0.076115  1
  Cl  Cl18  1  0.875985  0.318846  0.076115  1
  Cl  Cl19  1  0.875985  0.181154  0.423885  1
  Cl  Cl20  1  0.375985  0.681154  0.576115  1
  Cl  Cl21  1  0.576115  0.375985  0.681154  1
  Cl  Cl22  1  0.681154  0.576115  0.375985  1
  Cl  Cl23  1  0.818846  0.923885  0.375985  1
  Cl  Cl24  1  0.576115  0.124015  0.818846  1
  Cl  Cl25  1  0.818846  0.576115  0.124015  1
  Cl  Cl26  1  0.923885  0.124015  0.681154  1
  Cl  Cl27  1  0.923885  0.375985  0.818846  1
  Cl  Cl28  1  0.681154  0.923885  0.124015  1
  Cl  Cl29  1  0.375985  0.818846  0.923885  1
  Cl  Cl30  1  0.124015  0.681154  0.923885  1
  Cl  Cl31  1  0.124015  0.818846  0.576115  1
  Cl  Cl32  1  0.815952  0.437267  0.578569  1
  Cl  Cl33  1  0.578569  0.815952  0.437267  1
  Cl  Cl34  1  0.437267  0.578569  0.815952  1
  Cl  Cl35  1  0.062733  0.921431  0.815952  1
  Cl  Cl36  1  0.578569  0.684048  0.062733  1
  Cl  Cl37  1  0.062733  0.578569  0.684048  1
  Cl  Cl38  1  0.921431  0.684048  0.437267  1
  Cl  Cl39  1  0.921431  0.815952  0.062733  1
  Cl  Cl40  1  0.437267  0.921431  0.684048  1
  Cl  Cl41  1  0.815952  0.062733  0.921431  1
  Cl  Cl42  1  0.684048  0.437267  0.921431  1
  Cl  Cl43  1  0.684048  0.062733  0.578569  1
  Cl  Cl44  1  0.184048  0.562733  0.421431  1
  Cl  Cl45  1  0.421431  0.184048  0.562733  1
  Cl  Cl46  1  0.562733  0.421431  0.184048  1
  Cl  Cl47  1  0.937267  0.078569  0.184048  1
  Cl  Cl48  1  0.421431  0.315952  0.937267  1
  Cl  Cl49  1  0.937267  0.421431  0.315952  1
  Cl  Cl50  1  0.078569  0.315952  0.562733  1
  Cl  Cl51  1  0.078569  0.184048  0.937267  1
  Cl  Cl52  1  0.562733  0.078569  0.315952  1
  Cl  Cl53  1  0.184048  0.937267  0.078569  1
  Cl  Cl54  1  0.315952  0.562733  0.078569  1
  Cl  Cl55  1  0.315952  0.937267  0.421431  1
  Mo  Mo56  1  0.636655  0.475275  0.530536  1
  Mo  Mo57  1  0.530536  0.636655  0.475275  1
  Mo  Mo58  1  0.475275  0.530536  0.636655  1
  Mo  Mo59  1  0.024725  0.969464  0.636655  1
  Mo  Mo60  1  0.530536  0.863345  0.024725  1
  Mo  Mo61  1  0.024725  0.530536  0.863345  1
  Mo  Mo62  1  0.969464  0.863345  0.475275  1
  Mo  Mo63  1  0.969464  0.636655  0.024725  1
  Mo  Mo64  1  0.475275  0.969464  0.863345  1
  Mo  Mo65  1  0.636655  0.024725  0.969464  1
  Mo  Mo66  1  0.863345  0.475275  0.969464  1
  Mo  Mo67  1  0.863345  0.024725  0.530536  1
  Mo  Mo68  1  0.363345  0.524725  0.469464  1
  Mo  Mo69  1  0.469464  0.363345  0.524725  1
  Mo  Mo70  1  0.524725  0.469464  0.363345  1
  Mo  Mo71  1  0.975275  0.030536  0.363345  1
  Mo  Mo72  1  0.469464  0.136655  0.975275  1
  Mo  Mo73  1  0.975275  0.469464  0.136655  1
  Mo  Mo74  1  0.030536  0.136655  0.524725  1
  Mo  Mo75  1  0.030536  0.363345  0.975275  1
  Mo  Mo76  1  0.524725  0.030536  0.136655  1
  Mo  Mo77  1  0.363345  0.975275  0.030536  1
  Mo  Mo78  1  0.136655  0.524725  0.030536  1
  Mo  Mo79  1  0.136655  0.975275  0.469464  1
  Hg  Hg80  1  0.000000  0.000000  0.000000  1
  Hg  Hg81  1  0.500000  0.500000  0.000000  1
  Hg  Hg82  1  0.000000  0.500000  0.500000  1
  Hg  Hg83  1  0.500000  0.000000  0.500000  1
