# generated using pymatgen
data_ReH4NO4
_symmetry_space_group_name_H-M   'P 1'
_cell_length_a   6.24956000
_cell_length_b   6.24956000
_cell_length_c   7.55560889
_cell_angle_alpha   114.42935167
_cell_angle_beta   114.42935179
_cell_angle_gamma   90.00000002
_symmetry_Int_Tables_number   1
_chemical_formula_structural   ReH4NO4
_chemical_formula_sum   'Re2 H8 N2 O8'
_cell_volume   239.36150558
_cell_formula_units_Z   2
loop_
 _symmetry_equiv_pos_site_id
 _symmetry_equiv_pos_as_xyz
  1  'x, y, z'
loop_
 _atom_site_type_symbol
 _atom_site_label
 _atom_site_symmetry_multiplicity
 _atom_site_fract_x
 _atom_site_fract_y
 _atom_site_fract_z
 _atom_site_occupancy
  H  H0  1  0.573074  0.156535  0.400091  1
  H  H1  1  0.493556  0.323074  0.900091  1
  H  H2  1  0.676926  0.593465  0.099909  1
  H  H3  1  0.756444  0.426926  0.599909  1
  H  H4  1  0.827018  0.243556  0.400091  1
  H  H5  1  0.422982  0.506444  0.099909  1
  H  H6  1  0.406535  0.577018  0.900091  1
  H  H7  1  0.843465  0.172982  0.599909  1
  N  N8  1  0.500000  0.500000  0.000000  1
  N  N9  1  0.750000  0.250000  0.500000  1
  O  O10  1  0.444156  0.033219  0.664250  1
  O  O11  1  0.283219  0.970094  0.164250  1
  O  O12  1  0.805844  0.716781  0.835750  1
  O  O13  1  0.368969  0.555844  0.335750  1
  O  O14  1  0.966781  0.779906  0.335750  1
  O  O15  1  0.220094  0.631031  0.664250  1
  O  O16  1  0.881031  0.194156  0.164250  1
  O  O17  1  0.029906  0.118969  0.835750  1
  Re  Re18  1  0.250000  0.750000  0.500000  1
  Re  Re19  1  0.000000  0.000000  0.000000  1
