# generated using pymatgen
data_Ag4P2S7
_symmetry_space_group_name_H-M   'P 1'
_cell_length_a   6.40783234
_cell_length_b   6.40783234
_cell_length_c   16.25279202
_cell_angle_alpha   93.42262481
_cell_angle_beta   98.79896465
_cell_angle_gamma   117.42509964
_symmetry_Int_Tables_number   1
_chemical_formula_structural   Ag4P2S7
_chemical_formula_sum   'Ag8 P4 S14'
_cell_volume   578.89313102
_cell_formula_units_Z   2
loop_
 _symmetry_equiv_pos_site_id
 _symmetry_equiv_pos_as_xyz
  1  'x, y, z'
loop_
 _atom_site_type_symbol
 _atom_site_label
 _atom_site_symmetry_multiplicity
 _atom_site_fract_x
 _atom_site_fract_y
 _atom_site_fract_z
 _atom_site_occupancy
  P  P0  1  0.573409  0.933122  0.856432  1
  P  P1  1  0.423310  0.283023  0.356432  1
  P  P2  1  0.426591  0.066878  0.143568  1
  P  P3  1  0.576690  0.716977  0.643568  1
  S  S4  1  0.235042  0.648039  0.597424  1
  S  S5  1  0.550615  0.637617  0.902576  1
  S  S6  1  0.386926  0.575326  0.323759  1
  S  S7  1  0.751567  0.063167  0.176241  1
  S  S8  1  0.255246  1.005246  0.250000  1
  S  S9  1  0.449385  0.362383  0.097424  1
  S  S10  1  0.764958  0.351961  0.402576  1
  S  S11  1  0.744754  -0.005246  0.750000  1
  S  S12  1  0.807376  0.899758  0.568052  1
  S  S13  1  0.831706  0.239324  0.931948  1
  S  S14  1  0.192624  0.100242  0.431948  1
  S  S15  1  0.168294  0.760676  0.068052  1
  S  S16  1  0.248433  0.936833  0.823759  1
  S  S17  1  0.613074  0.424674  0.676241  1
  Ag  Ag18  1  0.266995  0.738932  0.445048  1
  Ag  Ag19  1  0.793884  0.821947  0.054952  1
  Ag  Ag20  1  0.733005  0.261068  0.554952  1
  Ag  Ag21  1  0.206116  0.178053  0.945048  1
  Ag  Ag22  1  0.124818  0.445456  0.162948  1
  Ag  Ag23  1  0.782508  0.961870  0.337052  1
  Ag  Ag24  1  0.875182  0.554544  0.837052  1
  Ag  Ag25  1  0.217492  0.038130  0.662948  1
