# generated using pymatgen
data_Bi2TeI
_symmetry_space_group_name_H-M   'P 1'
_cell_length_a   4.43630523
_cell_length_b   4.43619999
_cell_length_c   19.30243881
_cell_angle_alpha   89.97216264
_cell_angle_beta   96.59469235
_cell_angle_gamma   119.98165998
_symmetry_Int_Tables_number   1
_chemical_formula_structural   Bi2TeI
_chemical_formula_sum   'Bi4 Te2 I2'
_cell_volume   326.15247369
_cell_formula_units_Z   2
loop_
 _symmetry_equiv_pos_site_id
 _symmetry_equiv_pos_as_xyz
  1  'x, y, z'
loop_
 _atom_site_type_symbol
 _atom_site_label
 _atom_site_symmetry_multiplicity
 _atom_site_fract_x
 _atom_site_fract_y
 _atom_site_fract_z
 _atom_site_occupancy
  Te  Te0  1  0.391790  0.196423  0.586769  1
  Te  Te1  1  0.608210  0.803577  0.413231  1
  I  I2  1  0.856200  0.928409  0.784309  1
  I  I3  1  0.143800  0.071591  0.215691  1
  Bi  Bi4  1  0.882504  0.441038  0.324426  1
  Bi  Bi5  1  0.117496  0.558962  0.675574  1
  Bi  Bi6  1  0.362580  0.681436  0.044202  1
  Bi  Bi7  1  0.637420  0.318564  0.955798  1
