# generated using pymatgen
data_Pt3I8
_symmetry_space_group_name_H-M   'P 1'
_cell_length_a   11.09447105
_cell_length_b   12.00844380
_cell_length_c   12.00844380
_cell_angle_alpha   90.00000000
_cell_angle_beta   90.00000000
_cell_angle_gamma   90.00000000
_symmetry_Int_Tables_number   1
_chemical_formula_structural   Pt3I8
_chemical_formula_sum   'Pt12 I32'
_cell_volume   1599.85293008
_cell_formula_units_Z   4
loop_
 _symmetry_equiv_pos_site_id
 _symmetry_equiv_pos_as_xyz
  1  'x, y, z'
loop_
 _atom_site_type_symbol
 _atom_site_label
 _atom_site_symmetry_multiplicity
 _atom_site_fract_x
 _atom_site_fract_y
 _atom_site_fract_z
 _atom_site_occupancy
  I  I0  1  0.497823  0.129900  0.354616  1
  I  I1  1  0.997823  0.870100  0.645384  1
  I  I2  1  0.247823  0.854616  0.370100  1
  I  I3  1  0.747823  0.145384  0.629900  1
  I  I4  1  0.502177  0.354616  0.129900  1
  I  I5  1  0.752177  0.370100  0.854616  1
  I  I6  1  0.252177  0.629900  0.145384  1
  I  I7  1  0.002177  0.645384  0.870100  1
  I  I8  1  0.476536  0.125811  0.898201  1
  I  I9  1  0.976536  0.874189  0.101799  1
  I  I10  1  0.226536  0.398201  0.374189  1
  I  I11  1  0.726536  0.601799  0.625811  1
  I  I12  1  0.975106  0.376675  0.091610  1
  I  I13  1  0.225106  0.408390  0.876675  1
  I  I14  1  0.725106  0.591610  0.123325  1
  I  I15  1  0.475106  0.623325  0.908390  1
  I  I16  1  0.774894  0.876675  0.408390  1
  I  I17  1  0.274894  0.123325  0.591610  1
  I  I18  1  0.024894  0.091610  0.376675  1
  I  I19  1  0.524894  0.908390  0.623325  1
  I  I20  1  0.989689  0.382849  0.649768  1
  I  I21  1  0.239689  0.850232  0.882849  1
  I  I22  1  0.739689  0.149768  0.117151  1
  I  I23  1  0.489689  0.617151  0.350232  1
  I  I24  1  0.760311  0.882849  0.850232  1
  I  I25  1  0.260311  0.117151  0.149768  1
  I  I26  1  0.010311  0.649768  0.382849  1
  I  I27  1  0.510311  0.350232  0.617151  1
  I  I28  1  0.023464  0.101799  0.874189  1
  I  I29  1  0.273464  0.625811  0.601799  1
  I  I30  1  0.773464  0.374189  0.398201  1
  I  I31  1  0.523464  0.898201  0.125811  1
  Pt  Pt32  1  0.512072  0.129795  0.621026  1
  Pt  Pt33  1  0.012072  0.870205  0.378974  1
  Pt  Pt34  1  0.262072  0.121026  0.370205  1
  Pt  Pt35  1  0.762072  0.878974  0.629795  1
  Pt  Pt36  1  0.487928  0.621026  0.129795  1
  Pt  Pt37  1  0.737928  0.370205  0.121026  1
  Pt  Pt38  1  0.237928  0.629795  0.878974  1
  Pt  Pt39  1  0.987928  0.378974  0.870205  1
  Pt  Pt40  1  0.500000  0.125544  0.125544  1
  Pt  Pt41  1  0.750000  0.374456  0.625544  1
  Pt  Pt42  1  0.250000  0.625544  0.374456  1
  Pt  Pt43  1  0.000000  0.874456  0.874456  1
