# generated using pymatgen
data_Pu2Co
_symmetry_space_group_name_H-M   'P 1'
_cell_length_a   7.22793065
_cell_length_b   7.22793065
_cell_length_c   4.03678307
_cell_angle_alpha   90.00000000
_cell_angle_beta   90.00000000
_cell_angle_gamma   120.00000003
_symmetry_Int_Tables_number   1
_chemical_formula_structural   Pu2Co
_chemical_formula_sum   'Pu6 Co3'
_cell_volume   182.63920053
_cell_formula_units_Z   3
loop_
 _symmetry_equiv_pos_site_id
 _symmetry_equiv_pos_as_xyz
  1  'x, y, z'
loop_
 _atom_site_type_symbol
 _atom_site_label
 _atom_site_symmetry_multiplicity
 _atom_site_fract_x
 _atom_site_fract_y
 _atom_site_fract_z
 _atom_site_occupancy
  Co  Co0  1  0.666667  0.333333  0.000000  1
  Co  Co1  1  0.333333  0.666667  0.000000  1
  Co  Co2  1  0.000000  0.000000  0.500000  1
  Pu  Pu3  1  0.577084  0.000000  0.500000  1
  Pu  Pu4  1  0.422916  0.422916  0.500000  1
  Pu  Pu5  1  0.000000  0.577084  0.500000  1
  Pu  Pu6  1  0.000000  0.255182  0.000000  1
  Pu  Pu7  1  0.744818  0.744818  0.000000  1
  Pu  Pu8  1  0.255182  0.000000  0.000000  1
