# generated using pymatgen
data_LiNb6Cl19
_symmetry_space_group_name_H-M   'P 1'
_cell_length_a   6.95400697
_cell_length_b   6.88172478
_cell_length_c   28.63649573
_cell_angle_alpha   90.00000000
_cell_angle_beta   90.00000000
_cell_angle_gamma   90.00000000
_symmetry_Int_Tables_number   1
_chemical_formula_structural   LiNb6Cl19
_chemical_formula_sum   'Li2 Nb12 Cl38'
_cell_volume   1370.41559933
_cell_formula_units_Z   2
loop_
 _symmetry_equiv_pos_site_id
 _symmetry_equiv_pos_as_xyz
  1  'x, y, z'
loop_
 _atom_site_type_symbol
 _atom_site_label
 _atom_site_symmetry_multiplicity
 _atom_site_fract_x
 _atom_site_fract_y
 _atom_site_fract_z
 _atom_site_occupancy
  Li  Li0  1  0.500000  0.000000  0.000000  1
  Li  Li1  1  0.500000  0.000000  0.500000  1
  Cl  Cl2  1  0.382172  0.746146  0.942752  1
  Cl  Cl3  1  0.382172  0.253854  0.557248  1
  Cl  Cl4  1  0.617828  0.746146  0.057248  1
  Cl  Cl5  1  0.617828  0.253854  0.442752  1
  Cl  Cl6  1  0.617828  0.253854  0.057248  1
  Cl  Cl7  1  0.617828  0.746146  0.442752  1
  Cl  Cl8  1  0.382172  0.253854  0.942752  1
  Cl  Cl9  1  0.382172  0.746146  0.557248  1
  Cl  Cl10  1  0.201524  0.000000  0.057682  1
  Cl  Cl11  1  0.201524  0.000000  0.442318  1
  Cl  Cl12  1  0.454409  0.500000  0.655319  1
  Cl  Cl13  1  0.454409  0.500000  0.844681  1
  Cl  Cl14  1  0.545591  0.500000  0.344681  1
  Cl  Cl15  1  0.545591  0.500000  0.155319  1
  Cl  Cl16  1  0.961958  0.750307  0.651082  1
  Cl  Cl17  1  0.961958  0.249693  0.848918  1
  Cl  Cl18  1  0.038042  0.750307  0.348918  1
  Cl  Cl19  1  0.038042  0.249693  0.151082  1
  Cl  Cl20  1  0.038042  0.249693  0.348918  1
  Cl  Cl21  1  0.038042  0.750307  0.151082  1
  Cl  Cl22  1  0.961958  0.249693  0.651082  1
  Cl  Cl23  1  0.961958  0.750307  0.848918  1
  Cl  Cl24  1  0.826928  0.500000  0.552655  1
  Cl  Cl25  1  0.826928  0.500000  0.947345  1
  Cl  Cl26  1  0.173072  0.500000  0.447345  1
  Cl  Cl27  1  0.173072  0.500000  0.052655  1
  Cl  Cl28  1  0.053840  0.500000  0.750000  1
  Cl  Cl29  1  0.946160  0.500000  0.250000  1
  Cl  Cl30  1  0.642372  0.734960  0.750000  1
  Cl  Cl31  1  0.642372  0.265040  0.750000  1
  Cl  Cl32  1  0.357628  0.734960  0.250000  1
  Cl  Cl33  1  0.357628  0.265040  0.250000  1
  Cl  Cl34  1  0.529094  0.000000  0.653852  1
  Cl  Cl35  1  0.529094  0.000000  0.846148  1
  Cl  Cl36  1  0.470906  0.000000  0.346148  1
  Cl  Cl37  1  0.470906  0.000000  0.153852  1
  Cl  Cl38  1  0.798476  0.000000  0.557682  1
  Cl  Cl39  1  0.798476  0.000000  0.942318  1
  Nb  Nb40  1  0.659222  0.712442  0.892959  1
  Nb  Nb41  1  0.659222  0.287558  0.607041  1
  Nb  Nb42  1  0.340778  0.712442  0.107041  1
  Nb  Nb43  1  0.340778  0.287558  0.392959  1
  Nb  Nb44  1  0.340778  0.287558  0.107041  1
  Nb  Nb45  1  0.340778  0.712442  0.392959  1
  Nb  Nb46  1  0.659222  0.287558  0.892959  1
  Nb  Nb47  1  0.659222  0.712442  0.607041  1
  Nb  Nb48  1  0.221186  0.500000  0.189925  1
  Nb  Nb49  1  0.221186  0.500000  0.310075  1
  Nb  Nb50  1  0.778814  0.500000  0.810075  1
  Nb  Nb51  1  0.778814  0.500000  0.689925  1
