# generated using pymatgen
data_LiCuPO4
_symmetry_space_group_name_H-M   'P 1'
_cell_length_a   6.12042140
_cell_length_b   5.36738767
_cell_length_c   5.04776896
_cell_angle_alpha   90.00000000
_cell_angle_beta   90.66895234
_cell_angle_gamma   90.00000000
_symmetry_Int_Tables_number   1
_chemical_formula_structural   LiCuPO4
_chemical_formula_sum   'Li2 Cu2 P2 O8'
_cell_volume   165.81131227
_cell_formula_units_Z   2
loop_
 _symmetry_equiv_pos_site_id
 _symmetry_equiv_pos_as_xyz
  1  'x, y, z'
loop_
 _atom_site_type_symbol
 _atom_site_label
 _atom_site_symmetry_multiplicity
 _atom_site_fract_x
 _atom_site_fract_y
 _atom_site_fract_z
 _atom_site_occupancy
  Li  Li0  1  0.753003  0.335604  0.998216  1
  Li  Li1  1  0.253003  0.664396  0.498216  1
  Cu  Cu2  1  0.498914  0.182109  0.486731  1
  Cu  Cu3  1  0.998914  0.817891  0.986731  1
  P  P4  1  0.500061  0.849630  0.002347  1
  P  P5  1  0.000061  0.150370  0.502347  1
  O  O6  1  0.704627  0.691220  0.927623  1
  O  O7  1  0.017006  0.882609  0.392794  1
  O  O8  1  0.983275  0.144998  0.808862  1
  O  O9  1  0.793996  0.284057  0.386090  1
  O  O10  1  0.517006  0.117391  0.892794  1
  O  O11  1  0.204627  0.308780  0.427623  1
  O  O12  1  0.483275  0.855002  0.308862  1
  O  O13  1  0.293996  0.715943  0.886090  1
