# generated using pymatgen
data_Sn2BF7
_symmetry_space_group_name_H-M   'P 1'
_cell_length_a   5.45837017
_cell_length_b   9.01523059
_cell_length_c   14.31778337
_cell_angle_alpha   90.00000000
_cell_angle_beta   90.07641643
_cell_angle_gamma   90.00000000
_symmetry_Int_Tables_number   1
_chemical_formula_structural   Sn2BF7
_chemical_formula_sum   'Sn8 B4 F28'
_cell_volume   704.55552557
_cell_formula_units_Z   4
loop_
 _symmetry_equiv_pos_site_id
 _symmetry_equiv_pos_as_xyz
  1  'x, y, z'
loop_
 _atom_site_type_symbol
 _atom_site_label
 _atom_site_symmetry_multiplicity
 _atom_site_fract_x
 _atom_site_fract_y
 _atom_site_fract_z
 _atom_site_occupancy
  B  B0  1  0.750759  0.815363  0.371639  1
  B  B1  1  0.749241  0.315363  0.128361  1
  B  B2  1  0.249241  0.184637  0.628361  1
  B  B3  1  0.250759  0.684637  0.871639  1
  F  F4  1  0.751778  0.790151  0.470192  1
  F  F5  1  0.748222  0.290151  0.029808  1
  F  F6  1  0.248222  0.209849  0.529808  1
  F  F7  1  0.251778  0.709849  0.970192  1
  F  F8  1  0.000988  0.352574  0.361182  1
  F  F9  1  0.499012  0.852574  0.138818  1
  F  F10  1  0.999012  0.647426  0.638818  1
  F  F11  1  0.500988  0.147426  0.861182  1
  F  F12  1  0.751419  0.398291  0.546338  1
  F  F13  1  0.748581  0.898291  0.953662  1
  F  F14  1  0.248581  0.601709  0.453662  1
  F  F15  1  0.251419  0.101709  0.046338  1
  F  F16  1  0.500672  0.646277  0.637903  1
  F  F17  1  0.999328  0.146277  0.862097  1
  F  F18  1  0.499328  0.353723  0.362097  1
  F  F19  1  0.000672  0.853723  0.137903  1
  F  F20  1  0.963370  0.396540  0.151424  1
  F  F21  1  0.536630  0.896540  0.348576  1
  F  F22  1  0.036630  0.603460  0.848576  1
  F  F23  1  0.463370  0.103460  0.651424  1
  F  F24  1  0.751022  0.677234  0.323902  1
  F  F25  1  0.748978  0.177234  0.176098  1
  F  F26  1  0.248978  0.322766  0.676098  1
  F  F27  1  0.251022  0.822766  0.823902  1
  F  F28  1  0.463641  0.602651  0.848204  1
  F  F29  1  0.036359  0.102651  0.651796  1
  F  F30  1  0.536359  0.397349  0.151796  1
  F  F31  1  0.963641  0.897349  0.348204  1
  Sn  Sn32  1  0.249229  0.774521  0.555248  1
  Sn  Sn33  1  0.250771  0.274521  0.944752  1
  Sn  Sn34  1  0.750771  0.225479  0.444752  1
  Sn  Sn35  1  0.749229  0.725479  0.055248  1
  Sn  Sn36  1  0.750321  0.481541  0.689276  1
  Sn  Sn37  1  0.749679  0.981541  0.810724  1
  Sn  Sn38  1  0.249679  0.518459  0.310724  1
  Sn  Sn39  1  0.250321  0.018459  0.189276  1
