# generated using pymatgen
data_Sr5(AuO4)2
_symmetry_space_group_name_H-M   'P 1'
_cell_length_a   6.61166636
_cell_length_b   6.80955308
_cell_length_c   6.81041523
_cell_angle_alpha   76.36998772
_cell_angle_beta   60.96076279
_cell_angle_gamma   60.95673517
_symmetry_Int_Tables_number   1
_chemical_formula_structural   Sr5(AuO4)2
_chemical_formula_sum   'Sr5 Au2 O8'
_cell_volume   234.36605730
_cell_formula_units_Z   1
loop_
 _symmetry_equiv_pos_site_id
 _symmetry_equiv_pos_as_xyz
  1  'x, y, z'
loop_
 _atom_site_type_symbol
 _atom_site_label
 _atom_site_symmetry_multiplicity
 _atom_site_fract_x
 _atom_site_fract_y
 _atom_site_fract_z
 _atom_site_occupancy
  O  O0  1  0.755017  0.755403  0.755458  1
  O  O1  1  0.265878  0.244597  0.244542  1
  O  O2  1  0.489580  0.755403  0.244542  1
  O  O3  1  0.489525  0.244597  0.755458  1
  O  O4  1  0.010368  0.244571  0.755452  1
  O  O5  1  0.010392  0.755429  0.244548  1
  O  O6  1  0.745061  0.244571  0.244548  1
  O  O7  1  0.234179  0.755429  0.755452  1
  Sr  Sr8  1  0.528584  0.500000  0.942832  1
  Sr  Sr9  1  0.971416  0.500000  0.057168  1
  Sr  Sr10  1  0.971310  0.057381  0.500000  1
  Sr  Sr11  1  0.528690  0.942619  0.500000  1
  Sr  Sr12  1  0.250000  0.500000  0.500000  1
  Au  Au13  1  0.500000  0.000000  0.000000  1
  Au  Au14  1  0.000000  0.000000  0.000000  1
