# generated using pymatgen
data_Ba(PN2)2
_symmetry_space_group_name_H-M   'P 1'
_cell_length_a   10.34160503
_cell_length_b   10.34160503
_cell_length_c   10.34160503
_cell_angle_alpha   90.00000000
_cell_angle_beta   90.00000000
_cell_angle_gamma   90.00000000
_symmetry_Int_Tables_number   1
_chemical_formula_structural   Ba(PN2)2
_chemical_formula_sum   'Ba12 P24 N48'
_cell_volume   1106.02219215
_cell_formula_units_Z   12
loop_
 _symmetry_equiv_pos_site_id
 _symmetry_equiv_pos_as_xyz
  1  'x, y, z'
loop_
 _atom_site_type_symbol
 _atom_site_label
 _atom_site_symmetry_multiplicity
 _atom_site_fract_x
 _atom_site_fract_y
 _atom_site_fract_z
 _atom_site_occupancy
  N  N0  1  0.719636  0.488603  0.408663  1
  N  N1  1  0.219636  0.011397  0.591337  1
  N  N2  1  0.280364  0.988603  0.091337  1
  N  N3  1  0.011397  0.591337  0.219636  1
  N  N4  1  0.091337  0.280364  0.988603  1
  N  N5  1  0.591337  0.219636  0.011397  1
  N  N6  1  0.488603  0.408663  0.719636  1
  N  N7  1  0.408663  0.719636  0.488603  1
  N  N8  1  0.988603  0.091337  0.280364  1
  N  N9  1  0.511397  0.908663  0.780364  1
  N  N10  1  0.908663  0.780364  0.511397  1
  N  N11  1  0.780364  0.511397  0.908663  1
  N  N12  1  0.280364  0.511397  0.591337  1
  N  N13  1  0.780364  0.988603  0.408663  1
  N  N14  1  0.719636  0.011397  0.908663  1
  N  N15  1  0.988603  0.408663  0.780364  1
  N  N16  1  0.908663  0.719636  0.011397  1
  N  N17  1  0.408663  0.780364  0.988603  1
  N  N18  1  0.511397  0.591337  0.280364  1
  N  N19  1  0.591337  0.280364  0.511397  1
  N  N20  1  0.180660  0.750916  0.610669  1
  N  N21  1  0.011397  0.908663  0.719636  1
  N  N22  1  0.091337  0.219636  0.488603  1
  N  N23  1  0.219636  0.488603  0.091337  1
  N  N24  1  0.819340  0.249084  0.389331  1
  N  N25  1  0.319340  0.250916  0.610669  1
  N  N26  1  0.180660  0.749084  0.110669  1
  N  N27  1  0.250916  0.610669  0.319340  1
  N  N28  1  0.110669  0.180660  0.749084  1
  N  N29  1  0.610669  0.319340  0.250916  1
  N  N30  1  0.249084  0.389331  0.819340  1
  N  N31  1  0.389331  0.819340  0.249084  1
  N  N32  1  0.749084  0.110669  0.180660  1
  N  N33  1  0.750916  0.889331  0.680660  1
  N  N34  1  0.889331  0.680660  0.750916  1
  N  N35  1  0.680660  0.750916  0.889331  1
  N  N36  1  0.319340  0.249084  0.110669  1
  N  N37  1  0.110669  0.319340  0.249084  1
  N  N38  1  0.249084  0.110669  0.319340  1
  N  N39  1  0.250916  0.889331  0.819340  1
  N  N40  1  0.610669  0.180660  0.750916  1
  N  N41  1  0.750916  0.610669  0.180660  1
  N  N42  1  0.389331  0.680660  0.749084  1
  N  N43  1  0.889331  0.819340  0.250916  1
  N  N44  1  0.749084  0.389331  0.680660  1
  N  N45  1  0.819340  0.250916  0.889331  1
  N  N46  1  0.680660  0.749084  0.389331  1
  N  N47  1  0.488603  0.091337  0.219636  1
  P  P48  1  0.684398  0.333339  0.392552  1
  P  P49  1  0.184398  0.166661  0.607448  1
  P  P50  1  0.315602  0.833339  0.107448  1
  P  P51  1  0.166661  0.607448  0.184398  1
  P  P52  1  0.107448  0.315602  0.833339  1
  P  P53  1  0.607448  0.184398  0.166661  1
  P  P54  1  0.333339  0.392552  0.684398  1
  P  P55  1  0.392552  0.684398  0.333339  1
  P  P56  1  0.833339  0.107448  0.315602  1
  P  P57  1  0.666661  0.892552  0.815602  1
  P  P58  1  0.892552  0.815602  0.666661  1
  P  P59  1  0.815602  0.666661  0.892552  1
  P  P60  1  0.315602  0.666661  0.607448  1
  P  P61  1  0.815602  0.833339  0.392552  1
  P  P62  1  0.684398  0.166661  0.892552  1
  P  P63  1  0.833339  0.392552  0.815602  1
  P  P64  1  0.892552  0.684398  0.166661  1
  P  P65  1  0.392552  0.815602  0.833339  1
  P  P66  1  0.666661  0.607448  0.315602  1
  P  P67  1  0.607448  0.315602  0.666661  1
  P  P68  1  0.166661  0.892552  0.684398  1
  P  P69  1  0.333339  0.107448  0.184398  1
  P  P70  1  0.107448  0.184398  0.333339  1
  P  P71  1  0.184398  0.333339  0.107448  1
  Ba  Ba72  1  0.367700  0.132300  0.867700  1
  Ba  Ba73  1  0.132300  0.867700  0.367700  1
  Ba  Ba74  1  0.867700  0.367700  0.132300  1
  Ba  Ba75  1  0.632300  0.632300  0.632300  1
  Ba  Ba76  1  0.632300  0.867700  0.132300  1
  Ba  Ba77  1  0.867700  0.132300  0.632300  1
  Ba  Ba78  1  0.132300  0.632300  0.867700  1
  Ba  Ba79  1  0.367700  0.367700  0.367700  1
  Ba  Ba80  1  0.000000  0.500000  0.500000  1
  Ba  Ba81  1  0.500000  0.500000  0.000000  1
  Ba  Ba82  1  0.500000  0.000000  0.500000  1
  Ba  Ba83  1  0.000000  0.000000  0.000000  1
