# generated using pymatgen
data_Sn2IF3
_symmetry_space_group_name_H-M   'P 1'
_cell_length_a   4.36745698
_cell_length_b   7.39768638
_cell_length_c   9.35353447
_cell_angle_alpha   90.00000000
_cell_angle_beta   90.00000000
_cell_angle_gamma   107.16897512
_symmetry_Int_Tables_number   1
_chemical_formula_structural   Sn2IF3
_chemical_formula_sum   'Sn4 I2 F6'
_cell_volume   288.73735178
_cell_formula_units_Z   2
loop_
 _symmetry_equiv_pos_site_id
 _symmetry_equiv_pos_as_xyz
  1  'x, y, z'
loop_
 _atom_site_type_symbol
 _atom_site_label
 _atom_site_symmetry_multiplicity
 _atom_site_fract_x
 _atom_site_fract_y
 _atom_site_fract_z
 _atom_site_occupancy
  F  F0  1  0.707382  0.414763  0.500000  1
  F  F1  1  0.292618  0.585237  0.000000  1
  F  F2  1  0.205651  0.417572  0.709662  1
  F  F3  1  0.788079  0.582428  0.790338  1
  F  F4  1  0.211921  0.417572  0.290338  1
  F  F5  1  0.794349  0.582428  0.209662  1
  Sn  Sn6  1  0.622326  0.279682  0.707855  1
  Sn  Sn7  1  0.657356  0.279682  0.292145  1
  Sn  Sn8  1  0.342644  0.720318  0.792145  1
  Sn  Sn9  1  0.377674  0.720318  0.207855  1
  I  I10  1  0.006548  0.013096  0.000000  1
  I  I11  1  0.993452  0.986904  0.500000  1
