# generated using pymatgen
data_TaInS2
_symmetry_space_group_name_H-M   'P 1'
_cell_length_a   3.33496527
_cell_length_b   3.33496528
_cell_length_c   8.96240239
_cell_angle_alpha   90.00000000
_cell_angle_beta   90.00000000
_cell_angle_gamma   120.00000003
_symmetry_Int_Tables_number   1
_chemical_formula_structural   TaInS2
_chemical_formula_sum   'Ta1 In1 S2'
_cell_volume   86.32522171
_cell_formula_units_Z   1
loop_
 _symmetry_equiv_pos_site_id
 _symmetry_equiv_pos_as_xyz
  1  'x, y, z'
loop_
 _atom_site_type_symbol
 _atom_site_label
 _atom_site_symmetry_multiplicity
 _atom_site_fract_x
 _atom_site_fract_y
 _atom_site_fract_z
 _atom_site_occupancy
  S  S0  1  0.000000  0.000000  0.674180  1
  S  S1  1  0.000000  0.000000  0.325820  1
  In  In2  1  0.000000  0.000000  0.000000  1
  Ta  Ta3  1  0.333333  0.666667  0.500000  1
