# generated using pymatgen
data_SrThBr6
_symmetry_space_group_name_H-M   'P 1'
_cell_length_a   4.28545969
_cell_length_b   9.37859076
_cell_length_c   13.47064525
_cell_angle_alpha   90.00000000
_cell_angle_beta   90.00000000
_cell_angle_gamma   90.00000000
_symmetry_Int_Tables_number   1
_chemical_formula_structural   SrThBr6
_chemical_formula_sum   'Sr2 Th2 Br12'
_cell_volume   541.40641722
_cell_formula_units_Z   2
loop_
 _symmetry_equiv_pos_site_id
 _symmetry_equiv_pos_as_xyz
  1  'x, y, z'
loop_
 _atom_site_type_symbol
 _atom_site_label
 _atom_site_symmetry_multiplicity
 _atom_site_fract_x
 _atom_site_fract_y
 _atom_site_fract_z
 _atom_site_occupancy
  Br  Br0  1  0.500000  0.576636  0.647488  1
  Br  Br1  1  0.500000  0.423364  0.352512  1
  Br  Br2  1  0.500000  0.076636  0.352512  1
  Br  Br3  1  0.500000  0.923364  0.647488  1
  Br  Br4  1  0.500000  0.750000  0.901853  1
  Br  Br5  1  0.500000  0.250000  0.098147  1
  Br  Br6  1  0.000000  0.750000  0.424450  1
  Br  Br7  1  0.000000  0.250000  0.575550  1
  Br  Br8  1  0.000000  0.545781  0.156643  1
  Br  Br9  1  0.000000  0.454219  0.843357  1
  Br  Br10  1  0.000000  0.045781  0.843357  1
  Br  Br11  1  0.000000  0.954219  0.156643  1
  Sr  Sr12  1  0.500000  0.750000  0.268985  1
  Sr  Sr13  1  0.500000  0.250000  0.731015  1
  Th  Th14  1  0.000000  0.750000  0.751571  1
  Th  Th15  1  0.000000  0.250000  0.248429  1
