# generated using pymatgen
data_Ti3(BiO3)4
_symmetry_space_group_name_H-M   'P 1'
_cell_length_a   3.83810347
_cell_length_b   3.83810830
_cell_length_c   16.84057892
_cell_angle_alpha   96.53605901
_cell_angle_beta   96.53590417
_cell_angle_gamma   90.00809213
_symmetry_Int_Tables_number   1
_chemical_formula_structural   Ti3(BiO3)4
_chemical_formula_sum   'Ti3 Bi4 O12'
_cell_volume   244.84369251
_cell_formula_units_Z   1
loop_
 _symmetry_equiv_pos_site_id
 _symmetry_equiv_pos_as_xyz
  1  'x, y, z'
loop_
 _atom_site_type_symbol
 _atom_site_label
 _atom_site_symmetry_multiplicity
 _atom_site_fract_x
 _atom_site_fract_y
 _atom_site_fract_z
 _atom_site_occupancy
  O  O0  1  0.559504  0.559505  0.119200  1
  O  O1  1  0.884650  0.384675  0.769234  1
  O  O2  1  0.615324  0.115350  0.230766  1
  O  O3  1  0.115350  0.615325  0.230766  1
  O  O4  1  0.500000  0.000000  0.000000  1
  O  O5  1  0.000000  0.500000  0.000000  1
  O  O6  1  0.750026  0.249974  0.499999  1
  O  O7  1  0.681723  0.681725  0.363578  1
  O  O8  1  0.440496  0.440495  0.880800  1
  O  O9  1  0.249974  0.750026  0.500001  1
  O  O10  1  0.318277  0.318275  0.636422  1
  O  O11  1  0.384676  0.884650  0.769234  1
  Ti  Ti12  1  0.500000  0.500000  0.000000  1
  Ti  Ti13  1  0.372222  0.372222  0.744447  1
  Ti  Ti14  1  0.627778  0.627778  0.255553  1
  Bi  Bi15  1  0.788365  0.788371  0.577301  1
  Bi  Bi16  1  0.211635  0.211629  0.422699  1
  Bi  Bi17  1  0.933265  0.933266  0.866762  1
  Bi  Bi18  1  0.066735  0.066734  0.133238  1
