# generated using pymatgen
data_Sr4Mn3(ClO4)2
_symmetry_space_group_name_H-M   'P 1'
_cell_length_a   3.91953766
_cell_length_b   3.91953766
_cell_length_c   16.67171145
_cell_angle_alpha   96.75075874
_cell_angle_beta   96.75075871
_cell_angle_gamma   89.99999998
_symmetry_Int_Tables_number   1
_chemical_formula_structural   Sr4Mn3(ClO4)2
_chemical_formula_sum   'Sr4 Mn3 Cl2 O8'
_cell_volume   252.55981166
_cell_formula_units_Z   1
loop_
 _symmetry_equiv_pos_site_id
 _symmetry_equiv_pos_as_xyz
  1  'x, y, z'
loop_
 _atom_site_type_symbol
 _atom_site_label
 _atom_site_symmetry_multiplicity
 _atom_site_fract_x
 _atom_site_fract_y
 _atom_site_fract_z
 _atom_site_occupancy
  O  O0  1  0.128820  0.628820  0.257641  1
  O  O1  1  0.371181  0.871179  0.742359  1
  O  O2  1  0.999999  0.499999  1.000000  1
  O  O3  1  0.500001  1.000000  1.000000  1
  O  O4  1  0.628821  0.128820  0.257641  1
  O  O5  1  0.059881  0.059883  0.119764  1
  O  O6  1  0.871180  0.371180  0.742359  1
  O  O7  1  0.940119  0.940119  0.880236  1
  Cl  Cl8  1  0.214502  0.214504  0.429005  1
  Cl  Cl9  1  0.785497  0.785498  0.570995  1
  Mn  Mn10  1  0.000000  0.000000  0.000000  1
  Mn  Mn11  1  0.880354  0.880354  0.760707  1
  Mn  Mn12  1  0.119648  0.119646  0.239293  1
  Sr  Sr13  1  0.678029  0.678028  0.356056  1
  Sr  Sr14  1  0.321973  0.321972  0.643944  1
  Sr  Sr15  1  0.557083  0.557081  0.114165  1
  Sr  Sr16  1  0.442917  0.442918  0.885834  1
