# generated using pymatgen
data_H12C4NClO4
_symmetry_space_group_name_H-M   'P 1'
_cell_length_a   5.98145558
_cell_length_b   11.96665626
_cell_length_c   12.05840283
_cell_angle_alpha   90.00000000
_cell_angle_beta   90.00000000
_cell_angle_gamma   90.00000000
_symmetry_Int_Tables_number   1
_chemical_formula_structural   H12C4NClO4
_chemical_formula_sum   'H48 C16 N4 Cl4 O16'
_cell_volume   863.11663342
_cell_formula_units_Z   4
loop_
 _symmetry_equiv_pos_site_id
 _symmetry_equiv_pos_as_xyz
  1  'x, y, z'
loop_
 _atom_site_type_symbol
 _atom_site_label
 _atom_site_symmetry_multiplicity
 _atom_site_fract_x
 _atom_site_fract_y
 _atom_site_fract_z
 _atom_site_occupancy
  H  H0  1  0.263606  0.376881  0.978578  1
  H  H1  1  0.263606  0.623119  0.021422  1
  H  H2  1  0.736394  0.876881  0.521422  1
  H  H3  1  0.736394  0.123119  0.478578  1
  H  H4  1  0.269021  0.484538  0.874253  1
  H  H5  1  0.269021  0.515462  0.125747  1
  H  H6  1  0.730979  0.984538  0.625747  1
  H  H7  1  0.730979  0.015462  0.374253  1
  H  H8  1  0.479026  0.377043  0.874752  1
  H  H9  1  0.479026  0.622957  0.125248  1
  H  H10  1  0.520974  0.877043  0.625248  1
  H  H11  1  0.520974  0.122957  0.374752  1
  H  H12  1  0.552341  0.371929  0.120335  1
  H  H13  1  0.552341  0.628071  0.879665  1
  H  H14  1  0.447659  0.871929  0.379665  1
  H  H15  1  0.447659  0.128071  0.620335  1
  H  H16  1  0.765139  0.375172  0.015331  1
  H  H17  1  0.536673  0.887629  0.865137  1
  H  H18  1  0.234861  0.875172  0.484669  1
  H  H19  1  0.234861  0.124828  0.515331  1
  H  H20  1  0.763111  0.478797  0.123923  1
  H  H21  1  0.763111  0.521203  0.876077  1
  H  H22  1  0.765139  0.624828  0.984669  1
  H  H23  1  0.236889  0.021203  0.623923  1
  H  H24  1  0.244066  0.382813  0.533187  1
  H  H25  1  0.244066  0.617187  0.466813  1
  H  H26  1  0.244932  0.123754  0.997056  1
  H  H27  1  0.244932  0.876246  0.002944  1
  H  H28  1  0.755068  0.623754  0.502944  1
  H  H29  1  0.755068  0.376246  0.497056  1
  H  H30  1  0.254803  0.034206  0.877174  1
  H  H31  1  0.254803  0.965794  0.122826  1
  H  H32  1  0.745197  0.534206  0.622826  1
  H  H33  1  0.745197  0.465794  0.377174  1
  H  H34  1  0.462116  0.141279  0.895425  1
  H  H35  1  0.462116  0.858721  0.104575  1
  H  H36  1  0.537884  0.641279  0.604575  1
  H  H37  1  0.537884  0.358721  0.395425  1
  H  H38  1  0.755934  0.882813  0.966813  1
  H  H39  1  0.755934  0.117187  0.033187  1
  H  H40  1  0.463327  0.387629  0.634863  1
  H  H41  1  0.463327  0.612371  0.365137  1
  H  H42  1  0.740434  0.001951  0.128721  1
  H  H43  1  0.740434  0.998049  0.871279  1
  H  H44  1  0.259566  0.501951  0.371279  1
  H  H45  1  0.259566  0.498049  0.628721  1
  H  H46  1  0.536673  0.112371  0.134863  1
  H  H47  1  0.236889  0.978797  0.376077  1
  C  C48  1  0.355967  0.437346  0.580397  1
  C  C49  1  0.355967  0.562654  0.419603  1
  C  C50  1  0.644033  0.937346  0.919603  1
  C  C51  1  0.644033  0.062654  0.080397  1
  C  C52  1  0.646007  0.418972  0.437653  1
  C  C53  1  0.646007  0.581028  0.562347  1
  C  C54  1  0.629503  0.070763  0.426276  1
  C  C55  1  0.629503  0.929237  0.573724  1
  C  C56  1  0.339762  0.074156  0.570243  1
  C  C57  1  0.339762  0.925844  0.429757  1
  C  C58  1  0.370497  0.429237  0.926276  1
  C  C59  1  0.660238  0.425844  0.070243  1
  C  C60  1  0.353993  0.918972  0.062347  1
  C  C61  1  0.353993  0.081028  0.937653  1
  C  C62  1  0.370497  0.570763  0.073724  1
  C  C63  1  0.660238  0.574156  0.929757  1
  N  N64  1  0.498918  0.000000  0.000000  1
  N  N65  1  0.501082  0.500000  0.500000  1
  N  N66  1  0.515100  0.500000  0.000000  1
  N  N67  1  0.484900  0.000000  0.500000  1
  O  O68  1  0.839438  0.776806  0.136376  1
  O  O69  1  0.825082  0.807568  0.332516  1
  O  O70  1  0.174918  0.692432  0.832516  1
  O  O71  1  0.174918  0.307568  0.167484  1
  O  O72  1  0.160562  0.276806  0.363624  1
  O  O73  1  0.160562  0.723194  0.636376  1
  O  O74  1  0.833519  0.249107  0.252886  1
  O  O75  1  0.839438  0.223194  0.863624  1
  O  O76  1  0.859450  0.378189  0.738812  1
  O  O77  1  0.859450  0.621811  0.261188  1
  O  O78  1  0.140550  0.878189  0.761188  1
  O  O79  1  0.140550  0.121811  0.238812  1
  O  O80  1  0.166481  0.250893  0.752886  1
  O  O81  1  0.166481  0.749107  0.247114  1
  O  O82  1  0.833519  0.750893  0.747114  1
  O  O83  1  0.825082  0.192432  0.667484  1
  Cl  Cl84  1  0.923533  0.260910  0.755543  1
  Cl  Cl85  1  0.923533  0.739090  0.244457  1
  Cl  Cl86  1  0.076467  0.760910  0.744457  1
  Cl  Cl87  1  0.076467  0.239090  0.255543  1
