# generated using pymatgen
data_ZrH3NF4
_symmetry_space_group_name_H-M   'P 1'
_cell_length_a   6.14674901
_cell_length_b   8.19149342
_cell_length_c   8.70000253
_cell_angle_alpha   106.97404893
_cell_angle_beta   103.99848077
_cell_angle_gamma   106.73398148
_symmetry_Int_Tables_number   1
_chemical_formula_structural   ZrH3NF4
_chemical_formula_sum   'Zr4 H12 N4 F16'
_cell_volume   374.96243913
_cell_formula_units_Z   4
loop_
 _symmetry_equiv_pos_site_id
 _symmetry_equiv_pos_as_xyz
  1  'x, y, z'
loop_
 _atom_site_type_symbol
 _atom_site_label
 _atom_site_symmetry_multiplicity
 _atom_site_fract_x
 _atom_site_fract_y
 _atom_site_fract_z
 _atom_site_occupancy
  H  H0  1  0.281036  0.856568  0.299001  1
  H  H1  1  0.718964  0.143432  0.700999  1
  H  H2  1  0.188896  0.786276  0.441060  1
  H  H3  1  0.811104  0.213724  0.558940  1
  H  H4  1  0.269279  0.264440  0.320270  1
  H  H5  1  0.730721  0.735560  0.679730  1
  H  H6  1  0.195754  0.417763  0.445318  1
  H  H7  1  0.798189  0.009811  0.558984  1
  H  H8  1  0.282156  0.451921  0.286601  1
  H  H9  1  0.717844  0.548079  0.713399  1
  H  H10  1  0.201811  0.990189  0.441016  1
  H  H11  1  0.804246  0.582237  0.554682  1
  N  N12  1  0.183531  0.354597  0.321499  1
  N  N13  1  0.160728  0.856098  0.362472  1
  N  N14  1  0.839272  0.143902  0.637528  1
  N  N15  1  0.816469  0.645403  0.678501  1
  F  F16  1  0.396175  0.066770  0.088911  1
  F  F17  1  0.742527  0.316758  0.356523  1
  F  F18  1  0.285245  0.234686  0.612099  1
  F  F19  1  0.714755  0.765314  0.387901  1
  F  F20  1  0.429655  0.765888  0.096556  1
  F  F21  1  0.257473  0.683242  0.643477  1
  F  F22  1  0.444233  0.459077  0.111503  1
  F  F23  1  0.603825  0.933230  0.911089  1
  F  F24  1  0.892710  0.503096  0.167937  1
  F  F25  1  0.107290  0.496904  0.832063  1
  F  F26  1  0.009054  0.217431  0.980349  1
  F  F27  1  0.990946  0.782569  0.019651  1
  F  F28  1  0.857031  0.010100  0.223179  1
  F  F29  1  0.142969  0.989900  0.776821  1
  F  F30  1  0.555767  0.540923  0.888497  1
  F  F31  1  0.570345  0.234112  0.903444  1
  Zr  Zr32  1  0.756919  0.712447  0.160265  1
  Zr  Zr33  1  0.243081  0.287553  0.839735  1
  Zr  Zr34  1  0.776564  0.207922  0.129052  1
  Zr  Zr35  1  0.223436  0.792078  0.870948  1
