# generated using pymatgen
data_V(PO3)3
_symmetry_space_group_name_H-M   'P 1'
_cell_length_a   6.55893592
_cell_length_b   7.48248746
_cell_length_c   8.42310883
_cell_angle_alpha   74.19395661
_cell_angle_beta   67.08645238
_cell_angle_gamma   64.00544085
_symmetry_Int_Tables_number   1
_chemical_formula_structural   V(PO3)3
_chemical_formula_sum   'V2 P6 O18'
_cell_volume   339.64999005
_cell_formula_units_Z   2
loop_
 _symmetry_equiv_pos_site_id
 _symmetry_equiv_pos_as_xyz
  1  'x, y, z'
loop_
 _atom_site_type_symbol
 _atom_site_label
 _atom_site_symmetry_multiplicity
 _atom_site_fract_x
 _atom_site_fract_y
 _atom_site_fract_z
 _atom_site_occupancy
  O  O0  1  0.413451  0.548453  0.205953  1
  O  O1  1  0.332143  0.048453  0.705953  1
  O  O2  1  0.466571  0.582373  0.884545  1
  O  O3  1  0.566511  0.082373  0.384545  1
  O  O4  1  0.747449  0.049182  0.599078  1
  O  O5  1  0.104291  0.549182  0.099078  1
  O  O6  1  0.675173  0.142898  0.060831  1
  O  O7  1  0.621098  0.642898  0.560831  1
  O  O8  1  0.810763  0.690857  0.748717  1
  O  O9  1  0.249663  0.190857  0.248717  1
  O  O10  1  0.078026  0.277721  0.998026  1
  O  O11  1  0.146227  0.777721  0.498026  1
  O  O12  1  0.820996  0.389279  0.301373  1
  O  O13  1  0.988352  0.889279  0.801373  1
  O  O14  1  0.565335  0.838550  0.230438  1
  O  O15  1  0.865677  0.338550  0.730438  1
  O  O16  1  0.408720  0.370320  0.560754  1
  O  O17  1  0.160206  0.870320  0.060754  1
  P  P18  1  0.290009  0.647232  0.070018  1
  P  P19  1  0.492741  0.147232  0.570018  1
  P  P20  1  0.053592  0.347253  0.158015  1
  P  P21  1  0.941141  0.847253  0.658015  1
  P  P22  1  0.526668  0.053668  0.220273  1
  P  P23  1  0.699391  0.553668  0.720273  1
  V  V24  1  0.494192  0.599214  0.394980  1
  V  V25  1  0.011613  0.099214  0.894980  1
