# generated using pymatgen
data_Eu2SiS4
_symmetry_space_group_name_H-M   'P 1'
_cell_length_a   6.55443319
_cell_length_b   6.60895349
_cell_length_c   8.12692650
_cell_angle_alpha   90.00000000
_cell_angle_beta   108.09320708
_cell_angle_gamma   90.00000000
_symmetry_Int_Tables_number   1
_chemical_formula_structural   Eu2SiS4
_chemical_formula_sum   'Eu4 Si2 S8'
_cell_volume   334.63418376
_cell_formula_units_Z   2
loop_
 _symmetry_equiv_pos_site_id
 _symmetry_equiv_pos_as_xyz
  1  'x, y, z'
loop_
 _atom_site_type_symbol
 _atom_site_label
 _atom_site_symmetry_multiplicity
 _atom_site_fract_x
 _atom_site_fract_y
 _atom_site_fract_z
 _atom_site_occupancy
  Si  Si0  1  0.222572  0.250000  0.297654  1
  Si  Si1  1  0.777428  0.750000  0.702346  1
  S  S2  1  0.993285  0.499822  0.762336  1
  S  S3  1  0.006715  0.999822  0.237664  1
  S  S4  1  0.006715  0.500178  0.237664  1
  S  S5  1  0.993285  0.000178  0.762336  1
  S  S6  1  0.420165  0.250000  0.132602  1
  S  S7  1  0.579835  0.750000  0.867398  1
  S  S8  1  0.391588  0.250000  0.567575  1
  S  S9  1  0.608412  0.750000  0.432425  1
  Eu  Eu10  1  0.217084  0.750000  0.549050  1
  Eu  Eu11  1  0.782916  0.250000  0.450950  1
  Eu  Eu12  1  0.272204  0.750000  0.070226  1
  Eu  Eu13  1  0.727796  0.250000  0.929774  1
