# generated using pymatgen
data_NdFeO3
_symmetry_space_group_name_H-M   'P 1'
_cell_length_a   5.46576932
_cell_length_b   5.70514908
_cell_length_c   7.92779152
_cell_angle_alpha   90.00000000
_cell_angle_beta   90.00000000
_cell_angle_gamma   90.00000000
_symmetry_Int_Tables_number   1
_chemical_formula_structural   NdFeO3
_chemical_formula_sum   'Nd4 Fe4 O12'
_cell_volume   247.21255135
_cell_formula_units_Z   4
loop_
 _symmetry_equiv_pos_site_id
 _symmetry_equiv_pos_as_xyz
  1  'x, y, z'
loop_
 _atom_site_type_symbol
 _atom_site_label
 _atom_site_symmetry_multiplicity
 _atom_site_fract_x
 _atom_site_fract_y
 _atom_site_fract_z
 _atom_site_occupancy
  Nd  Nd0  1  0.516163  0.057385  0.250000  1
  Nd  Nd1  1  0.983837  0.557385  0.250000  1
  Nd  Nd2  1  0.016163  0.442615  0.750000  1
  Nd  Nd3  1  0.483837  0.942615  0.750000  1
  Fe  Fe4  1  0.500000  0.500000  0.500000  1
  Fe  Fe5  1  0.000000  0.000000  0.000000  1
  Fe  Fe6  1  0.500000  0.500000  0.000000  1
  Fe  Fe7  1  0.000000  0.000000  0.500000  1
  O  O8  1  0.298201  0.202889  0.550343  1
  O  O9  1  0.201799  0.702889  0.550343  1
  O  O10  1  0.798201  0.297111  0.050343  1
  O  O11  1  0.093352  0.971770  0.250000  1
  O  O12  1  0.593352  0.528230  0.750000  1
  O  O13  1  0.701799  0.797111  0.449657  1
  O  O14  1  0.406648  0.471770  0.250000  1
  O  O15  1  0.798201  0.297111  0.449657  1
  O  O16  1  0.701799  0.797111  0.050343  1
  O  O17  1  0.201799  0.702889  0.949657  1
  O  O18  1  0.906648  0.028230  0.750000  1
  O  O19  1  0.298201  0.202889  0.949657  1
