# generated using pymatgen
data_Na2Ti3Cl8
_symmetry_space_group_name_H-M   'P 1'
_cell_length_a   7.92778116
_cell_length_b   7.92778116
_cell_length_c   7.92778116
_cell_angle_alpha   54.78911967
_cell_angle_beta   54.78911967
_cell_angle_gamma   54.78911967
_symmetry_Int_Tables_number   1
_chemical_formula_structural   Na2Ti3Cl8
_chemical_formula_sum   'Na2 Ti3 Cl8'
_cell_volume   309.56960725
_cell_formula_units_Z   1
loop_
 _symmetry_equiv_pos_site_id
 _symmetry_equiv_pos_as_xyz
  1  'x, y, z'
loop_
 _atom_site_type_symbol
 _atom_site_label
 _atom_site_symmetry_multiplicity
 _atom_site_fract_x
 _atom_site_fract_y
 _atom_site_fract_z
 _atom_site_occupancy
  Na  Na0  1  0.159664  0.159664  0.159664  1
  Na  Na1  1  0.840336  0.840336  0.840336  1
  Cl  Cl2  1  0.899623  0.420263  0.899623  1
  Cl  Cl3  1  0.899623  0.899623  0.420263  1
  Cl  Cl4  1  0.595258  0.595258  0.595258  1
  Cl  Cl5  1  0.404742  0.404742  0.404742  1
  Cl  Cl6  1  0.100377  0.100377  0.579737  1
  Cl  Cl7  1  0.100377  0.579737  0.100377  1
  Cl  Cl8  1  0.579737  0.100377  0.100377  1
  Cl  Cl9  1  0.420263  0.899623  0.899623  1
  Ti  Ti10  1  0.500000  0.500000  0.000000  1
  Ti  Ti11  1  0.500000  0.000000  0.500000  1
  Ti  Ti12  1  0.000000  0.500000  0.500000  1
