# generated using pymatgen
data_Pu5Ir3
_symmetry_space_group_name_H-M   'P 1'
_cell_length_a   5.58260704
_cell_length_b   8.36083208
_cell_length_c   8.36083209
_cell_angle_alpha   83.60057288
_cell_angle_beta   70.49708897
_cell_angle_gamma   70.49708897
_symmetry_Int_Tables_number   1
_chemical_formula_structural   Pu5Ir3
_chemical_formula_sum   'Pu10 Ir6'
_cell_volume   346.74765772
_cell_formula_units_Z   2
loop_
 _symmetry_equiv_pos_site_id
 _symmetry_equiv_pos_as_xyz
  1  'x, y, z'
loop_
 _atom_site_type_symbol
 _atom_site_label
 _atom_site_symmetry_multiplicity
 _atom_site_fract_x
 _atom_site_fract_y
 _atom_site_fract_z
 _atom_site_occupancy
  Ir  Ir0  1  0.250000  0.000000  0.000000  1
  Ir  Ir1  1  0.750000  0.000000  0.000000  1
  Ir  Ir2  1  0.164223  0.500000  0.171553  1
  Ir  Ir3  1  0.335777  0.828447  0.500000  1
  Ir  Ir4  1  0.664223  0.171553  0.500000  1
  Ir  Ir5  1  0.835777  0.500000  0.828447  1
  Pu  Pu6  1  0.250000  0.500000  0.500000  1
  Pu  Pu7  1  0.750000  0.500000  0.500000  1
  Pu  Pu8  1  0.082475  0.138487  0.696563  1
  Pu  Pu9  1  0.779038  0.303437  0.138487  1
  Pu  Pu10  1  0.220962  0.696563  0.861513  1
  Pu  Pu11  1  0.917525  0.861513  0.303437  1
  Pu  Pu12  1  0.279038  0.138487  0.303437  1
  Pu  Pu13  1  0.720962  0.861513  0.696563  1
  Pu  Pu14  1  0.417525  0.303437  0.861513  1
  Pu  Pu15  1  0.582475  0.696563  0.138487  1
