# generated using pymatgen
data_FeNi2BO5
_symmetry_space_group_name_H-M   'P 1'
_cell_length_a   3.03659513
_cell_length_b   9.32560812
_cell_length_c   12.35701046
_cell_angle_alpha   90.00000000
_cell_angle_beta   90.00000000
_cell_angle_gamma   90.00000000
_symmetry_Int_Tables_number   1
_chemical_formula_structural   FeNi2BO5
_chemical_formula_sum   'Fe4 Ni8 B4 O20'
_cell_volume   349.92701097
_cell_formula_units_Z   4
loop_
 _symmetry_equiv_pos_site_id
 _symmetry_equiv_pos_as_xyz
  1  'x, y, z'
loop_
 _atom_site_type_symbol
 _atom_site_label
 _atom_site_symmetry_multiplicity
 _atom_site_fract_x
 _atom_site_fract_y
 _atom_site_fract_z
 _atom_site_occupancy
  B  B0  1  0.000000  0.273348  0.360259  1
  B  B1  1  0.000000  0.226653  0.860259  1
  B  B2  1  0.000000  0.773348  0.139742  1
  B  B3  1  0.000000  0.726652  0.639742  1
  O  O4  1  0.000000  0.125047  0.358938  1
  O  O5  1  0.500001  0.883640  0.422434  1
  O  O6  1  0.500001  0.616360  0.922433  1
  O  O7  1  0.500001  0.383640  0.077567  1
  O  O8  1  0.000000  0.374953  0.858938  1
  O  O9  1  0.000000  0.625047  0.141063  1
  O  O10  1  0.000000  0.874953  0.641062  1
  O  O11  1  0.500001  0.116360  0.577567  1
  O  O12  1  0.000000  0.151600  0.762816  1
  O  O13  1  0.000000  0.348400  0.262815  1
  O  O14  1  0.000000  0.651599  0.737184  1
  O  O15  1  0.000000  0.848400  0.237185  1
  O  O16  1  0.000000  0.150786  0.957595  1
  O  O17  1  0.000000  0.849214  0.042404  1
  O  O18  1  0.500001  0.392605  0.643303  1
  O  O19  1  0.000000  0.349213  0.457595  1
  O  O20  1  0.500001  0.107395  0.143302  1
  O  O21  1  0.500001  0.892606  0.856697  1
  O  O22  1  0.500001  0.607395  0.356697  1
  O  O23  1  0.000000  0.650787  0.542404  1
  Fe  Fe24  1  0.000000  0.260280  0.614572  1
  Fe  Fe25  1  0.000000  0.739720  0.385428  1
  Fe  Fe26  1  0.000000  0.760280  0.885428  1
  Fe  Fe27  1  0.000000  0.239719  0.114571  1
  Ni  Ni28  1  0.500001  0.500000  0.500000  1
  Ni  Ni29  1  0.000000  0.500000  0.000000  1
  Ni  Ni30  1  0.000000  0.000000  0.500000  1
  Ni  Ni31  1  0.500001  0.000000  0.000000  1
  Ni  Ni32  1  0.500001  0.499275  0.782077  1
  Ni  Ni33  1  0.500001  0.500725  0.217923  1
  Ni  Ni34  1  0.500001  0.999276  0.717923  1
  Ni  Ni35  1  0.500001  0.000724  0.282077  1
