# generated using pymatgen
data_LiGeTe2
_symmetry_space_group_name_H-M   'P 1'
_cell_length_a   7.34283620
_cell_length_b   9.25002794
_cell_length_c   11.47994511
_cell_angle_alpha   75.69309053
_cell_angle_beta   77.10427228
_cell_angle_gamma   70.62424738
_symmetry_Int_Tables_number   1
_chemical_formula_structural   LiGeTe2
_chemical_formula_sum   'Li6 Ge6 Te12'
_cell_volume   704.20567601
_cell_formula_units_Z   6
loop_
 _symmetry_equiv_pos_site_id
 _symmetry_equiv_pos_as_xyz
  1  'x, y, z'
loop_
 _atom_site_type_symbol
 _atom_site_label
 _atom_site_symmetry_multiplicity
 _atom_site_fract_x
 _atom_site_fract_y
 _atom_site_fract_z
 _atom_site_occupancy
  Li  Li0  1  0.991170  0.653230  0.810235  1
  Li  Li1  1  0.008830  0.346770  0.189765  1
  Li  Li2  1  0.526832  0.679791  0.321292  1
  Li  Li3  1  0.473168  0.320209  0.678708  1
  Li  Li4  1  0.500000  0.000000  0.000000  1
  Li  Li5  1  0.000000  0.000000  0.500000  1
  Ge  Ge6  1  0.066438  0.610728  0.449843  1
  Ge  Ge7  1  0.933562  0.389272  0.550157  1
  Ge  Ge8  1  0.962016  0.960171  0.206572  1
  Ge  Ge9  1  0.037984  0.039829  0.793428  1
  Ge  Ge10  1  0.047415  0.741572  0.097112  1
  Ge  Ge11  1  0.952585  0.258428  0.902888  1
  Te  Te12  1  0.754867  0.666840  0.072382  1
  Te  Te13  1  0.245133  0.333160  0.927618  1
  Te  Te14  1  0.699430  0.200769  0.100593  1
  Te  Te15  1  0.300570  0.799231  0.899407  1
  Te  Te16  1  0.274342  0.520279  0.242835  1
  Te  Te17  1  0.725658  0.479721  0.757165  1
  Te  Te18  1  0.266784  0.667265  0.580150  1
  Te  Te19  1  0.733216  0.332735  0.419850  1
  Te  Te20  1  0.750637  0.850301  0.407172  1
  Te  Te21  1  0.249363  0.149699  0.592828  1
  Te  Te22  1  0.256675  0.012417  0.252759  1
  Te  Te23  1  0.743325  0.987583  0.747241  1
