# generated using pymatgen
data_Y2NCl3
_symmetry_space_group_name_H-M   'P 1'
_cell_length_a   3.84940540
_cell_length_b   8.46070301
_cell_length_c   9.71122922
_cell_angle_alpha   72.45216508
_cell_angle_beta   78.56865913
_cell_angle_gamma   76.85081491
_symmetry_Int_Tables_number   1
_chemical_formula_structural   Y2NCl3
_chemical_formula_sum   'Y4 N2 Cl6'
_cell_volume   290.78205981
_cell_formula_units_Z   2
loop_
 _symmetry_equiv_pos_site_id
 _symmetry_equiv_pos_as_xyz
  1  'x, y, z'
loop_
 _atom_site_type_symbol
 _atom_site_label
 _atom_site_symmetry_multiplicity
 _atom_site_fract_x
 _atom_site_fract_y
 _atom_site_fract_z
 _atom_site_occupancy
  N  N0  1  0.576168  0.005037  0.842627  1
  N  N1  1  0.423832  0.994963  0.157373  1
  Cl  Cl2  1  0.953671  0.343137  0.749520  1
  Cl  Cl3  1  0.046329  0.656863  0.250480  1
  Cl  Cl4  1  0.333079  0.820549  0.513293  1
  Cl  Cl5  1  0.666921  0.179452  0.486707  1
  Cl  Cl6  1  0.219918  0.673837  0.886328  1
  Cl  Cl7  1  0.780082  0.326163  0.113672  1
  Y  Y8  1  0.136842  0.018753  0.707562  1
  Y  Y9  1  0.863158  0.981247  0.292438  1
  Y  Y10  1  0.416163  0.211985  0.955689  1
  Y  Y11  1  0.583837  0.788015  0.044311  1
