# generated using pymatgen
data_Na2H10SO5
_symmetry_space_group_name_H-M   'P 1'
_cell_length_a   6.48395516
_cell_length_b   7.10100769
_cell_length_c   8.70982690
_cell_angle_alpha   90.00000000
_cell_angle_beta   90.00000000
_cell_angle_gamma   117.16482194
_symmetry_Int_Tables_number   1
_chemical_formula_structural   Na2H10SO5
_chemical_formula_sum   'Na4 H20 S2 O10'
_cell_volume   356.78908762
_cell_formula_units_Z   2
loop_
 _symmetry_equiv_pos_site_id
 _symmetry_equiv_pos_as_xyz
  1  'x, y, z'
loop_
 _atom_site_type_symbol
 _atom_site_label
 _atom_site_symmetry_multiplicity
 _atom_site_fract_x
 _atom_site_fract_y
 _atom_site_fract_z
 _atom_site_occupancy
  H  H0  1  0.994676  0.367954  0.379156  1
  H  H1  1  0.521057  0.702054  0.020965  1
  H  H2  1  0.819003  0.297946  0.979035  1
  H  H3  1  0.478943  0.297946  0.520965  1
  H  H4  1  0.478943  0.297946  0.979035  1
  H  H5  1  0.180997  0.702054  0.020965  1
  H  H6  1  0.521057  0.702054  0.479035  1
  H  H7  1  0.819003  0.297946  0.520965  1
  H  H8  1  0.626722  0.632046  0.879156  1
  H  H9  1  0.994676  0.367954  0.120844  1
  H  H10  1  0.373278  0.367954  0.379156  1
  H  H11  1  0.005324  0.632046  0.620844  1
  H  H12  1  0.373278  0.367954  0.120844  1
  H  H13  1  0.005324  0.632046  0.879156  1
  H  H14  1  0.015128  0.276165  0.750000  1
  H  H15  1  0.626722  0.632046  0.620844  1
  H  H16  1  0.984872  0.723835  0.250000  1
  H  H17  1  0.261038  0.276165  0.750000  1
  H  H18  1  0.738962  0.723835  0.250000  1
  H  H19  1  0.180997  0.702054  0.479035  1
  O  O20  1  0.616113  0.755078  0.926441  1
  O  O21  1  0.861035  0.244922  0.073559  1
  O  O22  1  0.383887  0.244922  0.426441  1
  O  O23  1  0.138965  0.755078  0.573559  1
  O  O24  1  0.383887  0.244922  0.073559  1
  O  O25  1  0.138965  0.755078  0.926441  1
  O  O26  1  0.616113  0.755078  0.573559  1
  O  O27  1  0.861035  0.244922  0.426441  1
  O  O28  1  0.091953  0.183907  0.750000  1
  O  O29  1  0.908047  0.816093  0.250000  1
  Na  Na30  1  0.000000  0.000000  0.000000  1
  Na  Na31  1  0.456745  0.913490  0.750000  1
  Na  Na32  1  0.543255  0.086510  0.250000  1
  Na  Na33  1  0.000000  0.000000  0.500000  1
  S  S34  1  0.310100  0.620201  0.250000  1
  S  S35  1  0.689900  0.379799  0.750000  1
