# generated using pymatgen
data_Li2MnPO4F
_symmetry_space_group_name_H-M   'P 1'
_cell_length_a   5.44126456
_cell_length_b   5.44815386
_cell_length_c   7.55912816
_cell_angle_alpha   72.10745924
_cell_angle_beta   72.20461464
_cell_angle_gamma   94.46916597
_symmetry_Int_Tables_number   1
_chemical_formula_structural   Li2MnPO4F
_chemical_formula_sum   'Li4 Mn2 P2 O8 F2'
_cell_volume   199.36384973
_cell_formula_units_Z   2
loop_
 _symmetry_equiv_pos_site_id
 _symmetry_equiv_pos_as_xyz
  1  'x, y, z'
loop_
 _atom_site_type_symbol
 _atom_site_label
 _atom_site_symmetry_multiplicity
 _atom_site_fract_x
 _atom_site_fract_y
 _atom_site_fract_z
 _atom_site_occupancy
  Li  Li0  1  0.815054  0.449507  0.131688  1
  Li  Li1  1  0.488933  0.845779  0.857510  1
  Li  Li2  1  0.514326  0.036846  0.477997  1
  Li  Li3  1  0.222919  0.547301  0.712416  1
  O  O4  1  0.285758  0.751850  0.421036  1
  O  O5  1  0.724022  0.203497  0.634757  1
  O  O6  1  0.673971  0.672125  0.655192  1
  O  O7  1  0.852364  0.353264  0.883460  1
  O  O8  1  0.134538  0.662286  0.153129  1
  O  O9  1  0.363680  0.271226  0.902853  1
  O  O10  1  0.343431  0.327037  0.356471  1
  O  O11  1  0.616807  0.747540  0.092733  1
  F  F12  1  0.189744  0.890911  0.744479  1
  F  F13  1  0.845730  0.106242  0.274214  1
  P  P14  1  0.340329  0.621858  0.259329  1
  P  P15  1  0.655686  0.374496  0.768135  1
  Mn  Mn16  1  0.990956  0.002157  0.015674  1
  Mn  Mn17  1  0.013871  0.004445  0.500337  1
