# generated using pymatgen
data_La6Si7Br3
_symmetry_space_group_name_H-M   'P 1'
_cell_length_a   4.14878027
_cell_length_b   11.88718839
_cell_length_c   16.92462746
_cell_angle_alpha   90.00000000
_cell_angle_beta   90.00000000
_cell_angle_gamma   90.00000000
_symmetry_Int_Tables_number   1
_chemical_formula_structural   La6Si7Br3
_chemical_formula_sum   'La12 Si14 Br6'
_cell_volume   834.67748256
_cell_formula_units_Z   2
loop_
 _symmetry_equiv_pos_site_id
 _symmetry_equiv_pos_as_xyz
  1  'x, y, z'
loop_
 _atom_site_type_symbol
 _atom_site_label
 _atom_site_symmetry_multiplicity
 _atom_site_fract_x
 _atom_site_fract_y
 _atom_site_fract_z
 _atom_site_occupancy
  Si  Si0  1  0.250000  0.847032  0.250000  1
  Si  Si1  1  0.750000  0.152968  0.750000  1
  Si  Si2  1  0.750000  0.433638  0.126644  1
  Si  Si3  1  0.250000  0.566362  0.873356  1
  Si  Si4  1  0.750000  0.433638  0.373356  1
  Si  Si5  1  0.250000  0.566362  0.626644  1
  Si  Si6  1  0.250000  0.745520  0.125530  1
  Si  Si7  1  0.750000  0.254480  0.874470  1
  Si  Si8  1  0.250000  0.745520  0.374470  1
  Si  Si9  1  0.750000  0.254480  0.625530  1
  Si  Si10  1  0.250000  0.541508  0.126315  1
  Si  Si11  1  0.750000  0.458492  0.873685  1
  Si  Si12  1  0.750000  0.458492  0.626315  1
  Si  Si13  1  0.250000  0.541508  0.373685  1
  Br  Br14  1  0.750000  0.891623  0.942134  1
  Br  Br15  1  0.250000  0.108377  0.057866  1
  Br  Br16  1  0.250000  0.862139  0.750000  1
  Br  Br17  1  0.750000  0.137861  0.250000  1
  Br  Br18  1  0.750000  0.891623  0.557866  1
  Br  Br19  1  0.250000  0.108377  0.442134  1
  La  La20  1  0.750000  0.657598  0.750000  1
  La  La21  1  0.250000  0.342402  0.250000  1
  La  La22  1  0.750000  0.642433  0.005833  1
  La  La23  1  0.250000  0.357567  0.994167  1
  La  La24  1  0.750000  0.642433  0.494167  1
  La  La25  1  0.250000  0.357567  0.505833  1
  La  La26  1  0.750000  0.935286  0.130196  1
  La  La27  1  0.250000  0.064714  0.869804  1
  La  La28  1  0.750000  0.935286  0.369804  1
  La  La29  1  0.250000  0.064714  0.630196  1
  La  La30  1  0.750000  0.642282  0.250000  1
  La  La31  1  0.250000  0.357718  0.750000  1
