# generated using pymatgen
data_CaNiBP2H3O10
_symmetry_space_group_name_H-M   'P 1'
_cell_length_a   6.68003113
_cell_length_b   6.68003113
_cell_length_c   9.22586795
_cell_angle_alpha   70.40405817
_cell_angle_beta   70.40405818
_cell_angle_gamma   78.17351491
_symmetry_Int_Tables_number   1
_chemical_formula_structural   CaNiBP2H3O10
_chemical_formula_sum   'Ca2 Ni2 B2 P4 H6 O20'
_cell_volume   363.38835017
_cell_formula_units_Z   2
loop_
 _symmetry_equiv_pos_site_id
 _symmetry_equiv_pos_as_xyz
  1  'x, y, z'
loop_
 _atom_site_type_symbol
 _atom_site_label
 _atom_site_symmetry_multiplicity
 _atom_site_fract_x
 _atom_site_fract_y
 _atom_site_fract_z
 _atom_site_occupancy
  H  H0  1  0.000000  0.500000  0.000000  1
  H  H1  1  0.500000  0.000000  0.500000  1
  H  H2  1  0.336498  0.694907  0.414951  1
  H  H3  1  0.305093  0.663502  0.085049  1
  H  H4  1  0.663502  0.305093  0.585049  1
  H  H5  1  0.694907  0.336498  0.914951  1
  B  B6  1  0.472359  0.527641  0.250000  1
  B  B7  1  0.527641  0.472359  0.750000  1
  O  O8  1  0.439006  0.676598  0.100967  1
  O  O9  1  0.323402  0.560994  0.399033  1
  O  O10  1  0.529417  0.700379  0.743265  1
  O  O11  1  0.299621  0.470583  0.756735  1
  O  O12  1  0.470583  0.299621  0.256735  1
  O  O13  1  0.700379  0.529417  0.243265  1
  O  O14  1  0.346315  0.970711  0.470292  1
  O  O15  1  0.029289  0.653685  0.029708  1
  O  O16  1  0.653685  0.029289  0.529708  1
  O  O17  1  0.970711  0.346315  0.970292  1
  O  O18  1  0.269521  0.061566  0.885586  1
  O  O19  1  0.938434  0.730479  0.614414  1
  O  O20  1  0.730479  0.938434  0.114414  1
  O  O21  1  0.061566  0.269521  0.385586  1
  O  O22  1  0.733789  0.938292  0.799511  1
  O  O23  1  0.061708  0.266211  0.700489  1
  O  O24  1  0.266211  0.061708  0.200489  1
  O  O25  1  0.938292  0.733789  0.299511  1
  O  O26  1  0.560994  0.323402  0.899033  1
  O  O27  1  0.676598  0.439006  0.600967  1
  P  P28  1  0.846623  0.717185  0.173468  1
  P  P29  1  0.282815  0.153377  0.326532  1
  P  P30  1  0.153377  0.282815  0.826532  1
  P  P31  1  0.717185  0.846623  0.673468  1
  Ca  Ca32  1  0.125795  0.874205  0.750000  1
  Ca  Ca33  1  0.874205  0.125795  0.250000  1
  Ni  Ni34  1  0.500000  0.000000  0.000000  1
  Ni  Ni35  1  0.000000  0.500000  0.500000  1
