# generated using pymatgen
data_KH6C2S2NO4
_symmetry_space_group_name_H-M   'P 1'
_cell_length_a   7.78279162
_cell_length_b   8.64865673
_cell_length_c   12.15943279
_cell_angle_alpha   90.00000000
_cell_angle_beta   107.43271175
_cell_angle_gamma   90.00000000
_symmetry_Int_Tables_number   1
_chemical_formula_structural   KH6C2S2NO4
_chemical_formula_sum   'K4 H24 C8 S8 N4 O16'
_cell_volume   780.86753105
_cell_formula_units_Z   4
loop_
 _symmetry_equiv_pos_site_id
 _symmetry_equiv_pos_as_xyz
  1  'x, y, z'
loop_
 _atom_site_type_symbol
 _atom_site_label
 _atom_site_symmetry_multiplicity
 _atom_site_fract_x
 _atom_site_fract_y
 _atom_site_fract_z
 _atom_site_occupancy
  H  H0  1  0.001892  0.783308  0.828207  1
  H  H1  1  0.998108  0.283308  0.671793  1
  H  H2  1  0.998108  0.216692  0.171793  1
  H  H3  1  0.001892  0.716692  0.328207  1
  H  H4  1  0.062582  0.841933  0.977904  1
  H  H5  1  0.937418  0.341933  0.522096  1
  H  H6  1  0.937418  0.158067  0.022096  1
  H  H7  1  0.062582  0.658067  0.477904  1
  H  H8  1  0.234340  0.782972  0.913070  1
  H  H9  1  0.765660  0.282972  0.586930  1
  H  H10  1  0.765660  0.217028  0.086930  1
  H  H11  1  0.234340  0.717028  0.413070  1
  H  H12  1  0.262937  0.976954  0.473276  1
  H  H13  1  0.737063  0.476954  0.026724  1
  H  H14  1  0.737063  0.023046  0.526724  1
  H  H15  1  0.262937  0.523046  0.973276  1
  H  H16  1  0.143888  0.400700  0.045168  1
  H  H17  1  0.856112  0.900700  0.454832  1
  H  H18  1  0.856112  0.599300  0.954832  1
  H  H19  1  0.143888  0.099300  0.545168  1
  H  H20  1  0.084293  0.399315  0.889653  1
  H  H21  1  0.915707  0.899315  0.610347  1
  H  H22  1  0.915707  0.600685  0.110347  1
  H  H23  1  0.084293  0.100685  0.389653  1
  C  C24  1  0.193912  0.088109  0.470379  1
  C  C25  1  0.896261  0.160425  0.100694  1
  C  C26  1  0.896261  0.339575  0.600694  1
  C  C27  1  0.103739  0.839575  0.899306  1
  C  C28  1  0.193912  0.411891  0.970379  1
  C  C29  1  0.806088  0.911891  0.529621  1
  C  C30  1  0.806088  0.588109  0.029621  1
  C  C31  1  0.103739  0.660425  0.399306  1
  N  N32  1  0.737125  0.899754  0.027823  1
  N  N33  1  0.737125  0.600246  0.527823  1
  N  N34  1  0.262875  0.100246  0.972177  1
  N  N35  1  0.262875  0.399754  0.472177  1
  O  O36  1  0.517638  0.773181  0.402330  1
  O  O37  1  0.055462  0.604611  0.669462  1
  O  O38  1  0.055462  0.895389  0.169462  1
  O  O39  1  0.944538  0.395389  0.330538  1
  O  O40  1  0.439672  0.294189  0.887899  1
  O  O41  1  0.560328  0.794189  0.612101  1
  O  O42  1  0.560328  0.705811  0.112101  1
  O  O43  1  0.439672  0.205811  0.387899  1
  O  O44  1  0.482362  0.273181  0.097670  1
  O  O45  1  0.944538  0.104611  0.830538  1
  O  O46  1  0.517638  0.726819  0.902330  1
  O  O47  1  0.482362  0.226819  0.597670  1
  O  O48  1  0.804057  0.970130  0.242351  1
  O  O49  1  0.195943  0.029870  0.757649  1
  O  O50  1  0.804057  0.529870  0.742351  1
  O  O51  1  0.195943  0.470130  0.257649  1
  S  S52  1  0.357875  0.264903  0.980253  1
  S  S53  1  0.642125  0.764903  0.519747  1
  S  S54  1  0.642125  0.735097  0.019747  1
  S  S55  1  0.357875  0.235097  0.480253  1
  S  S56  1  0.122969  0.467718  0.355726  1
  S  S57  1  0.877031  0.967718  0.144274  1
  S  S58  1  0.877031  0.532282  0.644274  1
  S  S59  1  0.122969  0.032282  0.855726  1
  K  K60  1  0.429115  0.975525  0.211449  1
  K  K61  1  0.570885  0.475525  0.288551  1
  K  K62  1  0.570885  0.024475  0.788551  1
  K  K63  1  0.429115  0.524475  0.711449  1
