# generated using pymatgen
data_Rb4PbBr6
_symmetry_space_group_name_H-M   'P 1'
_cell_length_a   9.65659525
_cell_length_b   9.65659525
_cell_length_c   9.65659525
_cell_angle_alpha   89.72761848
_cell_angle_beta   89.72761849
_cell_angle_gamma   89.72761850
_symmetry_Int_Tables_number   1
_chemical_formula_structural   Rb4PbBr6
_chemical_formula_sum   'Rb8 Pb2 Br12'
_cell_volume   900.44545317
_cell_formula_units_Z   2
loop_
 _symmetry_equiv_pos_site_id
 _symmetry_equiv_pos_as_xyz
  1  'x, y, z'
loop_
 _atom_site_type_symbol
 _atom_site_label
 _atom_site_symmetry_multiplicity
 _atom_site_fract_x
 _atom_site_fract_y
 _atom_site_fract_z
 _atom_site_occupancy
  Br  Br0  1  0.573130  0.441632  0.801891  1
  Br  Br1  1  0.441632  0.801891  0.573130  1
  Br  Br2  1  0.801891  0.573130  0.441632  1
  Br  Br3  1  0.698109  0.058368  0.926870  1
  Br  Br4  1  0.058368  0.926870  0.698109  1
  Br  Br5  1  0.926870  0.698109  0.058368  1
  Br  Br6  1  0.426870  0.558368  0.198109  1
  Br  Br7  1  0.558368  0.198109  0.426870  1
  Br  Br8  1  0.198109  0.426870  0.558368  1
  Br  Br9  1  0.301891  0.941632  0.073130  1
  Br  Br10  1  0.073130  0.301891  0.941632  1
  Br  Br11  1  0.941632  0.073130  0.301891  1
  Rb  Rb12  1  0.250000  0.250000  0.250000  1
  Rb  Rb13  1  0.750000  0.750000  0.750000  1
  Rb  Rb14  1  0.129279  0.750000  0.370721  1
  Rb  Rb15  1  0.750000  0.370721  0.129279  1
  Rb  Rb16  1  0.370721  0.129279  0.750000  1
  Rb  Rb17  1  0.870721  0.250000  0.629279  1
  Rb  Rb18  1  0.250000  0.629279  0.870721  1
  Rb  Rb19  1  0.629279  0.870721  0.250000  1
  Pb  Pb20  1  0.000000  0.000000  0.000000  1
  Pb  Pb21  1  0.500000  0.500000  0.500000  1
