# generated using pymatgen
data_W3Br7
_symmetry_space_group_name_H-M   'P 1'
_cell_length_a   14.18288976
_cell_length_b   14.18288976
_cell_length_c   14.18288976
_cell_angle_alpha   90.00000000
_cell_angle_beta   90.00000000
_cell_angle_gamma   90.00000000
_symmetry_Int_Tables_number   1
_chemical_formula_structural   W3Br7
_chemical_formula_sum   'W24 Br56'
_cell_volume   2852.95014020
_cell_formula_units_Z   8
loop_
 _symmetry_equiv_pos_site_id
 _symmetry_equiv_pos_as_xyz
  1  'x, y, z'
loop_
 _atom_site_type_symbol
 _atom_site_label
 _atom_site_symmetry_multiplicity
 _atom_site_fract_x
 _atom_site_fract_y
 _atom_site_fract_z
 _atom_site_occupancy
  Br  Br0  1  0.133100  0.133100  0.133100  1
  Br  Br1  1  0.366900  0.366900  0.133100  1
  Br  Br2  1  0.133100  0.366900  0.366900  1
  Br  Br3  1  0.366900  0.133100  0.366900  1
  Br  Br4  1  0.866900  0.866900  0.866900  1
  Br  Br5  1  0.633100  0.633100  0.866900  1
  Br  Br6  1  0.866900  0.633100  0.633100  1
  Br  Br7  1  0.633100  0.866900  0.633100  1
  Br  Br8  1  0.185338  0.062917  0.881459  1
  Br  Br9  1  0.881459  0.185338  0.062917  1
  Br  Br10  1  0.062917  0.881459  0.185338  1
  Br  Br11  1  0.437083  0.618541  0.185338  1
  Br  Br12  1  0.881459  0.314662  0.437083  1
  Br  Br13  1  0.437083  0.881459  0.314662  1
  Br  Br14  1  0.618541  0.314662  0.062917  1
  Br  Br15  1  0.618541  0.185338  0.437083  1
  Br  Br16  1  0.062917  0.618541  0.314662  1
  Br  Br17  1  0.185338  0.437083  0.618541  1
  Br  Br18  1  0.314662  0.062917  0.618541  1
  Br  Br19  1  0.314662  0.437083  0.881459  1
  Br  Br20  1  0.814662  0.937083  0.118541  1
  Br  Br21  1  0.118541  0.814662  0.937083  1
  Br  Br22  1  0.937083  0.118541  0.814662  1
  Br  Br23  1  0.562917  0.381459  0.814662  1
  Br  Br24  1  0.118541  0.685338  0.562917  1
  Br  Br25  1  0.562917  0.118541  0.685338  1
  Br  Br26  1  0.381459  0.685338  0.937083  1
  Br  Br27  1  0.381459  0.814662  0.562917  1
  Br  Br28  1  0.937083  0.381459  0.685338  1
  Br  Br29  1  0.814662  0.562917  0.381459  1
  Br  Br30  1  0.685338  0.937083  0.381459  1
  Br  Br31  1  0.685338  0.562917  0.118541  1
  Br  Br32  1  0.296167  0.938747  0.081631  1
  Br  Br33  1  0.081631  0.296167  0.938747  1
  Br  Br34  1  0.938747  0.081631  0.296167  1
  Br  Br35  1  0.561253  0.418369  0.296167  1
  Br  Br36  1  0.081631  0.203833  0.561253  1
  Br  Br37  1  0.561253  0.081631  0.203833  1
  Br  Br38  1  0.418369  0.203833  0.938747  1
  Br  Br39  1  0.418369  0.296167  0.561253  1
  Br  Br40  1  0.938747  0.418369  0.203833  1
  Br  Br41  1  0.296167  0.561253  0.418369  1
  Br  Br42  1  0.203833  0.938747  0.418369  1
  Br  Br43  1  0.203833  0.561253  0.081631  1
  Br  Br44  1  0.703833  0.061253  0.918369  1
  Br  Br45  1  0.918369  0.703833  0.061253  1
  Br  Br46  1  0.061253  0.918369  0.703833  1
  Br  Br47  1  0.438747  0.581631  0.703833  1
  Br  Br48  1  0.918369  0.796167  0.438747  1
  Br  Br49  1  0.438747  0.918369  0.796167  1
  Br  Br50  1  0.581631  0.796167  0.061253  1
  Br  Br51  1  0.581631  0.703833  0.438747  1
  Br  Br52  1  0.061253  0.581631  0.796167  1
  Br  Br53  1  0.703833  0.438747  0.581631  1
  Br  Br54  1  0.796167  0.061253  0.581631  1
  Br  Br55  1  0.796167  0.438747  0.918369  1
  W  W56  1  0.126326  0.973654  0.035195  1
  W  W57  1  0.035195  0.126326  0.973654  1
  W  W58  1  0.973654  0.035195  0.126326  1
  W  W59  1  0.526346  0.464805  0.126326  1
  W  W60  1  0.035195  0.373674  0.526346  1
  W  W61  1  0.526346  0.035195  0.373674  1
  W  W62  1  0.464805  0.373674  0.973654  1
  W  W63  1  0.464805  0.126326  0.526346  1
  W  W64  1  0.973654  0.464805  0.373674  1
  W  W65  1  0.126326  0.526346  0.464805  1
  W  W66  1  0.373674  0.973654  0.464805  1
  W  W67  1  0.373674  0.526346  0.035195  1
  W  W68  1  0.873674  0.026346  0.964805  1
  W  W69  1  0.964805  0.873674  0.026346  1
  W  W70  1  0.026346  0.964805  0.873674  1
  W  W71  1  0.473654  0.535195  0.873674  1
  W  W72  1  0.964805  0.626326  0.473654  1
  W  W73  1  0.473654  0.964805  0.626326  1
  W  W74  1  0.535195  0.626326  0.026346  1
  W  W75  1  0.535195  0.873674  0.473654  1
  W  W76  1  0.026346  0.535195  0.626326  1
  W  W77  1  0.873674  0.473654  0.535195  1
  W  W78  1  0.626326  0.026346  0.535195  1
  W  W79  1  0.626326  0.473654  0.964805  1
