# generated using pymatgen
data_CsTlI4
_symmetry_space_group_name_H-M   'P 1'
_cell_length_a   7.65476275
_cell_length_b   8.84454584
_cell_length_c   19.46863610
_cell_angle_alpha   90.00000000
_cell_angle_beta   90.00000000
_cell_angle_gamma   105.70162700
_symmetry_Int_Tables_number   1
_chemical_formula_structural   CsTlI4
_chemical_formula_sum   'Cs4 Tl4 I16'
_cell_volume   1268.89761443
_cell_formula_units_Z   4
loop_
 _symmetry_equiv_pos_site_id
 _symmetry_equiv_pos_as_xyz
  1  'x, y, z'
loop_
 _atom_site_type_symbol
 _atom_site_label
 _atom_site_symmetry_multiplicity
 _atom_site_fract_x
 _atom_site_fract_y
 _atom_site_fract_z
 _atom_site_occupancy
  I  I0  1  0.630770  0.131821  0.743833  1
  I  I1  1  0.369230  0.368179  0.243833  1
  I  I2  1  0.369230  0.868179  0.256167  1
  I  I3  1  0.630770  0.631821  0.756167  1
  I  I4  1  0.723662  0.439709  0.951247  1
  I  I5  1  0.276338  0.060291  0.451247  1
  I  I6  1  0.276338  0.560291  0.048753  1
  I  I7  1  0.723662  0.939709  0.548753  1
  I  I8  1  0.189351  0.796201  0.660919  1
  I  I9  1  0.810649  0.703799  0.160919  1
  I  I10  1  0.810649  0.203799  0.339081  1
  I  I11  1  0.189351  0.296201  0.839081  1
  I  I12  1  0.729004  0.422103  0.550018  1
  I  I13  1  0.270996  0.077897  0.050018  1
  I  I14  1  0.270996  0.577897  0.449982  1
  I  I15  1  0.729004  0.922103  0.949982  1
  Cs  Cs16  1  0.809519  0.709402  0.372067  1
  Cs  Cs17  1  0.190481  0.790598  0.872067  1
  Cs  Cs18  1  0.190481  0.290598  0.627933  1
  Cs  Cs19  1  0.809519  0.209402  0.127933  1
  Tl  Tl20  1  0.811064  0.704026  0.629334  1
  Tl  Tl21  1  0.188936  0.795974  0.129334  1
  Tl  Tl22  1  0.188936  0.295974  0.370666  1
  Tl  Tl23  1  0.811064  0.204026  0.870666  1
