# generated using pymatgen
data_Bi(BO2)3
_symmetry_space_group_name_H-M   'P 1'
_cell_length_a   4.40862745
_cell_length_b   4.40874000
_cell_length_c   6.64038674
_cell_angle_alpha   78.75225050
_cell_angle_beta   78.75113225
_cell_angle_gamma   70.50939798
_symmetry_Int_Tables_number   1
_chemical_formula_structural   Bi(BO2)3
_chemical_formula_sum   'Bi1 B3 O6'
_cell_volume   118.14765797
_cell_formula_units_Z   1
loop_
 _symmetry_equiv_pos_site_id
 _symmetry_equiv_pos_as_xyz
  1  'x, y, z'
loop_
 _atom_site_type_symbol
 _atom_site_label
 _atom_site_symmetry_multiplicity
 _atom_site_fract_x
 _atom_site_fract_y
 _atom_site_fract_z
 _atom_site_occupancy
  O  O0  1  0.420046  0.155099  0.121761  1
  O  O1  1  0.628671  0.661760  0.551405  1
  O  O2  1  0.916730  0.265722  0.319922  1
  B  B3  1  0.242634  0.259021  0.304648  1
  O  O4  1  0.338210  0.371334  0.448592  1
  O  O5  1  0.734278  0.083267  0.680082  1
  O  O6  1  0.844903  0.579951  0.878229  1
  B  B7  1  0.740992  0.757378  0.695355  1
  Bi  Bi8  1  0.928111  0.071888  1.000006  1
  B  B9  1  0.650025  0.349981  0.500000  1
