# generated using pymatgen
data_Nd2(SO4)3
_symmetry_space_group_name_H-M   'P 1'
_cell_length_a   6.75250932
_cell_length_b   7.00254927
_cell_length_c   11.34984375
_cell_angle_alpha   106.34759829
_cell_angle_beta   107.30579665
_cell_angle_gamma   90.00000003
_symmetry_Int_Tables_number   1
_chemical_formula_structural   Nd2(SO4)3
_chemical_formula_sum   'Nd4 S6 O24'
_cell_volume   489.60772652
_cell_formula_units_Z   2
loop_
 _symmetry_equiv_pos_site_id
 _symmetry_equiv_pos_as_xyz
  1  'x, y, z'
loop_
 _atom_site_type_symbol
 _atom_site_label
 _atom_site_symmetry_multiplicity
 _atom_site_fract_x
 _atom_site_fract_y
 _atom_site_fract_z
 _atom_site_occupancy
  O  O0  1  0.408986  0.143624  0.888139  1
  O  O1  1  0.520847  0.356376  0.111861  1
  O  O2  1  0.591014  0.856376  0.111861  1
  O  O3  1  0.479153  0.643624  0.888139  1
  O  O4  1  0.849398  0.874290  0.705590  1
  O  O5  1  0.143808  0.625710  0.294410  1
  O  O6  1  0.150602  0.125710  0.294410  1
  O  O7  1  0.856192  0.374290  0.705590  1
  O  O8  1  0.191271  0.390343  0.952587  1
  O  O9  1  0.238683  0.109657  0.047413  1
  O  O10  1  0.463053  0.801959  0.303971  1
  O  O11  1  0.159082  0.698041  0.696029  1
  O  O12  1  0.536947  0.198041  0.696029  1
  O  O13  1  0.840918  0.301959  0.303971  1
  O  O14  1  0.602238  0.210125  0.498319  1
  O  O15  1  0.103919  0.289875  0.501681  1
  O  O16  1  0.397762  0.789875  0.501681  1
  O  O17  1  0.896081  0.710125  0.498319  1
  O  O18  1  0.517901  0.504422  0.645728  1
  O  O19  1  0.872173  0.995578  0.354272  1
  O  O20  1  0.482099  0.495578  0.354272  1
  O  O21  1  0.127827  0.004422  0.645728  1
  O  O22  1  0.761317  0.890343  0.952587  1
  O  O23  1  0.808729  0.609657  0.047413  1
  S  S24  1  0.334421  0.250000  0.000000  1
  S  S25  1  0.665579  0.750000  0.000000  1
  S  S26  1  1.000027  0.821734  0.633519  1
  S  S27  1  0.366508  0.678266  0.366481  1
  S  S28  1  -0.000027  0.178266  0.366481  1
  S  S29  1  0.633492  0.321734  0.633519  1
  Nd  Nd30  1  0.778200  0.631021  0.263855  1
  Nd  Nd31  1  0.514346  0.868979  0.736145  1
  Nd  Nd32  1  0.221800  0.368979  0.736145  1
  Nd  Nd33  1  0.485654  0.131021  0.263855  1
