# generated using pymatgen
data_Cu3SbS4
_symmetry_space_group_name_H-M   'P 1'
_cell_length_a   6.30705044
_cell_length_b   6.60276135
_cell_length_c   7.60526654
_cell_angle_alpha   90.00000000
_cell_angle_beta   90.00000000
_cell_angle_gamma   90.00000000
_symmetry_Int_Tables_number   1
_chemical_formula_structural   Cu3SbS4
_chemical_formula_sum   'Cu6 Sb2 S8'
_cell_volume   316.71333099
_cell_formula_units_Z   2
loop_
 _symmetry_equiv_pos_site_id
 _symmetry_equiv_pos_as_xyz
  1  'x, y, z'
loop_
 _atom_site_type_symbol
 _atom_site_label
 _atom_site_symmetry_multiplicity
 _atom_site_fract_x
 _atom_site_fract_y
 _atom_site_fract_z
 _atom_site_occupancy
  Cu  Cu0  1  0.509021  0.328757  0.251138  1
  Cu  Cu1  1  0.009021  0.671243  0.751139  1
  Cu  Cu2  1  0.009021  0.671243  0.248862  1
  Cu  Cu3  1  0.502812  0.839011  0.000000  1
  Cu  Cu4  1  0.509021  0.328757  0.748861  1
  Cu  Cu5  1  0.002812  0.160989  0.500000  1
  Sb  Sb6  1  1.002129  0.169836  0.000000  1
  Sb  Sb7  1  0.502130  0.830164  0.500000  1
  S  S8  1  0.372334  0.654467  0.763739  1
  S  S9  1  0.872334  0.345533  0.736261  1
  S  S10  1  0.892791  0.828860  0.500000  1
  S  S11  1  0.372334  0.654467  0.236261  1
  S  S12  1  0.868457  0.821826  0.000000  1
  S  S13  1  0.872334  0.345533  0.263739  1
  S  S14  1  0.368457  0.178174  0.500000  1
  S  S15  1  0.392791  0.171140  0.000000  1
