# generated using pymatgen
data_KNa22C2S9ClO42
_symmetry_space_group_name_H-M   'P 1'
_cell_length_a   10.61324065
_cell_length_b   10.61324079
_cell_length_c   21.49502242
_cell_angle_alpha   90.00000000
_cell_angle_beta   90.00000000
_cell_angle_gamma   119.99999959
_symmetry_Int_Tables_number   1
_chemical_formula_structural   KNa22C2S9ClO42
_chemical_formula_sum   'K2 Na44 C4 S18 Cl2 O84'
_cell_volume   2096.83648624
_cell_formula_units_Z   2
loop_
 _symmetry_equiv_pos_site_id
 _symmetry_equiv_pos_as_xyz
  1  'x, y, z'
loop_
 _atom_site_type_symbol
 _atom_site_label
 _atom_site_symmetry_multiplicity
 _atom_site_fract_x
 _atom_site_fract_y
 _atom_site_fract_z
 _atom_site_occupancy
  C  C0  1  0.666667  0.333333  0.569754  1
  C  C1  1  0.333333  0.666667  0.069754  1
  C  C2  1  0.333333  0.666667  0.430246  1
  C  C3  1  0.666667  0.333333  0.930246  1
  O  O4  1  0.595651  0.403876  0.569953  1
  O  O5  1  0.191775  0.595651  0.069953  1
  O  O6  1  0.403876  0.808225  0.069953  1
  O  O7  1  0.596124  0.191775  0.569953  1
  O  O8  1  0.808225  0.404349  0.569953  1
  O  O9  1  0.404349  0.596124  0.069953  1
  O  O10  1  0.404349  0.596124  0.430047  1
  O  O11  1  0.808225  0.404349  0.930047  1
  O  O12  1  0.596124  0.191775  0.930047  1
  O  O13  1  0.403876  0.808225  0.430047  1
  O  O14  1  0.191775  0.595651  0.430047  1
  O  O15  1  0.595651  0.403876  0.930047  1
  O  O16  1  0.355748  0.367226  0.250000  1
  O  O17  1  0.988522  0.355748  0.750000  1
  O  O18  1  0.367226  0.011478  0.750000  1
  O  O19  1  0.632774  0.988522  0.250000  1
  O  O20  1  0.011478  0.644252  0.250000  1
  O  O21  1  0.644252  0.632774  0.750000  1
  O  O22  1  0.090734  0.201050  0.250000  1
  O  O23  1  0.889684  0.090734  0.750000  1
  O  O24  1  0.201050  0.110316  0.750000  1
  O  O25  1  0.798950  0.889684  0.250000  1
  O  O26  1  0.110316  0.909266  0.250000  1
  O  O27  1  0.909266  0.798950  0.750000  1
  O  O28  1  0.198896  0.431248  0.307129  1
  O  O29  1  0.767648  0.198896  0.807129  1
  O  O30  1  0.431248  0.232352  0.807129  1
  O  O31  1  0.568752  0.767648  0.307129  1
  O  O32  1  0.232352  0.801104  0.307129  1
  O  O33  1  0.801104  0.568752  0.807129  1
  O  O34  1  0.801104  0.568752  0.692871  1
  O  O35  1  0.232352  0.801104  0.192871  1
  O  O36  1  0.568752  0.767648  0.192871  1
  O  O37  1  0.431248  0.232352  0.692871  1
  O  O38  1  0.767648  0.198896  0.692871  1
  O  O39  1  0.198896  0.431248  0.192871  1
  O  O40  1  0.389873  0.113622  0.355950  1
  O  O41  1  0.276252  0.389873  0.855950  1
  O  O42  1  0.113622  0.723748  0.855950  1
  O  O43  1  0.886378  0.276252  0.355950  1
  O  O44  1  0.723748  0.610127  0.355950  1
  O  O45  1  0.610127  0.886378  0.855950  1
  O  O46  1  0.610127  0.886378  0.644050  1
  O  O47  1  0.723748  0.610127  0.144050  1
  O  O48  1  0.886378  0.276252  0.144050  1
  O  O49  1  0.113622  0.723748  0.644050  1
  O  O50  1  0.276252  0.389873  0.644050  1
  O  O51  1  0.389873  0.113622  0.144050  1
  O  O52  1  0.196100  0.155574  0.394315  1
  O  O53  1  0.040525  0.196100  0.894315  1
  O  O54  1  0.155574  0.959475  0.894315  1
  O  O55  1  0.844426  0.040525  0.394315  1
  O  O56  1  0.959475  0.803900  0.394315  1
  O  O57  1  0.803900  0.844426  0.894315  1
  O  O58  1  0.803900  0.844426  0.605685  1
  O  O59  1  0.959475  0.803900  0.105685  1
  O  O60  1  0.844426  0.040525  0.105685  1
  O  O61  1  0.155574  0.959475  0.605685  1
  O  O62  1  0.040525  0.196100  0.605685  1
  O  O63  1  0.196100  0.155574  0.105685  1
  O  O64  1  0.450275  0.325242  0.419409  1
  O  O65  1  0.125034  0.450275  0.919409  1
  O  O66  1  0.325242  0.874966  0.919409  1
  O  O67  1  0.674758  0.125034  0.419409  1
  O  O68  1  0.874966  0.549725  0.419409  1
  O  O69  1  0.549725  0.674758  0.919409  1
  O  O70  1  0.549725  0.674758  0.580591  1
  O  O71  1  0.874966  0.549725  0.080591  1
  O  O72  1  0.674758  0.125034  0.080591  1
  O  O73  1  0.325242  0.874966  0.580591  1
  O  O74  1  0.125034  0.450275  0.580591  1
  O  O75  1  0.450275  0.325242  0.080591  1
  O  O76  1  0.323597  0.079734  0.465663  1
  O  O77  1  0.243863  0.323597  0.965663  1
  O  O78  1  0.079734  0.756137  0.965663  1
  O  O79  1  0.920266  0.243863  0.465663  1
  O  O80  1  0.756137  0.676403  0.465663  1
  O  O81  1  0.676403  0.920266  0.965663  1
  O  O82  1  0.676403  0.920266  0.534337  1
  O  O83  1  0.756137  0.676403  0.034337  1
  O  O84  1  0.920266  0.243863  0.034337  1
  O  O85  1  0.079734  0.756137  0.534337  1
  O  O86  1  0.243863  0.323597  0.534337  1
  O  O87  1  0.323597  0.079734  0.034337  1
  Na  Na88  1  0.500000  0.000000  0.000000  1
  Na  Na89  1  0.500000  0.500000  0.500000  1
  Na  Na90  1  0.000000  0.500000  0.500000  1
  Na  Na91  1  0.000000  0.500000  0.000000  1
  Na  Na92  1  0.500000  0.500000  0.000000  1
  Na  Na93  1  0.500000  0.000000  0.500000  1
  Na  Na94  1  0.666667  0.333333  0.375187  1
  Na  Na95  1  0.333333  0.666667  0.875187  1
  Na  Na96  1  0.333333  0.666667  0.624813  1
  Na  Na97  1  0.666667  0.333333  0.124813  1
  Na  Na98  1  0.000000  0.000000  0.326375  1
  Na  Na99  1  0.000000  0.000000  0.826375  1
  Na  Na100  1  0.000000  0.000000  0.673625  1
  Na  Na101  1  0.000000  0.000000  0.173625  1
  Na  Na102  1  0.349164  0.147924  0.250000  1
  Na  Na103  1  0.201241  0.349164  0.750000  1
  Na  Na104  1  0.147924  0.798759  0.750000  1
  Na  Na105  1  0.852076  0.201241  0.250000  1
  Na  Na106  1  0.798759  0.650836  0.250000  1
  Na  Na107  1  0.650836  0.852076  0.750000  1
  Na  Na108  1  0.178491  0.361123  0.425865  1
  Na  Na109  1  0.817368  0.178491  0.925865  1
  Na  Na110  1  0.361123  0.182632  0.925865  1
  Na  Na111  1  0.638877  0.817368  0.425865  1
  Na  Na112  1  0.182632  0.821509  0.425865  1
  Na  Na113  1  0.821509  0.638877  0.925865  1
  Na  Na114  1  0.821509  0.638877  0.574135  1
  Na  Na115  1  0.182632  0.821509  0.074135  1
  Na  Na116  1  0.638877  0.817368  0.074135  1
  Na  Na117  1  0.361123  0.182632  0.574135  1
  Na  Na118  1  0.817368  0.178491  0.574135  1
  Na  Na119  1  0.178491  0.361123  0.074135  1
  Na  Na120  1  0.522089  0.054115  0.660925  1
  Na  Na121  1  0.467974  0.522089  0.160925  1
  Na  Na122  1  0.054115  0.532026  0.160925  1
  Na  Na123  1  0.945885  0.467974  0.660925  1
  Na  Na124  1  0.532026  0.477911  0.660925  1
  Na  Na125  1  0.477911  0.945885  0.160925  1
  Na  Na126  1  0.477911  0.945885  0.339075  1
  Na  Na127  1  0.532026  0.477911  0.839075  1
  Na  Na128  1  0.945885  0.467974  0.839075  1
  Na  Na129  1  0.054115  0.532026  0.339075  1
  Na  Na130  1  0.467974  0.522089  0.339075  1
  Na  Na131  1  0.522089  0.054115  0.839075  1
  S  S132  1  0.208971  0.357577  0.250000  1
  S  S133  1  0.851394  0.208971  0.750000  1
  S  S134  1  0.357577  0.148606  0.750000  1
  S  S135  1  0.642423  0.851394  0.250000  1
  S  S136  1  0.148606  0.791029  0.250000  1
  S  S137  1  0.791029  0.642423  0.750000  1
  S  S138  1  0.339651  0.168595  0.408872  1
  S  S139  1  0.171056  0.339651  0.908872  1
  S  S140  1  0.168595  0.828944  0.908872  1
  S  S141  1  0.831405  0.171056  0.408872  1
  S  S142  1  0.828944  0.660349  0.408872  1
  S  S143  1  0.660349  0.831405  0.908872  1
  S  S144  1  0.660349  0.831405  0.591128  1
  S  S145  1  0.828944  0.660349  0.091128  1
  S  S146  1  0.831405  0.171056  0.091128  1
  S  S147  1  0.168595  0.828944  0.591128  1
  S  S148  1  0.171056  0.339651  0.591128  1
  S  S149  1  0.339651  0.168595  0.091128  1
  Cl  Cl150  1  0.666667  0.333333  0.250000  1
  Cl  Cl151  1  0.333333  0.666667  0.750000  1
  K  K152  1  0.000000  0.000000  0.000000  1
  K  K153  1  0.000000  0.000000  0.500000  1
