# generated using pymatgen
data_NiH8(ClO2)2
_symmetry_space_group_name_H-M   'P 1'
_cell_length_a   5.98369635
_cell_length_b   9.39529654
_cell_length_c   10.98743891
_cell_angle_alpha   90.00000000
_cell_angle_beta   99.98934861
_cell_angle_gamma   90.00000000
_symmetry_Int_Tables_number   1
_chemical_formula_structural   NiH8(ClO2)2
_chemical_formula_sum   'Ni4 H32 Cl8 O16'
_cell_volume   608.33415339
_cell_formula_units_Z   4
loop_
 _symmetry_equiv_pos_site_id
 _symmetry_equiv_pos_as_xyz
  1  'x, y, z'
loop_
 _atom_site_type_symbol
 _atom_site_label
 _atom_site_symmetry_multiplicity
 _atom_site_fract_x
 _atom_site_fract_y
 _atom_site_fract_z
 _atom_site_occupancy
  H  H0  1  0.414930  0.559912  0.899649  1
  H  H1  1  0.085069  0.059913  0.600351  1
  H  H2  1  0.585068  0.440087  0.100352  1
  H  H3  1  0.914932  0.940087  0.399648  1
  H  H4  1  0.680634  0.568118  0.888046  1
  H  H5  1  0.819367  0.068118  0.611954  1
  H  H6  1  0.319367  0.431882  0.111953  1
  H  H7  1  0.180633  0.931881  0.388046  1
  H  H8  1  0.646849  0.561561  0.643883  1
  H  H9  1  0.853152  0.061562  0.856116  1
  H  H10  1  0.353152  0.438438  0.356116  1
  H  H11  1  0.146849  0.938438  0.143883  1
  H  H12  1  0.692910  0.425385  0.563241  1
  H  H13  1  0.807089  0.925386  0.936759  1
  H  H14  1  0.890846  0.299789  0.923375  1
  H  H15  1  0.192910  0.074615  0.063242  1
  H  H16  1  0.149380  0.486487  0.682281  1
  H  H17  1  0.350621  0.986487  0.817719  1
  H  H18  1  0.850620  0.513513  0.317720  1
  H  H19  1  0.649380  0.013513  0.182281  1
  H  H20  1  0.121267  0.343595  0.610516  1
  H  H21  1  0.378732  0.843595  0.889484  1
  H  H22  1  0.878732  0.656405  0.389485  1
  H  H23  1  0.621268  0.156405  0.110515  1
  H  H24  1  0.965755  0.310308  0.792042  1
  H  H25  1  0.534245  0.810308  0.707958  1
  H  H26  1  0.034245  0.689691  0.207958  1
  H  H27  1  0.465755  0.189691  0.292042  1
  H  H28  1  0.390846  0.200210  0.423375  1
  H  H29  1  0.109155  0.700210  0.076625  1
  H  H30  1  0.609155  0.799789  0.576625  1
  H  H31  1  0.307090  0.574615  0.436758  1
  O  O32  1  0.538851  0.512934  0.867394  1
  O  O33  1  0.961150  0.012934  0.632607  1
  O  O34  1  0.461149  0.487066  0.132606  1
  O  O35  1  0.038851  0.987067  0.367394  1
  O  O36  1  0.615856  0.459341  0.629540  1
  O  O37  1  0.884143  0.959340  0.870460  1
  O  O38  1  0.384143  0.540659  0.370460  1
  O  O39  1  0.115857  0.040659  0.129540  1
  O  O40  1  0.169215  0.382230  0.695260  1
  O  O41  1  0.330786  0.882229  0.804741  1
  O  O42  1  0.830785  0.617770  0.304740  1
  O  O43  1  0.669215  0.117770  0.195260  1
  O  O44  1  0.847992  0.269759  0.835554  1
  O  O45  1  0.652007  0.769759  0.664446  1
  O  O46  1  0.347992  0.230242  0.335553  1
  O  O47  1  0.152007  0.730242  0.164446  1
  Cl  Cl48  1  0.406583  0.185895  0.928507  1
  Cl  Cl49  1  0.093417  0.685895  0.571493  1
  Cl  Cl50  1  0.593418  0.814105  0.071494  1
  Cl  Cl51  1  0.906582  0.314105  0.428506  1
  Cl  Cl52  1  0.467950  0.137473  0.614371  1
  Cl  Cl53  1  0.032049  0.637474  0.885629  1
  Cl  Cl54  1  0.967950  0.362527  0.114372  1
  Cl  Cl55  1  0.532050  0.862527  0.385629  1
  Ni  Ni56  1  0.513406  0.329607  0.762022  1
  Ni  Ni57  1  0.986593  0.829607  0.737978  1
  Ni  Ni58  1  0.486593  0.670393  0.237978  1
  Ni  Ni59  1  0.013407  0.170392  0.262022  1
