# generated using pymatgen
data_Au2Se2O7
_symmetry_space_group_name_H-M   'P 1'
_cell_length_a   4.29759924
_cell_length_b   7.25735962
_cell_length_c   11.58750280
_cell_angle_alpha   90.00000000
_cell_angle_beta   90.00000000
_cell_angle_gamma   90.00000000
_symmetry_Int_Tables_number   1
_chemical_formula_structural   Au2Se2O7
_chemical_formula_sum   'Au4 Se4 O14'
_cell_volume   361.40521101
_cell_formula_units_Z   2
loop_
 _symmetry_equiv_pos_site_id
 _symmetry_equiv_pos_as_xyz
  1  'x, y, z'
loop_
 _atom_site_type_symbol
 _atom_site_label
 _atom_site_symmetry_multiplicity
 _atom_site_fract_x
 _atom_site_fract_y
 _atom_site_fract_z
 _atom_site_occupancy
  O  O0  1  0.773327  0.500000  0.500000  1
  O  O1  1  0.773327  0.000000  0.000000  1
  O  O2  1  0.165357  0.879363  0.374573  1
  O  O3  1  0.165357  0.120637  0.625427  1
  O  O4  1  0.165357  0.620637  0.874573  1
  O  O5  1  0.165357  0.379363  0.125427  1
  O  O6  1  0.476700  0.537409  0.290760  1
  O  O7  1  0.476700  0.462591  0.709240  1
  O  O8  1  0.565752  0.336549  0.915092  1
  O  O9  1  0.565752  0.663451  0.084908  1
  O  O10  1  0.565752  0.163451  0.415092  1
  O  O11  1  0.565752  0.836549  0.584908  1
  O  O12  1  0.476700  0.037409  0.209240  1
  O  O13  1  0.476700  0.962591  0.790760  1
  Se  Se14  1  0.248343  0.601976  0.171660  1
  Se  Se15  1  0.248343  0.398024  0.828340  1
  Se  Se16  1  0.248343  0.898024  0.671660  1
  Se  Se17  1  0.248343  0.101976  0.328340  1
  Au  Au18  1  0.492385  0.693670  0.436601  1
  Au  Au19  1  0.492385  0.306330  0.563399  1
  Au  Au20  1  0.492385  0.806330  0.936601  1
  Au  Au21  1  0.492385  0.193670  0.063399  1
