# generated using pymatgen
data_LaNiSnH2
_symmetry_space_group_name_H-M   'P 1'
_cell_length_a   4.44671434
_cell_length_b   7.69990466
_cell_length_c   8.67895485
_cell_angle_alpha   90.00000000
_cell_angle_beta   90.00000000
_cell_angle_gamma   90.00000000
_symmetry_Int_Tables_number   1
_chemical_formula_structural   LaNiSnH2
_chemical_formula_sum   'La4 Ni4 Sn4 H8'
_cell_volume   297.16113456
_cell_formula_units_Z   4
loop_
 _symmetry_equiv_pos_site_id
 _symmetry_equiv_pos_as_xyz
  1  'x, y, z'
loop_
 _atom_site_type_symbol
 _atom_site_label
 _atom_site_symmetry_multiplicity
 _atom_site_fract_x
 _atom_site_fract_y
 _atom_site_fract_z
 _atom_site_occupancy
  H  H0  1  0.250000  0.416112  0.065240  1
  H  H1  1  0.750000  0.583888  0.934760  1
  H  H2  1  0.750000  0.916112  0.434760  1
  H  H3  1  0.250000  0.083888  0.565240  1
  H  H4  1  0.750000  0.915181  0.065498  1
  H  H5  1  0.750000  0.584819  0.565498  1
  H  H6  1  0.250000  0.415181  0.434502  1
  H  H7  1  0.250000  0.084819  0.934502  1
  Ni  Ni8  1  0.250000  0.082360  0.749857  1
  Ni  Ni9  1  0.250000  0.417640  0.249857  1
  Ni  Ni10  1  0.750000  0.582360  0.750143  1
  Ni  Ni11  1  0.750000  0.917640  0.250143  1
  Sn  Sn12  1  0.250000  0.416016  0.749926  1
  Sn  Sn13  1  0.750000  0.916016  0.750074  1
  Sn  Sn14  1  0.250000  0.083984  0.249926  1
  Sn  Sn15  1  0.750000  0.583984  0.250074  1
  La  La16  1  0.250000  0.749959  0.500115  1
  La  La17  1  0.750000  0.250041  0.499885  1
  La  La18  1  0.750000  0.249959  0.999885  1
  La  La19  1  0.250000  0.750041  0.000115  1
