# generated using pymatgen
data_Mn3As2
_symmetry_space_group_name_H-M   'P 1'
_cell_length_a   3.47499615
_cell_length_b   6.66821343
_cell_length_c   6.74365015
_cell_angle_alpha   80.88659140
_cell_angle_beta   75.07418872
_cell_angle_gamma   74.90521572
_symmetry_Int_Tables_number   1
_chemical_formula_structural   Mn3As2
_chemical_formula_sum   'Mn6 As4'
_cell_volume   145.08187170
_cell_formula_units_Z   2
loop_
 _symmetry_equiv_pos_site_id
 _symmetry_equiv_pos_as_xyz
  1  'x, y, z'
loop_
 _atom_site_type_symbol
 _atom_site_label
 _atom_site_symmetry_multiplicity
 _atom_site_fract_x
 _atom_site_fract_y
 _atom_site_fract_z
 _atom_site_occupancy
  Mn  Mn0  1  0.694254  0.935119  0.676297  1
  Mn  Mn1  1  0.305746  0.064881  0.323703  1
  Mn  Mn2  1  0.606837  0.695438  0.090812  1
  Mn  Mn3  1  0.393163  0.304562  0.909188  1
  Mn  Mn4  1  0.500000  0.500000  0.500000  1
  Mn  Mn5  1  0.000000  0.000000  0.000000  1
  As  As6  1  0.939279  0.775379  0.346026  1
  As  As7  1  0.060721  0.224621  0.653974  1
  As  As8  1  0.750321  0.320344  0.179210  1
  As  As9  1  0.249679  0.679656  0.820790  1
