# generated using pymatgen
data_Ce(BO2)3
_symmetry_space_group_name_H-M   'P 1'
_cell_length_a   6.45891773
_cell_length_b   6.45891774
_cell_length_c   6.53386422
_cell_angle_alpha   62.09207793
_cell_angle_beta   62.09207789
_cell_angle_gamma   78.78598481
_symmetry_Int_Tables_number   1
_chemical_formula_structural   Ce(BO2)3
_chemical_formula_sum   'Ce2 B6 O12'
_cell_volume   212.75739846
_cell_formula_units_Z   2
loop_
 _symmetry_equiv_pos_site_id
 _symmetry_equiv_pos_as_xyz
  1  'x, y, z'
loop_
 _atom_site_type_symbol
 _atom_site_label
 _atom_site_symmetry_multiplicity
 _atom_site_fract_x
 _atom_site_fract_y
 _atom_site_fract_z
 _atom_site_occupancy
  B  B0  1  0.222017  0.777983  0.750000  1
  B  B1  1  0.777983  0.222017  0.250000  1
  B  B2  1  0.658461  0.795096  0.418023  1
  B  B3  1  0.204904  0.341539  0.081977  1
  B  B4  1  0.341539  0.204904  0.581977  1
  B  B5  1  0.795096  0.658461  0.918023  1
  O  O6  1  0.219336  0.991238  0.785623  1
  O  O7  1  0.788538  0.616076  0.501021  1
  O  O8  1  0.383924  0.211462  0.998979  1
  O  O9  1  0.211462  0.383924  0.498979  1
  O  O10  1  0.788324  0.415876  0.009729  1
  O  O11  1  0.584124  0.211676  0.490271  1
  O  O12  1  0.211676  0.584124  0.990271  1
  O  O13  1  0.415876  0.788324  0.509729  1
  O  O14  1  0.780664  0.008762  0.214377  1
  O  O15  1  0.991238  0.219336  0.285623  1
  O  O16  1  0.616076  0.788538  0.001021  1
  O  O17  1  0.008762  0.780664  0.714377  1
  Ce  Ce18  1  0.202202  0.797798  0.250000  1
  Ce  Ce19  1  0.797798  0.202202  0.750000  1
