# generated using pymatgen
data_P4S7
_symmetry_space_group_name_H-M   'P 1'
_cell_length_a   7.50331246
_cell_length_b   9.75808186
_cell_length_c   18.73190714
_cell_angle_alpha   90.00000000
_cell_angle_beta   90.00000000
_cell_angle_gamma   96.14566103
_symmetry_Int_Tables_number   1
_chemical_formula_structural   P4S7
_chemical_formula_sum   'P16 S28'
_cell_volume   1363.62944524
_cell_formula_units_Z   4
loop_
 _symmetry_equiv_pos_site_id
 _symmetry_equiv_pos_as_xyz
  1  'x, y, z'
loop_
 _atom_site_type_symbol
 _atom_site_label
 _atom_site_symmetry_multiplicity
 _atom_site_fract_x
 _atom_site_fract_y
 _atom_site_fract_z
 _atom_site_occupancy
  P  P0  1  0.316994  0.714784  0.376221  1
  P  P1  1  0.183006  0.785216  0.876221  1
  P  P2  1  0.683006  0.285216  0.623779  1
  P  P3  1  0.816994  0.214784  0.123779  1
  P  P4  1  0.539620  0.651207  0.295639  1
  P  P5  1  0.960380  0.848793  0.795639  1
  P  P6  1  0.460380  0.348793  0.704361  1
  P  P7  1  0.039620  0.151207  0.204361  1
  P  P8  1  0.716417  0.738538  0.453839  1
  P  P9  1  0.783583  0.761462  0.953839  1
  P  P10  1  0.283583  0.261462  0.546161  1
  P  P11  1  0.216417  0.238538  0.046161  1
  P  P12  1  0.597050  0.985386  0.330057  1
  P  P13  1  0.902950  0.514614  0.830057  1
  P  P14  1  0.402950  0.014614  0.669943  1
  P  P15  1  0.097050  0.485386  0.169943  1
  S  S16  1  0.764595  0.946860  0.417757  1
  S  S17  1  0.735405  0.553140  0.917757  1
  S  S18  1  0.235405  0.053140  0.582243  1
  S  S19  1  0.264595  0.446860  0.082243  1
  S  S20  1  0.875783  0.716031  0.532508  1
  S  S21  1  0.624217  0.783969  0.032508  1
  S  S22  1  0.124217  0.283969  0.467492  1
  S  S23  1  0.375783  0.216031  0.967492  1
  S  S24  1  0.650094  0.176820  0.303304  1
  S  S25  1  0.849906  0.323180  0.803304  1
  S  S26  1  0.349906  0.823180  0.696696  1
  S  S27  1  0.150094  0.676820  0.196696  1
  S  S28  1  0.440713  0.694593  0.476925  1
  S  S29  1  0.059287  0.805407  0.976925  1
  S  S30  1  0.559287  0.305407  0.523075  1
  S  S31  1  0.940713  0.194593  0.023075  1
  S  S32  1  0.745647  0.605536  0.366601  1
  S  S33  1  0.754353  0.894464  0.866601  1
  S  S34  1  0.254353  0.394464  0.633399  1
  S  S35  1  0.245647  0.105536  0.133399  1
  S  S36  1  0.632119  0.843020  0.247734  1
  S  S37  1  0.867881  0.656980  0.747734  1
  S  S38  1  0.367881  0.156980  0.752266  1
  S  S39  1  0.132119  0.343020  0.252266  1
  S  S40  1  0.326162  0.930146  0.357939  1
  S  S41  1  0.173838  0.569854  0.857939  1
  S  S42  1  0.673838  0.069854  0.642061  1
  S  S43  1  0.826162  0.430146  0.142061  1
