# generated using pymatgen
data_Ba2Ti13O22
_symmetry_space_group_name_H-M   'P 1'
_cell_length_a   7.88529456
_cell_length_b   7.88529477
_cell_length_c   13.20320094
_cell_angle_alpha   90.00000000
_cell_angle_beta   90.00000000
_cell_angle_gamma   82.32957483
_symmetry_Int_Tables_number   1
_chemical_formula_structural   Ba2Ti13O22
_chemical_formula_sum   'Ba4 Ti26 O44'
_cell_volume   813.60129228
_cell_formula_units_Z   2
loop_
 _symmetry_equiv_pos_site_id
 _symmetry_equiv_pos_as_xyz
  1  'x, y, z'
loop_
 _atom_site_type_symbol
 _atom_site_label
 _atom_site_symmetry_multiplicity
 _atom_site_fract_x
 _atom_site_fract_y
 _atom_site_fract_z
 _atom_site_occupancy
  Ba  Ba0  1  0.826203  0.173797  0.085833  1
  Ba  Ba1  1  0.173797  0.826203  0.914167  1
  Ba  Ba2  1  0.326203  0.673797  0.414167  1
  Ba  Ba3  1  0.673797  0.326203  0.585833  1
  Ti  Ti4  1  0.578217  0.919466  0.649709  1
  Ti  Ti5  1  0.743422  0.743422  0.500000  1
  Ti  Ti6  1  0.788132  0.948776  0.327241  1
  Ti  Ti7  1  0.078217  0.419466  0.850291  1
  Ti  Ti8  1  0.243422  0.243422  0.000000  1
  Ti  Ti9  1  0.288132  0.448776  0.172759  1
  Ti  Ti10  1  0.580534  0.921783  0.850291  1
  Ti  Ti11  1  0.500000  0.500000  0.000000  1
  Ti  Ti12  1  0.551224  0.711868  0.172759  1
  Ti  Ti13  1  0.080534  0.421783  0.649709  1
  Ti  Ti14  1  0.051224  0.211868  0.327241  1
  Ti  Ti15  1  0.153956  0.846044  0.169579  1
  Ti  Ti16  1  0.948776  0.788132  0.672759  1
  Ti  Ti17  1  0.346044  0.653956  0.669579  1
  Ti  Ti18  1  0.919466  0.578217  0.350291  1
  Ti  Ti19  1  0.448776  0.288132  0.827241  1
  Ti  Ti20  1  0.653956  0.346044  0.330421  1
  Ti  Ti21  1  0.419466  0.078217  0.149709  1
  Ti  Ti22  1  0.711868  0.551224  0.827241  1
  Ti  Ti23  1  0.756578  0.756578  0.000000  1
  Ti  Ti24  1  0.846044  0.153956  0.830421  1
  Ti  Ti25  1  0.000000  0.000000  0.500000  1
  Ti  Ti26  1  0.921783  0.580534  0.149709  1
  Ti  Ti27  1  0.211868  0.051224  0.672759  1
  Ti  Ti28  1  0.256578  0.256578  0.500000  1
  Ti  Ti29  1  0.421783  0.080534  0.350291  1
  O  O30  1  0.766268  0.733732  0.250000  1
  O  O31  1  0.995332  0.004668  0.246430  1
  O  O32  1  0.961891  0.793915  0.417728  1
  O  O33  1  0.266268  0.233732  0.250000  1
  O  O34  1  0.495332  0.504668  0.253570  1
  O  O35  1  0.373371  0.881103  0.248232  1
  O  O36  1  0.461891  0.293915  0.082272  1
  O  O37  1  0.528693  0.707287  0.579479  1
  O  O38  1  0.618897  0.126629  0.251768  1
  O  O39  1  0.590833  0.908597  0.413308  1
  O  O40  1  0.591403  0.909167  0.086692  1
  O  O41  1  0.706085  0.538109  0.082272  1
  O  O42  1  0.707287  0.528693  0.420521  1
  O  O43  1  0.792713  0.971307  0.920521  1
  O  O44  1  0.836846  0.163154  0.406433  1
  O  O45  1  0.873371  0.381103  0.251768  1
  O  O46  1  0.793915  0.961891  0.582272  1
  O  O47  1  0.908597  0.590833  0.586692  1
  O  O48  1  0.909167  0.591403  0.913308  1
  O  O49  1  0.881103  0.373371  0.751768  1
  O  O50  1  0.971307  0.792713  0.079479  1
  O  O51  1  0.028693  0.207287  0.920521  1
  O  O52  1  0.118897  0.626629  0.248232  1
  O  O53  1  0.090833  0.408597  0.086692  1
  O  O54  1  0.091403  0.409167  0.413308  1
  O  O55  1  0.206085  0.038109  0.417728  1
  O  O56  1  0.126629  0.618897  0.748232  1
  O  O57  1  0.163154  0.836846  0.593567  1
  O  O58  1  0.207287  0.028693  0.079479  1
  O  O59  1  0.292713  0.471307  0.579479  1
  O  O60  1  0.336846  0.663154  0.093567  1
  O  O61  1  0.293915  0.461891  0.917728  1
  O  O62  1  0.408597  0.090833  0.913308  1
  O  O63  1  0.409167  0.091403  0.586692  1
  O  O64  1  0.381103  0.873371  0.748232  1
  O  O65  1  0.471307  0.292713  0.420521  1
  O  O66  1  0.538109  0.706085  0.917728  1
  O  O67  1  0.626629  0.118897  0.751768  1
  O  O68  1  0.663154  0.336846  0.906433  1
  O  O69  1  0.733732  0.766268  0.750000  1
  O  O70  1  0.038109  0.206085  0.582272  1
  O  O71  1  0.004668  0.995332  0.753570  1
  O  O72  1  0.233732  0.266268  0.750000  1
  O  O73  1  0.504668  0.495332  0.746430  1
