# generated using pymatgen
data_NaFeS2
_symmetry_space_group_name_H-M   'P 1'
_cell_length_a   5.45809613
_cell_length_b   6.84078591
_cell_length_c   7.09010389
_cell_angle_alpha   118.84343757
_cell_angle_beta   112.63811971
_cell_angle_gamma   89.99999997
_symmetry_Int_Tables_number   1
_chemical_formula_structural   NaFeS2
_chemical_formula_sum   'Na2 Fe2 S4'
_cell_volume   208.29861548
_cell_formula_units_Z   2
loop_
 _symmetry_equiv_pos_site_id
 _symmetry_equiv_pos_as_xyz
  1  'x, y, z'
loop_
 _atom_site_type_symbol
 _atom_site_label
 _atom_site_symmetry_multiplicity
 _atom_site_fract_x
 _atom_site_fract_y
 _atom_site_fract_z
 _atom_site_occupancy
  Na  Na0  1  0.299439  0.299439  0.598878  1
  Na  Na1  1  0.700561  0.700561  0.401122  1
  S  S2  1  0.848501  0.283912  0.210307  1
  S  S3  1  0.361807  0.926395  0.210307  1
  S  S4  1  0.638193  0.716088  0.789693  1
  S  S5  1  0.151499  0.073605  0.789693  1
  Fe  Fe6  1  0.000000  0.000000  0.000000  1
  Fe  Fe7  1  0.500000  0.000000  0.000000  1
