# generated using pymatgen
data_InFeO3
_symmetry_space_group_name_H-M   'P 1'
_cell_length_a   3.39754862
_cell_length_b   3.39754862
_cell_length_c   12.36035712
_cell_angle_alpha   90.00000000
_cell_angle_beta   90.00000000
_cell_angle_gamma   119.99999996
_symmetry_Int_Tables_number   1
_chemical_formula_structural   InFeO3
_chemical_formula_sum   'In2 Fe2 O6'
_cell_volume   123.56429959
_cell_formula_units_Z   2
loop_
 _symmetry_equiv_pos_site_id
 _symmetry_equiv_pos_as_xyz
  1  'x, y, z'
loop_
 _atom_site_type_symbol
 _atom_site_label
 _atom_site_symmetry_multiplicity
 _atom_site_fract_x
 _atom_site_fract_y
 _atom_site_fract_z
 _atom_site_occupancy
  O  O0  1  0.000000  0.000000  0.750000  1
  O  O1  1  0.000000  0.000000  0.250000  1
  O  O2  1  0.666668  0.333334  0.414234  1
  O  O3  1  0.333334  0.666667  0.914233  1
  O  O4  1  0.666668  0.333334  0.085767  1
  O  O5  1  0.333334  0.666667  0.585767  1
  Fe  Fe6  1  0.333334  0.666667  0.750000  1
  Fe  Fe7  1  0.666668  0.333334  0.250000  1
  In  In8  1  0.000000  0.000000  0.500000  1
  In  In9  1  0.000000  0.000000  0.000000  1
