# generated using pymatgen
data_SmGePt
_symmetry_space_group_name_H-M   'P 1'
_cell_length_a   4.43917000
_cell_length_b   11.43489708
_cell_length_c   8.87959335
_cell_angle_alpha   39.05562643
_cell_angle_beta   60.13966042
_cell_angle_gamma   67.25522167
_symmetry_Int_Tables_number   1
_chemical_formula_structural   SmGePt
_chemical_formula_sum   'Sm4 Ge4 Pt4'
_cell_volume   246.29703591
_cell_formula_units_Z   4
loop_
 _symmetry_equiv_pos_site_id
 _symmetry_equiv_pos_as_xyz
  1  'x, y, z'
loop_
 _atom_site_type_symbol
 _atom_site_label
 _atom_site_symmetry_multiplicity
 _atom_site_fract_x
 _atom_site_fract_y
 _atom_site_fract_z
 _atom_site_occupancy
  Sm  Sm0  1  0.542286  0.246612  0.209880  1
  Sm  Sm1  1  0.457714  0.253388  0.790120  1
  Sm  Sm2  1  0.542286  0.753388  0.203103  1
  Sm  Sm3  1  0.457714  0.746612  0.796897  1
  Ge  Ge4  1  0.162486  0.056517  0.781708  1
  Ge  Ge5  1  0.162486  0.943483  0.394743  1
  Ge  Ge6  1  0.837514  0.443483  0.218292  1
  Ge  Ge7  1  0.837514  0.556517  0.605257  1
  Pt  Pt8  1  0.165779  0.454052  0.379768  1
  Pt  Pt9  1  0.165779  0.545948  0.787871  1
  Pt  Pt10  1  0.834221  0.045948  0.620232  1
  Pt  Pt11  1  0.834221  0.954052  0.212129  1
