# generated using pymatgen
data_DyCoSn2
_symmetry_space_group_name_H-M   'P 1'
_cell_length_a   4.42680408
_cell_length_b   4.34616771
_cell_length_c   9.52901694
_cell_angle_alpha   103.18224196
_cell_angle_beta   90.00000000
_cell_angle_gamma   90.00000000
_symmetry_Int_Tables_number   1
_chemical_formula_structural   DyCoSn2
_chemical_formula_sum   'Dy2 Co2 Sn4'
_cell_volume   178.50384858
_cell_formula_units_Z   2
loop_
 _symmetry_equiv_pos_site_id
 _symmetry_equiv_pos_as_xyz
  1  'x, y, z'
loop_
 _atom_site_type_symbol
 _atom_site_label
 _atom_site_symmetry_multiplicity
 _atom_site_fract_x
 _atom_site_fract_y
 _atom_site_fract_z
 _atom_site_occupancy
  Co  Co0  1  0.750000  0.321682  0.643365  1
  Co  Co1  1  0.250000  0.678318  0.356635  1
  Sn  Sn2  1  0.250000  0.251169  0.502338  1
  Sn  Sn3  1  0.750000  0.748831  0.497662  1
  Sn  Sn4  1  0.750000  0.452082  0.904164  1
  Sn  Sn5  1  0.250000  0.547918  0.095836  1
  Dy  Dy6  1  0.250000  0.884270  0.768540  1
  Dy  Dy7  1  0.750000  0.115730  0.231460  1
