# generated using pymatgen
data_AlP(H2O3)2
_symmetry_space_group_name_H-M   'P 1'
_cell_length_a   5.21059712
_cell_length_b   8.55072833
_cell_length_c   9.60963992
_cell_angle_alpha   90.00000000
_cell_angle_beta   90.00000000
_cell_angle_gamma   90.33290705
_symmetry_Int_Tables_number   1
_chemical_formula_structural   AlP(H2O3)2
_chemical_formula_sum   'Al4 P4 H16 O24'
_cell_volume   428.14451741
_cell_formula_units_Z   4
loop_
 _symmetry_equiv_pos_site_id
 _symmetry_equiv_pos_as_xyz
  1  'x, y, z'
loop_
 _atom_site_type_symbol
 _atom_site_label
 _atom_site_symmetry_multiplicity
 _atom_site_fract_x
 _atom_site_fract_y
 _atom_site_fract_z
 _atom_site_occupancy
  H  H0  1  0.942376  0.480314  0.853414  1
  H  H1  1  0.557624  0.019686  0.353414  1
  H  H2  1  0.057624  0.519686  0.146586  1
  H  H3  1  0.442376  0.980314  0.646586  1
  H  H4  1  0.241465  0.486032  0.827687  1
  H  H5  1  0.258535  0.013968  0.327687  1
  H  H6  1  0.758535  0.513968  0.172313  1
  H  H7  1  0.741465  0.986032  0.672313  1
  H  H8  1  0.427146  0.831348  0.059643  1
  H  H9  1  0.072854  0.668652  0.559643  1
  H  H10  1  0.341232  0.218046  0.042504  1
  H  H11  1  0.158768  0.281954  0.542504  1
  H  H12  1  0.658768  0.781954  0.957496  1
  H  H13  1  0.841232  0.718046  0.457496  1
  H  H14  1  0.572854  0.168652  0.940357  1
  H  H15  1  0.927146  0.331348  0.440357  1
  O  O16  1  0.587443  0.478440  0.717229  1
  O  O17  1  0.186492  0.781312  0.293539  1
  O  O18  1  0.686492  0.281312  0.206461  1
  O  O19  1  0.313508  0.718688  0.793539  1
  O  O20  1  0.118542  0.827397  0.013614  1
  O  O21  1  0.381458  0.672603  0.513614  1
  O  O22  1  0.881458  0.172603  0.986386  1
  O  O23  1  0.618542  0.327397  0.486386  1
  O  O24  1  0.881892  0.674717  0.551652  1
  O  O25  1  0.618108  0.825283  0.051652  1
  O  O26  1  0.118108  0.325283  0.448348  1
  O  O27  1  0.381892  0.174717  0.948348  1
  O  O28  1  0.600879  0.919929  0.635503  1
  O  O29  1  0.899121  0.580071  0.135503  1
  O  O30  1  0.399121  0.080071  0.364497  1
  O  O31  1  0.100879  0.419929  0.864497  1
  O  O32  1  0.412557  0.521560  0.282771  1
  O  O33  1  0.087443  0.978440  0.782771  1
  O  O34  1  0.332343  0.228466  0.676770  1
  O  O35  1  0.167657  0.271534  0.176770  1
  O  O36  1  0.667657  0.771534  0.323230  1
  O  O37  1  0.832343  0.728466  0.823230  1
  O  O38  1  0.813508  0.218688  0.706461  1
  O  O39  1  0.912557  0.021560  0.217229  1
  Al  Al40  1  0.596995  0.692714  0.674600  1
  Al  Al41  1  0.903005  0.807286  0.174600  1
  Al  Al42  1  0.403005  0.307286  0.325400  1
  Al  Al43  1  0.096995  0.192714  0.825400  1
  P  P44  1  0.090698  0.815925  0.852714  1
  P  P45  1  0.409302  0.684075  0.352714  1
  P  P46  1  0.909302  0.184075  0.147286  1
  P  P47  1  0.590698  0.315925  0.647286  1
