# generated using pymatgen
data_P4Ru
_symmetry_space_group_name_H-M   'P 1'
_cell_length_a   4.74486734
_cell_length_b   7.19996333
_cell_length_c   7.57675028
_cell_angle_alpha   111.19212488
_cell_angle_beta   90.37871391
_cell_angle_gamma   100.43543997
_symmetry_Int_Tables_number   1
_chemical_formula_structural   P4Ru
_chemical_formula_sum   'P12 Ru3'
_cell_volume   236.61243418
_cell_formula_units_Z   3
loop_
 _symmetry_equiv_pos_site_id
 _symmetry_equiv_pos_as_xyz
  1  'x, y, z'
loop_
 _atom_site_type_symbol
 _atom_site_label
 _atom_site_symmetry_multiplicity
 _atom_site_fract_x
 _atom_site_fract_y
 _atom_site_fract_z
 _atom_site_occupancy
  Ru  Ru0  1  0.000000  0.000000  0.000000  1
  Ru  Ru1  1  0.941637  0.373677  0.671604  1
  Ru  Ru2  1  0.058363  0.626323  0.328396  1
  P  P3  1  0.598682  0.368271  0.900728  1
  P  P4  1  0.401318  0.631729  0.099272  1
  P  P5  1  0.177644  0.162255  0.785442  1
  P  P6  1  0.822356  0.837745  0.214558  1
  P  P7  1  0.272608  0.427137  0.451380  1
  P  P8  1  0.727392  0.572863  0.548620  1
  P  P9  1  0.659442  0.085865  0.437444  1
  P  P10  1  0.340558  0.914135  0.562556  1
  P  P11  1  0.205356  0.704216  0.875429  1
  P  P12  1  0.794644  0.295784  0.124571  1
  P  P13  1  0.391521  0.168491  0.231436  1
  P  P14  1  0.608479  0.831509  0.768564  1
