# generated using pymatgen
data_Sm(Ni2P)2
_symmetry_space_group_name_H-M   'P 1'
_cell_length_a   3.73011429
_cell_length_b   10.70036513
_cell_length_c   14.10624607
_cell_angle_alpha   90.00000000
_cell_angle_beta   90.00000000
_cell_angle_gamma   90.00000000
_symmetry_Int_Tables_number   1
_chemical_formula_structural   Sm(Ni2P)2
_chemical_formula_sum   'Sm6 Ni24 P12'
_cell_volume   563.03084985
_cell_formula_units_Z   6
loop_
 _symmetry_equiv_pos_site_id
 _symmetry_equiv_pos_as_xyz
  1  'x, y, z'
loop_
 _atom_site_type_symbol
 _atom_site_label
 _atom_site_symmetry_multiplicity
 _atom_site_fract_x
 _atom_site_fract_y
 _atom_site_fract_z
 _atom_site_occupancy
  Sm  Sm0  1  0.000000  0.879314  0.276976  1
  Sm  Sm1  1  0.000000  0.120686  0.723024  1
  Sm  Sm2  1  0.000000  0.000000  0.000000  1
  Sm  Sm3  1  0.500000  0.620686  0.776976  1
  Sm  Sm4  1  0.500000  0.379314  0.223024  1
  Sm  Sm5  1  0.500000  0.500000  0.500000  1
  Ni  Ni6  1  0.500000  0.247605  0.413040  1
  Ni  Ni7  1  0.000000  0.597632  0.940733  1
  Ni  Ni8  1  0.000000  0.927018  0.563767  1
  Ni  Ni9  1  0.500000  0.320325  0.784389  1
  Ni  Ni10  1  0.500000  0.069429  0.177942  1
  Ni  Ni11  1  0.000000  0.072982  0.436233  1
  Ni  Ni12  1  0.500000  0.930571  0.822058  1
  Ni  Ni13  1  0.000000  0.402368  0.059267  1
  Ni  Ni14  1  0.000000  0.430571  0.677942  1
  Ni  Ni15  1  0.500000  0.774874  0.962537  1
  Ni  Ni16  1  0.000000  0.820325  0.715611  1
  Ni  Ni17  1  0.500000  0.752395  0.586960  1
  Ni  Ni18  1  0.000000  0.274874  0.537463  1
  Ni  Ni19  1  0.500000  0.572982  0.063767  1
  Ni  Ni20  1  0.000000  0.569429  0.322058  1
  Ni  Ni21  1  0.000000  0.252395  0.913040  1
  Ni  Ni22  1  0.500000  0.097632  0.559267  1
  Ni  Ni23  1  0.000000  0.179675  0.284389  1
  Ni  Ni24  1  0.500000  0.679675  0.215611  1
  Ni  Ni25  1  0.500000  0.427018  0.936233  1
  Ni  Ni26  1  0.000000  0.747605  0.086960  1
  Ni  Ni27  1  0.500000  0.225126  0.037463  1
  Ni  Ni28  1  0.000000  0.725126  0.462537  1
  Ni  Ni29  1  0.500000  0.902368  0.440733  1
  P  P30  1  0.000000  0.206891  0.128385  1
  P  P31  1  0.000000  0.638913  0.617796  1
  P  P32  1  0.000000  0.361087  0.382204  1
  P  P33  1  0.500000  0.138913  0.882204  1
  P  P34  1  0.000000  0.433021  0.841218  1
  P  P35  1  0.500000  0.293109  0.628385  1
  P  P36  1  0.500000  0.861087  0.117796  1
  P  P37  1  0.000000  0.793109  0.871615  1
  P  P38  1  0.500000  0.706891  0.371615  1
  P  P39  1  0.500000  0.066979  0.341218  1
  P  P40  1  0.000000  0.566979  0.158782  1
  P  P41  1  0.500000  0.933021  0.658782  1
