# generated using pymatgen
data_SmGa4Co
_symmetry_space_group_name_H-M   'P 1'
_cell_length_a   4.12918974
_cell_length_b   6.51772833
_cell_length_c   8.12179416
_cell_angle_alpha   90.00000000
_cell_angle_beta   104.72644045
_cell_angle_gamma   90.00000000
_symmetry_Int_Tables_number   1
_chemical_formula_structural   SmGa4Co
_chemical_formula_sum   'Sm2 Ga8 Co2'
_cell_volume   211.40105705
_cell_formula_units_Z   2
loop_
 _symmetry_equiv_pos_site_id
 _symmetry_equiv_pos_as_xyz
  1  'x, y, z'
loop_
 _atom_site_type_symbol
 _atom_site_label
 _atom_site_symmetry_multiplicity
 _atom_site_fract_x
 _atom_site_fract_y
 _atom_site_fract_z
 _atom_site_occupancy
  Co  Co0  1  0.777172  0.250000  0.554344  1
  Co  Co1  1  0.222828  0.750000  0.445656  1
  Ga  Ga2  1  0.689888  0.948462  0.379776  1
  Ga  Ga3  1  0.310112  0.051538  0.620224  1
  Ga  Ga4  1  0.310112  0.448462  0.620224  1
  Ga  Ga5  1  0.689888  0.551538  0.379776  1
  Ga  Ga6  1  0.925019  0.250000  0.850039  1
  Ga  Ga7  1  0.074981  0.750000  0.149961  1
  Ga  Ga8  1  0.500000  0.500000  0.000000  1
  Ga  Ga9  1  0.500000  0.000000  0.000000  1
  Sm  Sm10  1  0.882568  0.750000  0.765136  1
  Sm  Sm11  1  0.117432  0.250000  0.234864  1
