# generated using pymatgen
data_Na2TbO3
_symmetry_space_group_name_H-M   'P 1'
_cell_length_a   5.97884567
_cell_length_b   5.98966587
_cell_length_c   11.34652230
_cell_angle_alpha   84.88122405
_cell_angle_beta   79.70220643
_cell_angle_gamma   60.05973983
_symmetry_Int_Tables_number   1
_chemical_formula_structural   Na2TbO3
_chemical_formula_sum   'Na8 Tb4 O12'
_cell_volume   346.43507699
_cell_formula_units_Z   4
loop_
 _symmetry_equiv_pos_site_id
 _symmetry_equiv_pos_as_xyz
  1  'x, y, z'
loop_
 _atom_site_type_symbol
 _atom_site_label
 _atom_site_symmetry_multiplicity
 _atom_site_fract_x
 _atom_site_fract_y
 _atom_site_fract_z
 _atom_site_occupancy
  O  O0  1  0.953599  0.806820  0.636322  1
  O  O1  1  0.239581  0.806820  0.863678  1
  O  O2  1  0.046401  0.193180  0.363678  1
  O  O3  1  0.760419  0.193180  0.136322  1
  O  O4  1  0.589767  0.533142  0.638691  1
  O  O5  1  0.877091  0.533142  0.861309  1
  O  O6  1  0.410233  0.466858  0.361309  1
  O  O7  1  0.122909  0.466858  0.138691  1
  O  O8  1  0.315588  0.169685  0.639128  1
  O  O9  1  0.485273  0.830315  0.139128  1
  O  O10  1  0.684412  0.830315  0.360872  1
  O  O11  1  0.514727  0.169685  0.860872  1
  Na  Na12  1  0.914127  0.171745  0.750000  1
  Na  Na13  1  0.840828  0.840950  0.999837  1
  Na  Na14  1  0.681778  0.159050  0.499837  1
  Na  Na15  1  0.159172  0.159050  0.000163  1
  Na  Na16  1  0.500000  0.500000  0.000000  1
  Na  Na17  1  0.000000  0.500000  0.500000  1
  Na  Na18  1  0.085873  0.828255  0.250000  1
  Na  Na19  1  0.318222  0.840950  0.500163  1
  Tb  Tb20  1  0.247528  0.504943  0.750000  1
  Tb  Tb21  1  0.752472  0.495057  0.250000  1
  Tb  Tb22  1  0.581589  0.836822  0.750000  1
  Tb  Tb23  1  0.418411  0.163178  0.250000  1
