# generated using pymatgen
data_Ca2Bi2O5
_symmetry_space_group_name_H-M   'P 1'
_cell_length_a   10.28365366
_cell_length_b   10.23607501
_cell_length_c   10.66295715
_cell_angle_alpha   116.96257785
_cell_angle_beta   107.27285870
_cell_angle_gamma   93.72757369
_symmetry_Int_Tables_number   1
_chemical_formula_structural   Ca2Bi2O5
_chemical_formula_sum   'Ca12 Bi12 O30'
_cell_volume   928.65330583
_cell_formula_units_Z   6
loop_
 _symmetry_equiv_pos_site_id
 _symmetry_equiv_pos_as_xyz
  1  'x, y, z'
loop_
 _atom_site_type_symbol
 _atom_site_label
 _atom_site_symmetry_multiplicity
 _atom_site_fract_x
 _atom_site_fract_y
 _atom_site_fract_z
 _atom_site_occupancy
  O  O0  1  0.444264  0.477854  0.294801  1
  O  O1  1  0.555736  0.522146  0.705199  1
  O  O2  1  0.366972  0.070158  0.652060  1
  O  O3  1  0.633028  0.929842  0.347940  1
  O  O4  1  0.731913  0.362548  0.261459  1
  O  O5  1  0.268087  0.637452  0.738541  1
  O  O6  1  0.539041  0.192765  0.317660  1
  O  O7  1  0.460959  0.807235  0.682340  1
  O  O8  1  0.677402  0.104134  0.931260  1
  O  O9  1  0.322598  0.895866  0.068740  1
  O  O10  1  0.915288  0.429214  0.077451  1
  O  O11  1  0.084712  0.570786  0.922549  1
  O  O12  1  0.411662  0.168539  0.000605  1
  O  O13  1  0.588338  0.831461  0.999395  1
  O  O14  1  0.618752  0.280229  0.783579  1
  O  O15  1  0.381248  0.719771  0.216421  1
  O  O16  1  0.860788  0.058234  0.274465  1
  O  O17  1  0.139212  0.941766  0.725535  1
  O  O18  1  0.378846  0.397023  0.863217  1
  O  O19  1  0.621154  0.602977  0.136783  1
  O  O20  1  0.096626  0.174148  0.567505  1
  O  O21  1  0.903374  0.825852  0.432495  1
  O  O22  1  0.830366  0.347641  0.594696  1
  O  O23  1  0.169634  0.652359  0.405304  1
  O  O24  1  0.919942  0.618270  0.576783  1
  O  O25  1  0.080058  0.381730  0.423217  1
  O  O26  1  0.837978  0.693114  0.964417  1
  O  O27  1  0.162022  0.306886  0.035583  1
  O  O28  1  0.107719  0.833038  0.235104  1
  O  O29  1  0.892281  0.166962  0.764896  1
  Ca  Ca30  1  0.168445  0.570665  0.160014  1
  Ca  Ca31  1  0.831555  0.429335  0.839986  1
  Ca  Ca32  1  0.407404  0.653667  0.975616  1
  Ca  Ca33  1  0.592596  0.346333  0.024384  1
  Ca  Ca34  1  0.057731  0.479199  0.662466  1
  Ca  Ca35  1  0.942269  0.520801  0.337534  1
  Ca  Ca36  1  0.847930  0.106642  0.515766  1
  Ca  Ca37  1  0.152070  0.893358  0.484234  1
  Ca  Ca38  1  0.215495  0.201584  0.817004  1
  Ca  Ca39  1  0.784505  0.798416  0.182996  1
  Ca  Ca40  1  0.660273  0.101780  0.146324  1
  Ca  Ca41  1  0.339727  0.898220  0.853676  1
  Bi  Bi42  1  0.336456  0.248602  0.178780  1
  Bi  Bi43  1  0.663544  0.751398  0.821220  1
  Bi  Bi44  1  0.424756  0.307391  0.667113  1
  Bi  Bi45  1  0.575244  0.692609  0.332887  1
  Bi  Bi46  1  0.688312  0.426457  0.465619  1
  Bi  Bi47  1  0.311688  0.573543  0.534381  1
  Bi  Bi48  1  0.076092  0.150340  0.352903  1
  Bi  Bi49  1  0.923908  0.849660  0.647097  1
  Bi  Bi50  1  0.572523  0.022194  0.696150  1
  Bi  Bi51  1  0.427477  0.977806  0.303850  1
  Bi  Bi52  1  0.941098  0.206484  0.986869  1
  Bi  Bi53  1  0.058902  0.793516  0.013131  1
