# generated using pymatgen
data_Cs2FeH12(SO7)2
_symmetry_space_group_name_H-M   'P 1'
_cell_length_a   6.46504825
_cell_length_b   9.40319953
_cell_length_c   13.01446780
_cell_angle_alpha   90.00000000
_cell_angle_beta   90.00000000
_cell_angle_gamma   106.19660907
_symmetry_Int_Tables_number   1
_chemical_formula_structural   Cs2FeH12(SO7)2
_chemical_formula_sum   'Cs4 Fe2 H24 S4 O28'
_cell_volume   759.77565792
_cell_formula_units_Z   2
loop_
 _symmetry_equiv_pos_site_id
 _symmetry_equiv_pos_as_xyz
  1  'x, y, z'
loop_
 _atom_site_type_symbol
 _atom_site_label
 _atom_site_symmetry_multiplicity
 _atom_site_fract_x
 _atom_site_fract_y
 _atom_site_fract_z
 _atom_site_occupancy
  H  H0  1  0.312595  0.525191  0.641370  1
  H  H1  1  0.687406  0.974809  0.141371  1
  H  H2  1  0.687406  0.474809  0.358630  1
  H  H3  1  0.312595  0.025191  0.858630  1
  H  H4  1  0.333962  0.399220  0.565575  1
  H  H5  1  0.666037  0.100781  0.065576  1
  H  H6  1  0.926016  0.218867  0.400915  1
  H  H7  1  0.073983  0.281132  0.900915  1
  H  H8  1  0.073983  0.781133  0.599085  1
  H  H9  1  0.926017  0.718867  0.099085  1
  H  H10  1  0.093291  0.738484  0.369541  1
  H  H11  1  0.906709  0.761516  0.869541  1
  H  H12  1  0.906708  0.261516  0.630459  1
  H  H13  1  0.093291  0.238483  0.130459  1
  H  H14  1  0.325253  0.714345  0.398936  1
  H  H15  1  0.674747  0.785655  0.898936  1
  H  H16  1  0.674746  0.285655  0.601065  1
  H  H17  1  0.325253  0.214345  0.101064  1
  H  H18  1  0.018972  0.157339  0.814931  1
  H  H19  1  0.981027  0.342660  0.314931  1
  H  H20  1  0.333963  0.899220  0.934424  1
  H  H21  1  0.666037  0.600780  0.434424  1
  H  H22  1  0.018972  0.657340  0.685069  1
  H  H23  1  0.981028  0.842661  0.185069  1
  O  O24  1  0.830133  0.836118  0.886958  1
  O  O25  1  0.830135  0.336118  0.613042  1
  O  O26  1  0.007515  0.823873  0.111598  1
  O  O27  1  0.992485  0.676127  0.611599  1
  O  O28  1  0.992485  0.176127  0.888402  1
  O  O29  1  0.007514  0.323873  0.388402  1
  O  O30  1  0.294069  0.993890  0.932048  1
  O  O31  1  0.169866  0.163882  0.113042  1
  O  O32  1  0.705931  0.006110  0.067952  1
  O  O33  1  0.294068  0.493890  0.567952  1
  O  O34  1  0.941389  0.858409  0.317278  1
  O  O35  1  0.058612  0.641591  0.817278  1
  O  O36  1  0.058612  0.141591  0.682723  1
  O  O37  1  0.941389  0.358409  0.182723  1
  O  O38  1  0.605821  0.768930  0.415616  1
  O  O39  1  0.394179  0.731070  0.915616  1
  O  O40  1  0.394178  0.231069  0.584385  1
  O  O41  1  0.605822  0.268930  0.084385  1
  O  O42  1  0.797216  0.030748  0.417028  1
  O  O43  1  0.202785  0.469253  0.917028  1
  O  O44  1  0.202785  0.969252  0.582971  1
  O  O45  1  0.797214  0.530747  0.082971  1
  O  O46  1  0.611805  0.915259  0.261432  1
  O  O47  1  0.388195  0.584741  0.761432  1
  O  O48  1  0.388196  0.084741  0.738569  1
  O  O49  1  0.611805  0.415259  0.238569  1
  O  O50  1  0.169867  0.663883  0.386958  1
  O  O51  1  0.705931  0.506110  0.432048  1
  S  S52  1  0.259159  0.605147  0.852458  1
  S  S53  1  0.740840  0.894853  0.352458  1
  S  S54  1  0.259159  0.105148  0.647542  1
  S  S55  1  0.740840  0.394853  0.147542  1
  Fe  Fe56  1  0.000000  0.500000  0.500000  1
  Fe  Fe57  1  0.000000  0.000000  0.000000  1
  Cs  Cs58  1  0.352392  0.127322  0.356786  1
  Cs  Cs59  1  0.647609  0.372678  0.856786  1
  Cs  Cs60  1  0.647609  0.872678  0.643213  1
  Cs  Cs61  1  0.352391  0.627322  0.143214  1
