# generated using pymatgen
data_Nb7(BC)4
_symmetry_space_group_name_H-M   'P 1'
_cell_length_a   3.15661582
_cell_length_b   3.23856564
_cell_length_c   16.45494345
_cell_angle_alpha   95.64635661
_cell_angle_beta   95.50103536
_cell_angle_gamma   90.00328731
_symmetry_Int_Tables_number   1
_chemical_formula_structural   Nb7(BC)4
_chemical_formula_sum   'Nb7 B4 C4'
_cell_volume   166.62257730
_cell_formula_units_Z   1
loop_
 _symmetry_equiv_pos_site_id
 _symmetry_equiv_pos_as_xyz
  1  'x, y, z'
loop_
 _atom_site_type_symbol
 _atom_site_label
 _atom_site_symmetry_multiplicity
 _atom_site_fract_x
 _atom_site_fract_y
 _atom_site_fract_z
 _atom_site_occupancy
  B  B0  1  0.971579  0.471608  0.943166  1
  B  B1  1  0.443180  0.443165  0.886293  1
  B  B2  1  0.556820  0.556835  0.113707  1
  B  B3  1  0.028421  0.528392  0.056834  1
  C  C4  1  0.715508  0.715318  0.430566  1
  C  C5  1  0.852819  0.852612  0.705548  1
  C  C6  1  0.284492  0.284682  0.569434  1
  C  C7  1  0.147181  0.147388  0.294452  1
  Nb  Nb8  1  0.500000  0.000000  0.000000  1
  Nb  Nb9  1  0.081608  0.081660  0.163329  1
  Nb  Nb10  1  0.918392  0.918340  0.836671  1
  Nb  Nb11  1  0.214442  0.214365  0.428643  1
  Nb  Nb12  1  0.785558  0.785635  0.571357  1
  Nb  Nb13  1  0.647853  0.647929  0.295689  1
  Nb  Nb14  1  0.352147  0.352071  0.704311  1
