# generated using pymatgen
data_KGdP2H4O9
_symmetry_space_group_name_H-M   'P 1'
_cell_length_a   7.90497135
_cell_length_b   10.20604358
_cell_length_c   10.69764376
_cell_angle_alpha   90.00000000
_cell_angle_beta   90.00000000
_cell_angle_gamma   93.48973750
_symmetry_Int_Tables_number   1
_chemical_formula_structural   KGdP2H4O9
_chemical_formula_sum   'K4 Gd4 P8 H16 O36'
_cell_volume   861.46928524
_cell_formula_units_Z   4
loop_
 _symmetry_equiv_pos_site_id
 _symmetry_equiv_pos_as_xyz
  1  'x, y, z'
loop_
 _atom_site_type_symbol
 _atom_site_label
 _atom_site_symmetry_multiplicity
 _atom_site_fract_x
 _atom_site_fract_y
 _atom_site_fract_z
 _atom_site_occupancy
  H  H0  1  0.152179  0.035718  0.907095  1
  H  H1  1  0.847821  0.464282  0.407095  1
  H  H2  1  0.847821  0.964282  0.092905  1
  H  H3  1  0.152179  0.535718  0.592905  1
  H  H4  1  0.289870  0.036706  0.017499  1
  H  H5  1  0.710130  0.463294  0.517499  1
  H  H6  1  0.710130  0.963294  0.982501  1
  H  H7  1  0.289870  0.536706  0.482501  1
  H  H8  1  0.570193  0.631396  0.575247  1
  H  H9  1  0.429807  0.868604  0.075247  1
  H  H10  1  0.429807  0.368604  0.424753  1
  H  H11  1  0.570193  0.131396  0.924753  1
  H  H12  1  0.534681  0.537535  0.689272  1
  H  H13  1  0.465319  0.962465  0.189272  1
  H  H14  1  0.465319  0.462465  0.310728  1
  H  H15  1  0.534681  0.037535  0.810728  1
  O  O16  1  0.226325  0.092595  0.959154  1
  O  O17  1  0.773675  0.407405  0.459154  1
  O  O18  1  0.773675  0.907405  0.040846  1
  O  O19  1  0.226325  0.592595  0.540846  1
  O  O20  1  0.620151  0.560875  0.624428  1
  O  O21  1  0.379849  0.939125  0.124428  1
  O  O22  1  0.379849  0.439124  0.375572  1
  O  O23  1  0.620151  0.060875  0.875572  1
  O  O24  1  0.049123  0.205904  0.770514  1
  O  O25  1  0.950877  0.294096  0.270514  1
  O  O26  1  0.950877  0.794096  0.229486  1
  O  O27  1  0.049123  0.705904  0.729486  1
  O  O28  1  0.873727  0.147163  0.578808  1
  O  O29  1  0.126273  0.352837  0.078808  1
  O  O30  1  0.126273  0.852837  0.421192  1
  O  O31  1  0.873727  0.647163  0.921192  1
  O  O32  1  0.054781  0.976433  0.678854  1
  O  O33  1  0.945219  0.523567  0.178854  1
  O  O34  1  0.945219  0.023567  0.321146  1
  O  O35  1  0.054781  0.476433  0.821146  1
  O  O36  1  0.193455  0.171645  0.560803  1
  O  O37  1  0.806545  0.328355  0.060803  1
  O  O38  1  0.806545  0.828355  0.439197  1
  O  O39  1  0.193455  0.671645  0.939197  1
  O  O40  1  0.414525  0.264939  0.717323  1
  O  O41  1  0.585475  0.235061  0.217323  1
  O  O42  1  0.585475  0.735061  0.282677  1
  O  O43  1  0.414525  0.764939  0.782677  1
  O  O44  1  0.491556  0.215802  0.492527  1
  O  O45  1  0.508444  0.284198  0.992527  1
  O  O46  1  0.508444  0.784198  0.507473  1
  O  O47  1  0.491556  0.715802  0.007473  1
  O  O48  1  0.419559  0.026616  0.646736  1
  O  O49  1  0.580441  0.473384  0.146736  1
  O  O50  1  0.580441  0.973384  0.353264  1
  O  O51  1  0.419559  0.526616  0.853264  1
  P  P52  1  0.034015  0.121984  0.652205  1
  P  P53  1  0.965985  0.378016  0.152205  1
  P  P54  1  0.965985  0.878016  0.347795  1
  P  P55  1  0.034015  0.621984  0.847795  1
  P  P56  1  0.391417  0.168380  0.608275  1
  P  P57  1  0.608583  0.331620  0.108275  1
  P  P58  1  0.608583  0.831620  0.391725  1
  P  P59  1  0.391417  0.668380  0.891725  1
  K  K60  1  0.753500  0.332730  0.781280  1
  K  K61  1  0.246500  0.167270  0.281280  1
  K  K62  1  0.246500  0.667270  0.218720  1
  K  K63  1  0.753500  0.832730  0.718720  1
  Gd  Gd64  1  0.251837  0.326201  0.886605  1
  Gd  Gd65  1  0.748163  0.173799  0.386605  1
  Gd  Gd66  1  0.748163  0.673799  0.113395  1
  Gd  Gd67  1  0.251837  0.826201  0.613395  1
