# generated using pymatgen
data_Sr3Fe2Cl2O5
_symmetry_space_group_name_H-M   'P 1'
_cell_length_a   3.99982367
_cell_length_b   3.99982137
_cell_length_c   12.49116498
_cell_angle_alpha   99.21521838
_cell_angle_beta   99.21525318
_cell_angle_gamma   89.99845194
_symmetry_Int_Tables_number   1
_chemical_formula_structural   Sr3Fe2Cl2O5
_chemical_formula_sum   'Sr3 Fe2 Cl2 O5'
_cell_volume   194.64846705
_cell_formula_units_Z   1
loop_
 _symmetry_equiv_pos_site_id
 _symmetry_equiv_pos_as_xyz
  1  'x, y, z'
loop_
 _atom_site_type_symbol
 _atom_site_label
 _atom_site_symmetry_multiplicity
 _atom_site_fract_x
 _atom_site_fract_y
 _atom_site_fract_z
 _atom_site_occupancy
  O  O0  1  0.910018  0.409994  0.819891  1
  O  O1  1  0.409993  0.910018  0.819891  1
  O  O2  1  0.089983  0.590007  0.180110  1
  O  O3  1  0.999998  0.999998  0.999997  1
  O  O4  1  0.590007  0.089982  0.180110  1
  Cl  Cl5  1  0.202843  0.202842  0.405628  1
  Cl  Cl6  1  0.797160  0.797160  0.594377  1
  Fe  Fe7  1  0.921014  0.921015  0.842013  1
  Fe  Fe8  1  0.078983  0.078983  0.157980  1
  Sr  Sr9  1  0.655367  0.655366  0.310676  1
  Sr  Sr10  1  0.344635  0.344635  0.689327  1
  Sr  Sr11  1  0.500000  0.500002  0.000002  1
