# generated using pymatgen
data_S2I2O11
_symmetry_space_group_name_H-M   'P 1'
_cell_length_a   9.32091499
_cell_length_b   9.35935187
_cell_length_c   10.66138438
_cell_angle_alpha   90.00000000
_cell_angle_beta   90.00000000
_cell_angle_gamma   94.54715873
_symmetry_Int_Tables_number   1
_chemical_formula_structural   S2I2O11
_chemical_formula_sum   'S8 I8 O44'
_cell_volume   927.14741185
_cell_formula_units_Z   4
loop_
 _symmetry_equiv_pos_site_id
 _symmetry_equiv_pos_as_xyz
  1  'x, y, z'
loop_
 _atom_site_type_symbol
 _atom_site_label
 _atom_site_symmetry_multiplicity
 _atom_site_fract_x
 _atom_site_fract_y
 _atom_site_fract_z
 _atom_site_occupancy
  O  O0  1  0.821602  0.419802  0.660614  1
  O  O1  1  0.678398  0.580198  0.160614  1
  O  O2  1  0.178398  0.580198  0.339386  1
  O  O3  1  0.321602  0.419802  0.839386  1
  O  O4  1  0.612962  0.291723  0.828342  1
  O  O5  1  0.887038  0.708277  0.328342  1
  O  O6  1  0.387038  0.708277  0.171658  1
  O  O7  1  0.112962  0.291723  0.671658  1
  O  O8  1  0.822591  0.083322  0.787064  1
  O  O9  1  0.677409  0.916678  0.287064  1
  O  O10  1  0.177409  0.916678  0.212936  1
  O  O11  1  0.322591  0.083322  0.712936  1
  O  O12  1  0.617125  0.175774  0.616556  1
  O  O13  1  0.882875  0.824226  0.116556  1
  O  O14  1  0.655211  0.804491  0.904200  1
  O  O15  1  0.382875  0.824226  0.383444  1
  O  O16  1  0.106067  0.891685  0.852947  1
  O  O17  1  0.393933  0.108315  0.352947  1
  O  O18  1  0.893933  0.108315  0.147053  1
  O  O19  1  0.606067  0.891685  0.647053  1
  O  O20  1  0.336388  0.891367  0.968105  1
  O  O21  1  0.163612  0.108633  0.468105  1
  O  O22  1  0.663612  0.108633  0.031895  1
  O  O23  1  0.836388  0.891367  0.531895  1
  O  O24  1  0.105670  0.579660  0.705284  1
  O  O25  1  0.394330  0.420340  0.205284  1
  O  O26  1  0.894330  0.420340  0.294716  1
  O  O27  1  0.605670  0.579660  0.794716  1
  O  O28  1  0.308467  0.751168  0.780207  1
  O  O29  1  0.191533  0.248832  0.280207  1
  O  O30  1  0.691533  0.248832  0.219793  1
  O  O31  1  0.808467  0.751168  0.719793  1
  O  O32  1  0.333409  0.621545  0.587183  1
  O  O33  1  0.166591  0.378455  0.087183  1
  O  O34  1  0.666591  0.378455  0.412817  1
  O  O35  1  0.833409  0.621545  0.912817  1
  O  O36  1  0.158261  0.679456  0.967532  1
  O  O37  1  0.341739  0.320544  0.467532  1
  O  O38  1  0.841739  0.320544  0.032468  1
  O  O39  1  0.658261  0.679456  0.532468  1
  O  O40  1  0.155211  0.804491  0.595800  1
  O  O41  1  0.344789  0.195509  0.095800  1
  O  O42  1  0.844789  0.195509  0.404200  1
  O  O43  1  0.117125  0.175774  0.883444  1
  S  S44  1  0.719686  0.686436  0.846269  1
  S  S45  1  0.780314  0.313564  0.346269  1
  S  S46  1  0.280314  0.313564  0.153731  1
  S  S47  1  0.219686  0.686436  0.653731  1
  S  S48  1  0.722357  0.805069  0.595200  1
  S  S49  1  0.777643  0.194931  0.095200  1
  S  S50  1  0.277643  0.194931  0.404800  1
  S  S51  1  0.222357  0.805069  0.904800  1
  I  I52  1  0.632857  0.082517  0.778040  1
  I  I53  1  0.867143  0.917483  0.278040  1
  I  I54  1  0.367143  0.917483  0.221960  1
  I  I55  1  0.132857  0.082517  0.721960  1
  I  I56  1  0.632813  0.388408  0.667112  1
  I  I57  1  0.867187  0.611592  0.167112  1
  I  I58  1  0.367187  0.611592  0.332888  1
  I  I59  1  0.132813  0.388408  0.832888  1
