# generated using pymatgen
data_Sr(BiO2)2
_symmetry_space_group_name_H-M   'P 1'
_cell_length_a   4.38569610
_cell_length_b   6.43951828
_cell_length_c   10.36901365
_cell_angle_alpha   96.80992426
_cell_angle_beta   102.20914930
_cell_angle_gamma   89.99999998
_symmetry_Int_Tables_number   1
_chemical_formula_structural   Sr(BiO2)2
_chemical_formula_sum   'Sr2 Bi4 O8'
_cell_volume   284.10175415
_cell_formula_units_Z   2
loop_
 _symmetry_equiv_pos_site_id
 _symmetry_equiv_pos_as_xyz
  1  'x, y, z'
loop_
 _atom_site_type_symbol
 _atom_site_label
 _atom_site_symmetry_multiplicity
 _atom_site_fract_x
 _atom_site_fract_y
 _atom_site_fract_z
 _atom_site_occupancy
  O  O0  1  0.098300  0.179971  0.196600  1
  O  O1  1  0.901700  0.820029  0.803400  1
  O  O2  1  0.201001  0.864304  0.402002  1
  O  O3  1  0.798999  0.135696  0.597998  1
  O  O4  1  0.315275  0.596680  0.630550  1
  O  O5  1  0.684725  0.403320  0.369450  1
  O  O6  1  0.591193  0.940581  0.182386  1
  O  O7  1  0.408807  0.059419  0.817614  1
  Sr  Sr8  1  0.240968  0.254132  0.481936  1
  Sr  Sr9  1  0.759032  0.745868  0.518064  1
  Bi  Bi10  1  0.413851  0.723413  0.827702  1
  Bi  Bi11  1  0.586149  0.276587  0.172298  1
  Bi  Bi12  1  0.099205  0.840530  0.198410  1
  Bi  Bi13  1  0.900795  0.159470  0.801590  1
