# generated using pymatgen
data_Ba2NbInO6
_symmetry_space_group_name_H-M   'P 1'
_cell_length_a   5.96238343
_cell_length_b   5.96238342
_cell_length_c   5.96238343
_cell_angle_alpha   60.00000002
_cell_angle_beta   60.00000005
_cell_angle_gamma   60.00000000
_symmetry_Int_Tables_number   1
_chemical_formula_structural   Ba2NbInO6
_chemical_formula_sum   'Ba2 Nb1 In1 O6'
_cell_volume   149.88035249
_cell_formula_units_Z   1
loop_
 _symmetry_equiv_pos_site_id
 _symmetry_equiv_pos_as_xyz
  1  'x, y, z'
loop_
 _atom_site_type_symbol
 _atom_site_label
 _atom_site_symmetry_multiplicity
 _atom_site_fract_x
 _atom_site_fract_y
 _atom_site_fract_z
 _atom_site_occupancy
  O  O0  1  0.240580  0.759420  0.759420  1
  O  O1  1  0.240580  0.759420  0.240579  1
  O  O2  1  0.759420  0.240580  0.759420  1
  O  O3  1  0.240579  0.240580  0.759420  1
  O  O4  1  0.759420  0.240580  0.240579  1
  O  O5  1  0.759421  0.759420  0.240579  1
  Nb  Nb6  1  0.000000  0.000000  0.000000  1
  In  In7  1  0.500001  0.500000  0.499999  1
  Ba  Ba8  1  0.750000  0.750000  0.750000  1
  Ba  Ba9  1  0.250000  0.250000  0.250001  1
