# generated using pymatgen
data_NaAlCl4
_symmetry_space_group_name_H-M   'P 1'
_cell_length_a   6.28047135
_cell_length_b   10.03256963
_cell_length_c   10.61341548
_cell_angle_alpha   90.00000000
_cell_angle_beta   90.00000000
_cell_angle_gamma   90.00000000
_symmetry_Int_Tables_number   1
_chemical_formula_structural   NaAlCl4
_chemical_formula_sum   'Na4 Al4 Cl16'
_cell_volume   668.74352051
_cell_formula_units_Z   4
loop_
 _symmetry_equiv_pos_site_id
 _symmetry_equiv_pos_as_xyz
  1  'x, y, z'
loop_
 _atom_site_type_symbol
 _atom_site_label
 _atom_site_symmetry_multiplicity
 _atom_site_fract_x
 _atom_site_fract_y
 _atom_site_fract_z
 _atom_site_occupancy
  Na  Na0  1  0.315827  0.783571  0.876784  1
  Na  Na1  1  0.815827  0.216429  0.623216  1
  Na  Na2  1  0.184173  0.283571  0.123216  1
  Na  Na3  1  0.684173  0.716429  0.376784  1
  Al  Al4  1  0.795363  0.513891  0.962553  1
  Al  Al5  1  0.295363  0.486109  0.537447  1
  Al  Al6  1  0.704637  0.013891  0.037447  1
  Al  Al7  1  0.204637  0.986109  0.462553  1
  Cl  Cl8  1  0.451256  0.511376  0.966689  1
  Cl  Cl9  1  0.951256  0.488624  0.533311  1
  Cl  Cl10  1  0.048744  0.011376  0.033311  1
  Cl  Cl11  1  0.548744  0.988624  0.466689  1
  Cl  Cl12  1  0.895900  0.684825  0.854276  1
  Cl  Cl13  1  0.395900  0.315175  0.645724  1
  Cl  Cl14  1  0.604100  0.184825  0.145724  1
  Cl  Cl15  1  0.104100  0.815175  0.354276  1
  Cl  Cl16  1  0.073417  0.980594  0.651081  1
  Cl  Cl17  1  0.573417  0.019406  0.848919  1
  Cl  Cl18  1  0.426583  0.480594  0.348919  1
  Cl  Cl19  1  0.926583  0.519406  0.151081  1
  Cl  Cl20  1  0.426112  0.665307  0.621923  1
  Cl  Cl21  1  0.926112  0.334693  0.878077  1
  Cl  Cl22  1  0.073888  0.165307  0.378077  1
  Cl  Cl23  1  0.573888  0.834693  0.121923  1
