# generated using pymatgen
data_Ba3GaSb3
_symmetry_space_group_name_H-M   'P 1'
_cell_length_a   7.24180485
_cell_length_b   14.29189425
_cell_length_c   21.45599733
_cell_angle_alpha   90.00000000
_cell_angle_beta   90.00000000
_cell_angle_gamma   90.00000000
_symmetry_Int_Tables_number   1
_chemical_formula_structural   Ba3GaSb3
_chemical_formula_sum   'Ba24 Ga8 Sb24'
_cell_volume   2220.67660841
_cell_formula_units_Z   8
loop_
 _symmetry_equiv_pos_site_id
 _symmetry_equiv_pos_as_xyz
  1  'x, y, z'
loop_
 _atom_site_type_symbol
 _atom_site_label
 _atom_site_symmetry_multiplicity
 _atom_site_fract_x
 _atom_site_fract_y
 _atom_site_fract_z
 _atom_site_occupancy
  Ga  Ga0  1  0.515406  0.126594  0.836720  1
  Ga  Ga1  1  0.015406  0.373406  0.163280  1
  Ga  Ga2  1  0.484594  0.873406  0.336720  1
  Ga  Ga3  1  0.515406  0.126594  0.663280  1
  Ga  Ga4  1  0.015406  0.373406  0.336720  1
  Ga  Ga5  1  0.984594  0.626594  0.836720  1
  Ga  Ga6  1  0.484594  0.873406  0.163280  1
  Ga  Ga7  1  0.984594  0.626594  0.663280  1
  Sb  Sb8  1  0.800533  0.258077  0.089644  1
  Sb  Sb9  1  0.268466  0.987990  0.410457  1
  Sb  Sb10  1  0.731534  0.012010  0.910457  1
  Sb  Sb11  1  0.231534  0.487990  0.089543  1
  Sb  Sb12  1  0.231534  0.487990  0.410457  1
  Sb  Sb13  1  0.731534  0.012010  0.589543  1
  Sb  Sb14  1  0.268466  0.987990  0.089543  1
  Sb  Sb15  1  0.768466  0.512010  0.589543  1
  Sb  Sb16  1  0.319872  0.018642  0.750000  1
  Sb  Sb17  1  0.819872  0.481358  0.250000  1
  Sb  Sb18  1  0.180128  0.518642  0.750000  1
  Sb  Sb19  1  0.680128  0.981358  0.250000  1
  Sb  Sb20  1  0.709094  0.232646  0.750000  1
  Sb  Sb21  1  0.209094  0.267354  0.250000  1
  Sb  Sb22  1  0.790906  0.732646  0.750000  1
  Sb  Sb23  1  0.290906  0.767354  0.250000  1
  Sb  Sb24  1  0.300533  0.241923  0.910356  1
  Sb  Sb25  1  0.699467  0.758077  0.410356  1
  Sb  Sb26  1  0.199467  0.741923  0.589644  1
  Sb  Sb27  1  0.199467  0.741923  0.910356  1
  Sb  Sb28  1  0.800533  0.258077  0.410356  1
  Sb  Sb29  1  0.300533  0.241923  0.589644  1
  Sb  Sb30  1  0.768466  0.512010  0.910457  1
  Sb  Sb31  1  0.699467  0.758077  0.089644  1
  Ba  Ba32  1  0.823102  0.984179  0.750000  1
  Ba  Ba33  1  0.323102  0.515821  0.250000  1
  Ba  Ba34  1  0.676898  0.484179  0.750000  1
  Ba  Ba35  1  0.176898  0.015821  0.250000  1
  Ba  Ba36  1  0.199994  0.264781  0.750000  1
  Ba  Ba37  1  0.699994  0.235219  0.250000  1
  Ba  Ba38  1  0.300006  0.764781  0.750000  1
  Ba  Ba39  1  0.800006  0.735219  0.250000  1
  Ba  Ba40  1  0.195801  0.738048  0.076363  1
  Ba  Ba41  1  0.695801  0.761952  0.923637  1
  Ba  Ba42  1  0.304199  0.238048  0.423637  1
  Ba  Ba43  1  0.804199  0.261952  0.576363  1
  Ba  Ba44  1  0.804199  0.261952  0.923637  1
  Ba  Ba45  1  0.304199  0.238048  0.076363  1
  Ba  Ba46  1  0.695801  0.761952  0.576363  1
  Ba  Ba47  1  0.195801  0.738048  0.423637  1
  Ba  Ba48  1  0.769748  0.008905  0.076438  1
  Ba  Ba49  1  0.269748  0.491095  0.923562  1
  Ba  Ba50  1  0.730252  0.508905  0.423562  1
  Ba  Ba51  1  0.230252  0.991095  0.576438  1
  Ba  Ba52  1  0.230252  0.991095  0.923562  1
  Ba  Ba53  1  0.730252  0.508905  0.076438  1
  Ba  Ba54  1  0.269748  0.491095  0.576438  1
  Ba  Ba55  1  0.769748  0.008905  0.423562  1
