# generated using pymatgen
data_Bi6Br7
_symmetry_space_group_name_H-M   'P 1'
_cell_length_a   9.19429832
_cell_length_b   16.01728218
_cell_length_c   24.46221687
_cell_angle_alpha   90.00000000
_cell_angle_beta   90.00000000
_cell_angle_gamma   90.00000000
_symmetry_Int_Tables_number   1
_chemical_formula_structural   Bi6Br7
_chemical_formula_sum   'Bi48 Br56'
_cell_volume   3602.49369710
_cell_formula_units_Z   8
loop_
 _symmetry_equiv_pos_site_id
 _symmetry_equiv_pos_as_xyz
  1  'x, y, z'
loop_
 _atom_site_type_symbol
 _atom_site_label
 _atom_site_symmetry_multiplicity
 _atom_site_fract_x
 _atom_site_fract_y
 _atom_site_fract_z
 _atom_site_occupancy
  Br  Br0  1  0.808896  0.791663  0.669308  1
  Br  Br1  1  0.808896  0.208337  0.330692  1
  Br  Br2  1  0.691104  0.291663  0.830692  1
  Br  Br3  1  0.691104  0.708337  0.169308  1
  Br  Br4  1  0.191104  0.208337  0.330692  1
  Br  Br5  1  0.191104  0.791663  0.669308  1
  Br  Br6  1  0.308896  0.708337  0.169308  1
  Br  Br7  1  0.308896  0.291663  0.830692  1
  Br  Br8  1  0.777134  0.554210  0.664107  1
  Br  Br9  1  0.777134  0.445790  0.335893  1
  Br  Br10  1  0.722866  0.054210  0.835893  1
  Br  Br11  1  0.722866  0.945790  0.164107  1
  Br  Br12  1  0.222866  0.445790  0.335893  1
  Br  Br13  1  0.222866  0.554210  0.664107  1
  Br  Br14  1  0.277134  0.945790  0.164107  1
  Br  Br15  1  0.277134  0.054210  0.835893  1
  Br  Br16  1  0.693309  0.919436  0.560484  1
  Br  Br17  1  0.693309  0.080564  0.439516  1
  Br  Br18  1  0.806691  0.419436  0.939516  1
  Br  Br19  1  0.806691  0.580564  0.060484  1
  Br  Br20  1  0.306691  0.080564  0.439516  1
  Br  Br21  1  0.306691  0.919436  0.560484  1
  Br  Br22  1  0.193309  0.580564  0.060484  1
  Br  Br23  1  0.193309  0.419436  0.939516  1
  Br  Br24  1  0.723822  0.000000  0.000000  1
  Br  Br25  1  0.776178  0.500000  0.500000  1
  Br  Br26  1  0.276178  0.000000  0.000000  1
  Br  Br27  1  0.223822  0.500000  0.500000  1
  Br  Br28  1  0.000000  0.078044  0.556367  1
  Br  Br29  1  0.000000  0.921956  0.443633  1
  Br  Br30  1  0.500000  0.578044  0.943633  1
  Br  Br31  1  0.500000  0.421956  0.056367  1
  Br  Br32  1  0.000000  0.367974  0.608564  1
  Br  Br33  1  0.000000  0.632026  0.391436  1
  Br  Br34  1  0.500000  0.867974  0.891436  1
  Br  Br35  1  0.500000  0.132026  0.108564  1
  Br  Br36  1  0.000000  0.223330  0.755539  1
  Br  Br37  1  0.000000  0.776670  0.244461  1
  Br  Br38  1  0.500000  0.723330  0.744461  1
  Br  Br39  1  0.500000  0.276670  0.255539  1
  Br  Br40  1  0.000000  0.180401  0.939193  1
  Br  Br41  1  0.000000  0.819599  0.060807  1
  Br  Br42  1  0.500000  0.680401  0.560807  1
  Br  Br43  1  0.500000  0.319599  0.439193  1
  Br  Br44  1  0.000000  0.994463  0.696004  1
  Br  Br45  1  0.000000  0.005537  0.303996  1
  Br  Br46  1  0.500000  0.494463  0.803996  1
  Br  Br47  1  0.500000  0.505537  0.196004  1
  Br  Br48  1  0.000000  0.719103  0.540230  1
  Br  Br49  1  0.000000  0.280897  0.459770  1
  Br  Br50  1  0.500000  0.219103  0.959770  1
  Br  Br51  1  0.500000  0.780897  0.040230  1
  Br  Br52  1  0.000000  0.460690  0.789046  1
  Br  Br53  1  0.000000  0.539310  0.210954  1
  Br  Br54  1  0.500000  0.960690  0.710954  1
  Br  Br55  1  0.500000  0.039310  0.289046  1
  Bi  Bi56  1  0.821353  0.834477  0.805120  1
  Bi  Bi57  1  0.821353  0.165523  0.194880  1
  Bi  Bi58  1  0.678647  0.334477  0.694880  1
  Bi  Bi59  1  0.678647  0.665523  0.305120  1
  Bi  Bi60  1  0.178647  0.165523  0.194880  1
  Bi  Bi61  1  0.178647  0.834477  0.805120  1
  Bi  Bi62  1  0.321353  0.665523  0.305120  1
  Bi  Bi63  1  0.321353  0.334477  0.694880  1
  Bi  Bi64  1  0.816657  0.781900  0.950448  1
  Bi  Bi65  1  0.816657  0.218100  0.049552  1
  Bi  Bi66  1  0.683343  0.281900  0.549552  1
  Bi  Bi67  1  0.683343  0.718100  0.450448  1
  Bi  Bi68  1  0.183343  0.218100  0.049552  1
  Bi  Bi69  1  0.183343  0.781900  0.950448  1
  Bi  Bi70  1  0.316657  0.718100  0.450448  1
  Bi  Bi71  1  0.316657  0.281900  0.549552  1
  Bi  Bi72  1  0.744582  0.656354  0.851564  1
  Bi  Bi73  1  0.744582  0.343646  0.148436  1
  Bi  Bi74  1  0.755418  0.156354  0.648436  1
  Bi  Bi75  1  0.755418  0.843646  0.351564  1
  Bi  Bi76  1  0.255418  0.343646  0.148436  1
  Bi  Bi77  1  0.255418  0.656354  0.851564  1
  Bi  Bi78  1  0.244582  0.843646  0.351564  1
  Bi  Bi79  1  0.244582  0.156354  0.648436  1
  Bi  Bi80  1  0.000000  0.614509  0.932788  1
  Bi  Bi81  1  0.000000  0.385491  0.067212  1
  Bi  Bi82  1  0.500000  0.114509  0.567212  1
  Bi  Bi83  1  0.500000  0.885491  0.432788  1
  Bi  Bi84  1  0.000000  0.925605  0.898602  1
  Bi  Bi85  1  0.000000  0.074395  0.101398  1
  Bi  Bi86  1  0.500000  0.425605  0.601398  1
  Bi  Bi87  1  0.500000  0.574395  0.398602  1
  Bi  Bi88  1  0.000000  0.672123  0.766944  1
  Bi  Bi89  1  0.000000  0.327877  0.233056  1
  Bi  Bi90  1  0.500000  0.172123  0.733056  1
  Bi  Bi91  1  0.500000  0.827877  0.266944  1
  Bi  Bi92  1  0.000000  0.903691  0.599222  1
  Bi  Bi93  1  0.000000  0.096309  0.400778  1
  Bi  Bi94  1  0.500000  0.403691  0.900778  1
  Bi  Bi95  1  0.500000  0.596309  0.099222  1
  Bi  Bi96  1  0.000000  0.321672  0.855662  1
  Bi  Bi97  1  0.000000  0.678328  0.144338  1
  Bi  Bi98  1  0.500000  0.821672  0.644338  1
  Bi  Bi99  1  0.500000  0.178328  0.355662  1
  Bi  Bi100  1  0.000000  0.544315  0.587649  1
  Bi  Bi101  1  0.000000  0.455685  0.412351  1
  Bi  Bi102  1  0.500000  0.044315  0.912351  1
  Bi  Bi103  1  0.500000  0.955685  0.087649  1
