# generated using pymatgen
data_KBiS(ClO2)2
_symmetry_space_group_name_H-M   'P 1'
_cell_length_a   6.43317420
_cell_length_b   7.50698250
_cell_length_c   15.56179231
_cell_angle_alpha   90.00000000
_cell_angle_beta   90.00000000
_cell_angle_gamma   90.00000000
_symmetry_Int_Tables_number   1
_chemical_formula_structural   KBiS(ClO2)2
_chemical_formula_sum   'K4 Bi4 S4 Cl8 O16'
_cell_volume   751.53693605
_cell_formula_units_Z   4
loop_
 _symmetry_equiv_pos_site_id
 _symmetry_equiv_pos_as_xyz
  1  'x, y, z'
loop_
 _atom_site_type_symbol
 _atom_site_label
 _atom_site_symmetry_multiplicity
 _atom_site_fract_x
 _atom_site_fract_y
 _atom_site_fract_z
 _atom_site_occupancy
  K  K0  1  0.028788  0.798184  0.156204  1
  K  K1  1  0.528788  0.701816  0.843796  1
  K  K2  1  0.971212  0.298184  0.343796  1
  K  K3  1  0.471212  0.201816  0.656204  1
  Bi  Bi4  1  0.514533  0.864541  0.383098  1
  Bi  Bi5  1  0.985467  0.135459  0.883098  1
  Bi  Bi6  1  0.014533  0.635459  0.616902  1
  Bi  Bi7  1  0.485467  0.364541  0.116902  1
  S  S8  1  0.494251  0.183769  0.888029  1
  S  S9  1  0.005749  0.816231  0.388029  1
  S  S10  1  0.505749  0.683769  0.611971  1
  S  S11  1  0.994251  0.316231  0.111971  1
  Cl  Cl12  1  0.069853  0.835103  0.947754  1
  Cl  Cl13  1  0.930147  0.335103  0.552246  1
  Cl  Cl14  1  0.602244  0.005855  0.234215  1
  Cl  Cl15  1  0.430147  0.164897  0.447754  1
  Cl  Cl16  1  0.897756  0.994145  0.734215  1
  Cl  Cl17  1  0.102244  0.494145  0.765785  1
  Cl  Cl18  1  0.569853  0.664897  0.052246  1
  Cl  Cl19  1  0.397756  0.505855  0.265785  1
  O  O20  1  0.619282  0.327778  0.848766  1
  O  O21  1  0.843179  0.393932  0.175604  1
  O  O22  1  0.369333  0.246592  0.963035  1
  O  O23  1  0.380718  0.827778  0.651234  1
  O  O24  1  0.869333  0.253408  0.036965  1
  O  O25  1  0.642387  0.037568  0.915052  1
  O  O26  1  0.630667  0.746592  0.536965  1
  O  O27  1  0.357613  0.537568  0.584948  1
  O  O28  1  0.156821  0.893932  0.324396  1
  O  O29  1  0.142387  0.462432  0.084948  1
  O  O30  1  0.343179  0.106068  0.824396  1
  O  O31  1  0.119282  0.172222  0.151234  1
  O  O32  1  0.857613  0.962432  0.415052  1
  O  O33  1  0.130667  0.753408  0.463035  1
  O  O34  1  0.880718  0.672222  0.348766  1
  O  O35  1  0.656821  0.606068  0.675604  1
