# generated using pymatgen
data_GdScSi
_symmetry_space_group_name_H-M   'P 1'
_cell_length_a   4.22560465
_cell_length_b   4.22560465
_cell_length_c   8.36099233
_cell_angle_alpha   104.63719716
_cell_angle_beta   104.63719718
_cell_angle_gamma   89.99999999
_symmetry_Int_Tables_number   1
_chemical_formula_structural   GdScSi
_chemical_formula_sum   'Gd2 Sc2 Si2'
_cell_volume   139.43296768
_cell_formula_units_Z   2
loop_
 _symmetry_equiv_pos_site_id
 _symmetry_equiv_pos_as_xyz
  1  'x, y, z'
loop_
 _atom_site_type_symbol
 _atom_site_label
 _atom_site_symmetry_multiplicity
 _atom_site_fract_x
 _atom_site_fract_y
 _atom_site_fract_z
 _atom_site_occupancy
  Si  Si0  1  0.874962  0.874962  0.749923  1
  Si  Si1  1  0.125038  0.125038  0.250077  1
  Sc  Sc2  1  0.500000  0.000000  0.000000  1
  Sc  Sc3  1  0.000000  0.500000  0.000000  1
  Gd  Gd4  1  0.677809  0.677809  0.355617  1
  Gd  Gd5  1  0.322191  0.322191  0.644383  1
