# generated using pymatgen
data_XeIF7
_symmetry_space_group_name_H-M   'P 1'
_cell_length_a   7.85094738
_cell_length_b   7.85094738
_cell_length_c   7.90856178
_cell_angle_alpha   119.75930314
_cell_angle_beta   119.75930314
_cell_angle_gamma   90.00000005
_symmetry_Int_Tables_number   1
_chemical_formula_structural   XeIF7
_chemical_formula_sum   'Xe2 I2 F14'
_cell_volume   347.18129871
_cell_formula_units_Z   2
loop_
 _symmetry_equiv_pos_site_id
 _symmetry_equiv_pos_as_xyz
  1  'x, y, z'
loop_
 _atom_site_type_symbol
 _atom_site_label
 _atom_site_symmetry_multiplicity
 _atom_site_fract_x
 _atom_site_fract_y
 _atom_site_fract_z
 _atom_site_occupancy
  F  F0  1  0.750954  0.593725  0.000000  1
  F  F1  1  0.406275  0.750954  0.000000  1
  F  F2  1  0.593725  0.249046  0.000000  1
  F  F3  1  0.249046  0.406275  0.000000  1
  F  F4  1  0.120473  0.120473  0.240946  1
  F  F5  1  0.879527  0.879527  0.759054  1
  F  F6  1  0.319789  0.494732  0.519922  1
  F  F7  1  0.025190  0.319789  0.519922  1
  F  F8  1  0.494732  0.200133  0.519922  1
  F  F9  1  0.200133  0.025190  0.519922  1
  F  F10  1  0.680211  0.505268  0.480078  1
  F  F11  1  0.974810  0.680211  0.480078  1
  F  F12  1  0.505268  0.799867  0.480078  1
  F  F13  1  0.799867  0.974810  0.480078  1
  I  I14  1  0.713408  0.713408  0.426817  1
  I  I15  1  0.286592  0.286592  0.573183  1
  Xe  Xe16  1  0.500000  0.000000  0.000000  1
  Xe  Xe17  1  0.000000  0.500000  0.000000  1
