# generated using pymatgen
data_Eu(BO2)3
_symmetry_space_group_name_H-M   'P 1'
_cell_length_a   6.45811833
_cell_length_b   6.43237898
_cell_length_c   6.43237897
_cell_angle_alpha   79.19566763
_cell_angle_beta   62.23768202
_cell_angle_gamma   62.23768203
_symmetry_Int_Tables_number   1
_chemical_formula_structural   Eu(BO2)3
_chemical_formula_sum   'Eu2 B6 O12'
_cell_volume   209.08196121
_cell_formula_units_Z   2
loop_
 _symmetry_equiv_pos_site_id
 _symmetry_equiv_pos_as_xyz
  1  'x, y, z'
loop_
 _atom_site_type_symbol
 _atom_site_label
 _atom_site_symmetry_multiplicity
 _atom_site_fract_x
 _atom_site_fract_y
 _atom_site_fract_z
 _atom_site_occupancy
  B  B0  1  0.750000  0.222366  0.777634  1
  B  B1  1  0.250000  0.777634  0.222366  1
  B  B2  1  0.415295  0.659649  0.794646  1
  B  B3  1  0.084705  0.205354  0.340351  1
  B  B4  1  0.584705  0.340351  0.205354  1
  B  B5  1  0.915295  0.794646  0.659649  1
  O  O6  1  0.787342  0.219732  0.990179  1
  O  O7  1  0.496588  0.790580  0.616059  1
  O  O8  1  0.003412  0.383941  0.209420  1
  O  O9  1  0.503412  0.209420  0.383941  1
  O  O10  1  0.008965  0.785755  0.416710  1
  O  O11  1  0.491035  0.583290  0.214245  1
  O  O12  1  0.991035  0.214245  0.583290  1
  O  O13  1  0.508965  0.416710  0.785755  1
  O  O14  1  0.212658  0.780268  0.009821  1
  O  O15  1  0.287342  0.990179  0.219732  1
  O  O16  1  0.996588  0.616059  0.790580  1
  O  O17  1  0.712658  0.009821  0.780268  1
  Eu  Eu18  1  0.250000  0.205162  0.794838  1
  Eu  Eu19  1  0.750000  0.794838  0.205162  1
