# generated using pymatgen
data_Cs2PbO3
_symmetry_space_group_name_H-M   'P 1'
_cell_length_a   6.20148185
_cell_length_b   7.00771344
_cell_length_c   7.00771344
_cell_angle_alpha   111.15460803
_cell_angle_beta   90.00000000
_cell_angle_gamma   90.00000000
_symmetry_Int_Tables_number   1
_chemical_formula_structural   Cs2PbO3
_chemical_formula_sum   'Cs4 Pb2 O6'
_cell_volume   284.01953619
_cell_formula_units_Z   2
loop_
 _symmetry_equiv_pos_site_id
 _symmetry_equiv_pos_as_xyz
  1  'x, y, z'
loop_
 _atom_site_type_symbol
 _atom_site_label
 _atom_site_symmetry_multiplicity
 _atom_site_fract_x
 _atom_site_fract_y
 _atom_site_fract_z
 _atom_site_occupancy
  O  O0  1  0.750000  0.650130  0.650130  1
  O  O1  1  0.250000  0.349870  0.349870  1
  O  O2  1  0.500000  0.124558  0.875442  1
  O  O3  1  0.000000  0.875442  0.124558  1
  O  O4  1  0.000000  0.124558  0.875442  1
  O  O5  1  0.500000  0.875442  0.124558  1
  Cs  Cs6  1  0.250000  0.483036  0.808675  1
  Cs  Cs7  1  0.250000  0.808675  0.483036  1
  Cs  Cs8  1  0.750000  0.516964  0.191325  1
  Cs  Cs9  1  0.750000  0.191325  0.516964  1
  Pb  Pb10  1  0.750000  0.911658  0.911658  1
  Pb  Pb11  1  0.250000  0.088342  0.088342  1
