# generated using pymatgen
data_Tl3BS3
_symmetry_space_group_name_H-M   'P 1'
_cell_length_a   5.78985119
_cell_length_b   6.73770161
_cell_length_c   9.99077490
_cell_angle_alpha   90.00000000
_cell_angle_beta   90.00000000
_cell_angle_gamma   98.16032242
_symmetry_Int_Tables_number   1
_chemical_formula_structural   Tl3BS3
_chemical_formula_sum   'Tl6 B2 S6'
_cell_volume   385.79678299
_cell_formula_units_Z   2
loop_
 _symmetry_equiv_pos_site_id
 _symmetry_equiv_pos_as_xyz
  1  'x, y, z'
loop_
 _atom_site_type_symbol
 _atom_site_label
 _atom_site_symmetry_multiplicity
 _atom_site_fract_x
 _atom_site_fract_y
 _atom_site_fract_z
 _atom_site_occupancy
  B  B0  1  0.387747  0.260737  0.250000  1
  B  B1  1  0.612253  0.739263  0.750000  1
  S  S2  1  0.749185  0.819777  0.590533  1
  S  S3  1  0.250816  0.180223  0.090533  1
  S  S4  1  0.250816  0.180223  0.409467  1
  S  S5  1  0.749185  0.819777  0.909467  1
  S  S6  1  0.334592  0.571968  0.750000  1
  S  S7  1  0.665408  0.428032  0.250000  1
  Tl  Tl8  1  0.285894  0.671250  0.048490  1
  Tl  Tl9  1  0.714106  0.328750  0.548490  1
  Tl  Tl10  1  0.714106  0.328750  0.951510  1
  Tl  Tl11  1  0.285894  0.671250  0.451510  1
  Tl  Tl12  1  0.840417  0.991263  0.250000  1
  Tl  Tl13  1  0.159583  0.008737  0.750000  1
