# generated using pymatgen
data_RbScBP2HO9
_symmetry_space_group_name_H-M   'P 1'
_cell_length_a   5.39822521
_cell_length_b   8.51949886
_cell_length_c   8.51915823
_cell_angle_alpha   87.24846046
_cell_angle_beta   80.29739927
_cell_angle_gamma   86.56336107
_symmetry_Int_Tables_number   1
_chemical_formula_structural   RbScBP2HO9
_chemical_formula_sum   'Rb2 Sc2 B2 P4 H2 O18'
_cell_volume   385.21260219
_cell_formula_units_Z   2
loop_
 _symmetry_equiv_pos_site_id
 _symmetry_equiv_pos_as_xyz
  1  'x, y, z'
loop_
 _atom_site_type_symbol
 _atom_site_label
 _atom_site_symmetry_multiplicity
 _atom_site_fract_x
 _atom_site_fract_y
 _atom_site_fract_z
 _atom_site_occupancy
  H  H0  1  0.584497  0.866119  0.516894  1
  H  H1  1  0.415503  0.133881  0.483106  1
  B  B2  1  0.884187  0.724548  0.561310  1
  B  B3  1  0.115813  0.275452  0.438690  1
  O  O4  1  0.539640  0.998328  0.749996  1
  O  O5  1  0.435587  0.644973  0.212651  1
  O  O6  1  0.715351  0.798875  0.456005  1
  O  O7  1  0.284649  0.201125  0.543995  1
  O  O8  1  0.564413  0.355027  0.787349  1
  O  O9  1  0.460360  0.001672  0.250004  1
  O  O10  1  0.027579  0.395794  0.789726  1
  O  O11  1  0.972421  0.604206  0.210274  1
  O  O12  1  0.047815  0.160371  0.332033  1
  O  O13  1  0.952185  0.839629  0.667967  1
  O  O14  1  0.047142  0.931216  0.164091  1
  O  O15  1  0.952858  0.068784  0.835909  1
  O  O16  1  0.121653  0.664962  0.468645  1
  O  O17  1  0.878347  0.335038  0.531355  1
  O  O18  1  0.269798  0.174925  0.046561  1
  O  O19  1  0.730202  0.825075  0.953439  1
  O  O20  1  0.252595  0.403737  0.339957  1
  O  O21  1  0.747405  0.596263  0.660043  1
  P  P22  1  0.788541  0.937871  0.805039  1
  P  P23  1  0.211459  0.062129  0.194961  1
  P  P24  1  0.808773  0.417069  0.694700  1
  P  P25  1  0.191227  0.582931  0.305300  1
  Sc  Sc26  1  0.720553  0.808019  0.198623  1
  Sc  Sc27  1  0.279447  0.191981  0.801377  1
  Rb  Rb28  1  0.278788  0.673508  0.877749  1
  Rb  Rb29  1  0.721212  0.326492  0.122251  1
