# generated using pymatgen
data_BaP10
_symmetry_space_group_name_H-M   'P 1'
_cell_length_a   6.49714217
_cell_length_b   7.22805158
_cell_length_c   12.10827608
_cell_angle_alpha   90.00000000
_cell_angle_beta   90.00000000
_cell_angle_gamma   116.70772135
_symmetry_Int_Tables_number   1
_chemical_formula_structural   BaP10
_chemical_formula_sum   'Ba2 P20'
_cell_volume   507.95884450
_cell_formula_units_Z   2
loop_
 _symmetry_equiv_pos_site_id
 _symmetry_equiv_pos_as_xyz
  1  'x, y, z'
loop_
 _atom_site_type_symbol
 _atom_site_label
 _atom_site_symmetry_multiplicity
 _atom_site_fract_x
 _atom_site_fract_y
 _atom_site_fract_z
 _atom_site_occupancy
  Ba  Ba0  1  0.186085  0.372170  0.003942  1
  Ba  Ba1  1  0.813915  0.627830  0.503942  1
  P  P2  1  0.389134  0.778267  0.605105  1
  P  P3  1  0.610866  0.221733  0.105105  1
  P  P4  1  0.068337  0.136675  0.557727  1
  P  P5  1  0.931663  0.863325  0.057727  1
  P  P6  1  0.407112  0.814224  0.783317  1
  P  P7  1  0.592888  0.185776  0.283317  1
  P  P8  1  0.809942  0.619884  0.929105  1
  P  P9  1  0.190058  0.380116  0.429105  1
  P  P10  1  0.906723  0.813446  0.779032  1
  P  P11  1  0.093277  0.186554  0.279032  1
  P  P12  1  0.552355  0.104711  0.565491  1
  P  P13  1  0.447645  0.895289  0.065491  1
  P  P14  1  0.870110  0.249950  0.666408  1
  P  P15  1  0.129890  0.750050  0.166408  1
  P  P16  1  0.379839  0.249950  0.666408  1
  P  P17  1  0.620161  0.750050  0.166408  1
  P  P18  1  0.772525  0.041786  0.816432  1
  P  P19  1  0.227475  0.958214  0.316432  1
  P  P20  1  0.269261  0.041786  0.816432  1
  P  P21  1  0.730739  0.958214  0.316432  1
