# generated using pymatgen
data_SrAlBO4
_symmetry_space_group_name_H-M   'P 1'
_cell_length_a   5.81274243
_cell_length_b   8.92408438
_cell_length_c   14.66342033
_cell_angle_alpha   90.00000000
_cell_angle_beta   90.00000000
_cell_angle_gamma   90.00000000
_symmetry_Int_Tables_number   1
_chemical_formula_structural   SrAlBO4
_chemical_formula_sum   'Sr8 Al8 B8 O32'
_cell_volume   760.64152569
_cell_formula_units_Z   8
loop_
 _symmetry_equiv_pos_site_id
 _symmetry_equiv_pos_as_xyz
  1  'x, y, z'
loop_
 _atom_site_type_symbol
 _atom_site_label
 _atom_site_symmetry_multiplicity
 _atom_site_fract_x
 _atom_site_fract_y
 _atom_site_fract_z
 _atom_site_occupancy
  B  B0  1  0.682104  0.401847  0.911282  1
  B  B1  1  0.182104  0.401847  0.588718  1
  B  B2  1  0.182104  0.098153  0.911282  1
  B  B3  1  0.317896  0.901847  0.411282  1
  B  B4  1  0.317896  0.598153  0.088718  1
  B  B5  1  0.817896  0.598153  0.411282  1
  B  B6  1  0.817896  0.901847  0.088718  1
  B  B7  1  0.682104  0.098153  0.588718  1
  O  O8  1  0.923284  0.713180  0.460730  1
  O  O9  1  0.423284  0.713180  0.039270  1
  O  O10  1  0.423284  0.786820  0.460730  1
  O  O11  1  0.076716  0.213180  0.960730  1
  O  O12  1  0.076716  0.286820  0.539270  1
  O  O13  1  0.576716  0.286820  0.960730  1
  O  O14  1  0.576716  0.213180  0.539270  1
  O  O15  1  0.923284  0.786820  0.039270  1
  O  O16  1  0.143026  0.804655  0.624630  1
  O  O17  1  0.143026  0.695345  0.875370  1
  O  O18  1  0.356974  0.304655  0.375370  1
  O  O19  1  0.356974  0.195345  0.124630  1
  O  O20  1  0.856974  0.195345  0.375370  1
  O  O21  1  0.856974  0.304655  0.124630  1
  O  O22  1  0.643026  0.695345  0.624630  1
  O  O23  1  0.643026  0.804655  0.875370  1
  O  O24  1  0.673543  0.388718  0.817910  1
  O  O25  1  0.673543  0.111282  0.682090  1
  O  O26  1  0.826457  0.888718  0.182090  1
  O  O27  1  0.826457  0.611282  0.317910  1
  O  O28  1  0.326457  0.611282  0.182090  1
  O  O29  1  0.326457  0.888718  0.317910  1
  O  O30  1  0.173543  0.111282  0.817910  1
  O  O31  1  0.173543  0.388718  0.682090  1
  O  O32  1  0.787524  0.519768  0.954416  1
  O  O33  1  0.787524  0.980232  0.545584  1
  O  O34  1  0.712476  0.019768  0.045584  1
  O  O35  1  0.712476  0.480233  0.454416  1
  O  O36  1  0.212476  0.480233  0.045584  1
  O  O37  1  0.212476  0.019768  0.454416  1
  O  O38  1  0.287524  0.980232  0.954416  1
  O  O39  1  0.287524  0.519768  0.545584  1
  Al  Al40  1  0.370163  0.707653  0.572033  1
  Al  Al41  1  0.370163  0.792347  0.927967  1
  Al  Al42  1  0.129837  0.207653  0.427967  1
  Al  Al43  1  0.129837  0.292347  0.072033  1
  Al  Al44  1  0.629837  0.292347  0.427967  1
  Al  Al45  1  0.629837  0.207653  0.072033  1
  Al  Al46  1  0.870163  0.792347  0.572033  1
  Al  Al47  1  0.870163  0.707653  0.927967  1
  Sr  Sr48  1  0.187437  0.079723  0.652440  1
  Sr  Sr49  1  0.187437  0.420277  0.847560  1
  Sr  Sr50  1  0.312563  0.579723  0.347560  1
  Sr  Sr51  1  0.312563  0.920277  0.152440  1
  Sr  Sr52  1  0.812563  0.920277  0.347560  1
  Sr  Sr53  1  0.812563  0.579723  0.152440  1
  Sr  Sr54  1  0.687437  0.420277  0.652440  1
  Sr  Sr55  1  0.687437  0.079723  0.847560  1
