# generated using pymatgen
data_Er2WO6
_symmetry_space_group_name_H-M   'P 1'
_cell_length_a   5.23854144
_cell_length_b   9.09615799
_cell_length_c   9.92847885
_cell_angle_alpha   90.00000000
_cell_angle_beta   90.00000000
_cell_angle_gamma   90.00000000
_symmetry_Int_Tables_number   1
_chemical_formula_structural   Er2WO6
_chemical_formula_sum   'Er8 W4 O24'
_cell_volume   473.09798000
_cell_formula_units_Z   4
loop_
 _symmetry_equiv_pos_site_id
 _symmetry_equiv_pos_as_xyz
  1  'x, y, z'
loop_
 _atom_site_type_symbol
 _atom_site_label
 _atom_site_symmetry_multiplicity
 _atom_site_fract_x
 _atom_site_fract_y
 _atom_site_fract_z
 _atom_site_occupancy
  O  O0  1  0.253647  0.088860  0.504516  1
  O  O1  1  0.753647  0.411140  0.495485  1
  O  O2  1  0.746353  0.588860  0.995485  1
  O  O3  1  0.246353  0.911140  0.004516  1
  O  O4  1  0.734865  0.116404  0.568403  1
  O  O5  1  0.234865  0.383595  0.431598  1
  O  O6  1  0.265135  0.616404  0.931597  1
  O  O7  1  0.765135  0.883595  0.068402  1
  O  O8  1  0.591849  0.841952  0.531649  1
  O  O9  1  0.091849  0.658048  0.468352  1
  O  O10  1  0.408151  0.341952  0.968351  1
  O  O11  1  0.908151  0.158048  0.031649  1
  O  O12  1  0.193882  0.857885  0.264747  1
  O  O13  1  0.693882  0.642114  0.735252  1
  O  O14  1  0.806118  0.357885  0.235253  1
  O  O15  1  0.306118  0.142115  0.764748  1
  O  O16  1  0.823645  0.046196  0.301344  1
  O  O17  1  0.323645  0.453804  0.698656  1
  O  O18  1  0.178195  0.862037  0.681445  1
  O  O19  1  0.676356  0.953805  0.801344  1
  O  O20  1  0.321805  0.137963  0.181445  1
  O  O21  1  0.821805  0.362037  0.818555  1
  O  O22  1  0.678195  0.637963  0.318554  1
  O  O23  1  0.176355  0.546195  0.198656  1
  Er  Er24  1  0.483978  0.603569  0.534425  1
  Er  Er25  1  0.983979  0.896431  0.465575  1
  Er  Er26  1  0.516022  0.103569  0.965576  1
  Er  Er27  1  0.016022  0.396431  0.034425  1
  Er  Er28  1  0.959028  0.781061  0.871474  1
  Er  Er29  1  0.459027  0.718939  0.128526  1
  Er  Er30  1  0.540973  0.218939  0.371474  1
  Er  Er31  1  0.040973  0.281061  0.628526  1
  W  W32  1  0.462448  0.995398  0.652463  1
  W  W33  1  0.962448  0.504603  0.347537  1
  W  W34  1  0.537552  0.495398  0.847536  1
  W  W35  1  0.037552  0.004603  0.152463  1
