# generated using pymatgen
data_AlH12(ClO2)3
_symmetry_space_group_name_H-M   'P 1'
_cell_length_a   7.94466205
_cell_length_b   7.94466205
_cell_length_c   7.94466205
_cell_angle_alpha   96.46801259
_cell_angle_beta   96.46801256
_cell_angle_gamma   96.46801263
_symmetry_Int_Tables_number   1
_chemical_formula_structural   AlH12(ClO2)3
_chemical_formula_sum   'Al2 H24 Cl6 O12'
_cell_volume   491.07959521
_cell_formula_units_Z   2
loop_
 _symmetry_equiv_pos_site_id
 _symmetry_equiv_pos_as_xyz
  1  'x, y, z'
loop_
 _atom_site_type_symbol
 _atom_site_label
 _atom_site_symmetry_multiplicity
 _atom_site_fract_x
 _atom_site_fract_y
 _atom_site_fract_z
 _atom_site_occupancy
  H  H0  1  0.791710  0.386703  0.585345  1
  H  H1  1  0.386703  0.585345  0.791710  1
  H  H2  1  0.585345  0.791710  0.386703  1
  H  H3  1  0.914655  0.113297  0.708290  1
  H  H4  1  0.113297  0.708290  0.914655  1
  H  H5  1  0.708290  0.914655  0.113297  1
  H  H6  1  0.208290  0.613297  0.414655  1
  H  H7  1  0.613297  0.414655  0.208290  1
  H  H8  1  0.414655  0.208290  0.613297  1
  H  H9  1  0.085345  0.886703  0.291710  1
  H  H10  1  0.886703  0.291710  0.085345  1
  H  H11  1  0.291710  0.085345  0.886703  1
  H  H12  1  0.714668  0.457790  0.758266  1
  H  H13  1  0.457790  0.758266  0.714668  1
  H  H14  1  0.758266  0.714668  0.457790  1
  H  H15  1  0.741734  0.042210  0.785332  1
  H  H16  1  0.042210  0.785332  0.741734  1
  H  H17  1  0.785332  0.741734  0.042210  1
  H  H18  1  0.285332  0.542210  0.241734  1
  H  H19  1  0.542210  0.241734  0.285332  1
  H  H20  1  0.214668  0.258266  0.957790  1
  H  H21  1  0.957790  0.214668  0.258266  1
  H  H22  1  0.258266  0.957790  0.214668  1
  H  H23  1  0.241734  0.285332  0.542210  1
  O  O24  1  0.697382  0.444758  0.630402  1
  O  O25  1  0.444758  0.630402  0.697382  1
  O  O26  1  0.630402  0.697382  0.444758  1
  O  O27  1  0.869598  0.055242  0.802618  1
  O  O28  1  0.055242  0.802618  0.869598  1
  O  O29  1  0.802618  0.869598  0.055242  1
  O  O30  1  0.302618  0.555242  0.369598  1
  O  O31  1  0.555242  0.369598  0.302618  1
  O  O32  1  0.369598  0.302618  0.555242  1
  O  O33  1  0.130402  0.944758  0.197382  1
  O  O34  1  0.944758  0.197382  0.130402  1
  O  O35  1  0.197382  0.130402  0.944758  1
  Al  Al36  1  0.000000  0.000000  0.000000  1
  Al  Al37  1  0.500000  0.500000  0.500000  1
  Cl  Cl38  1  0.481303  0.018697  0.750000  1
  Cl  Cl39  1  0.981303  0.250000  0.518697  1
  Cl  Cl40  1  0.250000  0.518697  0.981303  1
  Cl  Cl41  1  0.518697  0.981303  0.250000  1
  Cl  Cl42  1  0.750000  0.481303  0.018697  1
  Cl  Cl43  1  0.018697  0.750000  0.481303  1
