# generated using pymatgen
data_NaZnP2HO7
_symmetry_space_group_name_H-M   'P 1'
_cell_length_a   6.60851125
_cell_length_b   6.55550185
_cell_length_c   6.81622764
_cell_angle_alpha   66.54993465
_cell_angle_beta   84.17508652
_cell_angle_gamma   88.49402626
_symmetry_Int_Tables_number   1
_chemical_formula_structural   NaZnP2HO7
_chemical_formula_sum   'Na2 Zn2 P4 H2 O14'
_cell_volume   269.47329719
_cell_formula_units_Z   2
loop_
 _symmetry_equiv_pos_site_id
 _symmetry_equiv_pos_as_xyz
  1  'x, y, z'
loop_
 _atom_site_type_symbol
 _atom_site_label
 _atom_site_symmetry_multiplicity
 _atom_site_fract_x
 _atom_site_fract_y
 _atom_site_fract_z
 _atom_site_occupancy
  H  H0  1  0.708823  0.065195  0.799493  1
  H  H1  1  0.291177  0.934805  0.200507  1
  O  O2  1  0.536134  0.276769  0.392764  1
  O  O3  1  0.463866  0.723231  0.607236  1
  O  O4  1  0.827788  0.865672  0.551564  1
  O  O5  1  0.172212  0.134328  0.448436  1
  O  O6  1  0.591573  0.881065  0.866090  1
  O  O7  1  0.408427  0.118935  0.133910  1
  O  O8  1  0.075802  0.451911  0.752081  1
  O  O9  1  0.924198  0.548089  0.247919  1
  O  O10  1  0.210192  0.774435  0.280403  1
  O  O11  1  0.789808  0.225565  0.719597  1
  O  O12  1  0.289065  0.485591  0.124478  1
  O  O13  1  0.710935  0.514409  0.875522  1
  O  O14  1  0.122260  0.836807  0.907049  1
  O  O15  1  0.877740  0.163193  0.092951  1
  Na  Na16  1  0.646241  0.783780  0.242457  1
  Na  Na17  1  0.353759  0.216220  0.757543  1
  P  P18  1  0.641945  0.757789  0.717223  1
  P  P19  1  0.358056  0.242211  0.282777  1
  P  P20  1  0.875944  0.332892  0.863919  1
  P  P21  1  0.124056  0.667108  0.136081  1
  Zn  Zn22  1  0.851332  0.216475  0.373502  1
  Zn  Zn23  1  0.148668  0.783525  0.626498  1
