# generated using pymatgen
data_Cs(BH)6
_symmetry_space_group_name_H-M   'P 1'
_cell_length_a   8.07446175
_cell_length_b   8.07446176
_cell_length_c   8.07446176
_cell_angle_alpha   59.99999999
_cell_angle_beta   59.99999998
_cell_angle_gamma   60.00000002
_symmetry_Int_Tables_number   1
_chemical_formula_structural   Cs(BH)6
_chemical_formula_sum   'Cs2 B12 H12'
_cell_volume   372.24232155
_cell_formula_units_Z   2
loop_
 _symmetry_equiv_pos_site_id
 _symmetry_equiv_pos_as_xyz
  1  'x, y, z'
loop_
 _atom_site_type_symbol
 _atom_site_label
 _atom_site_symmetry_multiplicity
 _atom_site_fract_x
 _atom_site_fract_y
 _atom_site_fract_z
 _atom_site_occupancy
  H  H0  1  0.916415  0.349002  0.650998  1
  H  H1  1  0.650998  0.083585  0.916415  1
  H  H2  1  0.349002  0.083585  0.650998  1
  H  H3  1  0.083585  0.916415  0.650998  1
  H  H4  1  0.650998  0.916415  0.349002  1
  H  H5  1  0.916415  0.650998  0.083585  1
  H  H6  1  0.650998  0.349002  0.083585  1
  H  H7  1  0.916415  0.083585  0.349002  1
  H  H8  1  0.083585  0.349002  0.916415  1
  H  H9  1  0.349002  0.916415  0.083585  1
  H  H10  1  0.083585  0.650998  0.349002  1
  H  H11  1  0.349002  0.650998  0.916415  1
  B  B12  1  0.796029  0.048335  0.951665  1
  B  B13  1  0.951665  0.203971  0.796029  1
  B  B14  1  0.203971  0.048335  0.796029  1
  B  B15  1  0.048335  0.951665  0.796029  1
  B  B16  1  0.796029  0.951665  0.203971  1
  B  B17  1  0.951665  0.796029  0.048335  1
  B  B18  1  0.796029  0.203971  0.048335  1
  B  B19  1  0.951665  0.048335  0.203971  1
  B  B20  1  0.048335  0.203971  0.951665  1
  B  B21  1  0.203971  0.951665  0.048335  1
  B  B22  1  0.048335  0.796029  0.203971  1
  B  B23  1  0.203971  0.796029  0.951665  1
  Cs  Cs24  1  0.750000  0.750000  0.750000  1
  Cs  Cs25  1  0.250000  0.250000  0.250000  1
