# generated using pymatgen
data_RuXeF7
_symmetry_space_group_name_H-M   'P 1'
_cell_length_a   7.39862672
_cell_length_b   8.27726536
_cell_length_c   11.59700654
_cell_angle_alpha   90.00000000
_cell_angle_beta   90.00000000
_cell_angle_gamma   90.38062855
_symmetry_Int_Tables_number   1
_chemical_formula_structural   RuXeF7
_chemical_formula_sum   'Ru4 Xe4 F28'
_cell_volume   710.18960947
_cell_formula_units_Z   4
loop_
 _symmetry_equiv_pos_site_id
 _symmetry_equiv_pos_as_xyz
  1  'x, y, z'
loop_
 _atom_site_type_symbol
 _atom_site_label
 _atom_site_symmetry_multiplicity
 _atom_site_fract_x
 _atom_site_fract_y
 _atom_site_fract_z
 _atom_site_occupancy
  F  F0  1  0.365673  0.889736  0.348313  1
  F  F1  1  0.134327  0.610264  0.848313  1
  F  F2  1  0.634327  0.110264  0.651687  1
  F  F3  1  0.865673  0.389736  0.151687  1
  F  F4  1  0.183904  0.604940  0.574675  1
  F  F5  1  0.316096  0.895060  0.074675  1
  F  F6  1  0.816096  0.395060  0.425325  1
  F  F7  1  0.683904  0.104940  0.925325  1
  F  F8  1  0.149086  0.190255  0.336809  1
  F  F9  1  0.350914  0.309745  0.836809  1
  F  F10  1  0.850914  0.809745  0.663191  1
  F  F11  1  0.649086  0.690255  0.163191  1
  F  F12  1  0.524347  0.315222  0.075591  1
  F  F13  1  0.975653  0.184778  0.575591  1
  F  F14  1  0.475653  0.684778  0.924409  1
  F  F15  1  0.024347  0.815222  0.424409  1
  F  F16  1  0.015704  0.190706  0.996794  1
  F  F17  1  0.484296  0.309294  0.496794  1
  F  F18  1  0.984296  0.809294  0.003206  1
  F  F19  1  0.515704  0.690706  0.503206  1
  F  F20  1  0.779682  0.416555  0.927897  1
  F  F21  1  0.720318  0.083445  0.427897  1
  F  F22  1  0.220318  0.583445  0.072103  1
  F  F23  1  0.279682  0.916555  0.572103  1
  F  F24  1  0.758451  0.083850  0.149365  1
  F  F25  1  0.741549  0.416150  0.649365  1
  F  F26  1  0.241549  0.916150  0.850635  1
  F  F27  1  0.258451  0.583850  0.350635  1
  Ru  Ru28  1  0.780099  0.247444  0.036451  1
  Ru  Ru29  1  0.719901  0.252556  0.536451  1
  Ru  Ru30  1  0.219901  0.752556  0.963549  1
  Ru  Ru31  1  0.280099  0.747444  0.463549  1
  Xe  Xe32  1  0.332794  0.243990  0.215912  1
  Xe  Xe33  1  0.167206  0.256010  0.715912  1
  Xe  Xe34  1  0.667206  0.756010  0.784088  1
  Xe  Xe35  1  0.832794  0.743990  0.284088  1
