# generated using pymatgen
data_Sr13(MgSi10)2
_symmetry_space_group_name_H-M   'P 1'
_cell_length_a   9.83827834
_cell_length_b   15.28149846
_cell_length_c   23.35125606
_cell_angle_alpha   90.00000000
_cell_angle_beta   90.00000000
_cell_angle_gamma   90.00000000
_symmetry_Int_Tables_number   1
_chemical_formula_structural   Sr13(MgSi10)2
_chemical_formula_sum   'Sr52 Mg8 Si80'
_cell_volume   3510.71272492
_cell_formula_units_Z   4
loop_
 _symmetry_equiv_pos_site_id
 _symmetry_equiv_pos_as_xyz
  1  'x, y, z'
loop_
 _atom_site_type_symbol
 _atom_site_label
 _atom_site_symmetry_multiplicity
 _atom_site_fract_x
 _atom_site_fract_y
 _atom_site_fract_z
 _atom_site_occupancy
  Mg  Mg0  1  0.000000  0.070590  0.290872  1
  Mg  Mg1  1  0.000000  0.929410  0.709128  1
  Mg  Mg2  1  0.000000  0.570590  0.209128  1
  Mg  Mg3  1  0.000000  0.429410  0.790872  1
  Mg  Mg4  1  0.500000  0.288075  0.166194  1
  Mg  Mg5  1  0.500000  0.711925  0.833806  1
  Mg  Mg6  1  0.500000  0.788075  0.333806  1
  Mg  Mg7  1  0.500000  0.211925  0.666194  1
  Si  Si8  1  0.000000  0.552967  0.086684  1
  Si  Si9  1  0.000000  0.447033  0.913316  1
  Si  Si10  1  0.000000  0.052967  0.413316  1
  Si  Si11  1  0.000000  0.947033  0.586684  1
  Si  Si12  1  0.000000  0.669088  0.018165  1
  Si  Si13  1  0.000000  0.330912  0.981835  1
  Si  Si14  1  0.000000  0.169088  0.481835  1
  Si  Si15  1  0.000000  0.830912  0.518165  1
  Si  Si16  1  0.000000  0.816634  0.056275  1
  Si  Si17  1  0.000000  0.183366  0.943725  1
  Si  Si18  1  0.000000  0.316634  0.443725  1
  Si  Si19  1  0.000000  0.683366  0.556275  1
  Si  Si20  1  0.000000  0.859557  0.153843  1
  Si  Si21  1  0.000000  0.140443  0.846157  1
  Si  Si22  1  0.000000  0.359557  0.346157  1
  Si  Si23  1  0.000000  0.640443  0.653843  1
  Si  Si24  1  0.000000  0.254832  0.269674  1
  Si  Si25  1  0.000000  0.745168  0.730326  1
  Si  Si26  1  0.000000  0.754832  0.230326  1
  Si  Si27  1  0.000000  0.245168  0.769674  1
  Si  Si28  1  0.000000  0.010799  0.179221  1
  Si  Si29  1  0.000000  0.989201  0.820779  1
  Si  Si30  1  0.000000  0.510799  0.320779  1
  Si  Si31  1  0.000000  0.489201  0.679221  1
  Si  Si32  1  0.000000  0.125592  0.108674  1
  Si  Si33  1  0.000000  0.874408  0.891326  1
  Si  Si34  1  0.000000  0.625592  0.391326  1
  Si  Si35  1  0.000000  0.374408  0.608674  1
  Si  Si36  1  0.000000  0.926322  0.986167  1
  Si  Si37  1  0.000000  0.073678  0.013833  1
  Si  Si38  1  0.000000  0.426322  0.513833  1
  Si  Si39  1  0.000000  0.573678  0.486167  1
  Si  Si40  1  0.198256  0.514290  0.142469  1
  Si  Si41  1  0.198256  0.485710  0.857530  1
  Si  Si42  1  0.801744  0.014290  0.357530  1
  Si  Si43  1  0.801744  0.985710  0.642470  1
  Si  Si44  1  0.801744  0.485710  0.857530  1
  Si  Si45  1  0.801744  0.514290  0.142469  1
  Si  Si46  1  0.198256  0.985710  0.642470  1
  Si  Si47  1  0.198256  0.014290  0.357530  1
  Si  Si48  1  0.301590  0.378565  0.119415  1
  Si  Si49  1  0.301590  0.621435  0.880585  1
  Si  Si50  1  0.698410  0.878565  0.380585  1
  Si  Si51  1  0.698410  0.121435  0.619415  1
  Si  Si52  1  0.698410  0.621435  0.880585  1
  Si  Si53  1  0.698410  0.378565  0.119415  1
  Si  Si54  1  0.301590  0.121435  0.619415  1
  Si  Si55  1  0.301590  0.878565  0.380585  1
  Si  Si56  1  0.500000  0.613942  0.941313  1
  Si  Si57  1  0.500000  0.386058  0.058687  1
  Si  Si58  1  0.500000  0.113942  0.558687  1
  Si  Si59  1  0.500000  0.886058  0.441313  1
  Si  Si60  1  0.500000  0.660121  0.038935  1
  Si  Si61  1  0.500000  0.339879  0.961065  1
  Si  Si62  1  0.500000  0.160121  0.461065  1
  Si  Si63  1  0.500000  0.839879  0.538935  1
  Si  Si64  1  0.500000  0.816303  0.056201  1
  Si  Si65  1  0.500000  0.183697  0.943799  1
  Si  Si66  1  0.500000  0.316303  0.443799  1
  Si  Si67  1  0.500000  0.683697  0.556201  1
  Si  Si68  1  0.500000  0.858637  0.153268  1
  Si  Si69  1  0.500000  0.141363  0.846732  1
  Si  Si70  1  0.500000  0.358637  0.346732  1
  Si  Si71  1  0.500000  0.641363  0.653268  1
  Si  Si72  1  0.500000  0.240852  0.281279  1
  Si  Si73  1  0.500000  0.759148  0.718721  1
  Si  Si74  1  0.500000  0.740852  0.218721  1
  Si  Si75  1  0.500000  0.259148  0.781279  1
  Si  Si76  1  0.500000  0.994277  0.814462  1
  Si  Si77  1  0.500000  0.005723  0.185538  1
  Si  Si78  1  0.500000  0.494277  0.685538  1
  Si  Si79  1  0.500000  0.505723  0.314462  1
  Si  Si80  1  0.500000  0.881615  0.886341  1
  Si  Si81  1  0.500000  0.118385  0.113659  1
  Si  Si82  1  0.500000  0.381615  0.613659  1
  Si  Si83  1  0.500000  0.618385  0.386341  1
  Si  Si84  1  0.500000  0.926556  0.984976  1
  Si  Si85  1  0.500000  0.073444  0.015024  1
  Si  Si86  1  0.500000  0.426556  0.515024  1
  Si  Si87  1  0.500000  0.573444  0.484976  1
  Sr  Sr88  1  0.748379  0.000000  0.500000  1
  Sr  Sr89  1  0.251621  0.500000  0.000000  1
  Sr  Sr90  1  0.251621  0.000000  0.500000  1
  Sr  Sr91  1  0.748379  0.500000  0.000000  1
  Sr  Sr92  1  0.000000  0.654531  0.875703  1
  Sr  Sr93  1  0.000000  0.345469  0.124297  1
  Sr  Sr94  1  0.000000  0.154531  0.624297  1
  Sr  Sr95  1  0.000000  0.845469  0.375703  1
  Sr  Sr96  1  0.500000  0.541266  0.157306  1
  Sr  Sr97  1  0.500000  0.458734  0.842694  1
  Sr  Sr98  1  0.500000  0.041266  0.342694  1
  Sr  Sr99  1  0.500000  0.958734  0.657306  1
  Sr  Sr100  1  0.263503  0.776818  0.963937  1
  Sr  Sr101  1  0.263503  0.223182  0.036063  1
  Sr  Sr102  1  0.736497  0.276818  0.536063  1
  Sr  Sr103  1  0.736497  0.723182  0.463937  1
  Sr  Sr104  1  0.736497  0.223182  0.036063  1
  Sr  Sr105  1  0.736497  0.776818  0.963937  1
  Sr  Sr106  1  0.263503  0.723182  0.463937  1
  Sr  Sr107  1  0.263503  0.276818  0.536063  1
  Sr  Sr108  1  0.236699  0.712792  0.124446  1
  Sr  Sr109  1  0.236699  0.287208  0.875554  1
  Sr  Sr110  1  0.763301  0.212792  0.375554  1
  Sr  Sr111  1  0.763301  0.787208  0.624446  1
  Sr  Sr112  1  0.763301  0.287208  0.875554  1
  Sr  Sr113  1  0.763301  0.712792  0.124446  1
  Sr  Sr114  1  0.236699  0.787208  0.624446  1
  Sr  Sr115  1  0.236699  0.212792  0.375554  1
  Sr  Sr116  1  0.250331  0.970496  0.084990  1
  Sr  Sr117  1  0.250331  0.029504  0.915010  1
  Sr  Sr118  1  0.749669  0.470496  0.415010  1
  Sr  Sr119  1  0.749669  0.529504  0.584990  1
  Sr  Sr120  1  0.749669  0.029504  0.915010  1
  Sr  Sr121  1  0.749669  0.970496  0.084990  1
  Sr  Sr122  1  0.250331  0.529504  0.584990  1
  Sr  Sr123  1  0.250331  0.470496  0.415010  1
  Sr  Sr124  1  0.249439  0.650059  0.294674  1
  Sr  Sr125  1  0.249439  0.349941  0.705326  1
  Sr  Sr126  1  0.750561  0.150059  0.205326  1
  Sr  Sr127  1  0.750561  0.849941  0.794674  1
  Sr  Sr128  1  0.750561  0.349941  0.705326  1
  Sr  Sr129  1  0.750561  0.650059  0.294674  1
  Sr  Sr130  1  0.249439  0.849941  0.794674  1
  Sr  Sr131  1  0.249439  0.150059  0.205326  1
  Sr  Sr132  1  0.249312  0.394742  0.255504  1
  Sr  Sr133  1  0.249312  0.605258  0.744496  1
  Sr  Sr134  1  0.750688  0.894742  0.244496  1
  Sr  Sr135  1  0.750688  0.105258  0.755504  1
  Sr  Sr136  1  0.750688  0.605258  0.744496  1
  Sr  Sr137  1  0.750688  0.394742  0.255504  1
  Sr  Sr138  1  0.249312  0.105258  0.755504  1
  Sr  Sr139  1  0.249312  0.894742  0.244496  1
