# generated using pymatgen
data_V2NiP2(H4O7)2
_symmetry_space_group_name_H-M   'P 1'
_cell_length_a   6.33408487
_cell_length_b   6.33408487
_cell_length_c   8.05744254
_cell_angle_alpha   113.14491284
_cell_angle_beta   113.14491289
_cell_angle_gamma   90.00000004
_symmetry_Int_Tables_number   1
_chemical_formula_structural   V2NiP2(H4O7)2
_chemical_formula_sum   'V2 Ni1 P2 H8 O14'
_cell_volume   268.72457503
_cell_formula_units_Z   1
loop_
 _symmetry_equiv_pos_site_id
 _symmetry_equiv_pos_as_xyz
  1  'x, y, z'
loop_
 _atom_site_type_symbol
 _atom_site_label
 _atom_site_symmetry_multiplicity
 _atom_site_fract_x
 _atom_site_fract_y
 _atom_site_fract_z
 _atom_site_occupancy
  H  H0  1  0.406078  0.241310  0.119777  1
  H  H1  1  0.878467  0.406078  0.119777  1
  H  H2  1  0.241310  0.713699  0.119777  1
  H  H3  1  0.713699  0.878467  0.119777  1
  H  H4  1  0.593922  0.758690  0.880223  1
  H  H5  1  0.286301  0.121533  0.880223  1
  H  H6  1  0.121533  0.593922  0.880223  1
  H  H7  1  0.758690  0.286301  0.880223  1
  O  O8  1  0.291460  0.014549  0.637283  1
  O  O9  1  0.377266  0.708540  0.362717  1
  O  O10  1  0.014549  0.345823  0.637283  1
  O  O11  1  0.708540  0.985451  0.362717  1
  O  O12  1  0.985451  0.654177  0.362717  1
  O  O13  1  0.154980  0.154980  0.309959  1
  O  O14  1  0.845020  0.845020  0.690041  1
  O  O15  1  0.256928  0.200218  0.000000  1
  O  O16  1  0.799782  0.256928  1.000000  1
  O  O17  1  0.200218  0.743072  0.000000  1
  O  O18  1  0.743072  0.799782  1.000000  1
  O  O19  1  0.622734  0.291460  0.637283  1
  O  O20  1  0.654177  0.377266  0.362717  1
  O  O21  1  0.345823  0.622734  0.637283  1
  P  P22  1  0.250000  0.750000  0.500000  1
  P  P23  1  0.750000  0.250000  0.500000  1
  V  V24  1  0.722380  0.722380  0.444760  1
  V  V25  1  0.277620  0.277620  0.555240  1
  Ni  Ni26  1  0.000000  0.000000  0.000000  1
