# generated using pymatgen
data_Zn3B7ClO13
_symmetry_space_group_name_H-M   'P 1'
_cell_length_a   8.65923842
_cell_length_b   8.65923842
_cell_length_c   8.65923842
_cell_angle_alpha   59.80068656
_cell_angle_beta   59.80068657
_cell_angle_gamma   59.80068660
_symmetry_Int_Tables_number   1
_chemical_formula_structural   Zn3B7ClO13
_chemical_formula_sum   'Zn6 B14 Cl2 O26'
_cell_volume   457.04045361
_cell_formula_units_Z   2
loop_
 _symmetry_equiv_pos_site_id
 _symmetry_equiv_pos_as_xyz
  1  'x, y, z'
loop_
 _atom_site_type_symbol
 _atom_site_label
 _atom_site_symmetry_multiplicity
 _atom_site_fract_x
 _atom_site_fract_y
 _atom_site_fract_z
 _atom_site_occupancy
  B  B0  1  0.572881  0.573354  0.266891  1
  B  B1  1  0.603127  0.603127  0.603127  1
  B  B2  1  0.103127  0.103127  0.103127  1
  B  B3  1  0.573354  0.266891  0.572881  1
  B  B4  1  0.266891  0.572881  0.573354  1
  B  B5  1  0.766891  0.073354  0.072881  1
  B  B6  1  0.073354  0.072881  0.766891  1
  B  B7  1  0.072881  0.766891  0.073354  1
  B  B8  1  0.246637  0.754166  0.247854  1
  B  B9  1  0.247854  0.246637  0.754166  1
  B  B10  1  0.754166  0.247854  0.246637  1
  B  B11  1  0.254166  0.746637  0.747854  1
  B  B12  1  0.747854  0.254166  0.746637  1
  B  B13  1  0.746637  0.747854  0.254166  1
  O  O14  1  0.434908  0.189431  0.612634  1
  O  O15  1  0.612634  0.434908  0.189431  1
  O  O16  1  0.714771  0.100531  0.248330  1
  O  O17  1  0.248330  0.714771  0.100531  1
  O  O18  1  0.100531  0.248330  0.714771  1
  O  O19  1  0.214771  0.748330  0.600531  1
  O  O20  1  0.600531  0.214771  0.748330  1
  O  O21  1  0.748330  0.600531  0.214771  1
  O  O22  1  0.987937  0.987937  0.987937  1
  O  O23  1  0.487937  0.487937  0.487937  1
  O  O24  1  0.945666  0.264839  0.106635  1
  O  O25  1  0.106635  0.945666  0.264839  1
  O  O26  1  0.264839  0.106635  0.945666  1
  O  O27  1  0.764839  0.445666  0.606635  1
  O  O28  1  0.606635  0.764839  0.445666  1
  O  O29  1  0.445666  0.606635  0.764839  1
  O  O30  1  0.252985  0.935243  0.700250  1
  O  O31  1  0.700250  0.252985  0.935243  1
  O  O32  1  0.935243  0.700250  0.252985  1
  O  O33  1  0.435243  0.752985  0.200250  1
  O  O34  1  0.200250  0.435243  0.752985  1
  O  O35  1  0.752985  0.200250  0.435243  1
  O  O36  1  0.112634  0.689431  0.934908  1
  O  O37  1  0.934908  0.112634  0.689431  1
  O  O38  1  0.689431  0.934908  0.112634  1
  O  O39  1  0.189431  0.612634  0.434908  1
  Cl  Cl40  1  0.769663  0.769663  0.769663  1
  Cl  Cl41  1  0.269663  0.269663  0.269663  1
  Zn  Zn42  1  0.971273  0.535598  0.972393  1
  Zn  Zn43  1  0.535598  0.972393  0.971273  1
  Zn  Zn44  1  0.972393  0.971273  0.535598  1
  Zn  Zn45  1  0.472393  0.035598  0.471273  1
  Zn  Zn46  1  0.035598  0.471273  0.472393  1
  Zn  Zn47  1  0.471273  0.472393  0.035598  1
