# generated using pymatgen
data_K2ReF8
_symmetry_space_group_name_H-M   'P 1'
_cell_length_a   6.00233728
_cell_length_b   8.87033543
_cell_length_c   12.75719660
_cell_angle_alpha   90.00000000
_cell_angle_beta   90.00000000
_cell_angle_gamma   90.00000000
_symmetry_Int_Tables_number   1
_chemical_formula_structural   K2ReF8
_chemical_formula_sum   'K8 Re4 F32'
_cell_volume   679.22816597
_cell_formula_units_Z   4
loop_
 _symmetry_equiv_pos_site_id
 _symmetry_equiv_pos_as_xyz
  1  'x, y, z'
loop_
 _atom_site_type_symbol
 _atom_site_label
 _atom_site_symmetry_multiplicity
 _atom_site_fract_x
 _atom_site_fract_y
 _atom_site_fract_z
 _atom_site_occupancy
  F  F0  1  0.250000  0.269238  0.971737  1
  F  F1  1  0.750000  0.730762  0.028263  1
  F  F2  1  0.250000  0.769238  0.528263  1
  F  F3  1  0.750000  0.230762  0.471737  1
  F  F4  1  0.250000  0.504103  0.340285  1
  F  F5  1  0.750000  0.495897  0.659715  1
  F  F6  1  0.250000  1.004103  0.159715  1
  F  F7  1  0.750000  -0.004103  0.840285  1
  F  F8  1  0.475895  0.364761  0.565706  1
  F  F9  1  0.975895  0.635239  0.434294  1
  F  F10  1  0.024105  0.864761  0.934294  1
  F  F11  1  0.524105  0.135239  0.065706  1
  F  F12  1  0.948812  0.603148  0.885251  1
  F  F13  1  0.448812  0.396852  0.114749  1
  F  F14  1  0.551188  0.103148  0.614749  1
  F  F15  1  0.051188  0.896852  0.385251  1
  F  F16  1  0.051188  0.396852  0.114749  1
  F  F17  1  0.551188  0.603148  0.885251  1
  F  F18  1  0.448812  0.896852  0.385251  1
  F  F19  1  0.948812  0.103148  0.614749  1
  F  F20  1  0.949294  0.790640  0.752640  1
  F  F21  1  0.449294  0.209360  0.247360  1
  F  F22  1  0.550706  0.290640  0.747360  1
  F  F23  1  0.050706  0.709360  0.252640  1
  F  F24  1  0.050706  0.209360  0.247360  1
  F  F25  1  0.550706  0.790640  0.752640  1
  F  F26  1  0.449294  0.709360  0.252640  1
  F  F27  1  0.949294  0.290640  0.747360  1
  F  F28  1  0.475895  0.864761  0.934294  1
  F  F29  1  0.975895  0.135239  0.065706  1
  F  F30  1  0.024105  0.364761  0.565706  1
  F  F31  1  0.524105  0.635239  0.434294  1
  K  K32  1  0.250000  0.548660  0.709703  1
  K  K33  1  0.750000  0.451340  0.290297  1
  K  K34  1  0.250000  0.048660  0.790297  1
  K  K35  1  0.750000  0.951340  0.209703  1
  K  K36  1  0.250000  0.669627  0.059649  1
  K  K37  1  0.750000  0.330373  0.940351  1
  K  K38  1  0.250000  0.169627  0.440351  1
  K  K39  1  0.750000  0.830373  0.559649  1
  Re  Re40  1  0.250000  0.718435  0.376875  1
  Re  Re41  1  0.750000  0.281565  0.623125  1
  Re  Re42  1  0.250000  0.218435  0.123125  1
  Re  Re43  1  0.750000  0.781565  0.876875  1
