# generated using pymatgen
data_RbCdBr3
_symmetry_space_group_name_H-M   'P 1'
_cell_length_a   4.32656498
_cell_length_b   9.64930184
_cell_length_c   16.06063630
_cell_angle_alpha   90.00000000
_cell_angle_beta   90.00000000
_cell_angle_gamma   90.00000000
_symmetry_Int_Tables_number   1
_chemical_formula_structural   RbCdBr3
_chemical_formula_sum   'Rb4 Cd4 Br12'
_cell_volume   670.50476711
_cell_formula_units_Z   4
loop_
 _symmetry_equiv_pos_site_id
 _symmetry_equiv_pos_as_xyz
  1  'x, y, z'
loop_
 _atom_site_type_symbol
 _atom_site_label
 _atom_site_symmetry_multiplicity
 _atom_site_fract_x
 _atom_site_fract_y
 _atom_site_fract_z
 _atom_site_occupancy
  Rb  Rb0  1  0.750000  0.568824  0.174361  1
  Rb  Rb1  1  0.250000  0.431176  0.825639  1
  Rb  Rb2  1  0.750000  0.068824  0.325639  1
  Rb  Rb3  1  0.250000  0.931176  0.674361  1
  Cd  Cd4  1  0.750000  0.835707  0.943890  1
  Cd  Cd5  1  0.250000  0.164293  0.056110  1
  Cd  Cd6  1  0.750000  0.335707  0.556110  1
  Cd  Cd7  1  0.250000  0.664293  0.443890  1
  Br  Br8  1  0.750000  0.717819  0.791957  1
  Br  Br9  1  0.250000  0.282181  0.208043  1
  Br  Br10  1  0.750000  0.217819  0.708043  1
  Br  Br11  1  0.250000  0.782181  0.291957  1
  Br  Br12  1  0.750000  0.829892  0.504645  1
  Br  Br13  1  0.250000  0.170108  0.495355  1
  Br  Br14  1  0.750000  0.329892  0.995355  1
  Br  Br15  1  0.250000  0.670108  0.004645  1
  Br  Br16  1  0.750000  0.973989  0.099319  1
  Br  Br17  1  0.250000  0.026011  0.900681  1
  Br  Br18  1  0.750000  0.473989  0.400681  1
  Br  Br19  1  0.250000  0.526011  0.599319  1
