# generated using pymatgen
data_Ba5Ho8Mn4O21
_symmetry_space_group_name_H-M   'P 1'
_cell_length_a   5.78201045
_cell_length_b   10.29325923
_cell_length_c   10.29325923
_cell_angle_alpha   85.47554768
_cell_angle_beta   73.68822662
_cell_angle_gamma   73.68822659
_symmetry_Int_Tables_number   1
_chemical_formula_structural   Ba5Ho8Mn4O21
_chemical_formula_sum   'Ba5 Ho8 Mn4 O21'
_cell_volume   564.28533161
_cell_formula_units_Z   1
loop_
 _symmetry_equiv_pos_site_id
 _symmetry_equiv_pos_as_xyz
  1  'x, y, z'
loop_
 _atom_site_type_symbol
 _atom_site_label
 _atom_site_symmetry_multiplicity
 _atom_site_fract_x
 _atom_site_fract_y
 _atom_site_fract_z
 _atom_site_occupancy
  O  O0  1  0.102034  0.893842  0.405759  1
  O  O1  1  0.507792  0.594241  0.893842  1
  O  O2  1  0.995875  0.405759  0.106158  1
  O  O3  1  0.401634  0.106158  0.594241  1
  O  O4  1  0.897967  0.106158  0.594241  1
  O  O5  1  0.492208  0.405759  0.106158  1
  O  O6  1  0.004124  0.594241  0.893842  1
  O  O7  1  0.598366  0.893842  0.405759  1
  O  O8  1  0.925041  0.871816  0.773902  1
  O  O9  1  0.698944  0.226098  0.871816  1
  O  O10  1  0.796857  0.773902  0.128184  1
  O  O11  1  0.570760  0.128184  0.226098  1
  O  O12  1  0.074959  0.128184  0.226098  1
  O  O13  1  0.301056  0.773902  0.128184  1
  O  O14  1  0.203143  0.226098  0.871816  1
  O  O15  1  0.429240  0.871816  0.773902  1
  O  O16  1  0.372750  0.666506  0.587995  1
  O  O17  1  0.500001  0.000000  0.000000  1
  O  O18  1  0.627252  0.333494  0.412005  1
  O  O19  1  0.960745  0.412004  0.666506  1
  O  O20  1  0.039255  0.587995  0.333494  1
  Mn  Mn21  1  0.959992  0.792002  0.288016  1
  Mn  Mn22  1  0.248007  0.711984  0.792001  1
  Mn  Mn23  1  0.751993  0.288016  0.207999  1
  Mn  Mn24  1  0.040008  0.207999  0.711984  1
  Ba  Ba25  1  0.465326  0.395295  0.674054  1
  Ba  Ba26  1  0.139379  0.325946  0.395295  1
  Ba  Ba27  1  0.860621  0.674054  0.604705  1
  Ba  Ba28  1  0.534674  0.604706  0.325946  1
  Ba  Ba29  1  0.000000  0.000000  0.000000  1
  Ho  Ho30  1  0.589486  0.051349  0.769681  1
  Ho  Ho31  1  0.359165  0.230320  0.051349  1
  Ho  Ho32  1  0.640834  0.769681  0.948651  1
  Ho  Ho33  1  0.410514  0.948651  0.230319  1
  Ho  Ho34  1  0.751655  0.077930  0.418759  1
  Ho  Ho35  1  0.170414  0.581241  0.077930  1
  Ho  Ho36  1  0.829586  0.418759  0.922070  1
  Ho  Ho37  1  0.248344  0.922070  0.581241  1
