# generated using pymatgen
data_BSF7
_symmetry_space_group_name_H-M   'P 1'
_cell_length_a   5.79246865
_cell_length_b   9.05100943
_cell_length_c   9.73496586
_cell_angle_alpha   90.00000000
_cell_angle_beta   90.00000000
_cell_angle_gamma   90.00000000
_symmetry_Int_Tables_number   1
_chemical_formula_structural   BSF7
_chemical_formula_sum   'B4 S4 F28'
_cell_volume   510.38175644
_cell_formula_units_Z   4
loop_
 _symmetry_equiv_pos_site_id
 _symmetry_equiv_pos_as_xyz
  1  'x, y, z'
loop_
 _atom_site_type_symbol
 _atom_site_label
 _atom_site_symmetry_multiplicity
 _atom_site_fract_x
 _atom_site_fract_y
 _atom_site_fract_z
 _atom_site_occupancy
  B  B0  1  0.250000  0.662656  0.018994  1
  B  B1  1  0.750000  0.337344  0.981006  1
  B  B2  1  0.250000  0.837344  0.518994  1
  B  B3  1  0.750000  0.162656  0.481006  1
  S  S4  1  0.750000  0.615168  0.211301  1
  S  S5  1  0.250000  0.115168  0.288699  1
  S  S6  1  0.250000  0.384832  0.788699  1
  S  S7  1  0.750000  0.884832  0.711301  1
  F  F8  1  0.550189  0.945087  0.802356  1
  F  F9  1  0.250000  0.226377  0.728613  1
  F  F10  1  0.250000  0.273623  0.228613  1
  F  F11  1  0.750000  0.153622  0.627060  1
  F  F12  1  0.450332  0.758909  0.563719  1
  F  F13  1  0.549668  0.241091  0.436281  1
  F  F14  1  0.050189  0.054913  0.197644  1
  F  F15  1  0.950332  0.258909  0.936281  1
  F  F16  1  0.949811  0.554913  0.302356  1
  F  F17  1  0.949811  0.945087  0.802356  1
  F  F18  1  0.449811  0.445087  0.697644  1
  F  F19  1  0.250000  0.653622  0.872940  1
  F  F20  1  0.450332  0.741091  0.063719  1
  F  F21  1  0.750000  0.479543  0.925239  1
  F  F22  1  0.549668  0.258909  0.936281  1
  F  F23  1  0.250000  0.520457  0.074761  1
  F  F24  1  0.750000  0.346378  0.127060  1
  F  F25  1  0.049668  0.741091  0.063719  1
  F  F26  1  0.750000  0.773623  0.271387  1
  F  F27  1  0.250000  0.979543  0.574761  1
  F  F28  1  0.250000  0.846378  0.372940  1
  F  F29  1  0.050189  0.445087  0.697644  1
  F  F30  1  0.750000  0.726377  0.771387  1
  F  F31  1  0.750000  0.020457  0.425239  1
  F  F32  1  0.449811  0.054913  0.197644  1
  F  F33  1  0.550189  0.554913  0.302356  1
  F  F34  1  0.049668  0.758909  0.563719  1
  F  F35  1  0.950332  0.241091  0.436281  1
