# generated using pymatgen
data_Hg3(SI)2
_symmetry_space_group_name_H-M   'P 1'
_cell_length_a   9.77515834
_cell_length_b   10.02467857
_cell_length_c   11.98400332
_cell_angle_alpha   114.72430927
_cell_angle_beta   114.06934080
_cell_angle_gamma   89.99999999
_symmetry_Int_Tables_number   1
_chemical_formula_structural   Hg3(SI)2
_chemical_formula_sum   'Hg12 S8 I8'
_cell_volume   953.12494034
_cell_formula_units_Z   4
loop_
 _symmetry_equiv_pos_site_id
 _symmetry_equiv_pos_as_xyz
  1  'x, y, z'
loop_
 _atom_site_type_symbol
 _atom_site_label
 _atom_site_symmetry_multiplicity
 _atom_site_fract_x
 _atom_site_fract_y
 _atom_site_fract_z
 _atom_site_occupancy
  S  S0  1  0.874694  0.117360  0.750462  1
  S  S1  1  0.624233  0.382640  0.249538  1
  S  S2  1  0.125306  0.366898  0.249538  1
  S  S3  1  0.375767  0.133102  0.750462  1
  S  S4  1  0.125306  0.882640  0.249538  1
  S  S5  1  0.375767  0.617360  0.750462  1
  S  S6  1  0.874694  0.633102  0.750462  1
  S  S7  1  0.624233  0.866898  0.249538  1
  I  I8  1  0.742512  -0.000665  -0.001331  1
  I  I9  1  0.243843  0.500665  1.001331  1
  I  I10  1  0.257488  1.000665  1.001331  1
  I  I11  1  0.756157  0.499335  -0.001331  1
  I  I12  1  0.478715  0.750000  0.500000  1
  I  I13  1  0.521285  0.250000  0.500000  1
  I  I14  1  0.006105  0.750000  0.500000  1
  I  I15  1  0.993895  0.250000  0.500000  1
  Hg  Hg16  1  0.649011  0.149011  0.798022  1
  Hg  Hg17  1  0.350989  0.350989  0.201978  1
  Hg  Hg18  1  0.350989  0.850989  0.201978  1
  Hg  Hg19  1  0.649011  0.649011  0.798022  1
  Hg  Hg20  1  0.748001  0.020881  0.500000  1
  Hg  Hg21  1  0.748001  0.479119  0.500000  1
  Hg  Hg22  1  0.251999  0.520881  0.500000  1
  Hg  Hg23  1  0.251999  0.979119  0.500000  1
  Hg  Hg24  1  0.072703  0.116062  0.232125  1
  Hg  Hg25  1  0.340578  0.383937  0.767875  1
  Hg  Hg26  1  0.927297  0.883938  0.767875  1
  Hg  Hg27  1  0.659422  0.616062  0.232125  1
