# generated using pymatgen
data_Na4Ga3Si3BrO12
_symmetry_space_group_name_H-M   'P 1'
_cell_length_a   9.11034730
_cell_length_b   9.11034730
_cell_length_c   9.11034730
_cell_angle_alpha   90.00000000
_cell_angle_beta   90.00000000
_cell_angle_gamma   90.00000000
_symmetry_Int_Tables_number   1
_chemical_formula_structural   Na4Ga3Si3BrO12
_chemical_formula_sum   'Na8 Ga6 Si6 Br2 O24'
_cell_volume   756.14450377
_cell_formula_units_Z   2
loop_
 _symmetry_equiv_pos_site_id
 _symmetry_equiv_pos_as_xyz
  1  'x, y, z'
loop_
 _atom_site_type_symbol
 _atom_site_label
 _atom_site_symmetry_multiplicity
 _atom_site_fract_x
 _atom_site_fract_y
 _atom_site_fract_z
 _atom_site_occupancy
  Na  Na0  1  0.319082  0.319082  0.680918  1
  Na  Na1  1  0.680918  0.319082  0.319082  1
  Na  Na2  1  0.180918  0.819082  0.819082  1
  Na  Na3  1  0.819082  0.180918  0.819082  1
  Na  Na4  1  0.180918  0.180918  0.180918  1
  Na  Na5  1  0.819082  0.819082  0.180918  1
  Na  Na6  1  0.680918  0.680918  0.680918  1
  Na  Na7  1  0.319082  0.680918  0.319082  1
  Ga  Ga8  1  0.500000  0.750000  0.000000  1
  Ga  Ga9  1  0.250000  0.000000  0.500000  1
  Ga  Ga10  1  0.000000  0.500000  0.250000  1
  Ga  Ga11  1  0.500000  0.250000  0.000000  1
  Ga  Ga12  1  0.000000  0.500000  0.750000  1
  Ga  Ga13  1  0.750000  0.000000  0.500000  1
  Si  Si14  1  0.500000  0.000000  0.250000  1
  Si  Si15  1  0.000000  0.250000  0.500000  1
  Si  Si16  1  0.250000  0.500000  0.000000  1
  Si  Si17  1  0.000000  0.750000  0.500000  1
  Si  Si18  1  0.500000  0.000000  0.750000  1
  Si  Si19  1  0.750000  0.500000  0.000000  1
  Br  Br20  1  0.500000  0.500000  0.500000  1
  Br  Br21  1  0.000000  0.000000  0.000000  1
  O  O22  1  0.431282  0.135522  0.152395  1
  O  O23  1  0.347605  0.635522  0.068718  1
  O  O24  1  0.635522  0.068718  0.347605  1
  O  O25  1  0.847605  0.431282  0.864478  1
  O  O26  1  0.152395  0.568718  0.864478  1
  O  O27  1  0.864478  0.152395  0.568718  1
  O  O28  1  0.068718  0.347605  0.635522  1
  O  O29  1  0.568718  0.135522  0.847605  1
  O  O30  1  0.931282  0.347605  0.364478  1
  O  O31  1  0.847605  0.568718  0.135522  1
  O  O32  1  0.652395  0.635522  0.931282  1
  O  O33  1  0.068718  0.652395  0.364478  1
  O  O34  1  0.652395  0.364478  0.068718  1
  O  O35  1  0.347605  0.364478  0.931282  1
  O  O36  1  0.431282  0.864478  0.847605  1
  O  O37  1  0.135522  0.847605  0.568718  1
  O  O38  1  0.931282  0.652395  0.635522  1
  O  O39  1  0.364478  0.931282  0.347605  1
  O  O40  1  0.635522  0.931282  0.652395  1
  O  O41  1  0.152395  0.431282  0.135522  1
  O  O42  1  0.364478  0.068718  0.652395  1
  O  O43  1  0.135522  0.152395  0.431282  1
  O  O44  1  0.864478  0.847605  0.431282  1
  O  O45  1  0.568718  0.864478  0.152395  1
