# generated using pymatgen
data_BaH2I2O7
_symmetry_space_group_name_H-M   'P 1'
_cell_length_a   7.90404390
_cell_length_b   7.90404389
_cell_length_c   8.01078220
_cell_angle_alpha   101.23981908
_cell_angle_beta   109.80331675
_cell_angle_gamma   117.32803040
_symmetry_Int_Tables_number   1
_chemical_formula_structural   BaH2I2O7
_chemical_formula_sum   'Ba2 H4 I4 O14'
_cell_volume   379.77235873
_cell_formula_units_Z   2
loop_
 _symmetry_equiv_pos_site_id
 _symmetry_equiv_pos_as_xyz
  1  'x, y, z'
loop_
 _atom_site_type_symbol
 _atom_site_label
 _atom_site_symmetry_multiplicity
 _atom_site_fract_x
 _atom_site_fract_y
 _atom_site_fract_z
 _atom_site_occupancy
  H  H0  1  0.070750  0.272642  0.362348  1
  H  H1  1  0.910295  0.208402  0.137652  1
  H  H2  1  0.929250  0.727358  0.637652  1
  H  H3  1  0.089705  0.791598  0.862348  1
  O  O4  1  0.059169  0.309169  0.250000  1
  O  O5  1  0.940831  0.690831  0.750000  1
  O  O6  1  0.724279  0.092616  0.500058  1
  O  O7  1  0.592558  0.724221  0.999942  1
  O  O8  1  0.275721  0.907384  0.499942  1
  O  O9  1  0.407442  0.275779  0.000058  1
  O  O10  1  0.158637  0.242041  0.586694  1
  O  O11  1  0.655347  0.071943  0.913306  1
  O  O12  1  0.841363  0.757959  0.413306  1
  O  O13  1  0.344653  0.928057  0.086694  1
  O  O14  1  0.066089  0.403110  0.865924  1
  O  O15  1  0.537186  0.700165  0.634076  1
  O  O16  1  0.933911  0.596890  0.134076  1
  O  O17  1  0.462814  0.299835  0.365924  1
  I  I18  1  0.539467  0.216008  0.193062  1
  I  I19  1  0.022946  0.846405  0.306938  1
  I  I20  1  0.460533  0.783992  0.806938  1
  I  I21  1  0.977054  0.153595  0.693062  1
  Ba  Ba22  1  0.390657  0.640657  0.250000  1
  Ba  Ba23  1  0.609343  0.359343  0.750000  1
