# generated using pymatgen
data_Re3Ge7
_symmetry_space_group_name_H-M   'P 1'
_cell_length_a   3.26775946
_cell_length_b   4.85179655
_cell_length_c   22.15817088
_cell_angle_alpha   90.00000000
_cell_angle_beta   90.00000000
_cell_angle_gamma   109.67945679
_symmetry_Int_Tables_number   1
_chemical_formula_structural   Re3Ge7
_chemical_formula_sum   'Re6 Ge14'
_cell_volume   330.78745371
_cell_formula_units_Z   2
loop_
 _symmetry_equiv_pos_site_id
 _symmetry_equiv_pos_as_xyz
  1  'x, y, z'
loop_
 _atom_site_type_symbol
 _atom_site_label
 _atom_site_symmetry_multiplicity
 _atom_site_fract_x
 _atom_site_fract_y
 _atom_site_fract_z
 _atom_site_occupancy
  Ge  Ge0  1  0.236305  0.472609  0.250000  1
  Ge  Ge1  1  0.763695  0.527391  0.750000  1
  Ge  Ge2  1  0.354101  0.708201  0.031969  1
  Ge  Ge3  1  0.645899  0.291799  0.968031  1
  Ge  Ge4  1  0.645899  0.291799  0.531969  1
  Ge  Ge5  1  0.354101  0.708201  0.468031  1
  Ge  Ge6  1  0.059106  0.118212  0.837819  1
  Ge  Ge7  1  0.940894  0.881788  0.162181  1
  Ge  Ge8  1  0.940894  0.881788  0.337819  1
  Ge  Ge9  1  0.059106  0.118212  0.662181  1
  Ge  Ge10  1  0.323863  0.647727  0.863677  1
  Ge  Ge11  1  0.676137  0.352273  0.136323  1
  Ge  Ge12  1  0.676137  0.352273  0.363677  1
  Ge  Ge13  1  0.323863  0.647727  0.636323  1
  Re  Re14  1  0.518820  0.037640  0.250000  1
  Re  Re15  1  0.481180  0.962360  0.750000  1
  Re  Re16  1  0.073483  0.146965  0.059306  1
  Re  Re17  1  0.926517  0.853035  0.940694  1
  Re  Re18  1  0.926517  0.853035  0.559306  1
  Re  Re19  1  0.073483  0.146965  0.440694  1
