# generated using pymatgen
data_KCu4(AsO4)3
_symmetry_space_group_name_H-M   'P 1'
_cell_length_a   7.54950760
_cell_length_b   8.84231590
_cell_length_c   8.84231586
_cell_angle_alpha   90.67865553
_cell_angle_beta   109.71039178
_cell_angle_gamma   109.71038900
_symmetry_Int_Tables_number   1
_chemical_formula_structural   KCu4(AsO4)3
_chemical_formula_sum   'K2 Cu8 As6 O24'
_cell_volume   517.84825267
_cell_formula_units_Z   2
loop_
 _symmetry_equiv_pos_site_id
 _symmetry_equiv_pos_as_xyz
  1  'x, y, z'
loop_
 _atom_site_type_symbol
 _atom_site_label
 _atom_site_symmetry_multiplicity
 _atom_site_fract_x
 _atom_site_fract_y
 _atom_site_fract_z
 _atom_site_occupancy
  K  K0  1  0.750000  0.012324  0.987676  1
  K  K1  1  0.250000  0.987676  0.012324  1
  Cu  Cu2  1  0.644404  0.067655  0.382339  1
  Cu  Cu3  1  0.250000  0.505085  0.494915  1
  Cu  Cu4  1  0.750000  0.737472  0.262528  1
  Cu  Cu5  1  0.144404  0.382339  0.067655  1
  Cu  Cu6  1  0.250000  0.262528  0.737472  1
  Cu  Cu7  1  0.750000  0.494915  0.505085  1
  Cu  Cu8  1  0.855596  0.617661  0.932345  1
  Cu  Cu9  1  0.355596  0.932345  0.617661  1
  As  As10  1  0.876120  0.886769  0.647876  1
  As  As11  1  0.376120  0.647876  0.886769  1
  As  As12  1  0.623880  0.352124  0.113231  1
  As  As13  1  0.250000  0.723717  0.276283  1
  As  As14  1  0.750000  0.276283  0.723717  1
  As  As15  1  0.123880  0.113231  0.352124  1
  O  O16  1  0.867373  0.814467  0.825520  1
  O  O17  1  0.132627  0.185533  0.174480  1
  O  O18  1  0.307024  0.027509  0.416334  1
  O  O19  1  0.807025  0.416334  0.027509  1
  O  O20  1  0.179893  0.274106  0.500624  1
  O  O21  1  0.741276  0.276522  0.519148  1
  O  O22  1  0.679893  0.500624  0.274106  1
  O  O23  1  0.820107  0.725894  0.499376  1
  O  O24  1  0.966428  0.251080  0.844707  1
  O  O25  1  0.367373  0.825520  0.814467  1
  O  O26  1  0.258724  0.723478  0.480852  1
  O  O27  1  0.880439  0.979048  0.314027  1
  O  O28  1  0.619561  0.685973  0.020952  1
  O  O29  1  0.380439  0.314027  0.979048  1
  O  O30  1  0.033572  0.748920  0.155293  1
  O  O31  1  0.320107  0.499376  0.725894  1
  O  O32  1  0.466428  0.844707  0.251080  1
  O  O33  1  0.758724  0.480852  0.723478  1
  O  O34  1  0.692975  0.972491  0.583666  1
  O  O35  1  0.119561  0.020952  0.685973  1
  O  O36  1  0.192975  0.583666  0.972491  1
  O  O37  1  0.533572  0.155293  0.748920  1
  O  O38  1  0.241276  0.519148  0.276522  1
  O  O39  1  0.632627  0.174480  0.185533  1
