# generated using pymatgen
data_B3H5
_symmetry_space_group_name_H-M   'P 1'
_cell_length_a   6.12233800
_cell_length_b   6.12233800
_cell_length_c   8.89804173
_cell_angle_alpha   90.00000000
_cell_angle_beta   90.00000000
_cell_angle_gamma   101.86307131
_symmetry_Int_Tables_number   1
_chemical_formula_structural   B3H5
_chemical_formula_sum   'B12 H20'
_cell_volume   326.40195641
_cell_formula_units_Z   4
loop_
 _symmetry_equiv_pos_site_id
 _symmetry_equiv_pos_as_xyz
  1  'x, y, z'
loop_
 _atom_site_type_symbol
 _atom_site_label
 _atom_site_symmetry_multiplicity
 _atom_site_fract_x
 _atom_site_fract_y
 _atom_site_fract_z
 _atom_site_occupancy
  H  H0  1  0.106941  0.244772  0.316235  1
  H  H1  1  0.893059  0.755228  0.816235  1
  H  H2  1  0.755228  0.893059  0.316235  1
  H  H3  1  0.244772  0.106941  0.816235  1
  H  H4  1  0.890892  0.356395  0.433372  1
  H  H5  1  0.109108  0.643605  0.933372  1
  H  H6  1  0.643605  0.109108  0.433372  1
  H  H7  1  0.356395  0.890892  0.933372  1
  H  H8  1  0.581301  0.418699  0.407721  1
  H  H9  1  0.418699  0.581301  0.907721  1
  H  H10  1  0.070715  0.581223  0.291831  1
  H  H11  1  0.929285  0.418777  0.791831  1
  H  H12  1  0.319477  0.680523  0.573873  1
  H  H13  1  0.680523  0.319477  0.073873  1
  H  H14  1  0.233201  0.184469  0.591677  1
  H  H15  1  0.766799  0.815531  0.091677  1
  H  H16  1  0.815531  0.766799  0.591677  1
  H  H17  1  0.184469  0.233201  0.091677  1
  H  H18  1  0.581223  0.070715  0.791831  1
  H  H19  1  0.418777  0.929285  0.291831  1
  B  B20  1  0.699369  0.300631  0.363104  1
  B  B21  1  0.300631  0.699369  0.863104  1
  B  B22  1  0.975085  0.391054  0.289946  1
  B  B23  1  0.024915  0.608946  0.789946  1
  B  B24  1  0.608946  0.024915  0.289946  1
  B  B25  1  0.391054  0.975085  0.789946  1
  B  B26  1  0.034781  0.178387  0.178808  1
  B  B27  1  0.965219  0.821613  0.678808  1
  B  B28  1  0.821613  0.965219  0.178808  1
  B  B29  1  0.178387  0.034781  0.678808  1
  B  B30  1  0.759885  0.240115  0.177762  1
  B  B31  1  0.240115  0.759885  0.677762  1
