# generated using pymatgen
data_Te2OsCl12
_symmetry_space_group_name_H-M   'P 1'
_cell_length_a   6.77100926
_cell_length_b   7.15383545
_cell_length_c   11.31523956
_cell_angle_alpha   71.43708164
_cell_angle_beta   87.61177908
_cell_angle_gamma   62.76057079
_symmetry_Int_Tables_number   1
_chemical_formula_structural   Te2OsCl12
_chemical_formula_sum   'Te2 Os1 Cl12'
_cell_volume   458.42686006
_cell_formula_units_Z   1
loop_
 _symmetry_equiv_pos_site_id
 _symmetry_equiv_pos_as_xyz
  1  'x, y, z'
loop_
 _atom_site_type_symbol
 _atom_site_label
 _atom_site_symmetry_multiplicity
 _atom_site_fract_x
 _atom_site_fract_y
 _atom_site_fract_z
 _atom_site_occupancy
  Cl  Cl0  1  0.971817  0.723524  0.591570  1
  Cl  Cl1  1  0.028183  0.276476  0.408430  1
  Cl  Cl2  1  0.426984  0.733100  0.699791  1
  Cl  Cl3  1  0.610095  0.215914  0.982262  1
  Cl  Cl4  1  0.389905  0.784086  0.017738  1
  Cl  Cl5  1  -0.009138  0.765371  0.196936  1
  Cl  Cl6  1  1.009138  0.234629  0.803064  1
  Cl  Cl7  1  0.948042  0.776773  0.903785  1
  Cl  Cl8  1  0.051958  0.223227  0.096215  1
  Cl  Cl9  1  0.515071  0.740065  0.349972  1
  Cl  Cl10  1  0.484929  0.259935  0.650028  1
  Cl  Cl11  1  0.573016  0.266900  0.300209  1
  Te  Te12  1  0.261558  0.495523  0.760415  1
  Te  Te13  1  0.738442  0.504477  0.239585  1
  Os  Os14  1  0.000000  0.000000  0.000000  1
