# generated using pymatgen
data_Rb3PbCl5
_symmetry_space_group_name_H-M   'P 1'
_cell_length_a   8.49335714
_cell_length_b   8.95980590
_cell_length_c   15.96359936
_cell_angle_alpha   90.00000000
_cell_angle_beta   90.00000000
_cell_angle_gamma   90.00000000
_symmetry_Int_Tables_number   1
_chemical_formula_structural   Rb3PbCl5
_chemical_formula_sum   'Rb12 Pb4 Cl20'
_cell_volume   1214.81125645
_cell_formula_units_Z   4
loop_
 _symmetry_equiv_pos_site_id
 _symmetry_equiv_pos_as_xyz
  1  'x, y, z'
loop_
 _atom_site_type_symbol
 _atom_site_label
 _atom_site_symmetry_multiplicity
 _atom_site_fract_x
 _atom_site_fract_y
 _atom_site_fract_z
 _atom_site_occupancy
  Cl  Cl0  1  0.127285  0.389902  0.874808  1
  Cl  Cl1  1  0.627285  0.110098  0.125192  1
  Cl  Cl2  1  0.372715  0.889902  0.625192  1
  Cl  Cl3  1  0.872715  0.610098  0.374808  1
  Cl  Cl4  1  0.872715  0.610098  0.125192  1
  Cl  Cl5  1  0.372715  0.889902  0.874808  1
  Cl  Cl6  1  0.627285  0.110098  0.374808  1
  Cl  Cl7  1  0.127285  0.389902  0.625192  1
  Cl  Cl8  1  0.176108  0.954796  0.114049  1
  Cl  Cl9  1  0.676108  0.545204  0.885951  1
  Cl  Cl10  1  0.323892  0.454796  0.385951  1
  Cl  Cl11  1  0.823892  0.045204  0.614049  1
  Cl  Cl12  1  0.823892  0.045204  0.885951  1
  Cl  Cl13  1  0.323892  0.454796  0.114049  1
  Cl  Cl14  1  0.676108  0.545204  0.614049  1
  Cl  Cl15  1  0.176108  0.954796  0.385951  1
  Cl  Cl16  1  0.020598  0.277397  0.250000  1
  Cl  Cl17  1  0.520598  0.222603  0.750000  1
  Cl  Cl18  1  0.479402  0.777397  0.250000  1
  Cl  Cl19  1  0.979402  0.722603  0.750000  1
  Rb  Rb20  1  0.967026  0.261626  0.045900  1
  Rb  Rb21  1  0.467026  0.238374  0.954100  1
  Rb  Rb22  1  0.532974  0.761626  0.454100  1
  Rb  Rb23  1  0.032974  0.738374  0.545900  1
  Rb  Rb24  1  0.032974  0.738374  0.954100  1
  Rb  Rb25  1  0.532974  0.761626  0.045900  1
  Rb  Rb26  1  0.467026  0.238374  0.545900  1
  Rb  Rb27  1  0.967026  0.261626  0.454100  1
  Rb  Rb28  1  0.136796  0.079057  0.750000  1
  Rb  Rb29  1  0.636796  0.420943  0.250000  1
  Rb  Rb30  1  0.363204  0.579057  0.750000  1
  Rb  Rb31  1  0.863204  0.920943  0.250000  1
  Pb  Pb32  1  0.639148  0.939444  0.750000  1
  Pb  Pb33  1  0.139148  0.560556  0.250000  1
  Pb  Pb34  1  0.860852  0.439444  0.750000  1
  Pb  Pb35  1  0.360852  0.060556  0.250000  1
