# generated using pymatgen
data_B4H5
_symmetry_space_group_name_H-M   'P 1'
_cell_length_a   6.11679759
_cell_length_b   13.99463877
_cell_length_c   18.43276309
_cell_angle_alpha   90.00000000
_cell_angle_beta   112.83600949
_cell_angle_gamma   90.00000000
_symmetry_Int_Tables_number   1
_chemical_formula_structural   B4H5
_chemical_formula_sum   'B64 H80'
_cell_volume   1454.21246149
_cell_formula_units_Z   16
loop_
 _symmetry_equiv_pos_site_id
 _symmetry_equiv_pos_as_xyz
  1  'x, y, z'
loop_
 _atom_site_type_symbol
 _atom_site_label
 _atom_site_symmetry_multiplicity
 _atom_site_fract_x
 _atom_site_fract_y
 _atom_site_fract_z
 _atom_site_occupancy
  H  H0  1  0.973414  0.748962  0.481726  1
  H  H1  1  0.526586  0.248962  0.018274  1
  H  H2  1  0.026586  0.251038  0.518274  1
  H  H3  1  0.473414  0.751038  0.981726  1
  H  H4  1  0.967268  0.877058  0.440535  1
  H  H5  1  0.532732  0.377058  0.059465  1
  H  H6  1  0.032732  0.122942  0.559465  1
  H  H7  1  0.467268  0.622942  0.940535  1
  H  H8  1  0.122812  0.865183  0.367772  1
  H  H9  1  0.377188  0.365183  0.132228  1
  H  H10  1  0.877188  0.134817  0.632228  1
  H  H11  1  0.622812  0.634817  0.867772  1
  H  H12  1  0.277341  0.519129  0.380533  1
  H  H13  1  0.222659  0.019129  0.119467  1
  H  H14  1  0.722659  0.480871  0.619467  1
  H  H15  1  0.777341  0.980871  0.880533  1
  H  H16  1  0.196365  0.532782  0.269012  1
  H  H17  1  0.303635  0.032782  0.230988  1
  H  H18  1  0.803635  0.467218  0.730988  1
  H  H19  1  0.696365  0.967218  0.769012  1
  H  H20  1  0.214977  0.674916  0.294039  1
  H  H21  1  0.285023  0.174916  0.205961  1
  H  H22  1  0.785023  0.325084  0.705961  1
  H  H23  1  0.714977  0.825084  0.794039  1
  H  H24  1  0.223847  0.667135  0.565776  1
  H  H25  1  0.276153  0.167135  0.934224  1
  H  H26  1  0.776153  0.332865  0.434224  1
  H  H27  1  0.723847  0.832865  0.065776  1
  H  H28  1  0.053384  0.866434  0.559306  1
  H  H29  1  0.446616  0.366434  0.940694  1
  H  H30  1  0.946616  0.133566  0.440694  1
  H  H31  1  0.553384  0.633566  0.059306  1
  H  H32  1  0.206202  0.982056  0.445473  1
  H  H33  1  0.293798  0.482056  0.054527  1
  H  H34  1  0.793798  0.017944  0.554527  1
  H  H35  1  0.719510  0.423024  0.287844  1
  H  H36  1  0.706202  0.517944  0.945473  1
  H  H37  1  0.032218  0.353516  0.122442  1
  H  H38  1  0.532218  0.146484  0.622442  1
  H  H39  1  0.967782  0.646484  0.877558  1
  H  H40  1  0.554201  0.828930  0.553435  1
  H  H41  1  0.945799  0.328930  0.946565  1
  H  H42  1  0.445799  0.171070  0.446565  1
  H  H43  1  0.054201  0.671070  0.053435  1
  H  H44  1  0.534612  0.659398  0.465496  1
  H  H45  1  0.965388  0.159398  0.034504  1
  H  H46  1  0.465388  0.340602  0.534504  1
  H  H47  1  0.034612  0.840602  0.965496  1
  H  H48  1  0.140381  0.463021  0.453781  1
  H  H49  1  0.359619  0.963021  0.046219  1
  H  H50  1  0.859619  0.536979  0.546219  1
  H  H51  1  0.640381  0.036979  0.953781  1
  H  H52  1  0.247994  0.397943  0.313609  1
  H  H53  1  0.252006  0.897943  0.186391  1
  H  H54  1  0.752006  0.602057  0.686391  1
  H  H55  1  0.747994  0.102057  0.813609  1
  H  H56  1  0.918546  0.514153  0.168244  1
  H  H57  1  0.581454  0.014153  0.331756  1
  H  H58  1  0.081454  0.485847  0.831756  1
  H  H59  1  0.418546  0.985847  0.668244  1
  H  H60  1  0.954253  0.728540  0.197519  1
  H  H61  1  0.545747  0.228540  0.302481  1
  H  H62  1  0.045747  0.271460  0.802481  1
  H  H63  1  0.454253  0.771460  0.697519  1
  H  H64  1  0.188263  0.929088  0.893763  1
  H  H65  1  0.311737  0.429088  0.606237  1
  H  H66  1  0.811737  0.070912  0.106237  1
  H  H67  1  0.688263  0.570912  0.393763  1
  H  H68  1  0.233167  0.736777  0.826923  1
  H  H69  1  0.266833  0.236777  0.673077  1
  H  H70  1  0.766833  0.263223  0.173077  1
  H  H71  1  0.733167  0.763223  0.326923  1
  H  H72  1  0.064746  0.889953  0.708007  1
  H  H73  1  0.435254  0.389953  0.791993  1
  H  H74  1  0.935254  0.110047  0.291993  1
  H  H75  1  0.564746  0.610047  0.208007  1
  H  H76  1  0.219510  0.076976  0.787844  1
  H  H77  1  0.280490  0.576976  0.712156  1
  H  H78  1  0.780490  0.923024  0.212156  1
  H  H79  1  0.467782  0.853516  0.377558  1
  B  B80  1  0.184693  0.709925  0.506145  1
  B  B81  1  0.315307  0.209925  0.993855  1
  B  B82  1  0.815307  0.290075  0.493855  1
  B  B83  1  0.684693  0.790075  0.006145  1
  B  B84  1  0.100086  0.831670  0.508218  1
  B  B85  1  0.399914  0.331670  0.991782  1
  B  B86  1  0.899914  0.168330  0.491782  1
  B  B87  1  0.600086  0.668330  0.008218  1
  B  B88  1  0.184980  0.897496  0.443483  1
  B  B89  1  0.315020  0.397496  0.056517  1
  B  B90  1  0.815020  0.102504  0.556517  1
  B  B91  1  0.684980  0.602504  0.943483  1
  B  B92  1  0.323647  0.818075  0.397935  1
  B  B93  1  0.176353  0.318075  0.102065  1
  B  B94  1  0.676353  0.181925  0.602065  1
  B  B95  1  0.823647  0.681925  0.897935  1
  B  B96  1  0.370280  0.809592  0.501461  1
  B  B97  1  0.129720  0.309592  0.998539  1
  B  B98  1  0.629720  0.190408  0.498539  1
  B  B99  1  0.870280  0.690408  0.001461  1
  B  B100  1  0.352901  0.702883  0.445581  1
  B  B101  1  0.147099  0.202883  0.054419  1
  B  B102  1  0.647099  0.297117  0.554419  1
  B  B103  1  0.852901  0.797117  0.945581  1
  B  B104  1  0.084974  0.512203  0.396650  1
  B  B105  1  0.415026  0.012203  0.103350  1
  B  B106  1  0.915026  0.487797  0.603350  1
  B  B107  1  0.584974  0.987797  0.896650  1
  B  B108  1  0.145780  0.469717  0.315484  1
  B  B109  1  0.354220  0.969717  0.184516  1
  B  B110  1  0.854220  0.530283  0.684516  1
  B  B111  1  0.645780  0.030283  0.815484  1
  B  B112  1  0.962884  0.539559  0.234195  1
  B  B113  1  0.537116  0.039559  0.265805  1
  B  B114  1  0.037116  0.460441  0.765805  1
  B  B115  1  0.462884  0.960441  0.734195  1
  B  B116  1  0.979028  0.679810  0.253137  1
  B  B117  1  0.520972  0.179810  0.246863  1
  B  B118  1  0.020972  0.320190  0.746863  1
  B  B119  1  0.479028  0.820190  0.753137  1
  B  B120  1  0.158272  0.715622  0.349213  1
  B  B121  1  0.341728  0.215622  0.150787  1
  B  B122  1  0.841728  0.284378  0.650787  1
  B  B123  1  0.658272  0.784378  0.849213  1
  B  B124  1  0.082491  0.646678  0.412237  1
  B  B125  1  0.417509  0.146678  0.087763  1
  B  B126  1  0.917509  0.353322  0.587763  1
  B  B127  1  0.582491  0.853322  0.912237  1
  B  B128  1  0.855379  0.488326  0.302583  1
  B  B129  1  0.644621  0.988326  0.197417  1
  B  B130  1  0.144621  0.511674  0.697417  1
  B  B131  1  0.355379  0.011674  0.802583  1
  B  B132  1  0.756711  0.603411  0.259966  1
  B  B133  1  0.743289  0.103411  0.240034  1
  B  B134  1  0.243289  0.396589  0.740034  1
  B  B135  1  0.256711  0.896589  0.759966  1
  B  B136  1  0.859764  0.698112  0.326709  1
  B  B137  1  0.640236  0.198112  0.173291  1
  B  B138  1  0.140236  0.301888  0.673291  1
  B  B139  1  0.359764  0.801888  0.826709  1
  B  B140  1  0.825183  0.583281  0.362840  1
  B  B141  1  0.674817  0.083281  0.137160  1
  B  B142  1  0.174817  0.416719  0.637160  1
  B  B143  1  0.325183  0.916719  0.862840  1
