# generated using pymatgen
data_Ca4(PPd)5
_symmetry_space_group_name_H-M   'P 1'
_cell_length_a   4.13506570
_cell_length_b   8.26349477
_cell_length_c   15.73042299
_cell_angle_alpha   90.00000000
_cell_angle_beta   97.55254066
_cell_angle_gamma   90.00000000
_symmetry_Int_Tables_number   1
_chemical_formula_structural   Ca4(PPd)5
_chemical_formula_sum   'Ca8 P10 Pd10'
_cell_volume   532.84699505
_cell_formula_units_Z   2
loop_
 _symmetry_equiv_pos_site_id
 _symmetry_equiv_pos_as_xyz
  1  'x, y, z'
loop_
 _atom_site_type_symbol
 _atom_site_label
 _atom_site_symmetry_multiplicity
 _atom_site_fract_x
 _atom_site_fract_y
 _atom_site_fract_z
 _atom_site_occupancy
  P  P0  1  0.270854  0.750000  0.541708  1
  P  P1  1  0.044454  0.750000  0.088907  1
  P  P2  1  0.045548  0.250000  0.091096  1
  P  P3  1  0.955546  0.250000  0.911093  1
  P  P4  1  0.954452  0.750000  0.908904  1
  P  P5  1  0.657746  0.250000  0.315493  1
  P  P6  1  0.342254  0.750000  0.684507  1
  P  P7  1  0.342793  0.250000  0.685585  1
  P  P8  1  0.729146  0.250000  0.458292  1
  P  P9  1  0.657207  0.750000  0.314415  1
  Ca  Ca10  1  0.806051  0.494703  0.612102  1
  Ca  Ca11  1  0.193949  0.505297  0.387898  1
  Ca  Ca12  1  0.193949  0.994703  0.387898  1
  Ca  Ca13  1  0.806051  0.005297  0.612102  1
  Ca  Ca14  1  0.579616  0.998641  0.159232  1
  Ca  Ca15  1  0.420384  0.498641  0.840768  1
  Ca  Ca16  1  0.420384  0.001359  0.840768  1
  Ca  Ca17  1  0.579616  0.501359  0.159232  1
  Pd  Pd18  1  0.734380  0.750000  0.468761  1
  Pd  Pd19  1  0.265620  0.250000  0.531239  1
  Pd  Pd20  1  0.000000  0.500000  0.000000  1
  Pd  Pd21  1  0.878817  0.750000  0.757633  1
  Pd  Pd22  1  0.121183  0.250000  0.242367  1
  Pd  Pd23  1  0.119593  0.750000  0.239186  1
  Pd  Pd24  1  0.880407  0.250000  0.760814  1
  Pd  Pd25  1  0.499869  0.750000  0.999737  1
  Pd  Pd26  1  0.500131  0.250000  0.000263  1
  Pd  Pd27  1  0.000000  0.000000  0.000000  1
