# generated using pymatgen
data_Rb9O2
_symmetry_space_group_name_H-M   'P 1'
_cell_length_a   8.43479308
_cell_length_b   11.74084093
_cell_length_c   14.08719321
_cell_angle_alpha   90.00000000
_cell_angle_beta   90.00000000
_cell_angle_gamma   104.46600922
_symmetry_Int_Tables_number   1
_chemical_formula_structural   Rb9O2
_chemical_formula_sum   'Rb18 O4'
_cell_volume   1350.84727087
_cell_formula_units_Z   2
loop_
 _symmetry_equiv_pos_site_id
 _symmetry_equiv_pos_as_xyz
  1  'x, y, z'
loop_
 _atom_site_type_symbol
 _atom_site_label
 _atom_site_symmetry_multiplicity
 _atom_site_fract_x
 _atom_site_fract_y
 _atom_site_fract_z
 _atom_site_occupancy
  O  O0  1  0.156387  0.656624  0.250000  1
  O  O1  1  0.843613  0.343376  0.750000  1
  O  O2  1  0.220196  0.997486  0.250000  1
  O  O3  1  0.779804  0.002514  0.750000  1
  Rb  Rb4  1  0.723316  0.457939  0.891027  1
  Rb  Rb5  1  0.276684  0.542061  0.391027  1
  Rb  Rb6  1  0.276684  0.542061  0.108973  1
  Rb  Rb7  1  0.723316  0.457939  0.608973  1
  Rb  Rb8  1  0.940282  0.183941  0.878019  1
  Rb  Rb9  1  0.059718  0.816059  0.378020  1
  Rb  Rb10  1  0.059718  0.816059  0.121981  1
  Rb  Rb11  1  0.940282  0.183941  0.621981  1
  Rb  Rb12  1  0.028875  0.893832  0.750000  1
  Rb  Rb13  1  0.971125  0.106168  0.250000  1
  Rb  Rb14  1  0.147225  0.496927  0.750000  1
  Rb  Rb15  1  0.852775  0.503073  0.250000  1
  Rb  Rb16  1  0.562567  0.153358  0.750000  1
  Rb  Rb17  1  0.437433  0.846642  0.250000  1
  Rb  Rb18  1  0.610866  0.863132  0.609213  1
  Rb  Rb19  1  0.389134  0.136868  0.109213  1
  Rb  Rb20  1  0.389134  0.136868  0.390787  1
  Rb  Rb21  1  0.610866  0.863132  0.890787  1
