# generated using pymatgen
data_Ba2TaBiO6
_symmetry_space_group_name_H-M   'P 1'
_cell_length_a   6.12186566
_cell_length_b   6.12186513
_cell_length_c   6.12186549
_cell_angle_alpha   60.25025851
_cell_angle_beta   60.25026126
_cell_angle_gamma   60.25026197
_symmetry_Int_Tables_number   1
_chemical_formula_structural   Ba2TaBiO6
_chemical_formula_sum   'Ba2 Ta1 Bi1 O6'
_cell_volume   163.15097707
_cell_formula_units_Z   1
loop_
 _symmetry_equiv_pos_site_id
 _symmetry_equiv_pos_as_xyz
  1  'x, y, z'
loop_
 _atom_site_type_symbol
 _atom_site_label
 _atom_site_symmetry_multiplicity
 _atom_site_fract_x
 _atom_site_fract_y
 _atom_site_fract_z
 _atom_site_occupancy
  Ba  Ba0  1  0.749896  0.749896  0.749896  1
  Ba  Ba1  1  0.250104  0.250104  0.250104  1
  Ta  Ta2  1  0.500000  0.500000  0.500000  1
  Bi  Bi3  1  0.000000  0.000000  0.000000  1
  O  O4  1  0.271449  0.775256  0.685485  1
  O  O5  1  0.728551  0.224744  0.314515  1
  O  O6  1  0.775256  0.685485  0.271449  1
  O  O7  1  0.224744  0.314515  0.728551  1
  O  O8  1  0.314515  0.728551  0.224744  1
  O  O9  1  0.685485  0.271449  0.775256  1
