# generated using pymatgen
data_CCl2O
_symmetry_space_group_name_H-M   'P 1'
_cell_length_a   5.95131882
_cell_length_b   12.26691352
_cell_length_c   12.26691352
_cell_angle_alpha   86.62658779
_cell_angle_beta   75.96136911
_cell_angle_gamma   75.96136917
_symmetry_Int_Tables_number   1
_chemical_formula_structural   CCl2O
_chemical_formula_sum   'C8 Cl16 O8'
_cell_volume   842.84135319
_cell_formula_units_Z   8
loop_
 _symmetry_equiv_pos_site_id
 _symmetry_equiv_pos_as_xyz
  1  'x, y, z'
loop_
 _atom_site_type_symbol
 _atom_site_label
 _atom_site_symmetry_multiplicity
 _atom_site_fract_x
 _atom_site_fract_y
 _atom_site_fract_z
 _atom_site_occupancy
  C  C0  1  0.121079  0.759970  0.982918  1
  C  C1  1  0.103996  0.517082  0.759970  1
  C  C2  1  0.381049  0.982918  0.740030  1
  C  C3  1  0.863967  0.740030  0.517082  1
  C  C4  1  0.878921  0.240030  0.017082  1
  C  C5  1  0.896004  0.482918  0.240030  1
  C  C6  1  0.618951  0.017082  0.259970  1
  C  C7  1  0.136033  0.259970  0.482918  1
  O  O8  1  0.239986  0.675870  0.934580  1
  O  O9  1  0.174566  0.565420  0.675870  1
  O  O10  1  0.415856  0.934580  0.824130  1
  O  O11  1  0.850436  0.824130  0.565420  1
  O  O12  1  0.760014  0.324130  0.065420  1
  O  O13  1  0.825434  0.434580  0.324130  1
  O  O14  1  0.584144  0.065420  0.175870  1
  O  O15  1  0.149564  0.175870  0.434580  1
  Cl  Cl16  1  0.188738  0.815511  0.095962  1
  Cl  Cl17  1  0.284700  0.404038  0.815511  1
  Cl  Cl18  1  0.504249  0.095962  0.684489  1
  Cl  Cl19  1  0.100211  0.684489  0.404038  1
  Cl  Cl20  1  0.811262  0.184489  0.904038  1
  Cl  Cl21  1  0.715300  0.595962  0.184489  1
  Cl  Cl22  1  0.495751  0.904038  0.315511  1
  Cl  Cl23  1  0.899789  0.315511  0.595962  1
  Cl  Cl24  1  0.862355  0.840037  0.950802  1
  Cl  Cl25  1  0.813157  0.549198  0.840037  1
  Cl  Cl26  1  0.202393  0.950802  0.659963  1
  Cl  Cl27  1  0.653195  0.659963  0.549198  1
  Cl  Cl28  1  0.137645  0.159963  0.049198  1
  Cl  Cl29  1  0.186843  0.450802  0.159963  1
  Cl  Cl30  1  0.797607  0.049198  0.340037  1
  Cl  Cl31  1  0.346805  0.340037  0.450802  1
