# generated using pymatgen
data_CsReF8
_symmetry_space_group_name_H-M   'P 1'
_cell_length_a   5.31948728
_cell_length_b   8.01049093
_cell_length_c   8.01049093
_cell_angle_alpha   90.00000000
_cell_angle_beta   90.00000000
_cell_angle_gamma   90.00000000
_symmetry_Int_Tables_number   1
_chemical_formula_structural   CsReF8
_chemical_formula_sum   'Cs2 Re2 F16'
_cell_volume   341.34067328
_cell_formula_units_Z   2
loop_
 _symmetry_equiv_pos_site_id
 _symmetry_equiv_pos_as_xyz
  1  'x, y, z'
loop_
 _atom_site_type_symbol
 _atom_site_label
 _atom_site_symmetry_multiplicity
 _atom_site_fract_x
 _atom_site_fract_y
 _atom_site_fract_z
 _atom_site_occupancy
  F  F0  1  0.085789  0.750000  0.952999  1
  F  F1  1  0.085789  0.750000  0.547001  1
  F  F2  1  0.085789  0.952999  0.750000  1
  F  F3  1  0.085789  0.547001  0.750000  1
  F  F4  1  0.307293  0.106911  0.106911  1
  F  F5  1  0.307293  0.393089  0.106911  1
  F  F6  1  0.307293  0.106911  0.393089  1
  F  F7  1  0.307293  0.393089  0.393089  1
  F  F8  1  0.692707  0.606911  0.893089  1
  F  F9  1  0.692707  0.893089  0.606911  1
  F  F10  1  0.692707  0.606911  0.606911  1
  F  F11  1  0.692707  0.893089  0.893089  1
  F  F12  1  0.914211  0.047001  0.250000  1
  F  F13  1  0.914211  0.250000  0.047001  1
  F  F14  1  0.914211  0.250000  0.452999  1
  F  F15  1  0.914211  0.452999  0.250000  1
  Cs  Cs16  1  0.500000  0.750000  0.250000  1
  Cs  Cs17  1  0.500000  0.250000  0.750000  1
  Re  Re18  1  0.107508  0.250000  0.250000  1
  Re  Re19  1  0.892492  0.750000  0.750000  1
