# generated using pymatgen
data_YbIn4Pt
_symmetry_space_group_name_H-M   'P 1'
_cell_length_a   4.48828052
_cell_length_b   7.68421917
_cell_length_c   8.66579216
_cell_angle_alpha   90.00000000
_cell_angle_beta   105.00868094
_cell_angle_gamma   90.00000000
_symmetry_Int_Tables_number   1
_chemical_formula_structural   YbIn4Pt
_chemical_formula_sum   'Yb2 In8 Pt2'
_cell_volume   288.67830477
_cell_formula_units_Z   2
loop_
 _symmetry_equiv_pos_site_id
 _symmetry_equiv_pos_as_xyz
  1  'x, y, z'
loop_
 _atom_site_type_symbol
 _atom_site_label
 _atom_site_symmetry_multiplicity
 _atom_site_fract_x
 _atom_site_fract_y
 _atom_site_fract_z
 _atom_site_occupancy
  In  In0  1  0.500000  0.500000  0.000000  1
  In  In1  1  0.500000  0.000000  0.000000  1
  In  In2  1  0.937258  0.750000  0.874516  1
  In  In3  1  0.062742  0.250000  0.125484  1
  In  In4  1  0.681860  0.047649  0.363719  1
  In  In5  1  0.318140  0.952351  0.636281  1
  In  In6  1  0.318140  0.547649  0.636281  1
  In  In7  1  0.681860  0.452351  0.363719  1
  Yb  Yb8  1  0.868234  0.250000  0.736468  1
  Yb  Yb9  1  0.131766  0.750000  0.263532  1
  Pt  Pt10  1  0.227386  0.250000  0.454773  1
  Pt  Pt11  1  0.772614  0.750000  0.545227  1
