# generated using pymatgen
data_Cd3(PO4)2
_symmetry_space_group_name_H-M   'P 1'
_cell_length_a   7.76665175
_cell_length_b   9.74361353
_cell_length_c   9.74361353
_cell_angle_alpha   106.90114910
_cell_angle_beta   90.00000000
_cell_angle_gamma   90.00000000
_symmetry_Int_Tables_number   1
_chemical_formula_structural   Cd3(PO4)2
_chemical_formula_sum   'Cd12 P8 O32'
_cell_volume   705.50259867
_cell_formula_units_Z   4
loop_
 _symmetry_equiv_pos_site_id
 _symmetry_equiv_pos_as_xyz
  1  'x, y, z'
loop_
 _atom_site_type_symbol
 _atom_site_label
 _atom_site_symmetry_multiplicity
 _atom_site_fract_x
 _atom_site_fract_y
 _atom_site_fract_z
 _atom_site_occupancy
  O  O0  1  0.873302  0.101708  0.101708  1
  O  O1  1  0.373302  0.398292  0.398292  1
  O  O2  1  0.626698  0.601708  0.601708  1
  O  O3  1  0.126698  0.898292  0.898292  1
  O  O4  1  0.533812  0.117206  0.117206  1
  O  O5  1  0.033812  0.382794  0.382794  1
  O  O6  1  0.966188  0.617206  0.617206  1
  O  O7  1  0.466188  0.882794  0.882794  1
  O  O8  1  0.084722  0.098128  0.626385  1
  O  O9  1  0.584722  0.401872  0.873615  1
  O  O10  1  0.415278  0.126385  0.598128  1
  O  O11  1  0.915278  0.373615  0.901872  1
  O  O12  1  0.915278  0.901872  0.373615  1
  O  O13  1  0.415278  0.598128  0.126385  1
  O  O14  1  0.584722  0.873615  0.401872  1
  O  O15  1  0.084722  0.626385  0.098128  1
  O  O16  1  0.268907  0.180083  0.844215  1
  O  O17  1  0.768907  0.319917  0.655785  1
  O  O18  1  0.231093  0.344215  0.680083  1
  O  O19  1  0.731093  0.155785  0.819917  1
  O  O20  1  0.291405  0.829024  0.661596  1
  O  O21  1  0.791405  0.670976  0.838404  1
  O  O22  1  0.208595  0.161596  0.329024  1
  O  O23  1  0.708595  0.338404  0.170976  1
  O  O24  1  0.708595  0.170976  0.338404  1
  O  O25  1  0.208595  0.329024  0.161596  1
  O  O26  1  0.791405  0.838404  0.670976  1
  O  O27  1  0.291405  0.661596  0.829024  1
  O  O28  1  0.268907  0.844215  0.180083  1
  O  O29  1  0.768907  0.655785  0.319917  1
  O  O30  1  0.231093  0.680083  0.344215  1
  O  O31  1  0.731093  0.819917  0.155785  1
  P  P32  1  0.708567  0.180783  0.180783  1
  P  P33  1  0.208567  0.319217  0.319217  1
  P  P34  1  0.791433  0.680783  0.680783  1
  P  P35  1  0.291433  0.819217  0.819217  1
  P  P36  1  0.250000  0.186834  0.686834  1
  P  P37  1  0.750000  0.313166  0.813166  1
  P  P38  1  0.750000  0.813166  0.313166  1
  P  P39  1  0.250000  0.686834  0.186834  1
  Cd  Cd40  1  0.000000  0.108102  0.891898  1
  Cd  Cd41  1  0.500000  0.391898  0.608102  1
  Cd  Cd42  1  0.000000  0.891898  0.108102  1
  Cd  Cd43  1  0.500000  0.608102  0.391898  1
  Cd  Cd44  1  0.556907  0.689124  0.969361  1
  Cd  Cd45  1  0.056907  0.810876  0.530639  1
  Cd  Cd46  1  0.943093  0.469361  0.189124  1
  Cd  Cd47  1  0.443093  0.030639  0.310876  1
  Cd  Cd48  1  0.443093  0.310876  0.030639  1
  Cd  Cd49  1  0.943093  0.189124  0.469361  1
  Cd  Cd50  1  0.056907  0.530639  0.810876  1
  Cd  Cd51  1  0.556907  0.969361  0.689124  1
