# generated using pymatgen
data_Al(HO)3
_symmetry_space_group_name_H-M   'P 1'
_cell_length_a   8.79308390
_cell_length_b   5.17009860
_cell_length_c   9.75031076
_cell_angle_alpha   90.00000000
_cell_angle_beta   96.60609840
_cell_angle_gamma   90.00000000
_symmetry_Int_Tables_number   1
_chemical_formula_structural   Al(HO)3
_chemical_formula_sum   'Al8 H24 O24'
_cell_volume   440.31694463
_cell_formula_units_Z   8
loop_
 _symmetry_equiv_pos_site_id
 _symmetry_equiv_pos_as_xyz
  1  'x, y, z'
loop_
 _atom_site_type_symbol
 _atom_site_label
 _atom_site_symmetry_multiplicity
 _atom_site_fract_x
 _atom_site_fract_y
 _atom_site_fract_z
 _atom_site_occupancy
  Al  Al0  1  0.330864  0.017826  0.502332  1
  Al  Al1  1  0.830864  0.482174  0.002332  1
  Al  Al2  1  0.669136  0.982174  0.497668  1
  Al  Al3  1  0.169136  0.517826  0.997668  1
  Al  Al4  1  0.166924  0.508301  0.497862  1
  Al  Al5  1  0.666924  0.991699  0.997862  1
  Al  Al6  1  0.833076  0.491699  0.502138  1
  Al  Al7  1  0.333076  0.008301  0.002138  1
  H  H8  1  0.429439  0.629998  0.616102  1
  H  H9  1  0.929439  0.870002  0.116102  1
  H  H10  1  0.570561  0.370002  0.383898  1
  H  H11  1  0.070561  0.129998  0.883898  1
  H  H12  1  0.928865  0.089833  0.607503  1
  H  H13  1  0.428865  0.410167  0.107503  1
  H  H14  1  0.071135  0.910167  0.392497  1
  H  H15  1  0.571135  0.589833  0.892497  1
  H  H16  1  0.031942  0.645014  0.699660  1
  H  H17  1  0.531942  0.854986  0.199660  1
  H  H18  1  0.968058  0.354986  0.300340  1
  H  H19  1  0.468058  0.145014  0.800340  1
  H  H20  1  0.549706  0.295939  0.635564  1
  H  H21  1  0.049706  0.204061  0.135564  1
  H  H22  1  0.450294  0.704061  0.364436  1
  H  H23  1  0.950294  0.795939  0.864436  1
  H  H24  1  0.200746  0.199773  0.706202  1
  H  H25  1  0.700746  0.300227  0.206202  1
  H  H26  1  0.799254  0.800227  0.293798  1
  H  H27  1  0.299254  0.699773  0.793798  1
  H  H28  1  0.699367  0.681407  0.704795  1
  H  H29  1  0.199367  0.818593  0.204795  1
  H  H30  1  0.300633  0.318593  0.295205  1
  H  H31  1  0.800633  0.181407  0.795205  1
  O  O32  1  0.327087  0.704937  0.610868  1
  O  O33  1  0.827087  0.795063  0.110868  1
  O  O34  1  0.672913  0.295063  0.389132  1
  O  O35  1  0.172913  0.204937  0.889132  1
  O  O36  1  0.829797  0.174888  0.610398  1
  O  O37  1  0.329797  0.325112  0.110398  1
  O  O38  1  0.170203  0.825112  0.389602  1
  O  O39  1  0.670203  0.674888  0.889602  1
  O  O40  1  0.014182  0.639706  0.599534  1
  O  O41  1  0.514182  0.860294  0.099534  1
  O  O42  1  0.985818  0.360294  0.400466  1
  O  O43  1  0.485818  0.139706  0.900466  1
  O  O44  1  0.522673  0.120074  0.609142  1
  O  O45  1  0.022673  0.379926  0.109142  1
  O  O46  1  0.477327  0.879926  0.390858  1
  O  O47  1  0.977327  0.620074  0.890858  1
  O  O48  1  0.205246  0.205346  0.605575  1
  O  O49  1  0.705246  0.294654  0.105575  1
  O  O50  1  0.794754  0.794654  0.394425  1
  O  O51  1  0.294754  0.705346  0.894425  1
  O  O52  1  0.690057  0.667443  0.602863  1
  O  O53  1  0.190057  0.832557  0.102863  1
  O  O54  1  0.309943  0.332557  0.397137  1
  O  O55  1  0.809943  0.167443  0.897137  1
