# generated using pymatgen
data_RbAg5Se3
_symmetry_space_group_name_H-M   'P 1'
_cell_length_a   6.13001950
_cell_length_b   6.13001950
_cell_length_c   11.33379614
_cell_angle_alpha   90.00000000
_cell_angle_beta   90.00000000
_cell_angle_gamma   90.00000000
_symmetry_Int_Tables_number   1
_chemical_formula_structural   RbAg5Se3
_chemical_formula_sum   'Rb2 Ag10 Se6'
_cell_volume   425.89163375
_cell_formula_units_Z   2
loop_
 _symmetry_equiv_pos_site_id
 _symmetry_equiv_pos_as_xyz
  1  'x, y, z'
loop_
 _atom_site_type_symbol
 _atom_site_label
 _atom_site_symmetry_multiplicity
 _atom_site_fract_x
 _atom_site_fract_y
 _atom_site_fract_z
 _atom_site_occupancy
  Se  Se0  1  0.750000  0.750000  0.325086  1
  Se  Se1  1  0.750000  0.750000  0.674914  1
  Se  Se2  1  0.750000  0.250000  0.000000  1
  Se  Se3  1  0.250000  0.750000  0.000000  1
  Se  Se4  1  0.250000  0.250000  0.325086  1
  Se  Se5  1  0.250000  0.250000  0.674914  1
  Rb  Rb6  1  0.250000  0.750000  0.500000  1
  Rb  Rb7  1  0.750000  0.250000  0.500000  1
  Ag  Ag8  1  0.250000  0.250000  0.000000  1
  Ag  Ag9  1  0.750000  0.750000  0.000000  1
  Ag  Ag10  1  0.546479  0.046479  0.189310  1
  Ag  Ag11  1  0.453521  0.546479  0.189310  1
  Ag  Ag12  1  0.046479  0.953521  0.189310  1
  Ag  Ag13  1  0.546479  0.453521  0.810690  1
  Ag  Ag14  1  0.953521  0.046479  0.810690  1
  Ag  Ag15  1  0.953521  0.453521  0.189310  1
  Ag  Ag16  1  0.046479  0.546479  0.810690  1
  Ag  Ag17  1  0.453521  0.953521  0.810690  1
