# generated using pymatgen
data_Sm4Cl6O
_symmetry_space_group_name_H-M   'P 1'
_cell_length_a   8.70726898
_cell_length_b   8.70726898
_cell_length_c   8.28342832
_cell_angle_alpha   90.00000000
_cell_angle_beta   90.00000000
_cell_angle_gamma   119.99999998
_symmetry_Int_Tables_number   1
_chemical_formula_structural   Sm4Cl6O
_chemical_formula_sum   'Sm8 Cl12 O2'
_cell_volume   543.88198232
_cell_formula_units_Z   2
loop_
 _symmetry_equiv_pos_site_id
 _symmetry_equiv_pos_as_xyz
  1  'x, y, z'
loop_
 _atom_site_type_symbol
 _atom_site_label
 _atom_site_symmetry_multiplicity
 _atom_site_fract_x
 _atom_site_fract_y
 _atom_site_fract_z
 _atom_site_occupancy
  O  O0  1  0.333333  0.666667  0.063384  1
  O  O1  1  0.666667  0.333333  0.563384  1
  Cl  Cl2  1  0.482519  0.965038  0.712895  1
  Cl  Cl3  1  0.517481  0.034962  0.212895  1
  Cl  Cl4  1  0.965038  0.482519  0.212895  1
  Cl  Cl5  1  0.482519  0.517481  0.712895  1
  Cl  Cl6  1  0.862773  0.137227  0.889757  1
  Cl  Cl7  1  0.725545  0.862773  0.389757  1
  Cl  Cl8  1  0.517481  0.482519  0.212895  1
  Cl  Cl9  1  0.034962  0.517481  0.712895  1
  Cl  Cl10  1  0.137227  0.862773  0.389757  1
  Cl  Cl11  1  0.274455  0.137227  0.889757  1
  Cl  Cl12  1  0.862773  0.725545  0.889757  1
  Cl  Cl13  1  0.137227  0.274455  0.389757  1
  Sm  Sm14  1  0.815301  0.184699  0.546195  1
  Sm  Sm15  1  0.630602  0.815301  0.046195  1
  Sm  Sm16  1  0.184699  0.369398  0.046195  1
  Sm  Sm17  1  0.815301  0.630602  0.546195  1
  Sm  Sm18  1  0.369398  0.184699  0.546195  1
  Sm  Sm19  1  0.184699  0.815301  0.046195  1
  Sm  Sm20  1  0.666667  0.333333  0.846374  1
  Sm  Sm21  1  0.333333  0.666667  0.346374  1
