# generated using pymatgen
data_H4CN2O
_symmetry_space_group_name_H-M   'P 1'
_cell_length_a   4.70584376
_cell_length_b   5.64448788
_cell_length_c   5.64448788
_cell_angle_alpha   90.00000000
_cell_angle_beta   90.00000000
_cell_angle_gamma   90.00000000
_symmetry_Int_Tables_number   1
_chemical_formula_structural   H4CN2O
_chemical_formula_sum   'H8 C2 N4 O2'
_cell_volume   149.92932773
_cell_formula_units_Z   2
loop_
 _symmetry_equiv_pos_site_id
 _symmetry_equiv_pos_as_xyz
  1  'x, y, z'
loop_
 _atom_site_type_symbol
 _atom_site_label
 _atom_site_symmetry_multiplicity
 _atom_site_fract_x
 _atom_site_fract_y
 _atom_site_fract_z
 _atom_site_occupancy
  H  H0  1  0.961535  0.857243  0.357243  1
  H  H1  1  0.038465  0.357243  0.142757  1
  H  H2  1  0.038465  0.642757  0.857243  1
  H  H3  1  0.961535  0.142757  0.642757  1
  H  H4  1  0.281796  0.256810  0.756810  1
  H  H5  1  0.718204  0.243190  0.256810  1
  H  H6  1  0.718204  0.756810  0.743190  1
  H  H7  1  0.281796  0.743190  0.243190  1
  C  C8  1  0.672648  0.500000  0.000000  1
  C  C9  1  0.327352  0.000000  0.500000  1
  N  N10  1  0.821947  0.355386  0.144614  1
  N  N11  1  0.178053  0.144614  0.644614  1
  N  N12  1  0.821947  0.644614  0.855386  1
  N  N13  1  0.178053  0.855386  0.355386  1
  O  O14  1  0.598723  0.000000  0.500000  1
  O  O15  1  0.401277  0.500000  0.000000  1
