# generated using pymatgen
data_Cs3MnBr5
_symmetry_space_group_name_H-M   'P 1'
_cell_length_a   9.92839252
_cell_length_b   9.92839251
_cell_length_c   10.49852824
_cell_angle_alpha   118.21925256
_cell_angle_beta   118.21925255
_cell_angle_gamma   89.99999998
_symmetry_Int_Tables_number   1
_chemical_formula_structural   Cs3MnBr5
_chemical_formula_sum   'Cs6 Mn2 Br10'
_cell_volume   769.45416374
_cell_formula_units_Z   2
loop_
 _symmetry_equiv_pos_site_id
 _symmetry_equiv_pos_as_xyz
  1  'x, y, z'
loop_
 _atom_site_type_symbol
 _atom_site_label
 _atom_site_symmetry_multiplicity
 _atom_site_fract_x
 _atom_site_fract_y
 _atom_site_fract_z
 _atom_site_occupancy
  Mn  Mn0  1  0.250000  0.750000  0.500000  1
  Mn  Mn1  1  0.750000  0.250000  0.500000  1
  Br  Br2  1  0.012214  0.512214  0.307200  1
  Br  Br3  1  0.705014  0.205014  0.692800  1
  Br  Br4  1  0.987786  0.487786  0.692800  1
  Br  Br5  1  0.205014  0.987786  0.692800  1
  Br  Br6  1  0.500000  0.500000  0.000000  1
  Br  Br7  1  0.000000  0.000000  0.000000  1
  Br  Br8  1  0.294986  0.794986  0.307200  1
  Br  Br9  1  0.512214  0.294986  0.307200  1
  Br  Br10  1  0.794986  0.012214  0.307200  1
  Br  Br11  1  0.487786  0.705014  0.692800  1
  Cs  Cs12  1  0.750000  0.750000  0.500000  1
  Cs  Cs13  1  0.250000  0.250000  0.500000  1
  Cs  Cs14  1  0.335747  0.835747  0.000000  1
  Cs  Cs15  1  0.164253  0.335747  0.000000  1
  Cs  Cs16  1  0.835747  0.664253  0.000000  1
  Cs  Cs17  1  0.664253  0.164253  0.000000  1
