# generated using pymatgen
data_FeHO2
_symmetry_space_group_name_H-M   'P 1'
_cell_length_a   2.52773278
_cell_length_b   3.95597403
_cell_length_c   7.60155253
_cell_angle_alpha   90.00000000
_cell_angle_beta   99.57069003
_cell_angle_gamma   90.00000000
_symmetry_Int_Tables_number   1
_chemical_formula_structural   FeHO2
_chemical_formula_sum   'Fe2 H2 O4'
_cell_volume   74.95482269
_cell_formula_units_Z   2
loop_
 _symmetry_equiv_pos_site_id
 _symmetry_equiv_pos_as_xyz
  1  'x, y, z'
loop_
 _atom_site_type_symbol
 _atom_site_label
 _atom_site_symmetry_multiplicity
 _atom_site_fract_x
 _atom_site_fract_y
 _atom_site_fract_z
 _atom_site_occupancy
  Fe  Fe0  1  0.689703  0.815043  0.379405  1
  Fe  Fe1  1  0.310299  0.315042  0.620595  1
  H  H2  1  0.559183  0.811959  0.118364  1
  H  H3  1  0.440819  0.311961  0.881636  1
  O  O4  1  0.716562  0.315383  0.433122  1
  O  O5  1  0.283440  0.815384  0.566878  1
  O  O6  1  0.084667  0.811616  0.169337  1
  O  O7  1  0.915332  0.311615  0.830662  1
