# generated using pymatgen
data_Na4BeAlSi4ClO12
_symmetry_space_group_name_H-M   'P 1'
_cell_length_a   7.62803024
_cell_length_b   7.62803024
_cell_length_c   7.62803024
_cell_angle_alpha   108.07371036
_cell_angle_beta   110.17446273
_cell_angle_gamma   110.17446276
_symmetry_Int_Tables_number   1
_chemical_formula_structural   Na4BeAlSi4ClO12
_chemical_formula_sum   'Na4 Be1 Al1 Si4 Cl1 O12'
_cell_volume   341.52467026
_cell_formula_units_Z   1
loop_
 _symmetry_equiv_pos_site_id
 _symmetry_equiv_pos_as_xyz
  1  'x, y, z'
loop_
 _atom_site_type_symbol
 _atom_site_label
 _atom_site_symmetry_multiplicity
 _atom_site_fract_x
 _atom_site_fract_y
 _atom_site_fract_z
 _atom_site_occupancy
  Be  Be0  1  0.500000  0.750000  0.250000  1
  O  O1  1  0.309048  0.698005  0.311982  1
  O  O2  1  0.016635  0.708499  0.423986  1
  O  O3  1  0.715487  0.308136  0.291501  1
  O  O4  1  0.386023  0.688018  0.997066  1
  O  O5  1  0.690952  0.002934  0.388957  1
  O  O6  1  0.983365  0.407351  0.691864  1
  O  O7  1  0.613977  0.611043  0.301995  1
  O  O8  1  0.572640  0.286223  0.562266  1
  O  O9  1  0.723956  0.437734  0.010373  1
  O  O10  1  0.276044  0.286417  0.713777  1
  O  O11  1  0.427360  0.989627  0.713583  1
  O  O12  1  0.284513  0.576014  0.592649  1
  Na  Na13  1  0.041096  0.662643  0.016098  1
  Na  Na14  1  0.958904  0.975002  0.621547  1
  Na  Na15  1  0.646545  0.983902  0.024998  1
  Na  Na16  1  0.353455  0.378453  0.337357  1
  Al  Al17  1  0.500000  0.250000  0.750000  1
  Si  Si18  1  0.759333  0.517400  0.250959  1
  Si  Si19  1  0.266441  0.749041  0.508374  1
  Si  Si20  1  0.240667  0.491626  0.758067  1
  Si  Si21  1  0.733559  0.241933  0.482600  1
  Cl  Cl22  1  0.000000  0.000000  0.000000  1
