# generated using pymatgen
data_Hf(BH4)4
_symmetry_space_group_name_H-M   'P 1'
_cell_length_a   6.00892023
_cell_length_b   6.00892023
_cell_length_c   6.00892023
_cell_angle_alpha   90.00000000
_cell_angle_beta   90.00000000
_cell_angle_gamma   90.00000000
_symmetry_Int_Tables_number   1
_chemical_formula_structural   Hf(BH4)4
_chemical_formula_sum   'Hf1 B4 H16'
_cell_volume   216.96481782
_cell_formula_units_Z   1
loop_
 _symmetry_equiv_pos_site_id
 _symmetry_equiv_pos_as_xyz
  1  'x, y, z'
loop_
 _atom_site_type_symbol
 _atom_site_label
 _atom_site_symmetry_multiplicity
 _atom_site_fract_x
 _atom_site_fract_y
 _atom_site_fract_z
 _atom_site_occupancy
  H  H0  1  0.749828  0.749828  0.016303  1
  H  H1  1  0.250172  0.983697  0.749828  1
  H  H2  1  0.983697  0.250172  0.749828  1
  H  H3  1  0.250172  0.016303  0.250172  1
  H  H4  1  0.016303  0.250172  0.250172  1
  H  H5  1  0.334518  0.334518  0.334518  1
  H  H6  1  0.665482  0.334518  0.665482  1
  H  H7  1  0.665482  0.665482  0.334518  1
  H  H8  1  0.334518  0.665482  0.665482  1
  H  H9  1  0.250172  0.250172  0.016303  1
  H  H10  1  0.749828  0.016303  0.749828  1
  H  H11  1  0.749828  0.983697  0.250172  1
  H  H12  1  0.983697  0.749828  0.250172  1
  H  H13  1  0.016303  0.749828  0.749828  1
  H  H14  1  0.250172  0.749828  0.983697  1
  H  H15  1  0.749828  0.250172  0.983697  1
  B  B16  1  0.219840  0.780160  0.780160  1
  B  B17  1  0.780160  0.780160  0.219840  1
  B  B18  1  0.780160  0.219840  0.780160  1
  B  B19  1  0.219840  0.219840  0.219840  1
  Hf  Hf20  1  0.000000  0.000000  0.000000  1
