# generated using pymatgen
data_SbN3Cl4
_symmetry_space_group_name_H-M   'P 1'
_cell_length_a   8.48077237
_cell_length_b   9.80845137
_cell_length_c   10.61806641
_cell_angle_alpha   90.00000000
_cell_angle_beta   93.56018442
_cell_angle_gamma   90.00000000
_symmetry_Int_Tables_number   1
_chemical_formula_structural   SbN3Cl4
_chemical_formula_sum   'Sb4 N12 Cl16'
_cell_volume   881.54064686
_cell_formula_units_Z   4
loop_
 _symmetry_equiv_pos_site_id
 _symmetry_equiv_pos_as_xyz
  1  'x, y, z'
loop_
 _atom_site_type_symbol
 _atom_site_label
 _atom_site_symmetry_multiplicity
 _atom_site_fract_x
 _atom_site_fract_y
 _atom_site_fract_z
 _atom_site_occupancy
  N  N0  1  0.464804  0.513023  0.835542  1
  N  N1  1  0.035196  0.013023  0.664458  1
  N  N2  1  0.535196  0.486977  0.164458  1
  N  N3  1  0.964804  0.986977  0.335542  1
  N  N4  1  0.506389  0.486385  0.268272  1
  N  N5  1  0.993611  0.986385  0.231728  1
  N  N6  1  0.529449  0.514937  0.620397  1
  N  N7  1  0.970551  0.014937  0.879603  1
  N  N8  1  0.470551  0.485063  0.379603  1
  N  N9  1  0.029449  0.985063  0.120397  1
  N  N10  1  0.493611  0.513615  0.731728  1
  N  N11  1  0.006389  0.013615  0.768272  1
  Cl  Cl12  1  0.287753  0.269977  0.543959  1
  Cl  Cl13  1  0.136547  0.302278  0.198698  1
  Cl  Cl14  1  0.863453  0.697722  0.801302  1
  Cl  Cl15  1  0.636547  0.197722  0.698698  1
  Cl  Cl16  1  0.061394  0.346914  0.852536  1
  Cl  Cl17  1  0.438606  0.846914  0.647464  1
  Cl  Cl18  1  0.938606  0.653086  0.147464  1
  Cl  Cl19  1  0.561394  0.153086  0.352536  1
  Cl  Cl20  1  0.712247  0.730023  0.456041  1
  Cl  Cl21  1  0.787753  0.230023  0.043959  1
  Cl  Cl22  1  0.819003  0.383483  0.481469  1
  Cl  Cl23  1  0.680997  0.883483  0.018531  1
  Cl  Cl24  1  0.180997  0.616517  0.518531  1
  Cl  Cl25  1  0.319003  0.116517  0.981469  1
  Cl  Cl26  1  0.363453  0.802278  0.301302  1
  Cl  Cl27  1  0.212247  0.769977  0.956041  1
  Sb  Sb28  1  0.556031  0.317436  0.513289  1
  Sb  Sb29  1  0.943969  0.817436  0.986711  1
  Sb  Sb30  1  0.443969  0.682564  0.486711  1
  Sb  Sb31  1  0.056031  0.182564  0.013289  1
