# generated using pymatgen
data_TlPO3
_symmetry_space_group_name_H-M   'P 1'
_cell_length_a   7.79382277
_cell_length_b   7.79382277
_cell_length_c   11.37951834
_cell_angle_alpha   90.00000000
_cell_angle_beta   90.00000000
_cell_angle_gamma   90.00000000
_symmetry_Int_Tables_number   1
_chemical_formula_structural   TlPO3
_chemical_formula_sum   'Tl8 P8 O24'
_cell_volume   691.23374515
_cell_formula_units_Z   8
loop_
 _symmetry_equiv_pos_site_id
 _symmetry_equiv_pos_as_xyz
  1  'x, y, z'
loop_
 _atom_site_type_symbol
 _atom_site_label
 _atom_site_symmetry_multiplicity
 _atom_site_fract_x
 _atom_site_fract_y
 _atom_site_fract_z
 _atom_site_occupancy
  O  O0  1  0.625202  0.806312  0.537980  1
  O  O1  1  0.374798  0.193688  0.537980  1
  O  O2  1  0.693688  0.874798  0.037980  1
  O  O3  1  0.193688  0.625202  0.462020  1
  O  O4  1  0.806312  0.374798  0.462020  1
  O  O5  1  0.874798  0.306312  0.962020  1
  O  O6  1  0.125202  0.693688  0.962020  1
  O  O7  1  0.306312  0.125202  0.037980  1
  O  O8  1  0.802923  0.772476  0.346504  1
  O  O9  1  0.197077  0.227524  0.346504  1
  O  O10  1  0.727524  0.697077  0.846504  1
  O  O11  1  0.227524  0.802923  0.653496  1
  O  O12  1  0.772476  0.197077  0.653496  1
  O  O13  1  0.697077  0.272476  0.153496  1
  O  O14  1  0.302923  0.727524  0.153496  1
  O  O15  1  0.272476  0.302923  0.846504  1
  O  O16  1  0.302929  0.446204  0.051791  1
  O  O17  1  0.446204  0.697071  0.948209  1
  O  O18  1  0.553796  0.302929  0.948209  1
  O  O19  1  0.802929  0.053796  0.448209  1
  O  O20  1  0.197071  0.946204  0.448209  1
  O  O21  1  0.697071  0.553796  0.051791  1
  O  O22  1  0.053796  0.197071  0.551791  1
  O  O23  1  0.946204  0.802929  0.551791  1
  P  P24  1  0.783182  0.846898  0.467980  1
  P  P25  1  0.216818  0.153102  0.467980  1
  P  P26  1  0.653102  0.716818  0.967980  1
  P  P27  1  0.153102  0.783182  0.532020  1
  P  P28  1  0.846898  0.216818  0.532020  1
  P  P29  1  0.716818  0.346898  0.032020  1
  P  P30  1  0.283182  0.653102  0.032020  1
  P  P31  1  0.346898  0.283182  0.967980  1
  Tl  Tl32  1  0.500000  0.500000  0.333329  1
  Tl  Tl33  1  0.500000  0.500000  0.666671  1
  Tl  Tl34  1  0.000000  0.000000  0.166671  1
  Tl  Tl35  1  0.000000  0.000000  0.833329  1
  Tl  Tl36  1  0.000000  0.500000  0.279668  1
  Tl  Tl37  1  0.500000  0.000000  0.720332  1
  Tl  Tl38  1  0.500000  0.000000  0.220332  1
  Tl  Tl39  1  0.000000  0.500000  0.779668  1
