# generated using pymatgen
data_Ti2InNi2
_symmetry_space_group_name_H-M   'P 1'
_cell_length_a   6.23899598
_cell_length_b   6.94585488
_cell_length_c   6.94585488
_cell_angle_alpha   90.00000000
_cell_angle_beta   90.00000000
_cell_angle_gamma   90.00000000
_symmetry_Int_Tables_number   1
_chemical_formula_structural   Ti2InNi2
_chemical_formula_sum   'Ti8 In4 Ni8'
_cell_volume   300.99973724
_cell_formula_units_Z   4
loop_
 _symmetry_equiv_pos_site_id
 _symmetry_equiv_pos_as_xyz
  1  'x, y, z'
loop_
 _atom_site_type_symbol
 _atom_site_label
 _atom_site_symmetry_multiplicity
 _atom_site_fract_x
 _atom_site_fract_y
 _atom_site_fract_z
 _atom_site_occupancy
  Ti  Ti0  1  0.000000  0.176262  0.176262  1
  Ti  Ti1  1  0.500000  0.323738  0.676262  1
  Ti  Ti2  1  0.500000  0.676262  0.323738  1
  Ti  Ti3  1  0.000000  0.823738  0.823738  1
  Ti  Ti4  1  0.000000  0.348522  0.651478  1
  Ti  Ti5  1  0.500000  0.848522  0.848522  1
  Ti  Ti6  1  0.500000  0.151478  0.151478  1
  Ti  Ti7  1  0.000000  0.651478  0.348522  1
  Ni  Ni8  1  0.279857  0.373496  0.373496  1
  Ni  Ni9  1  0.779857  0.126504  0.873496  1
  Ni  Ni10  1  0.779857  0.873496  0.126504  1
  Ni  Ni11  1  0.279857  0.626504  0.626504  1
  Ni  Ni12  1  0.220143  0.873496  0.126504  1
  Ni  Ni13  1  0.220143  0.126504  0.873496  1
  Ni  Ni14  1  0.720143  0.373496  0.373496  1
  Ni  Ni15  1  0.720143  0.626504  0.626504  1
  In  In16  1  0.250000  0.000000  0.500000  1
  In  In17  1  0.750000  0.000000  0.500000  1
  In  In18  1  0.250000  0.500000  0.000000  1
  In  In19  1  0.750000  0.500000  0.000000  1
