# generated using pymatgen
data_As4S3
_symmetry_space_group_name_H-M   'P 1'
_cell_length_a   8.86684783
_cell_length_b   9.74478891
_cell_length_c   10.94458561
_cell_angle_alpha   90.00000000
_cell_angle_beta   90.00000000
_cell_angle_gamma   90.00000000
_symmetry_Int_Tables_number   1
_chemical_formula_structural   As4S3
_chemical_formula_sum   'As16 S12'
_cell_volume   945.67305298
_cell_formula_units_Z   4
loop_
 _symmetry_equiv_pos_site_id
 _symmetry_equiv_pos_as_xyz
  1  'x, y, z'
loop_
 _atom_site_type_symbol
 _atom_site_label
 _atom_site_symmetry_multiplicity
 _atom_site_fract_x
 _atom_site_fract_y
 _atom_site_fract_z
 _atom_site_occupancy
  S  S0  1  0.250000  0.609687  0.103524  1
  S  S1  1  0.750000  0.390313  0.896476  1
  S  S2  1  0.250000  0.109687  0.396476  1
  S  S3  1  0.750000  0.890313  0.603524  1
  S  S4  1  0.942367  0.172786  0.086426  1
  S  S5  1  0.442367  0.827214  0.913574  1
  S  S6  1  0.557633  0.672786  0.413574  1
  S  S7  1  0.057633  0.327214  0.586426  1
  S  S8  1  0.057633  0.827214  0.913574  1
  S  S9  1  0.557633  0.172786  0.086426  1
  S  S10  1  0.442367  0.327214  0.586426  1
  S  S11  1  0.942367  0.672786  0.413574  1
  As  As12  1  0.107368  0.151176  0.711079  1
  As  As13  1  0.607368  0.848824  0.288921  1
  As  As14  1  0.392632  0.651176  0.788921  1
  As  As15  1  0.892632  0.348824  0.211079  1
  As  As16  1  0.107368  0.651176  0.788921  1
  As  As17  1  0.607368  0.348824  0.211079  1
  As  As18  1  0.392632  0.151176  0.711079  1
  As  As19  1  0.892632  0.848824  0.288921  1
  As  As20  1  0.250000  0.491964  0.928597  1
  As  As21  1  0.750000  0.508036  0.071403  1
  As  As22  1  0.250000  0.991964  0.571403  1
  As  As23  1  0.750000  0.008036  0.428597  1
  As  As24  1  0.250000  0.834452  0.049992  1
  As  As25  1  0.750000  0.165548  0.950008  1
  As  As26  1  0.250000  0.334452  0.450008  1
  As  As27  1  0.750000  0.665548  0.549992  1
