# generated using pymatgen
data_K2Te4O9
_symmetry_space_group_name_H-M   'P 1'
_cell_length_a   7.74437516
_cell_length_b   8.18317256
_cell_length_c   18.12541159
_cell_angle_alpha   90.00000000
_cell_angle_beta   90.00000000
_cell_angle_gamma   106.96496321
_symmetry_Int_Tables_number   1
_chemical_formula_structural   K2Te4O9
_chemical_formula_sum   'K8 Te16 O36'
_cell_volume   1098.68549514
_cell_formula_units_Z   4
loop_
 _symmetry_equiv_pos_site_id
 _symmetry_equiv_pos_as_xyz
  1  'x, y, z'
loop_
 _atom_site_type_symbol
 _atom_site_label
 _atom_site_symmetry_multiplicity
 _atom_site_fract_x
 _atom_site_fract_y
 _atom_site_fract_z
 _atom_site_occupancy
  O  O0  1  0.198192  1.015161  0.799136  1
  O  O1  1  0.801808  0.484839  0.299136  1
  O  O2  1  0.801808  -0.015161  0.200864  1
  O  O3  1  0.198192  0.515161  0.700864  1
  O  O4  1  0.442040  0.649869  0.824415  1
  O  O5  1  0.557960  0.850131  0.324415  1
  O  O6  1  0.557960  0.350131  0.175585  1
  O  O7  1  0.442040  0.149869  0.675585  1
  O  O8  1  0.797186  0.592420  0.854248  1
  O  O9  1  0.202814  0.907580  0.354248  1
  O  O10  1  0.202814  0.407580  0.145752  1
  O  O11  1  0.797186  0.092420  0.645752  1
  O  O12  1  0.437826  0.262042  0.912571  1
  O  O13  1  0.562174  0.237958  0.412571  1
  O  O14  1  0.836683  0.672638  0.005639  1
  O  O15  1  0.562174  0.737958  0.087429  1
  O  O16  1  0.128544  0.332050  0.841172  1
  O  O17  1  0.871456  0.167950  0.341172  1
  O  O18  1  0.871456  0.667950  0.158828  1
  O  O19  1  0.128544  0.832050  0.658828  1
  O  O20  1  0.740187  0.900919  0.909553  1
  O  O21  1  0.259813  0.599081  0.409553  1
  O  O22  1  0.259813  0.099081  0.090447  1
  O  O23  1  0.740187  0.400919  0.590447  1
  O  O24  1  0.387228  0.417074  0.555272  1
  O  O25  1  0.612772  0.082926  0.055272  1
  O  O26  1  0.612772  0.582926  0.444728  1
  O  O27  1  0.387228  0.917074  0.944728  1
  O  O28  1  0.587580  0.578084  0.690816  1
  O  O29  1  0.412420  0.921916  0.190816  1
  O  O30  1  0.412420  0.421916  0.309184  1
  O  O31  1  0.587580  0.078084  0.809184  1
  O  O32  1  0.836683  0.172638  0.494361  1
  O  O33  1  0.163317  0.327362  0.994361  1
  O  O34  1  0.163317  0.827362  0.505639  1
  O  O35  1  0.437826  0.762042  0.587429  1
  K  K36  1  0.128622  0.635483  0.909671  1
  K  K37  1  0.871378  0.864517  0.409671  1
  K  K38  1  0.871378  0.364517  0.090329  1
  K  K39  1  0.128622  0.135483  0.590329  1
  K  K40  1  0.841153  0.871204  0.753223  1
  K  K41  1  0.158847  0.628796  0.253223  1
  K  K42  1  0.158847  0.128796  0.246777  1
  K  K43  1  0.841153  0.371204  0.746777  1
  Te  Te44  1  0.376559  0.960025  0.741305  1
  Te  Te45  1  0.623441  0.539975  0.241305  1
  Te  Te46  1  0.623441  0.039975  0.258695  1
  Te  Te47  1  0.376559  0.460025  0.758695  1
  Te  Te48  1  0.648008  0.653492  0.921655  1
  Te  Te49  1  0.351992  0.846508  0.421655  1
  Te  Te50  1  0.351992  0.346508  0.078345  1
  Te  Te51  1  0.648008  0.153492  0.578345  1
  Te  Te52  1  0.178005  0.174797  0.907974  1
  Te  Te53  1  0.821995  0.325203  0.407974  1
  Te  Te54  1  0.821995  0.825203  0.092026  1
  Te  Te55  1  0.178005  0.674797  0.592026  1
  Te  Te56  1  0.601114  0.085563  0.917913  1
  Te  Te57  1  0.398886  0.414437  0.417913  1
  Te  Te58  1  0.398886  0.914437  0.082087  1
  Te  Te59  1  0.601114  0.585563  0.582087  1
