# generated using pymatgen
data_HSN
_symmetry_space_group_name_H-M   'P 1'
_cell_length_a   6.96443991
_cell_length_b   8.33415525
_cell_length_c   12.61064491
_cell_angle_alpha   90.00000000
_cell_angle_beta   90.00000000
_cell_angle_gamma   90.00000000
_symmetry_Int_Tables_number   1
_chemical_formula_structural   HSN
_chemical_formula_sum   'H16 S16 N16'
_cell_volume   731.95617490
_cell_formula_units_Z   16
loop_
 _symmetry_equiv_pos_site_id
 _symmetry_equiv_pos_as_xyz
  1  'x, y, z'
loop_
 _atom_site_type_symbol
 _atom_site_label
 _atom_site_symmetry_multiplicity
 _atom_site_fract_x
 _atom_site_fract_y
 _atom_site_fract_z
 _atom_site_occupancy
  H  H0  1  0.023263  0.259590  0.445592  1
  H  H1  1  0.523263  0.240410  0.554408  1
  H  H2  1  0.476737  0.759590  0.054408  1
  H  H3  1  0.976737  0.740410  0.945592  1
  H  H4  1  0.976737  0.740410  0.554408  1
  H  H5  1  0.476737  0.759590  0.445592  1
  H  H6  1  0.523263  0.240410  0.945592  1
  H  H7  1  0.023263  0.259590  0.054408  1
  H  H8  1  0.646660  0.805590  0.750000  1
  H  H9  1  0.146660  0.694410  0.250000  1
  H  H10  1  0.853340  0.305590  0.750000  1
  H  H11  1  0.353340  0.194410  0.250000  1
  H  H12  1  0.293036  0.652254  0.750000  1
  H  H13  1  0.793036  0.847746  0.250000  1
  H  H14  1  0.206964  0.152254  0.750000  1
  H  H15  1  0.706964  0.347746  0.250000  1
  N  N16  1  0.718781  0.224640  0.250000  1
  N  N17  1  0.218781  0.275360  0.750000  1
  N  N18  1  0.781219  0.724640  0.250000  1
  N  N19  1  0.281219  0.775360  0.750000  1
  N  N20  1  0.259737  0.099661  0.250000  1
  N  N21  1  0.759737  0.400339  0.750000  1
  N  N22  1  0.240263  0.599661  0.250000  1
  N  N23  1  0.740263  0.900339  0.750000  1
  N  N24  1  0.988999  0.157712  0.095359  1
  N  N25  1  0.488999  0.342288  0.904641  1
  N  N26  1  0.511001  0.657712  0.404641  1
  N  N27  1  0.011001  0.842288  0.595359  1
  N  N28  1  0.011001  0.842288  0.904641  1
  N  N29  1  0.511001  0.657712  0.095359  1
  N  N30  1  0.488999  0.342288  0.595359  1
  N  N31  1  0.988999  0.157712  0.404641  1
  S  S32  1  0.758441  0.134598  0.367944  1
  S  S33  1  0.258441  0.365402  0.632056  1
  S  S34  1  0.741559  0.634598  0.132056  1
  S  S35  1  0.241559  0.865402  0.867944  1
  S  S36  1  0.241559  0.865402  0.632056  1
  S  S37  1  0.741559  0.634598  0.367944  1
  S  S38  1  0.258441  0.365402  0.867944  1
  S  S39  1  0.758441  0.134598  0.132056  1
  S  S40  1  0.172902  0.038837  0.367931  1
  S  S41  1  0.672902  0.461163  0.632069  1
  S  S42  1  0.327098  0.538837  0.132069  1
  S  S43  1  0.827098  0.961163  0.867931  1
  S  S44  1  0.827098  0.961163  0.632069  1
  S  S45  1  0.327098  0.538837  0.367931  1
  S  S46  1  0.672902  0.461163  0.867931  1
  S  S47  1  0.172902  0.038837  0.132069  1
