# generated using pymatgen
data_Rb4CdCl6
_symmetry_space_group_name_H-M   'P 1'
_cell_length_a   9.03879570
_cell_length_b   9.03879605
_cell_length_c   9.03879592
_cell_angle_alpha   89.34533498
_cell_angle_beta   89.34533517
_cell_angle_gamma   89.34533047
_symmetry_Int_Tables_number   1
_chemical_formula_structural   Rb4CdCl6
_chemical_formula_sum   'Rb8 Cd2 Cl12'
_cell_volume   738.32457542
_cell_formula_units_Z   2
loop_
 _symmetry_equiv_pos_site_id
 _symmetry_equiv_pos_as_xyz
  1  'x, y, z'
loop_
 _atom_site_type_symbol
 _atom_site_label
 _atom_site_symmetry_multiplicity
 _atom_site_fract_x
 _atom_site_fract_y
 _atom_site_fract_z
 _atom_site_occupancy
  Rb  Rb0  1  0.370749  0.750000  0.129251  1
  Rb  Rb1  1  0.629251  0.250000  0.870749  1
  Rb  Rb2  1  0.250000  0.250000  0.250000  1
  Rb  Rb3  1  0.870749  0.629251  0.250000  1
  Rb  Rb4  1  0.129251  0.370749  0.750000  1
  Rb  Rb5  1  0.750000  0.129251  0.370749  1
  Rb  Rb6  1  0.250000  0.870749  0.629251  1
  Rb  Rb7  1  0.750000  0.750000  0.750000  1
  Cd  Cd8  1  0.500000  0.500000  0.500000  1
  Cd  Cd9  1  0.000000  0.000000  0.000000  1
  Cl  Cl10  1  0.214498  0.556956  0.433131  1
  Cl  Cl11  1  0.556956  0.433131  0.214498  1
  Cl  Cl12  1  0.933131  0.056956  0.714498  1
  Cl  Cl13  1  0.566869  0.785502  0.443044  1
  Cl  Cl14  1  0.443044  0.566869  0.785502  1
  Cl  Cl15  1  0.056956  0.714498  0.933131  1
  Cl  Cl16  1  0.066869  0.943044  0.285502  1
  Cl  Cl17  1  0.285502  0.066869  0.943044  1
  Cl  Cl18  1  0.785502  0.443044  0.566869  1
  Cl  Cl19  1  0.433131  0.214498  0.556956  1
  Cl  Cl20  1  0.714498  0.933131  0.056956  1
  Cl  Cl21  1  0.943044  0.285502  0.066869  1
