# generated using pymatgen
data_Cd2H3ClO3
_symmetry_space_group_name_H-M   'P 1'
_cell_length_a   6.92518368
_cell_length_b   7.59970993
_cell_length_c   10.04201828
_cell_angle_alpha   90.00000000
_cell_angle_beta   90.00000000
_cell_angle_gamma   90.00000000
_symmetry_Int_Tables_number   1
_chemical_formula_structural   Cd2H3ClO3
_chemical_formula_sum   'Cd8 H12 Cl4 O12'
_cell_volume   528.50526813
_cell_formula_units_Z   4
loop_
 _symmetry_equiv_pos_site_id
 _symmetry_equiv_pos_as_xyz
  1  'x, y, z'
loop_
 _atom_site_type_symbol
 _atom_site_label
 _atom_site_symmetry_multiplicity
 _atom_site_fract_x
 _atom_site_fract_y
 _atom_site_fract_z
 _atom_site_occupancy
  H  H0  1  0.926568  0.953905  0.279591  1
  H  H1  1  0.426568  0.546095  0.220409  1
  H  H2  1  0.073432  0.453905  0.720409  1
  H  H3  1  0.573432  0.046095  0.779591  1
  H  H4  1  0.073432  0.046095  0.720409  1
  H  H5  1  0.573432  0.453905  0.779591  1
  H  H6  1  0.926568  0.546095  0.279591  1
  H  H7  1  0.426568  0.953905  0.220409  1
  H  H8  1  0.192305  0.750000  0.486903  1
  H  H9  1  0.692305  0.750000  0.013097  1
  H  H10  1  0.807695  0.250000  0.513097  1
  H  H11  1  0.307695  0.250000  0.986903  1
  O  O12  1  0.178901  0.250000  0.026506  1
  O  O13  1  0.678901  0.250000  0.473494  1
  O  O14  1  0.821099  0.750000  0.973494  1
  O  O15  1  0.321099  0.750000  0.526506  1
  O  O16  1  0.443291  0.053948  0.280487  1
  O  O17  1  0.943291  0.446052  0.219513  1
  O  O18  1  0.556709  0.553948  0.719513  1
  O  O19  1  0.056709  0.946052  0.780487  1
  O  O20  1  0.556709  0.946052  0.719513  1
  O  O21  1  0.056709  0.553948  0.780487  1
  O  O22  1  0.443291  0.446052  0.280487  1
  O  O23  1  0.943291  0.053948  0.219513  1
  Cl  Cl24  1  0.189868  0.250000  0.538606  1
  Cl  Cl25  1  0.689868  0.250000  0.961394  1
  Cl  Cl26  1  0.810132  0.750000  0.461394  1
  Cl  Cl27  1  0.310132  0.750000  0.038606  1
  Cd  Cd28  1  0.309149  0.750000  0.762410  1
  Cd  Cd29  1  0.809149  0.750000  0.737590  1
  Cd  Cd30  1  0.690851  0.250000  0.237590  1
  Cd  Cd31  1  0.190851  0.250000  0.262410  1
  Cd  Cd32  1  0.500000  0.000000  0.500000  1
  Cd  Cd33  1  0.000000  0.500000  0.000000  1
  Cd  Cd34  1  0.500000  0.500000  0.500000  1
  Cd  Cd35  1  0.000000  0.000000  0.000000  1
