# generated using pymatgen
data_Ba2CuGe2O7
_symmetry_space_group_name_H-M   'P 1'
_cell_length_a   5.51274691
_cell_length_b   8.59822949
_cell_length_c   8.59822949
_cell_angle_alpha   90.00000000
_cell_angle_beta   90.00000000
_cell_angle_gamma   90.00000000
_symmetry_Int_Tables_number   1
_chemical_formula_structural   Ba2CuGe2O7
_chemical_formula_sum   'Ba4 Cu2 Ge4 O14'
_cell_volume   407.55490032
_cell_formula_units_Z   2
loop_
 _symmetry_equiv_pos_site_id
 _symmetry_equiv_pos_as_xyz
  1  'x, y, z'
loop_
 _atom_site_type_symbol
 _atom_site_label
 _atom_site_symmetry_multiplicity
 _atom_site_fract_x
 _atom_site_fract_y
 _atom_site_fract_z
 _atom_site_occupancy
  Ba  Ba0  1  0.009170  0.165622  0.665622  1
  Ba  Ba1  1  0.990830  0.665622  0.834378  1
  Ba  Ba2  1  0.009170  0.834378  0.334378  1
  Ba  Ba3  1  0.990830  0.334378  0.165622  1
  Cu  Cu4  1  0.500000  0.000000  0.000000  1
  Cu  Cu5  1  0.500000  0.500000  0.500000  1
  Ge  Ge6  1  0.524224  0.860811  0.639189  1
  Ge  Ge7  1  0.475776  0.360811  0.860811  1
  Ge  Ge8  1  0.524224  0.139189  0.360811  1
  Ge  Ge9  1  0.475776  0.639189  0.139189  1
  O  O10  1  0.652249  0.000000  0.500000  1
  O  O11  1  0.208424  0.135154  0.364846  1
  O  O12  1  0.331967  0.814911  0.082108  1
  O  O13  1  0.791576  0.635154  0.135154  1
  O  O14  1  0.331967  0.582108  0.314911  1
  O  O15  1  0.791576  0.364846  0.864846  1
  O  O16  1  0.668033  0.917892  0.814911  1
  O  O17  1  0.331967  0.185089  0.917892  1
  O  O18  1  0.331967  0.417892  0.685089  1
  O  O19  1  0.668033  0.314911  0.417892  1
  O  O20  1  0.668033  0.685089  0.582108  1
  O  O21  1  0.208424  0.864846  0.635154  1
  O  O22  1  0.347751  0.500000  0.000000  1
  O  O23  1  0.668033  0.082108  0.185089  1
