# generated using pymatgen
data_NaP(HO2)2
_symmetry_space_group_name_H-M   'P 1'
_cell_length_a   6.90121869
_cell_length_b   7.54728939
_cell_length_c   13.50379588
_cell_angle_alpha   90.00000000
_cell_angle_beta   90.00000000
_cell_angle_gamma   93.69905840
_symmetry_Int_Tables_number   1
_chemical_formula_structural   NaP(HO2)2
_chemical_formula_sum   'Na8 P8 H16 O32'
_cell_volume   701.88657981
_cell_formula_units_Z   8
loop_
 _symmetry_equiv_pos_site_id
 _symmetry_equiv_pos_as_xyz
  1  'x, y, z'
loop_
 _atom_site_type_symbol
 _atom_site_label
 _atom_site_symmetry_multiplicity
 _atom_site_fract_x
 _atom_site_fract_y
 _atom_site_fract_z
 _atom_site_occupancy
  H  H0  1  0.995997  0.151937  0.968045  1
  H  H1  1  0.004003  0.348063  0.468045  1
  H  H2  1  0.004003  0.848063  0.031955  1
  H  H3  1  0.995997  0.651937  0.531955  1
  H  H4  1  0.942460  0.841693  0.777751  1
  H  H5  1  0.057540  0.658307  0.277751  1
  H  H6  1  0.057540  0.158307  0.222249  1
  H  H7  1  0.942460  0.341693  0.722249  1
  H  H8  1  0.511152  0.873964  0.903169  1
  H  H9  1  0.488848  0.626036  0.403169  1
  H  H10  1  0.488848  0.126036  0.096831  1
  H  H11  1  0.511152  0.373964  0.596831  1
  H  H12  1  0.446803  0.518471  0.762067  1
  H  H13  1  0.553197  0.981529  0.262067  1
  H  H14  1  0.553197  0.481529  0.237933  1
  H  H15  1  0.446803  0.018471  0.737933  1
  O  O16  1  0.476743  0.517319  0.836815  1
  O  O17  1  0.247515  0.270172  0.225133  1
  O  O18  1  0.247515  0.770172  0.274867  1
  O  O19  1  0.752485  0.729828  0.774867  1
  O  O20  1  0.476743  0.017319  0.663185  1
  O  O21  1  0.523257  0.482681  0.163185  1
  O  O22  1  0.523257  0.982681  0.336815  1
  O  O23  1  0.752485  0.229828  0.725133  1
  O  O24  1  0.794976  0.025228  0.571770  1
  O  O25  1  0.205024  0.474772  0.071770  1
  O  O26  1  0.205024  0.974772  0.428230  1
  O  O27  1  0.794976  0.525228  0.928230  1
  O  O28  1  0.586578  0.284666  0.559015  1
  O  O29  1  0.413422  0.215334  0.059015  1
  O  O30  1  0.413422  0.715334  0.440985  1
  O  O31  1  0.586578  0.784666  0.940985  1
  O  O32  1  0.390773  0.021825  0.847513  1
  O  O33  1  0.924406  0.084553  0.227202  1
  O  O34  1  0.924406  0.584553  0.272798  1
  O  O35  1  0.075594  0.915447  0.772798  1
  O  O36  1  0.146108  0.338491  0.546648  1
  O  O37  1  0.853892  0.161509  0.046648  1
  O  O38  1  0.853892  0.661509  0.453352  1
  O  O39  1  0.146108  0.838491  0.953352  1
  O  O40  1  0.083651  0.658440  0.595519  1
  O  O41  1  0.916349  0.841560  0.095519  1
  O  O42  1  0.916349  0.341560  0.404481  1
  O  O43  1  0.083651  0.158440  0.904481  1
  O  O44  1  0.390773  0.521825  0.652487  1
  O  O45  1  0.609227  0.978175  0.152487  1
  O  O46  1  0.609227  0.478175  0.347513  1
  O  O47  1  0.075594  0.415447  0.727202  1
  Na  Na48  1  0.136870  0.996197  0.599988  1
  Na  Na49  1  0.863130  0.503803  0.099988  1
  Na  Na50  1  0.863130  0.003803  0.400012  1
  Na  Na51  1  0.136870  0.496197  0.900012  1
  Na  Na52  1  0.632429  0.739406  0.599961  1
  Na  Na53  1  0.367571  0.760594  0.099961  1
  Na  Na54  1  0.367571  0.260594  0.400039  1
  Na  Na55  1  0.632429  0.239406  0.900039  1
  P  P56  1  0.667652  0.140063  0.632523  1
  P  P57  1  0.332348  0.359937  0.132523  1
  P  P58  1  0.332348  0.859937  0.367477  1
  P  P59  1  0.667652  0.640063  0.867477  1
  P  P60  1  0.175216  0.480641  0.626942  1
  P  P61  1  0.824784  0.019359  0.126942  1
  P  P62  1  0.824784  0.519359  0.373058  1
  P  P63  1  0.175216  0.980641  0.873058  1
