# generated using pymatgen
data_Sb4Cl2O5
_symmetry_space_group_name_H-M   'P 1'
_cell_length_a   5.22680836
_cell_length_b   6.38273242
_cell_length_c   13.82230519
_cell_angle_alpha   95.69528235
_cell_angle_beta   90.00000000
_cell_angle_gamma   90.00000000
_symmetry_Int_Tables_number   1
_chemical_formula_structural   Sb4Cl2O5
_chemical_formula_sum   'Sb8 Cl4 O10'
_cell_volume   458.85407796
_cell_formula_units_Z   2
loop_
 _symmetry_equiv_pos_site_id
 _symmetry_equiv_pos_as_xyz
  1  'x, y, z'
loop_
 _atom_site_type_symbol
 _atom_site_label
 _atom_site_symmetry_multiplicity
 _atom_site_fract_x
 _atom_site_fract_y
 _atom_site_fract_z
 _atom_site_occupancy
  O  O0  1  0.507420  0.930221  0.581476  1
  O  O1  1  0.007420  0.069779  0.918524  1
  O  O2  1  0.492580  0.069779  0.418525  1
  O  O3  1  0.992580  0.930221  0.081476  1
  O  O4  1  0.825880  0.926893  0.290322  1
  O  O5  1  0.325880  0.073107  0.209678  1
  O  O6  1  0.174120  0.073107  0.709678  1
  O  O7  1  0.674120  0.926893  0.790322  1
  O  O8  1  0.500000  0.000000  0.000000  1
  O  O9  1  0.000000  0.000000  0.500000  1
  Cl  Cl10  1  0.714891  0.511069  0.117379  1
  Cl  Cl11  1  0.214891  0.488931  0.382621  1
  Cl  Cl12  1  0.285109  0.488931  0.882621  1
  Cl  Cl13  1  0.785109  0.511069  0.617379  1
  Sb  Sb14  1  0.602593  0.201734  0.296029  1
  Sb  Sb15  1  0.102593  0.798266  0.203971  1
  Sb  Sb16  1  0.397407  0.798266  0.703971  1
  Sb  Sb17  1  0.897407  0.201734  0.796029  1
  Sb  Sb18  1  0.722318  0.816196  0.452650  1
  Sb  Sb19  1  0.222318  0.183804  0.047350  1
  Sb  Sb20  1  0.277682  0.183804  0.547350  1
  Sb  Sb21  1  0.777682  0.816196  0.952650  1
