# generated using pymatgen
data_Tl3PdCl5
_symmetry_space_group_name_H-M   'P 1'
_cell_length_a   7.78994799
_cell_length_b   16.70955892
_cell_length_c   16.76956367
_cell_angle_alpha   90.00000000
_cell_angle_beta   90.00000000
_cell_angle_gamma   90.00000000
_symmetry_Int_Tables_number   1
_chemical_formula_structural   Tl3PdCl5
_chemical_formula_sum   'Tl24 Pd8 Cl40'
_cell_volume   2182.83700126
_cell_formula_units_Z   8
loop_
 _symmetry_equiv_pos_site_id
 _symmetry_equiv_pos_as_xyz
  1  'x, y, z'
loop_
 _atom_site_type_symbol
 _atom_site_label
 _atom_site_symmetry_multiplicity
 _atom_site_fract_x
 _atom_site_fract_y
 _atom_site_fract_z
 _atom_site_occupancy
  Cl  Cl0  1  0.374326  0.427402  0.237733  1
  Cl  Cl1  1  0.874326  0.072598  0.762267  1
  Cl  Cl2  1  0.625674  0.927402  0.262267  1
  Cl  Cl3  1  0.125674  0.572598  0.737733  1
  Cl  Cl4  1  0.625674  0.572598  0.762267  1
  Cl  Cl5  1  0.125674  0.927402  0.237733  1
  Cl  Cl6  1  0.374326  0.072598  0.737733  1
  Cl  Cl7  1  0.874326  0.427402  0.262267  1
  Cl  Cl8  1  0.933144  0.196111  0.026194  1
  Cl  Cl9  1  0.433144  0.303889  0.973806  1
  Cl  Cl10  1  0.066856  0.696111  0.473806  1
  Cl  Cl11  1  0.566856  0.803889  0.526194  1
  Cl  Cl12  1  0.066856  0.803889  0.973806  1
  Cl  Cl13  1  0.566856  0.696111  0.026194  1
  Cl  Cl14  1  0.933144  0.303889  0.526194  1
  Cl  Cl15  1  0.433144  0.196111  0.473806  1
  Cl  Cl16  1  0.708465  0.443214  0.038499  1
  Cl  Cl17  1  0.208465  0.056786  0.961501  1
  Cl  Cl18  1  0.291535  0.943214  0.461501  1
  Cl  Cl19  1  0.791535  0.556786  0.538499  1
  Cl  Cl20  1  0.291535  0.556786  0.961501  1
  Cl  Cl21  1  0.791535  0.943214  0.038499  1
  Cl  Cl22  1  0.708465  0.056786  0.538499  1
  Cl  Cl23  1  0.208465  0.443214  0.461501  1
  Cl  Cl24  1  0.184143  0.226119  0.181443  1
  Cl  Cl25  1  0.684143  0.273881  0.818557  1
  Cl  Cl26  1  0.815857  0.726119  0.318557  1
  Cl  Cl27  1  0.315857  0.773881  0.681443  1
  Cl  Cl28  1  0.815857  0.773881  0.818557  1
  Cl  Cl29  1  0.315857  0.726119  0.181443  1
  Cl  Cl30  1  0.184143  0.273881  0.681443  1
  Cl  Cl31  1  0.684143  0.226119  0.318557  1
  Cl  Cl32  1  0.454767  0.091882  0.116550  1
  Cl  Cl33  1  0.954767  0.408118  0.883450  1
  Cl  Cl34  1  0.545233  0.591882  0.383450  1
  Cl  Cl35  1  0.045233  0.908118  0.616550  1
  Cl  Cl36  1  0.545233  0.908118  0.883450  1
  Cl  Cl37  1  0.045233  0.591882  0.116550  1
  Cl  Cl38  1  0.454767  0.408118  0.616550  1
  Cl  Cl39  1  0.954767  0.091882  0.383450  1
  Pd  Pd40  1  0.191570  0.141737  0.071595  1
  Pd  Pd41  1  0.691570  0.358263  0.928405  1
  Pd  Pd42  1  0.808430  0.641737  0.428405  1
  Pd  Pd43  1  0.308430  0.858263  0.571595  1
  Pd  Pd44  1  0.808430  0.858263  0.928405  1
  Pd  Pd45  1  0.308430  0.641737  0.071595  1
  Pd  Pd46  1  0.191570  0.358263  0.571595  1
  Pd  Pd47  1  0.691570  0.141737  0.428405  1
  Tl  Tl48  1  0.874290  0.058765  0.194228  1
  Tl  Tl49  1  0.374290  0.441235  0.805772  1
  Tl  Tl50  1  0.125710  0.558765  0.305772  1
  Tl  Tl51  1  0.625710  0.941235  0.694228  1
  Tl  Tl52  1  0.125710  0.941235  0.805772  1
  Tl  Tl53  1  0.625710  0.558765  0.194228  1
  Tl  Tl54  1  0.874290  0.441235  0.694228  1
  Tl  Tl55  1  0.374290  0.058765  0.305772  1
  Tl  Tl56  1  0.110971  0.403210  0.085524  1
  Tl  Tl57  1  0.610971  0.096790  0.914476  1
  Tl  Tl58  1  0.889029  0.903210  0.414476  1
  Tl  Tl59  1  0.389029  0.596790  0.585524  1
  Tl  Tl60  1  0.889029  0.596790  0.914476  1
  Tl  Tl61  1  0.389029  0.903210  0.085524  1
  Tl  Tl62  1  0.110971  0.096790  0.585524  1
  Tl  Tl63  1  0.610971  0.403210  0.414476  1
  Tl  Tl64  1  0.589212  0.295655  0.149638  1
  Tl  Tl65  1  0.089212  0.204345  0.850362  1
  Tl  Tl66  1  0.410788  0.795655  0.350362  1
  Tl  Tl67  1  0.910788  0.704345  0.649638  1
  Tl  Tl68  1  0.410788  0.704345  0.850362  1
  Tl  Tl69  1  0.910788  0.795655  0.149638  1
  Tl  Tl70  1  0.589212  0.204345  0.649638  1
  Tl  Tl71  1  0.089212  0.295655  0.350362  1
