# generated using pymatgen
data_MnSn(BO3)2
_symmetry_space_group_name_H-M   'P 1'
_cell_length_a   5.89318410
_cell_length_b   5.89318409
_cell_length_c   5.89318410
_cell_angle_alpha   48.44577888
_cell_angle_beta   48.44577890
_cell_angle_gamma   48.44577891
_symmetry_Int_Tables_number   1
_chemical_formula_structural   MnSn(BO3)2
_chemical_formula_sum   'Mn1 Sn1 B2 O6'
_cell_volume   105.10479822
_cell_formula_units_Z   1
loop_
 _symmetry_equiv_pos_site_id
 _symmetry_equiv_pos_as_xyz
  1  'x, y, z'
loop_
 _atom_site_type_symbol
 _atom_site_label
 _atom_site_symmetry_multiplicity
 _atom_site_fract_x
 _atom_site_fract_y
 _atom_site_fract_z
 _atom_site_occupancy
  B  B0  1  0.755409  0.755409  0.755409  1
  B  B1  1  0.244592  0.244591  0.244591  1
  O  O2  1  0.046719  0.741884  0.473669  1
  O  O3  1  0.741883  0.473669  0.046720  1
  O  O4  1  0.526330  0.953280  0.258117  1
  O  O5  1  0.473668  0.046720  0.741883  1
  O  O6  1  0.953282  0.258116  0.526329  1
  O  O7  1  0.258116  0.526331  0.953281  1
  Mn  Mn8  1  0.000000  0.000000  0.000000  1
  Sn  Sn9  1  0.500000  0.500000  0.499999  1
