# generated using pymatgen
data_LaBN2
_symmetry_space_group_name_H-M   'P 1'
_cell_length_a   6.64993807
_cell_length_b   6.94294600
_cell_length_c   7.81559831
_cell_angle_alpha   105.89947007
_cell_angle_beta   90.54922171
_cell_angle_gamma   116.14606443
_symmetry_Int_Tables_number   1
_chemical_formula_structural   LaBN2
_chemical_formula_sum   'La6 B6 N12'
_cell_volume   307.96227505
_cell_formula_units_Z   6
loop_
 _symmetry_equiv_pos_site_id
 _symmetry_equiv_pos_as_xyz
  1  'x, y, z'
loop_
 _atom_site_type_symbol
 _atom_site_label
 _atom_site_symmetry_multiplicity
 _atom_site_fract_x
 _atom_site_fract_y
 _atom_site_fract_z
 _atom_site_occupancy
  La  La0  1  0.058079  0.332035  0.701264  1
  La  La1  1  0.941921  0.667965  0.298736  1
  La  La2  1  0.530451  0.781681  0.578378  1
  La  La3  1  0.469549  0.218319  0.421622  1
  La  La4  1  0.461610  0.214483  0.938279  1
  La  La5  1  0.538390  0.785517  0.061721  1
  B  B6  1  0.733842  0.580601  0.774338  1
  B  B7  1  0.266158  0.419399  0.225662  1
  B  B8  1  0.898565  0.210312  0.327828  1
  B  B9  1  0.101435  0.789688  0.672172  1
  B  B10  1  0.898379  0.222750  0.014678  1
  B  B11  1  0.101621  0.777250  0.985322  1
  N  N12  1  0.486845  0.482552  0.748608  1
  N  N13  1  0.513155  0.517448  0.251392  1
  N  N14  1  0.760740  0.088535  0.840474  1
  N  N15  1  0.239260  0.911465  0.159526  1
  N  N16  1  0.144875  0.367955  0.379063  1
  N  N17  1  0.855125  0.632045  0.620937  1
  N  N18  1  0.146746  0.359490  0.043309  1
  N  N19  1  0.853254  0.640510  0.956691  1
  N  N20  1  0.765876  0.051831  0.420405  1
  N  N21  1  0.234124  0.948169  0.579595  1
  N  N22  1  0.772576  0.218244  0.172506  1
  N  N23  1  0.227424  0.781756  0.827494  1
