# generated using pymatgen
data_AlFeO3
_symmetry_space_group_name_H-M   'P 1'
_cell_length_a   5.04054164
_cell_length_b   8.65805108
_cell_length_c   9.40098617
_cell_angle_alpha   90.00000000
_cell_angle_beta   90.00000000
_cell_angle_gamma   90.00000000
_symmetry_Int_Tables_number   1
_chemical_formula_structural   AlFeO3
_chemical_formula_sum   'Al8 Fe8 O24'
_cell_volume   410.27094741
_cell_formula_units_Z   8
loop_
 _symmetry_equiv_pos_site_id
 _symmetry_equiv_pos_as_xyz
  1  'x, y, z'
loop_
 _atom_site_type_symbol
 _atom_site_label
 _atom_site_symmetry_multiplicity
 _atom_site_fract_x
 _atom_site_fract_y
 _atom_site_fract_z
 _atom_site_occupancy
  O  O0  1  0.998808  0.324654  0.944174  1
  O  O1  1  0.001192  0.675346  0.444174  1
  O  O2  1  0.501192  0.824654  0.444174  1
  O  O3  1  0.498808  0.175346  0.944174  1
  O  O4  1  0.340549  0.330052  0.671061  1
  O  O5  1  0.659451  0.669948  0.171061  1
  O  O6  1  0.159451  0.830052  0.171061  1
  O  O7  1  0.840549  0.169948  0.671061  1
  O  O8  1  0.645597  0.334410  0.195074  1
  O  O9  1  0.354403  0.665590  0.695074  1
  O  O10  1  0.854403  0.834410  0.695074  1
  O  O11  1  0.145597  0.165590  0.195074  1
  O  O12  1  0.163500  0.491433  0.200279  1
  O  O13  1  0.836500  0.508567  0.700279  1
  O  O14  1  0.336500  0.991433  0.700279  1
  O  O15  1  0.663500  0.008567  0.200279  1
  O  O16  1  0.982253  0.321137  0.415563  1
  O  O17  1  0.017747  0.678863  0.915563  1
  O  O18  1  0.517747  0.821137  0.915563  1
  O  O19  1  0.482253  0.178863  0.415563  1
  O  O20  1  0.499215  0.490078  0.429266  1
  O  O21  1  0.500785  0.509922  0.929266  1
  O  O22  1  0.000785  0.990078  0.929266  1
  O  O23  1  0.999215  0.009922  0.429266  1
  Al  Al24  1  0.317815  0.336977  0.303870  1
  Al  Al25  1  0.682185  0.663023  0.803870  1
  Al  Al26  1  0.182185  0.836977  0.803870  1
  Al  Al27  1  0.817815  0.163023  0.303870  1
  Al  Al28  1  0.667572  0.344970  0.003162  1
  Al  Al29  1  0.332428  0.655030  0.503162  1
  Al  Al30  1  0.832428  0.844970  0.503162  1
  Al  Al31  1  0.167572  0.155030  0.003162  1
  Fe  Fe32  1  0.167885  0.468683  0.800960  1
  Fe  Fe33  1  0.832115  0.531317  0.300960  1
  Fe  Fe34  1  0.332115  0.968683  0.300960  1
  Fe  Fe35  1  0.667885  0.031317  0.800960  1
  Fe  Fe36  1  0.688241  0.350754  0.579392  1
  Fe  Fe37  1  0.311759  0.649246  0.079392  1
  Fe  Fe38  1  0.811759  0.850754  0.079392  1
  Fe  Fe39  1  0.188241  0.149246  0.579392  1
