# generated using pymatgen
data_Bi4Br2O5
_symmetry_space_group_name_H-M   'P 1'
_cell_length_a   5.73086865
_cell_length_b   11.09271831
_cell_length_c   14.79589906
_cell_angle_alpha   98.45459130
_cell_angle_beta   90.00000000
_cell_angle_gamma   90.00000000
_symmetry_Int_Tables_number   1
_chemical_formula_structural   Bi4Br2O5
_chemical_formula_sum   'Bi16 Br8 O20'
_cell_volume   930.36712708
_cell_formula_units_Z   4
loop_
 _symmetry_equiv_pos_site_id
 _symmetry_equiv_pos_as_xyz
  1  'x, y, z'
loop_
 _atom_site_type_symbol
 _atom_site_label
 _atom_site_symmetry_multiplicity
 _atom_site_fract_x
 _atom_site_fract_y
 _atom_site_fract_z
 _atom_site_occupancy
  Bi  Bi0  1  0.271542  0.647854  0.697149  1
  Bi  Bi1  1  0.755477  0.094535  0.706264  1
  Bi  Bi2  1  0.247116  0.275109  0.627840  1
  Bi  Bi3  1  0.759854  0.077491  0.457194  1
  Bi  Bi4  1  0.185477  0.564000  0.218135  1
  Bi  Bi5  1  0.215332  0.266431  0.882014  1
  Bi  Bi6  1  0.769416  0.790289  0.848842  1
  Bi  Bi7  1  0.685477  0.436000  0.781865  1
  Bi  Bi8  1  0.747116  0.724891  0.372160  1
  Bi  Bi9  1  0.161539  0.597293  0.957185  1
  Bi  Bi10  1  0.259854  0.922509  0.542806  1
  Bi  Bi11  1  0.715332  0.733569  0.117986  1
  Bi  Bi12  1  0.269416  0.209711  0.151158  1
  Bi  Bi13  1  0.771542  0.352146  0.302851  1
  Bi  Bi14  1  0.255477  0.905465  0.293736  1
  Bi  Bi15  1  0.661539  0.402707  0.042815  1
  Br  Br16  1  0.763404  0.050695  0.227515  1
  Br  Br17  1  0.788386  0.125264  0.940260  1
  Br  Br18  1  0.263404  0.949305  0.772485  1
  Br  Br19  1  0.264223  0.214114  0.380051  1
  Br  Br20  1  0.788930  0.379451  0.551965  1
  Br  Br21  1  0.288386  0.874736  0.059740  1
  Br  Br22  1  0.764223  0.785886  0.619949  1
  Br  Br23  1  0.288930  0.620549  0.448035  1
  O  O24  1  0.991987  0.255559  0.736797  1
  O  O25  1  0.518123  0.350264  0.196490  1
  O  O26  1  0.324178  0.459655  0.704897  1
  O  O27  1  0.517183  0.080974  0.579939  1
  O  O28  1  0.477016  0.422919  0.905359  1
  O  O29  1  0.503122  0.248873  0.741769  1
  O  O30  1  0.018123  0.649736  0.803510  1
  O  O31  1  0.474278  0.575899  0.089344  1
  O  O32  1  0.824178  0.540345  0.295103  1
  O  O33  1  0.501766  0.921770  0.420467  1
  O  O34  1  0.016344  0.346077  0.192755  1
  O  O35  1  0.003122  0.751127  0.258231  1
  O  O36  1  0.977016  0.577081  0.094641  1
  O  O37  1  0.516344  0.653923  0.807245  1
  O  O38  1  0.491987  0.744441  0.263203  1
  O  O39  1  0.813208  0.702998  0.966656  1
  O  O40  1  0.313208  0.297002  0.033344  1
  O  O41  1  0.017183  0.919026  0.420061  1
  O  O42  1  0.974278  0.424101  0.910656  1
  O  O43  1  0.001766  0.078230  0.579533  1
