# generated using pymatgen
data_Cu4(BiS2)5
_symmetry_space_group_name_H-M   'P 1'
_cell_length_a   3.89960043
_cell_length_b   9.00035575
_cell_length_c   12.93090465
_cell_angle_alpha   107.15326605
_cell_angle_beta   90.00000000
_cell_angle_gamma   102.51151994
_symmetry_Int_Tables_number   1
_chemical_formula_structural   Cu4(BiS2)5
_chemical_formula_sum   'Cu4 Bi5 S10'
_cell_volume   422.36622368
_cell_formula_units_Z   1
loop_
 _symmetry_equiv_pos_site_id
 _symmetry_equiv_pos_as_xyz
  1  'x, y, z'
loop_
 _atom_site_type_symbol
 _atom_site_label
 _atom_site_symmetry_multiplicity
 _atom_site_fract_x
 _atom_site_fract_y
 _atom_site_fract_z
 _atom_site_occupancy
  Cu  Cu0  1  0.096659  0.193319  0.517443  1
  Cu  Cu1  1  0.287751  0.575502  0.942764  1
  Cu  Cu2  1  0.712249  0.424498  0.057236  1
  Cu  Cu3  1  0.903341  0.806681  0.482557  1
  Bi  Bi4  1  0.802764  0.605527  0.661758  1
  Bi  Bi5  1  0.197236  0.394473  0.338242  1
  Bi  Bi6  1  0.000000  0.000000  0.000000  1
  Bi  Bi7  1  0.412200  0.824401  0.224174  1
  Bi  Bi8  1  0.587800  0.175599  0.775826  1
  S  S9  1  0.979393  0.958785  0.365750  1
  S  S10  1  0.664013  0.328026  0.504147  1
  S  S11  1  0.335987  0.671974  0.495853  1
  S  S12  1  0.456567  0.913134  0.834241  1
  S  S13  1  0.020607  0.041215  0.634250  1
  S  S14  1  0.240943  0.481886  0.758724  1
  S  S15  1  0.846177  0.692355  0.028027  1
  S  S16  1  0.759057  0.518114  0.241276  1
  S  S17  1  0.543433  0.086866  0.165759  1
  S  S18  1  0.153823  0.307645  0.971973  1
