# generated using pymatgen
data_RbLi2(IO3)3
_symmetry_space_group_name_H-M   'P 1'
_cell_length_a   8.41930860
_cell_length_b   11.41332519
_cell_length_c   11.45243959
_cell_angle_alpha   90.00000000
_cell_angle_beta   111.08178726
_cell_angle_gamma   90.00000000
_symmetry_Int_Tables_number   1
_chemical_formula_structural   RbLi2(IO3)3
_chemical_formula_sum   'Rb4 Li8 I12 O36'
_cell_volume   1026.83316641
_cell_formula_units_Z   4
loop_
 _symmetry_equiv_pos_site_id
 _symmetry_equiv_pos_as_xyz
  1  'x, y, z'
loop_
 _atom_site_type_symbol
 _atom_site_label
 _atom_site_symmetry_multiplicity
 _atom_site_fract_x
 _atom_site_fract_y
 _atom_site_fract_z
 _atom_site_occupancy
  Rb  Rb0  1  0.288691  0.955733  0.838807  1
  Rb  Rb1  1  0.711309  0.044267  0.161193  1
  Rb  Rb2  1  0.288691  0.544267  0.338807  1
  Rb  Rb3  1  0.711309  0.455733  0.661193  1
  Li  Li4  1  0.983815  0.711164  0.652759  1
  Li  Li5  1  0.374044  0.715883  0.639483  1
  Li  Li6  1  0.016185  0.288836  0.347241  1
  Li  Li7  1  0.625956  0.215883  0.860517  1
  Li  Li8  1  0.983815  0.788836  0.152759  1
  Li  Li9  1  0.374044  0.784117  0.139483  1
  Li  Li10  1  0.625956  0.284117  0.360517  1
  Li  Li11  1  0.016185  0.211164  0.847241  1
  I  I12  1  0.409421  0.317922  0.046025  1
  I  I13  1  0.774012  0.947526  0.820067  1
  I  I14  1  0.590579  0.682078  0.953975  1
  I  I15  1  0.225988  0.447526  0.679933  1
  I  I16  1  0.225988  0.052474  0.179933  1
  I  I17  1  0.083495  0.867864  0.438177  1
  I  I18  1  0.409421  0.182078  0.546025  1
  I  I19  1  0.916505  0.367864  0.061823  1
  I  I20  1  0.083495  0.632136  0.938177  1
  I  I21  1  0.916505  0.132136  0.561823  1
  I  I22  1  0.774012  0.552474  0.320067  1
  I  I23  1  0.590579  0.817922  0.453975  1
  O  O24  1  0.867405  0.920499  0.416336  1
  O  O25  1  0.258666  0.287881  0.447073  1
  O  O26  1  0.044683  0.957978  0.170263  1
  O  O27  1  0.348173  0.462894  0.847519  1
  O  O28  1  0.025644  0.742604  0.330736  1
  O  O29  1  0.258666  0.212119  0.947073  1
  O  O30  1  0.650640  0.043997  0.883009  1
  O  O31  1  0.859524  0.204826  0.408763  1
  O  O32  1  0.955317  0.457978  0.329737  1
  O  O33  1  0.859524  0.295174  0.908763  1
  O  O34  1  0.044683  0.542022  0.670263  1
  O  O35  1  0.741334  0.712119  0.552927  1
  O  O36  1  0.955317  0.042022  0.829737  1
  O  O37  1  0.867405  0.579501  0.916336  1
  O  O38  1  0.974356  0.242604  0.169264  1
  O  O39  1  0.651827  0.962894  0.652481  1
  O  O40  1  0.741334  0.787881  0.052927  1
  O  O41  1  0.348173  0.037106  0.347519  1
  O  O42  1  0.598637  0.224358  0.511983  1
  O  O43  1  0.025644  0.757396  0.830736  1
  O  O44  1  0.349360  0.543997  0.616991  1
  O  O45  1  0.132595  0.079501  0.583664  1
  O  O46  1  0.401363  0.724358  0.988017  1
  O  O47  1  0.535300  0.761840  0.804474  1
  O  O48  1  0.132595  0.420499  0.083664  1
  O  O49  1  0.464700  0.261840  0.695526  1
  O  O50  1  0.401363  0.775642  0.488017  1
  O  O51  1  0.349360  0.956003  0.116991  1
  O  O52  1  0.650640  0.456003  0.383009  1
  O  O53  1  0.140476  0.704826  0.091237  1
  O  O54  1  0.651827  0.537106  0.152481  1
  O  O55  1  0.464700  0.238160  0.195526  1
  O  O56  1  0.974356  0.257396  0.669264  1
  O  O57  1  0.535300  0.738160  0.304474  1
  O  O58  1  0.598637  0.275642  0.011983  1
  O  O59  1  0.140476  0.795174  0.591237  1
