# generated using pymatgen
data_SCl2O
_symmetry_space_group_name_H-M   'P 1'
_cell_length_a   6.18455481
_cell_length_b   8.27880026
_cell_length_c   9.45008861
_cell_angle_alpha   99.12483717
_cell_angle_beta   90.00000000
_cell_angle_gamma   90.00000000
_symmetry_Int_Tables_number   1
_chemical_formula_structural   SCl2O
_chemical_formula_sum   'S4 Cl8 O4'
_cell_volume   477.72803368
_cell_formula_units_Z   4
loop_
 _symmetry_equiv_pos_site_id
 _symmetry_equiv_pos_as_xyz
  1  'x, y, z'
loop_
 _atom_site_type_symbol
 _atom_site_label
 _atom_site_symmetry_multiplicity
 _atom_site_fract_x
 _atom_site_fract_y
 _atom_site_fract_z
 _atom_site_occupancy
  O  O0  1  0.796134  0.866949  0.100138  1
  O  O1  1  0.296134  0.633051  0.899862  1
  O  O2  1  0.203866  0.133051  0.899862  1
  O  O3  1  0.703866  0.366949  0.100138  1
  S  S4  1  0.937470  0.763536  0.169614  1
  S  S5  1  0.437470  0.736464  0.830386  1
  S  S6  1  0.062530  0.236464  0.830386  1
  S  S7  1  0.562530  0.263536  0.169614  1
  Cl  Cl8  1  0.798702  0.738993  0.368210  1
  Cl  Cl9  1  0.298702  0.761007  0.631790  1
  Cl  Cl10  1  0.201298  0.261007  0.631790  1
  Cl  Cl11  1  0.701298  0.238993  0.368210  1
  Cl  Cl12  1  0.208456  0.904739  0.248588  1
  Cl  Cl13  1  0.708456  0.595261  0.751412  1
  Cl  Cl14  1  0.791544  0.095261  0.751412  1
  Cl  Cl15  1  0.291544  0.404739  0.248588  1
