# generated using pymatgen
data_Ni10SnP3
_symmetry_space_group_name_H-M   'P 1'
_cell_length_a   7.67167419
_cell_length_b   7.67167419
_cell_length_c   9.61018704
_cell_angle_alpha   90.00000000
_cell_angle_beta   90.00000000
_cell_angle_gamma   119.99999996
_symmetry_Int_Tables_number   1
_chemical_formula_structural   Ni10SnP3
_chemical_formula_sum   'Ni30 Sn3 P9'
_cell_volume   489.82705922
_cell_formula_units_Z   3
loop_
 _symmetry_equiv_pos_site_id
 _symmetry_equiv_pos_as_xyz
  1  'x, y, z'
loop_
 _atom_site_type_symbol
 _atom_site_label
 _atom_site_symmetry_multiplicity
 _atom_site_fract_x
 _atom_site_fract_y
 _atom_site_fract_z
 _atom_site_occupancy
  P  P0  1  0.835562  0.164438  0.690947  1
  P  P1  1  0.835562  0.671124  0.690947  1
  P  P2  1  0.328876  0.164438  0.690947  1
  P  P3  1  0.164438  0.835562  0.309053  1
  P  P4  1  0.500000  0.500000  0.000000  1
  P  P5  1  0.000000  0.500000  0.000000  1
  P  P6  1  0.500000  0.000000  0.000000  1
  P  P7  1  0.671124  0.835562  0.309053  1
  P  P8  1  0.164438  0.328876  0.309053  1
  Ni  Ni9  1  0.000000  0.000000  0.619782  1
  Ni  Ni10  1  0.000000  0.337845  0.500000  1
  Ni  Ni11  1  0.662155  0.662155  0.500000  1
  Ni  Ni12  1  0.662155  0.000000  0.500000  1
  Ni  Ni13  1  0.000000  0.662155  0.500000  1
  Ni  Ni14  1  0.337845  0.337845  0.500000  1
  Ni  Ni15  1  0.189159  0.810841  0.072708  1
  Ni  Ni16  1  0.189159  0.378317  0.072708  1
  Ni  Ni17  1  0.621683  0.810841  0.072708  1
  Ni  Ni18  1  0.378317  0.189159  0.927292  1
  Ni  Ni19  1  0.337845  0.000000  0.500000  1
  Ni  Ni20  1  0.810841  0.189159  0.927292  1
  Ni  Ni21  1  0.137637  0.862363  0.800470  1
  Ni  Ni22  1  0.137637  0.275275  0.800470  1
  Ni  Ni23  1  0.724725  0.862363  0.800470  1
  Ni  Ni24  1  0.275275  0.137637  0.199530  1
  Ni  Ni25  1  0.862363  0.724725  0.199530  1
  Ni  Ni26  1  0.862363  0.137637  0.199530  1
  Ni  Ni27  1  0.490660  0.509340  0.240260  1
  Ni  Ni28  1  0.490660  0.981319  0.240260  1
  Ni  Ni29  1  0.018681  0.509340  0.240260  1
  Ni  Ni30  1  0.981319  0.490660  0.759740  1
  Ni  Ni31  1  0.509340  0.018681  0.759740  1
  Ni  Ni32  1  0.509340  0.490660  0.759740  1
  Ni  Ni33  1  0.666667  0.333333  0.096132  1
  Ni  Ni34  1  0.333333  0.666667  0.903868  1
  Ni  Ni35  1  0.666667  0.333333  0.615855  1
  Ni  Ni36  1  0.333333  0.666667  0.384145  1
  Ni  Ni37  1  0.810841  0.621683  0.927292  1
  Ni  Ni38  1  0.000000  0.000000  0.380218  1
  Sn  Sn39  1  0.666667  0.333333  0.360565  1
  Sn  Sn40  1  0.333333  0.666667  0.639435  1
  Sn  Sn41  1  0.000000  0.000000  0.000000  1
