# generated using pymatgen
data_TlTe
_symmetry_space_group_name_H-M   'P 1'
_cell_length_a   6.31754692
_cell_length_b   9.81701104
_cell_length_c   9.81701103
_cell_angle_alpha   84.05735243
_cell_angle_beta   71.23028383
_cell_angle_gamma   71.23028385
_symmetry_Int_Tables_number   1
_chemical_formula_structural   TlTe
_chemical_formula_sum   'Tl8 Te8'
_cell_volume   545.80987321
_cell_formula_units_Z   8
loop_
 _symmetry_equiv_pos_site_id
 _symmetry_equiv_pos_as_xyz
  1  'x, y, z'
loop_
 _atom_site_type_symbol
 _atom_site_label
 _atom_site_symmetry_multiplicity
 _atom_site_fract_x
 _atom_site_fract_y
 _atom_site_fract_z
 _atom_site_occupancy
  Te  Te0  1  0.750000  0.000000  0.000000  1
  Te  Te1  1  0.250000  0.000000  0.000000  1
  Te  Te2  1  0.500000  0.500000  0.500000  1
  Te  Te3  1  0.000000  0.500000  0.500000  1
  Te  Te4  1  0.837323  0.500000  0.825354  1
  Te  Te5  1  0.662677  0.174646  0.500000  1
  Te  Te6  1  0.337323  0.825354  0.500000  1
  Te  Te7  1  0.162677  0.500000  0.174646  1
  Tl  Tl8  1  0.579361  0.692547  0.148731  1
  Tl  Tl9  1  0.420639  0.307453  0.851269  1
  Tl  Tl10  1  0.728092  0.851269  0.692547  1
  Tl  Tl11  1  0.271908  0.148731  0.307453  1
  Tl  Tl12  1  0.920639  0.851269  0.307453  1
  Tl  Tl13  1  0.228092  0.692547  0.851269  1
  Tl  Tl14  1  0.771908  0.307453  0.148731  1
  Tl  Tl15  1  0.079361  0.148731  0.692547  1
