# generated using pymatgen
data_EuInPt
_symmetry_space_group_name_H-M   'P 1'
_cell_length_a   4.51155478
_cell_length_b   7.46386956
_cell_length_c   8.57640491
_cell_angle_alpha   90.00000000
_cell_angle_beta   90.00000000
_cell_angle_gamma   90.00000000
_symmetry_Int_Tables_number   1
_chemical_formula_structural   EuInPt
_chemical_formula_sum   'Eu4 In4 Pt4'
_cell_volume   288.79891201
_cell_formula_units_Z   4
loop_
 _symmetry_equiv_pos_site_id
 _symmetry_equiv_pos_as_xyz
  1  'x, y, z'
loop_
 _atom_site_type_symbol
 _atom_site_label
 _atom_site_symmetry_multiplicity
 _atom_site_fract_x
 _atom_site_fract_y
 _atom_site_fract_z
 _atom_site_occupancy
  In  In0  1  0.250000  0.647589  0.435690  1
  In  In1  1  0.250000  0.147589  0.064310  1
  In  In2  1  0.750000  0.352411  0.564310  1
  In  In3  1  0.750000  0.852411  0.935690  1
  Eu  Eu4  1  0.750000  0.467541  0.177844  1
  Eu  Eu5  1  0.250000  0.032459  0.677844  1
  Eu  Eu6  1  0.750000  0.967541  0.322156  1
  Eu  Eu7  1  0.250000  0.532459  0.822156  1
  Pt  Pt8  1  0.250000  0.769783  0.122826  1
  Pt  Pt9  1  0.250000  0.269783  0.377174  1
  Pt  Pt10  1  0.750000  0.730217  0.622826  1
  Pt  Pt11  1  0.750000  0.230217  0.877174  1
