# generated using pymatgen
data_Pb4IF7
_symmetry_space_group_name_H-M   'P 1'
_cell_length_a   6.07885165
_cell_length_b   6.16631085
_cell_length_c   13.08428253
_cell_angle_alpha   103.62923932
_cell_angle_beta   90.00000000
_cell_angle_gamma   90.00000000
_symmetry_Int_Tables_number   1
_chemical_formula_structural   Pb4IF7
_chemical_formula_sum   'Pb8 I2 F14'
_cell_volume   476.64169933
_cell_formula_units_Z   2
loop_
 _symmetry_equiv_pos_site_id
 _symmetry_equiv_pos_as_xyz
  1  'x, y, z'
loop_
 _atom_site_type_symbol
 _atom_site_label
 _atom_site_symmetry_multiplicity
 _atom_site_fract_x
 _atom_site_fract_y
 _atom_site_fract_z
 _atom_site_occupancy
  F  F0  1  0.518584  0.109842  0.756954  1
  F  F1  1  0.018584  0.890158  0.243046  1
  F  F2  1  0.481416  0.352888  0.243046  1
  F  F3  1  0.981416  0.647112  0.756954  1
  F  F4  1  0.481416  0.890158  0.243046  1
  F  F5  1  0.981416  0.109842  0.756954  1
  F  F6  1  0.518584  0.647112  0.756954  1
  F  F7  1  0.018584  0.352888  0.243046  1
  F  F8  1  0.500000  0.227311  0.000000  1
  F  F9  1  0.000000  0.772689  0.000000  1
  F  F10  1  0.750000  0.562695  0.125390  1
  F  F11  1  0.250000  0.437305  0.874610  1
  F  F12  1  0.000000  0.227311  0.000000  1
  F  F13  1  0.500000  0.772689  0.000000  1
  I  I14  1  0.250000  0.749813  0.499626  1
  I  I15  1  0.750000  0.250187  0.500375  1
  Pb  Pb16  1  0.250000  0.174710  0.349419  1
  Pb  Pb17  1  0.750000  0.825290  0.650581  1
  Pb  Pb18  1  0.250000  0.546988  0.093977  1
  Pb  Pb19  1  0.750000  0.453012  0.906023  1
  Pb  Pb20  1  0.250000  0.347360  0.694721  1
  Pb  Pb21  1  0.750000  0.652640  0.305279  1
  Pb  Pb22  1  0.250000  0.941144  0.882288  1
  Pb  Pb23  1  0.750000  0.058856  0.117712  1
