# generated using pymatgen
data_UPdSe3
_symmetry_space_group_name_H-M   'P 1'
_cell_length_a   6.43454899
_cell_length_b   7.77923343
_cell_length_c   8.82090711
_cell_angle_alpha   90.00000000
_cell_angle_beta   90.00000000
_cell_angle_gamma   90.00000000
_symmetry_Int_Tables_number   1
_chemical_formula_structural   UPdSe3
_chemical_formula_sum   'U4 Pd4 Se12'
_cell_volume   441.53807911
_cell_formula_units_Z   4
loop_
 _symmetry_equiv_pos_site_id
 _symmetry_equiv_pos_as_xyz
  1  'x, y, z'
loop_
 _atom_site_type_symbol
 _atom_site_label
 _atom_site_symmetry_multiplicity
 _atom_site_fract_x
 _atom_site_fract_y
 _atom_site_fract_z
 _atom_site_occupancy
  Se  Se0  1  0.337451  0.839485  0.942364  1
  Se  Se1  1  0.162549  0.339485  0.942364  1
  Se  Se2  1  0.662549  0.160515  0.057636  1
  Se  Se3  1  0.337451  0.839485  0.557636  1
  Se  Se4  1  0.181597  0.065002  0.250000  1
  Se  Se5  1  0.681597  0.434998  0.750000  1
  Se  Se6  1  0.318403  0.565002  0.250000  1
  Se  Se7  1  0.818403  0.934998  0.750000  1
  Se  Se8  1  0.162549  0.339485  0.557636  1
  Se  Se9  1  0.662549  0.160515  0.442364  1
  Se  Se10  1  0.837451  0.660515  0.057636  1
  Se  Se11  1  0.837451  0.660515  0.442364  1
  Pd  Pd12  1  0.000000  0.000000  0.000000  1
  Pd  Pd13  1  0.000000  0.000000  0.500000  1
  Pd  Pd14  1  0.500000  0.500000  0.500000  1
  Pd  Pd15  1  0.500000  0.500000  0.000000  1
  U  U16  1  0.935388  0.361073  0.250000  1
  U  U17  1  0.435388  0.138927  0.750000  1
  U  U18  1  0.564612  0.861073  0.250000  1
  U  U19  1  0.064612  0.638927  0.750000  1
