# generated using pymatgen
data_NbAlO4
_symmetry_space_group_name_H-M   'P 1'
_cell_length_a   3.83719426
_cell_length_b   6.45505664
_cell_length_c   6.55459157
_cell_angle_alpha   106.87141313
_cell_angle_beta   90.00092554
_cell_angle_gamma   107.29312628
_symmetry_Int_Tables_number   1
_chemical_formula_structural   NbAlO4
_chemical_formula_sum   'Nb2 Al2 O8'
_cell_volume   147.67876394
_cell_formula_units_Z   2
loop_
 _symmetry_equiv_pos_site_id
 _symmetry_equiv_pos_as_xyz
  1  'x, y, z'
loop_
 _atom_site_type_symbol
 _atom_site_label
 _atom_site_symmetry_multiplicity
 _atom_site_fract_x
 _atom_site_fract_y
 _atom_site_fract_z
 _atom_site_occupancy
  O  O0  1  0.356086  0.712139  0.795439  1
  O  O1  1  0.643913  0.287860  0.204561  1
  O  O2  1  0.737102  0.474248  0.859224  1
  O  O3  1  0.262897  0.525752  0.140776  1
  O  O4  1  0.859328  0.718634  0.471494  1
  O  O5  1  0.140671  0.281367  0.528506  1
  O  O6  1  0.058117  0.116397  0.863525  1
  O  O7  1  0.941882  0.883603  0.136476  1
  Al  Al8  1  0.797950  0.595905  0.176188  1
  Al  Al9  1  0.202049  0.404094  0.823811  1
  Nb  Nb10  1  0.105088  0.210205  0.235809  1
  Nb  Nb11  1  0.894911  0.789795  0.764191  1
