# generated using pymatgen
data_Yb2InPd2
_symmetry_space_group_name_H-M   'P 1'
_cell_length_a   3.99577325
_cell_length_b   7.46226329
_cell_length_c   7.46226329
_cell_angle_alpha   90.00000000
_cell_angle_beta   90.00000000
_cell_angle_gamma   90.00000000
_symmetry_Int_Tables_number   1
_chemical_formula_structural   Yb2InPd2
_chemical_formula_sum   'Yb4 In2 Pd4'
_cell_volume   222.50612549
_cell_formula_units_Z   2
loop_
 _symmetry_equiv_pos_site_id
 _symmetry_equiv_pos_as_xyz
  1  'x, y, z'
loop_
 _atom_site_type_symbol
 _atom_site_label
 _atom_site_symmetry_multiplicity
 _atom_site_fract_x
 _atom_site_fract_y
 _atom_site_fract_z
 _atom_site_occupancy
  Pd  Pd0  1  0.000000  0.134525  0.365475  1
  Pd  Pd1  1  0.000000  0.365475  0.865475  1
  Pd  Pd2  1  0.000000  0.634525  0.134525  1
  Pd  Pd3  1  0.000000  0.865475  0.634525  1
  In  In4  1  0.000000  0.000000  0.000000  1
  In  In5  1  0.000000  0.500000  0.500000  1
  Yb  Yb6  1  0.500000  0.832879  0.332879  1
  Yb  Yb7  1  0.500000  0.667121  0.832879  1
  Yb  Yb8  1  0.500000  0.332879  0.167121  1
  Yb  Yb9  1  0.500000  0.167121  0.667121  1
