# generated using pymatgen
data_CoH8(IO5)2
_symmetry_space_group_name_H-M   'P 1'
_cell_length_a   6.60543219
_cell_length_b   8.46011702
_cell_length_c   8.52889066
_cell_angle_alpha   99.47902869
_cell_angle_beta   90.00000000
_cell_angle_gamma   90.00000000
_symmetry_Int_Tables_number   1
_chemical_formula_structural   CoH8(IO5)2
_chemical_formula_sum   'Co2 H16 I4 O20'
_cell_volume   470.10992463
_cell_formula_units_Z   2
loop_
 _symmetry_equiv_pos_site_id
 _symmetry_equiv_pos_as_xyz
  1  'x, y, z'
loop_
 _atom_site_type_symbol
 _atom_site_label
 _atom_site_symmetry_multiplicity
 _atom_site_fract_x
 _atom_site_fract_y
 _atom_site_fract_z
 _atom_site_occupancy
  H  H0  1  0.217335  0.223370  0.943845  1
  H  H1  1  0.717336  0.776630  0.556155  1
  H  H2  1  0.782664  0.776630  0.056155  1
  H  H3  1  0.282665  0.223370  0.443845  1
  H  H4  1  0.109552  0.232519  0.776184  1
  H  H5  1  0.609552  0.767482  0.723817  1
  H  H6  1  0.004405  0.344142  0.239008  1
  H  H7  1  0.504406  0.655858  0.260992  1
  H  H8  1  0.995595  0.655858  0.760992  1
  H  H9  1  0.495595  0.344142  0.739008  1
  H  H10  1  0.119269  0.509500  0.308733  1
  H  H11  1  0.619269  0.490500  0.191267  1
  H  H12  1  0.880730  0.490499  0.691267  1
  H  H13  1  0.380730  0.509500  0.808733  1
  H  H14  1  0.890448  0.767481  0.223817  1
  H  H15  1  0.390447  0.232519  0.276184  1
  O  O16  1  0.782841  0.385397  0.524995  1
  O  O17  1  0.717159  0.385397  0.024995  1
  O  O18  1  0.407535  0.258137  0.393163  1
  O  O19  1  0.907534  0.741863  0.106837  1
  O  O20  1  0.592466  0.741863  0.606838  1
  O  O21  1  0.217160  0.614603  0.475004  1
  O  O22  1  0.418868  0.435702  0.709434  1
  O  O23  1  0.918869  0.564298  0.790566  1
  O  O24  1  0.581132  0.564298  0.290567  1
  O  O25  1  0.081132  0.435702  0.209434  1
  O  O26  1  0.385511  0.839416  0.239805  1
  O  O27  1  0.885511  0.160584  0.260196  1
  O  O28  1  0.614490  0.160584  0.760195  1
  O  O29  1  0.114490  0.839416  0.739805  1
  O  O30  1  0.422402  0.161704  0.056395  1
  O  O31  1  0.922402  0.838297  0.443606  1
  O  O32  1  0.577597  0.838296  0.943606  1
  O  O33  1  0.077597  0.161703  0.556394  1
  O  O34  1  0.282841  0.614603  0.975004  1
  O  O35  1  0.092466  0.258137  0.893162  1
  Co  Co36  1  0.000000  0.500000  0.000000  1
  Co  Co37  1  0.500000  0.500000  0.500000  1
  I  I38  1  0.178320  0.832837  0.530160  1
  I  I39  1  0.678321  0.167163  0.969840  1
  I  I40  1  0.821679  0.167163  0.469840  1
  I  I41  1  0.321678  0.832837  0.030159  1
