# generated using pymatgen
data_CsGaP3HO10
_symmetry_space_group_name_H-M   'P 1'
_cell_length_a   6.30166523
_cell_length_b   6.36808843
_cell_length_c   6.36808844
_cell_angle_alpha   87.77381937
_cell_angle_beta   74.44578932
_cell_angle_gamma   74.44578939
_symmetry_Int_Tables_number   1
_chemical_formula_structural   CsGaP3HO10
_chemical_formula_sum   'Cs1 Ga1 P3 H1 O10'
_cell_volume   237.02300191
_cell_formula_units_Z   1
loop_
 _symmetry_equiv_pos_site_id
 _symmetry_equiv_pos_as_xyz
  1  'x, y, z'
loop_
 _atom_site_type_symbol
 _atom_site_label
 _atom_site_symmetry_multiplicity
 _atom_site_fract_x
 _atom_site_fract_y
 _atom_site_fract_z
 _atom_site_occupancy
  H  H0  1  0.000000  0.197390  0.802610  1
  O  O1  1  0.139591  0.261092  0.861605  1
  O  O2  1  0.860409  0.138395  0.738908  1
  O  O3  1  0.659846  0.658515  0.446642  1
  O  O4  1  0.340154  0.553358  0.341485  1
  O  O5  1  0.050070  0.288764  0.379912  1
  O  O6  1  0.949930  0.620088  0.711236  1
  O  O7  1  0.965024  0.925931  0.373834  1
  O  O8  1  0.034976  0.626166  0.074069  1
  O  O9  1  0.639016  0.260651  0.455278  1
  O  O10  1  0.360984  0.544722  0.739349  1
  P  P11  1  0.104816  0.509136  0.854038  1
  P  P12  1  0.895184  0.145962  0.490864  1
  P  P13  1  0.500000  0.512848  0.487152  1
  Ga  Ga14  1  0.000000  0.609643  0.390357  1
  Cs  Cs15  1  0.500000  0.946628  0.053372  1
