# generated using pymatgen
data_Be2CoH20N2(O3F4)2
_symmetry_space_group_name_H-M   'P 1'
_cell_length_a   6.20185231
_cell_length_b   9.36406349
_cell_length_c   12.66269630
_cell_angle_alpha   90.00000000
_cell_angle_beta   90.00000000
_cell_angle_gamma   106.72658231
_symmetry_Int_Tables_number   1
_chemical_formula_structural   Be2CoH20N2(O3F4)2
_chemical_formula_sum   'Be4 Co2 H40 N4 O12 F16'
_cell_volume   704.26562637
_cell_formula_units_Z   2
loop_
 _symmetry_equiv_pos_site_id
 _symmetry_equiv_pos_as_xyz
  1  'x, y, z'
loop_
 _atom_site_type_symbol
 _atom_site_label
 _atom_site_symmetry_multiplicity
 _atom_site_fract_x
 _atom_site_fract_y
 _atom_site_fract_z
 _atom_site_occupancy
  H  H0  1  0.337408  0.535824  0.642001  1
  H  H1  1  0.662593  0.964176  0.142000  1
  H  H2  1  0.662593  0.464176  0.358000  1
  H  H3  1  0.337408  0.035824  0.857999  1
  H  H4  1  0.335193  0.399679  0.564893  1
  H  H5  1  0.664806  0.100321  0.064894  1
  H  H6  1  0.664807  0.600321  0.435106  1
  H  H7  1  0.335192  0.899679  0.935107  1
  H  H8  1  0.016013  0.357644  0.315838  1
  H  H9  1  0.983987  0.142356  0.815838  1
  H  H10  1  0.983988  0.642357  0.684162  1
  H  H11  1  0.016013  0.857644  0.184162  1
  H  H12  1  0.933381  0.229668  0.400670  1
  H  H13  1  0.066619  0.270332  0.900670  1
  H  H14  1  0.066617  0.770331  0.599330  1
  H  H15  1  0.933382  0.729669  0.099330  1
  H  H16  1  0.108488  0.747670  0.370927  1
  H  H17  1  0.891511  0.752330  0.870927  1
  H  H18  1  0.891513  0.252331  0.629073  1
  H  H19  1  0.772658  0.453663  0.837117  1
  H  H20  1  0.336193  0.715554  0.408296  1
  H  H21  1  0.663806  0.784446  0.908296  1
  H  H22  1  0.663806  0.284446  0.591704  1
  H  H23  1  0.336194  0.215554  0.091705  1
  H  H24  1  0.349366  0.670535  0.067115  1
  H  H25  1  0.650633  0.829465  0.567114  1
  H  H26  1  0.650633  0.329465  0.932885  1
  H  H27  1  0.349367  0.170535  0.432885  1
  H  H28  1  0.507537  0.584944  0.134787  1
  H  H29  1  0.492464  0.915056  0.634787  1
  H  H30  1  0.492464  0.415056  0.865213  1
  H  H31  1  0.507536  0.084945  0.365213  1
  H  H32  1  0.413091  0.715490  0.195253  1
  H  H33  1  0.586910  0.784510  0.695252  1
  H  H34  1  0.586909  0.284510  0.804747  1
  H  H35  1  0.413091  0.215491  0.304747  1
  H  H36  1  0.227342  0.546337  0.162883  1
  H  H37  1  0.772659  0.953664  0.662883  1
  H  H38  1  0.227342  0.046337  0.337116  1
  H  H39  1  0.108487  0.247669  0.129073  1
  Be  Be40  1  0.253195  0.098737  0.646267  1
  Be  Be41  1  0.746804  0.901262  0.353733  1
  Be  Be42  1  0.253196  0.598738  0.853733  1
  Be  Be43  1  0.746805  0.401262  0.146268  1
  N  N44  1  0.628199  0.371323  0.858899  1
  N  N45  1  0.628198  0.871323  0.641101  1
  N  N46  1  0.371801  0.128677  0.358899  1
  N  N47  1  0.371801  0.628677  0.141101  1
  O  O48  1  0.031496  0.333351  0.390857  1
  O  O49  1  0.968504  0.166649  0.890857  1
  O  O50  1  0.968504  0.666648  0.609143  1
  O  O51  1  0.031495  0.833352  0.109144  1
  O  O52  1  0.176826  0.668095  0.389863  1
  O  O53  1  0.823175  0.831905  0.889863  1
  O  O54  1  0.823174  0.331904  0.610137  1
  O  O55  1  0.176826  0.168096  0.110137  1
  O  O56  1  0.298048  0.495239  0.569727  1
  O  O57  1  0.298048  0.995240  0.930273  1
  O  O58  1  0.701952  0.004760  0.069726  1
  O  O59  1  0.701951  0.504760  0.430273  1
  F  F60  1  0.372650  0.726274  0.934152  1
  F  F61  1  0.627349  0.773726  0.434151  1
  F  F62  1  0.372651  0.226274  0.565848  1
  F  F63  1  0.627349  0.273725  0.065849  1
  F  F64  1  0.768300  0.054933  0.406505  1
  F  F65  1  0.231700  0.445066  0.906505  1
  F  F66  1  0.231700  0.945067  0.593495  1
  F  F67  1  0.768301  0.554933  0.093495  1
  F  F68  1  0.587410  0.883960  0.255662  1
  F  F69  1  0.412589  0.616040  0.755663  1
  F  F70  1  0.412589  0.116041  0.744337  1
  F  F71  1  0.587411  0.383960  0.244338  1
  F  F72  1  0.015768  0.114628  0.679586  1
  F  F73  1  0.984232  0.885372  0.320414  1
  F  F74  1  0.015767  0.614628  0.820414  1
  F  F75  1  0.984232  0.385373  0.179585  1
  Co  Co76  1  0.000001  0.500000  0.500000  1
  Co  Co77  1  0.000000  0.000000  0.000000  1
