# generated using pymatgen
data_BaLu2CoO5
_symmetry_space_group_name_H-M   'P 1'
_cell_length_a   5.67057317
_cell_length_b   7.00706263
_cell_length_c   12.16111186
_cell_angle_alpha   90.00000000
_cell_angle_beta   90.00000000
_cell_angle_gamma   90.00000000
_symmetry_Int_Tables_number   1
_chemical_formula_structural   BaLu2CoO5
_chemical_formula_sum   'Ba4 Lu8 Co4 O20'
_cell_volume   483.21036473
_cell_formula_units_Z   4
loop_
 _symmetry_equiv_pos_site_id
 _symmetry_equiv_pos_as_xyz
  1  'x, y, z'
loop_
 _atom_site_type_symbol
 _atom_site_label
 _atom_site_symmetry_multiplicity
 _atom_site_fract_x
 _atom_site_fract_y
 _atom_site_fract_z
 _atom_site_occupancy
  O  O0  1  0.249999  0.418090  0.603889  1
  O  O1  1  0.749999  0.581910  0.396112  1
  O  O2  1  0.749999  0.918090  0.896112  1
  O  O3  1  0.249999  0.081911  0.103889  1
  O  O4  1  0.998608  0.865055  0.275236  1
  O  O5  1  0.498608  0.134945  0.724763  1
  O  O6  1  0.001392  0.365054  0.224763  1
  O  O7  1  0.501392  0.634946  0.775237  1
  O  O8  1  0.001392  0.134945  0.724763  1
  O  O9  1  0.501392  0.865055  0.275236  1
  O  O10  1  0.998608  0.634946  0.775237  1
  O  O11  1  0.498608  0.365054  0.224763  1
  O  O12  1  0.499393  0.663215  0.065856  1
  O  O13  1  0.999393  0.336785  0.934144  1
  O  O14  1  0.500607  0.163216  0.434144  1
  O  O15  1  0.000607  0.836785  0.565856  1
  O  O16  1  0.999393  0.163216  0.434144  1
  O  O17  1  0.499393  0.836785  0.565856  1
  O  O18  1  0.500607  0.336785  0.934144  1
  O  O19  1  0.000607  0.663215  0.065856  1
  Co  Co20  1  0.249999  0.808567  0.152171  1
  Co  Co21  1  0.749999  0.191433  0.847829  1
  Co  Co22  1  0.749999  0.308568  0.347829  1
  Co  Co23  1  0.249999  0.691432  0.652171  1
  Ba  Ba24  1  0.749999  0.080472  0.101046  1
  Ba  Ba25  1  0.749999  0.419527  0.601046  1
  Ba  Ba26  1  0.249999  0.580473  0.398954  1
  Ba  Ba27  1  0.249999  0.919528  0.898954  1
  Lu  Lu28  1  0.249999  0.402376  0.074349  1
  Lu  Lu29  1  0.749999  0.620507  0.208485  1
  Lu  Lu30  1  0.749999  0.879494  0.708486  1
  Lu  Lu31  1  0.249999  0.120507  0.291515  1
  Lu  Lu32  1  0.749999  0.597625  0.925650  1
  Lu  Lu33  1  0.749999  0.902376  0.425651  1
  Lu  Lu34  1  0.249999  0.097624  0.574349  1
  Lu  Lu35  1  0.249999  0.379493  0.791515  1
