# generated using pymatgen
data_Ti4Bi2O11
_symmetry_space_group_name_H-M   'P 1'
_cell_length_a   3.79694245
_cell_length_b   7.70292927
_cell_length_c   7.80312438
_cell_angle_alpha   83.35893448
_cell_angle_beta   75.91882779
_cell_angle_gamma   75.73181255
_symmetry_Int_Tables_number   1
_chemical_formula_structural   Ti4Bi2O11
_chemical_formula_sum   'Ti4 Bi2 O11'
_cell_volume   214.15961273
_cell_formula_units_Z   1
loop_
 _symmetry_equiv_pos_site_id
 _symmetry_equiv_pos_as_xyz
  1  'x, y, z'
loop_
 _atom_site_type_symbol
 _atom_site_label
 _atom_site_symmetry_multiplicity
 _atom_site_fract_x
 _atom_site_fract_y
 _atom_site_fract_z
 _atom_site_occupancy
  O  O0  1  0.707387  0.633942  0.951283  1
  O  O1  1  0.292613  0.366058  0.048717  1
  O  O2  1  0.623475  0.105826  0.647225  1
  O  O3  1  0.376525  0.894174  0.352775  1
  O  O4  1  0.436923  0.459012  0.667141  1
  O  O5  1  0.563077  0.540988  0.332859  1
  O  O6  1  0.799070  0.160004  0.241856  1
  O  O7  1  0.200930  0.839996  0.758144  1
  O  O8  1  0.145776  0.278822  0.429626  1
  O  O9  1  0.854224  0.721178  0.570374  1
  O  O10  1  0.500000  0.000000  0.000000  1
  Ti  Ti11  1  0.618798  0.294112  0.468292  1
  Ti  Ti12  1  0.381202  0.705888  0.531708  1
  Ti  Ti13  1  0.660830  0.896288  0.782053  1
  Ti  Ti14  1  0.339170  0.103712  0.217947  1
  Bi  Bi15  1  0.110753  0.636589  0.141905  1
  Bi  Bi16  1  0.889247  0.363411  0.858095  1
