# generated using pymatgen
data_RbAsSe2
_symmetry_space_group_name_H-M   'P 1'
_cell_length_a   9.70024803
_cell_length_b   10.20703664
_cell_length_c   12.97010322
_cell_angle_alpha   113.17141152
_cell_angle_beta   100.92346437
_cell_angle_gamma   89.99999996
_symmetry_Int_Tables_number   1
_chemical_formula_structural   RbAsSe2
_chemical_formula_sum   'Rb8 As8 Se16'
_cell_volume   1155.23520092
_cell_formula_units_Z   8
loop_
 _symmetry_equiv_pos_site_id
 _symmetry_equiv_pos_as_xyz
  1  'x, y, z'
loop_
 _atom_site_type_symbol
 _atom_site_label
 _atom_site_symmetry_multiplicity
 _atom_site_fract_x
 _atom_site_fract_y
 _atom_site_fract_z
 _atom_site_occupancy
  As  As0  1  0.042846  0.510319  0.305328  1
  As  As1  1  0.150361  0.808791  0.218852  1
  As  As2  1  0.349639  0.589939  0.781148  1
  As  As3  1  0.849639  0.191209  0.781148  1
  As  As4  1  0.650361  0.410061  0.218852  1
  As  As5  1  0.457154  0.204991  0.694672  1
  As  As6  1  0.957154  0.489681  0.694672  1
  As  As7  1  0.542846  0.795009  0.305328  1
  Se  Se8  1  0.558034  0.191133  0.207494  1
  Se  Se9  1  0.941966  0.983639  0.792506  1
  Se  Se10  1  0.441966  0.808867  0.792506  1
  Se  Se11  1  0.344049  0.911756  0.391328  1
  Se  Se12  1  0.058034  0.016361  0.207494  1
  Se  Se13  1  0.844049  0.479572  0.391328  1
  Se  Se14  1  0.655951  0.088244  0.608672  1
  Se  Se15  1  0.155951  0.520428  0.608672  1
  Se  Se16  1  0.492620  0.775580  0.116716  1
  Se  Se17  1  0.007380  0.658864  0.883284  1
  Se  Se18  1  0.507380  0.224420  0.883284  1
  Se  Se19  1  0.992620  0.341136  0.116716  1
  Se  Se20  1  0.465775  0.558320  0.302081  1
  Se  Se21  1  0.034225  0.256240  0.697919  1
  Se  Se22  1  0.534225  0.441680  0.697919  1
  Se  Se23  1  0.965775  0.743760  0.302081  1
  Rb  Rb24  1  0.250000  0.465371  0.000000  1
  Rb  Rb25  1  0.750000  0.534629  0.000000  1
  Rb  Rb26  1  0.250000  0.000729  0.000000  1
  Rb  Rb27  1  0.750000  0.999271  0.000000  1
  Rb  Rb28  1  0.827536  0.123911  0.395186  1
  Rb  Rb29  1  0.672464  0.728724  0.604814  1
  Rb  Rb30  1  0.172464  0.876089  0.604814  1
  Rb  Rb31  1  0.327536  0.271276  0.395186  1
