# generated using pymatgen
data_MnH16C4(Br2N)2
_symmetry_space_group_name_H-M   'P 1'
_cell_length_a   8.24784242
_cell_length_b   11.92463947
_cell_length_c   15.36093045
_cell_angle_alpha   90.00000000
_cell_angle_beta   95.34810475
_cell_angle_gamma   90.00000000
_symmetry_Int_Tables_number   1
_chemical_formula_structural   MnH16C4(Br2N)2
_chemical_formula_sum   'Mn4 H64 C16 Br16 N8'
_cell_volume   1504.20987219
_cell_formula_units_Z   4
loop_
 _symmetry_equiv_pos_site_id
 _symmetry_equiv_pos_as_xyz
  1  'x, y, z'
loop_
 _atom_site_type_symbol
 _atom_site_label
 _atom_site_symmetry_multiplicity
 _atom_site_fract_x
 _atom_site_fract_y
 _atom_site_fract_z
 _atom_site_occupancy
  Mn  Mn0  1  0.211008  0.203620  0.953566  1
  Mn  Mn1  1  0.288992  0.703620  0.546434  1
  Mn  Mn2  1  0.788992  0.796380  0.046434  1
  Mn  Mn3  1  0.711008  0.296380  0.453566  1
  H  H4  1  0.879450  0.277095  0.068431  1
  H  H5  1  0.282617  0.181578  0.709328  1
  H  H6  1  0.920749  0.824420  0.344037  1
  H  H7  1  0.190634  0.304887  0.659675  1
  H  H8  1  0.833392  0.449880  0.992819  1
  H  H9  1  0.841240  0.966064  0.880881  1
  H  H10  1  0.666695  0.479056  0.056658  1
  H  H11  1  0.344643  0.400487  0.349035  1
  H  H12  1  0.918894  0.433849  0.700820  1
  H  H13  1  0.987537  0.011605  0.234548  1
  H  H14  1  0.166608  0.550120  0.007181  1
  H  H15  1  0.012463  0.988395  0.765452  1
  H  H16  1  0.579251  0.324420  0.155963  1
  H  H17  1  0.158858  0.098955  0.268613  1
  H  H18  1  0.812467  0.783513  0.480901  1
  H  H19  1  0.341640  0.454568  0.197636  1
  H  H20  1  0.079251  0.175580  0.655963  1
  H  H21  1  0.717383  0.818422  0.290672  1
  H  H22  1  0.312467  0.716487  0.980900  1
  H  H23  1  0.341240  0.533936  0.380881  1
  H  H24  1  0.658760  0.466064  0.619119  1
  H  H25  1  0.333392  0.050120  0.492819  1
  H  H26  1  0.341142  0.598955  0.231387  1
  H  H27  1  0.418894  0.066151  0.200821  1
  H  H28  1  0.666608  0.949880  0.507181  1
  H  H29  1  0.370320  0.027609  0.608389  1
  H  H30  1  0.809366  0.695113  0.340325  1
  H  H31  1  0.844643  0.099513  0.849036  1
  H  H32  1  0.420749  0.675580  0.844037  1
  H  H33  1  0.574063  0.043104  0.879740  1
  H  H34  1  0.581397  0.078777  0.766665  1
  H  H35  1  0.620550  0.777095  0.431569  1
  H  H36  1  0.690634  0.195113  0.159675  1
  H  H37  1  0.841142  0.901045  0.731387  1
  H  H38  1  0.418603  0.921223  0.233335  1
  H  H39  1  0.655357  0.599513  0.650964  1
  H  H40  1  0.841640  0.045432  0.697636  1
  H  H41  1  0.166695  0.020944  0.556658  1
  H  H42  1  0.581106  0.933849  0.799180  1
  H  H43  1  0.925937  0.543104  0.620260  1
  H  H44  1  0.158360  0.954568  0.302364  1
  H  H45  1  0.425937  0.956896  0.120260  1
  H  H46  1  0.658858  0.401045  0.768613  1
  H  H47  1  0.155357  0.900487  0.150965  1
  H  H48  1  0.658360  0.545432  0.802364  1
  H  H49  1  0.487537  0.488395  0.734548  1
  H  H50  1  0.081106  0.566151  0.299179  1
  H  H51  1  0.120550  0.722905  0.931569  1
  H  H52  1  0.629680  0.972391  0.391611  1
  H  H53  1  0.870320  0.472391  0.108389  1
  H  H54  1  0.379450  0.222905  0.568431  1
  H  H55  1  0.833305  0.979056  0.443342  1
  H  H56  1  0.074063  0.456896  0.379740  1
  H  H57  1  0.918603  0.578777  0.733335  1
  H  H58  1  0.187533  0.216487  0.519100  1
  H  H59  1  0.687533  0.283513  0.019099  1
  H  H60  1  0.333305  0.520944  0.943342  1
  H  H61  1  0.158760  0.033936  0.119119  1
  H  H62  1  0.309366  0.804887  0.840325  1
  H  H63  1  0.217383  0.681578  0.790672  1
  H  H64  1  0.129680  0.527609  0.891611  1
  H  H65  1  0.782617  0.318422  0.209328  1
  H  H66  1  0.512463  0.511605  0.265452  1
  H  H67  1  0.081397  0.421223  0.266665  1
  C  C68  1  0.285258  0.062173  0.556231  1
  C  C69  1  0.121211  0.481316  0.318226  1
  C  C70  1  0.119790  0.013898  0.249931  1
  C  C71  1  0.880210  0.986102  0.750069  1
  C  C72  1  0.785258  0.437827  0.056231  1
  C  C73  1  0.300063  0.713514  0.844983  1
  C  C74  1  0.380210  0.513898  0.250069  1
  C  C75  1  0.878789  0.518684  0.681774  1
  C  C76  1  0.199937  0.213514  0.655017  1
  C  C77  1  0.214742  0.562173  0.943769  1
  C  C78  1  0.378789  0.981316  0.181774  1
  C  C79  1  0.800063  0.786486  0.344983  1
  C  C80  1  0.699937  0.286486  0.155017  1
  C  C81  1  0.621211  0.018684  0.818226  1
  C  C82  1  0.714742  0.937827  0.443769  1
  C  C83  1  0.619790  0.486102  0.749931  1
  Br  Br84  1  0.040669  0.790384  0.589580  1
  Br  Br85  1  0.783640  1.000468  0.060385  1
  Br  Br86  1  0.283640  0.499532  0.560385  1
  Br  Br87  1  0.216360  -0.000468  0.939615  1
  Br  Br88  1  0.959331  0.209616  0.410421  1
  Br  Br89  1  0.827535  0.736019  0.896223  1
  Br  Br90  1  0.327535  0.763981  0.396223  1
  Br  Br91  1  0.972543  0.277266  0.864197  1
  Br  Br92  1  0.172465  0.263981  0.103777  1
  Br  Br93  1  0.472543  0.222734  0.364197  1
  Br  Br94  1  0.540669  0.709616  0.089580  1
  Br  Br95  1  0.672465  0.236019  0.603777  1
  Br  Br96  1  0.716360  0.500468  0.439615  1
  Br  Br97  1  0.027457  0.722734  0.135803  1
  Br  Br98  1  0.527457  0.777266  0.635803  1
  Br  Br99  1  0.459331  0.290384  0.910420  1
  N  N100  1  0.765984  0.315085  0.070655  1
  N  N101  1  0.234016  0.684915  0.929345  1
  N  N102  1  0.802620  0.019603  0.829988  1
  N  N103  1  0.697380  0.519603  0.670012  1
  N  N104  1  0.265984  0.184915  0.570655  1
  N  N105  1  0.302620  0.480397  0.329988  1
  N  N106  1  0.197380  0.980397  0.170012  1
  N  N107  1  0.734016  0.815085  0.429345  1
