# generated using pymatgen
data_La3RuI3
_symmetry_space_group_name_H-M   'P 1'
_cell_length_a   4.39711734
_cell_length_b   9.59193437
_cell_length_c   12.62842653
_cell_angle_alpha   93.38060816
_cell_angle_beta   90.00000000
_cell_angle_gamma   90.00000000
_symmetry_Int_Tables_number   1
_chemical_formula_structural   La3RuI3
_chemical_formula_sum   'La6 Ru2 I6'
_cell_volume   531.70053462
_cell_formula_units_Z   2
loop_
 _symmetry_equiv_pos_site_id
 _symmetry_equiv_pos_as_xyz
  1  'x, y, z'
loop_
 _atom_site_type_symbol
 _atom_site_label
 _atom_site_symmetry_multiplicity
 _atom_site_fract_x
 _atom_site_fract_y
 _atom_site_fract_z
 _atom_site_occupancy
  La  La0  1  0.250000  0.097246  0.896246  1
  La  La1  1  0.750000  0.315707  0.120785  1
  La  La2  1  0.750000  0.880996  0.668766  1
  La  La3  1  0.750000  0.902754  0.103754  1
  La  La4  1  0.250000  0.684293  0.879215  1
  La  La5  1  0.250000  0.119004  0.331234  1
  Ru  Ru6  1  0.250000  0.115079  0.128982  1
  Ru  Ru7  1  0.750000  0.884921  0.871018  1
  I  I8  1  0.250000  0.130524  0.620390  1
  I  I9  1  0.750000  0.392625  0.863447  1
  I  I10  1  0.250000  0.630487  0.618377  1
  I  I11  1  0.750000  0.369513  0.381623  1
  I  I12  1  0.250000  0.607375  0.136553  1
  I  I13  1  0.750000  0.869476  0.379610  1
