# generated using pymatgen
data_Li3FePCO7
_symmetry_space_group_name_H-M   'P 1'
_cell_length_a   5.03910037
_cell_length_b   6.45011525
_cell_length_c   8.56688709
_cell_angle_alpha   90.00000000
_cell_angle_beta   83.21008546
_cell_angle_gamma   90.00000000
_symmetry_Int_Tables_number   1
_chemical_formula_structural   Li3FePCO7
_chemical_formula_sum   'Li6 Fe2 P2 C2 O14'
_cell_volume   276.49469203
_cell_formula_units_Z   2
loop_
 _symmetry_equiv_pos_site_id
 _symmetry_equiv_pos_as_xyz
  1  'x, y, z'
loop_
 _atom_site_type_symbol
 _atom_site_label
 _atom_site_symmetry_multiplicity
 _atom_site_fract_x
 _atom_site_fract_y
 _atom_site_fract_z
 _atom_site_occupancy
  Li  Li0  1  0.729431  0.983508  0.725908  1
  Li  Li1  1  0.270569  0.016492  0.274091  1
  Li  Li2  1  0.797367  0.250001  0.104479  1
  Li  Li3  1  0.202633  0.750000  0.895521  1
  Li  Li4  1  0.729431  0.516492  0.725908  1
  Li  Li5  1  0.270569  0.483509  0.274091  1
  C  C6  1  0.668625  0.750000  0.036484  1
  C  C7  1  0.331374  0.250001  0.963516  1
  O  O8  1  0.170784  0.750000  0.426055  1
  O  O9  1  0.916062  0.750000  0.062666  1
  O  O10  1  0.514608  0.250001  0.841445  1
  O  O11  1  0.485393  0.750000  0.158556  1
  O  O12  1  0.160877  0.562758  0.693234  1
  O  O13  1  0.083939  0.250001  0.937334  1
  O  O14  1  0.160877  0.937242  0.693234  1
  O  O15  1  0.839123  0.437241  0.306767  1
  O  O16  1  0.839123  0.062758  0.306767  1
  O  O17  1  0.418357  0.250001  0.430552  1
  O  O18  1  0.600774  0.750000  0.894873  1
  O  O19  1  0.399225  0.250001  0.105127  1
  O  O20  1  0.581644  0.750000  0.569449  1
  O  O21  1  0.829215  0.250001  0.573946  1
  P  P22  1  0.730399  0.250001  0.411160  1
  P  P23  1  0.269600  0.750000  0.588840  1
  Fe  Fe24  1  0.788558  0.750000  0.329910  1
  Fe  Fe25  1  0.211444  0.250001  0.670089  1
