# generated using pymatgen
data_Te5(O2F11)2
_symmetry_space_group_name_H-M   'P 1'
_cell_length_a   10.04503187
_cell_length_b   10.04503186
_cell_length_c   12.57513638
_cell_angle_alpha   113.54070699
_cell_angle_beta   113.54070705
_cell_angle_gamma   90.00000003
_symmetry_Int_Tables_number   1
_chemical_formula_structural   Te5(O2F11)2
_chemical_formula_sum   'Te10 O8 F44'
_cell_volume   1047.06984117
_cell_formula_units_Z   2
loop_
 _symmetry_equiv_pos_site_id
 _symmetry_equiv_pos_as_xyz
  1  'x, y, z'
loop_
 _atom_site_type_symbol
 _atom_site_label
 _atom_site_symmetry_multiplicity
 _atom_site_fract_x
 _atom_site_fract_y
 _atom_site_fract_z
 _atom_site_occupancy
  O  O0  1  0.057796  0.567158  0.747015  1
  O  O1  1  0.179857  0.557796  0.247015  1
  O  O2  1  0.067158  0.189218  0.247015  1
  O  O3  1  0.689218  0.679857  0.747015  1
  O  O4  1  0.942204  0.432842  0.252985  1
  O  O5  1  0.820143  0.442204  0.752985  1
  O  O6  1  0.932842  0.810782  0.752985  1
  O  O7  1  0.310782  0.320143  0.252985  1
  F  F8  1  0.327617  0.334721  0.859985  1
  F  F9  1  0.525264  0.827617  0.359985  1
  F  F10  1  0.034379  0.284379  0.068759  1
  F  F11  1  0.784379  0.534379  0.568759  1
  F  F12  1  0.965621  0.715621  0.931241  1
  F  F13  1  0.215621  0.465621  0.431241  1
  F  F14  1  0.572747  0.253267  0.309942  1
  F  F15  1  0.056675  0.072747  0.809942  1
  F  F16  1  0.753267  0.237196  0.809942  1
  F  F17  1  0.737196  0.556675  0.309942  1
  F  F18  1  0.427253  0.746733  0.690058  1
  F  F19  1  0.943325  0.927253  0.190058  1
  F  F20  1  0.246733  0.762804  0.190058  1
  F  F21  1  0.262804  0.443325  0.690058  1
  F  F22  1  0.396734  0.186061  0.066595  1
  F  F23  1  0.880534  0.896734  0.566595  1
  F  F24  1  0.686061  0.169861  0.566595  1
  F  F25  1  0.669861  0.380534  0.066595  1
  F  F26  1  0.603266  0.813939  0.933405  1
  F  F27  1  0.119466  0.103266  0.433405  1
  F  F28  1  0.313939  0.830139  0.433405  1
  F  F29  1  0.330139  0.619466  0.933405  1
  F  F30  1  0.373097  0.091135  0.318095  1
  F  F31  1  0.226961  0.873097  0.818095  1
  F  F32  1  0.591135  0.444999  0.818095  1
  F  F33  1  0.944999  0.726961  0.318095  1
  F  F34  1  0.626903  0.908865  0.681905  1
  F  F35  1  0.773039  0.126903  0.181905  1
  F  F36  1  0.408865  0.555001  0.181905  1
  F  F37  1  0.055001  0.273039  0.681905  1
  F  F38  1  0.196004  0.024897  0.074534  1
  F  F39  1  0.049637  0.696004  0.574534  1
  F  F40  1  0.524897  0.378530  0.574534  1
  F  F41  1  0.878530  0.549637  0.074534  1
  F  F42  1  0.803996  0.975103  0.925466  1
  F  F43  1  0.950363  0.303996  0.425466  1
  F  F44  1  0.475103  0.621470  0.425466  1
  F  F45  1  0.121470  0.450363  0.925466  1
  F  F46  1  0.467632  0.974736  0.140015  1
  F  F47  1  0.165279  0.967632  0.640015  1
  F  F48  1  0.474736  0.172383  0.640015  1
  F  F49  1  0.672383  0.665279  0.140015  1
  F  F50  1  0.532368  0.025264  0.859985  1
  F  F51  1  0.834721  0.032368  0.359985  1
  Te  Te52  1  0.191283  0.447574  0.807252  1
  Te  Te53  1  0.359678  0.691283  0.307252  1
  Te  Te54  1  0.947574  0.115970  0.307252  1
  Te  Te55  1  0.615970  0.859678  0.807252  1
  Te  Te56  1  0.808717  0.552426  0.192748  1
  Te  Te57  1  0.640322  0.308717  0.692748  1
  Te  Te58  1  0.052425  0.884030  0.692748  1
  Te  Te59  1  0.384030  0.140322  0.192748  1
  Te  Te60  1  0.875000  0.625000  0.750000  1
  Te  Te61  1  0.125000  0.375000  0.250000  1
