# generated using pymatgen
data_S4(BrN)3
_symmetry_space_group_name_H-M   'P 1'
_cell_length_a   6.40425693
_cell_length_b   9.29728064
_cell_length_c   18.58771169
_cell_angle_alpha   90.00000000
_cell_angle_beta   92.67584965
_cell_angle_gamma   90.00000000
_symmetry_Int_Tables_number   1
_chemical_formula_structural   S4(BrN)3
_chemical_formula_sum   'S16 Br12 N12'
_cell_volume   1105.54600665
_cell_formula_units_Z   4
loop_
 _symmetry_equiv_pos_site_id
 _symmetry_equiv_pos_as_xyz
  1  'x, y, z'
loop_
 _atom_site_type_symbol
 _atom_site_label
 _atom_site_symmetry_multiplicity
 _atom_site_fract_x
 _atom_site_fract_y
 _atom_site_fract_z
 _atom_site_occupancy
  S  S0  1  0.206973  0.759930  0.733809  1
  S  S1  1  0.363503  0.743360  0.031201  1
  S  S2  1  0.462572  0.841141  0.184699  1
  S  S3  1  0.206973  0.740070  0.233809  1
  S  S4  1  0.363503  0.756640  0.531201  1
  S  S5  1  0.793027  0.259930  0.766191  1
  S  S6  1  0.010912  0.602681  0.099346  1
  S  S7  1  0.537428  0.158859  0.815301  1
  S  S8  1  0.636497  0.243360  0.468799  1
  S  S9  1  0.462572  0.658859  0.684699  1
  S  S10  1  0.537428  0.341141  0.315301  1
  S  S11  1  0.010912  0.897319  0.599346  1
  S  S12  1  0.793027  0.240070  0.266191  1
  S  S13  1  0.989088  0.397319  0.900654  1
  S  S14  1  0.989088  0.102681  0.400654  1
  S  S15  1  0.636497  0.256640  0.968799  1
  Br  Br16  1  0.480590  0.595143  0.848077  1
  Br  Br17  1  0.066079  0.971728  0.893705  1
  Br  Br18  1  0.217841  0.289733  0.627691  1
  Br  Br19  1  0.519410  0.404857  0.151923  1
  Br  Br20  1  0.933921  0.471728  0.606295  1
  Br  Br21  1  0.066079  0.528272  0.393705  1
  Br  Br22  1  0.519410  0.095143  0.651923  1
  Br  Br23  1  0.217841  0.210267  0.127691  1
  Br  Br24  1  0.933921  0.028272  0.106295  1
  Br  Br25  1  0.782159  0.710267  0.372309  1
  Br  Br26  1  0.480590  0.904857  0.348077  1
  Br  Br27  1  0.782159  0.789733  0.872309  1
  N  N28  1  0.064592  0.655998  0.177030  1
  N  N29  1  0.158657  0.649506  0.037468  1
  N  N30  1  0.538183  0.190094  0.898530  1
  N  N31  1  0.935408  0.344002  0.822970  1
  N  N32  1  0.158657  0.850494  0.537468  1
  N  N33  1  0.064592  0.844002  0.677030  1
  N  N34  1  0.935408  0.155998  0.322970  1
  N  N35  1  0.461817  0.809906  0.101470  1
  N  N36  1  0.461817  0.690094  0.601470  1
  N  N37  1  0.841343  0.350494  0.962532  1
  N  N38  1  0.841343  0.149506  0.462532  1
  N  N39  1  0.538183  0.309906  0.398530  1
