# generated using pymatgen
data_P4Se3I2
_symmetry_space_group_name_H-M   'P 1'
_cell_length_a   12.38891223
_cell_length_b   12.38891223
_cell_length_c   12.38891223
_cell_angle_alpha   94.06071026
_cell_angle_beta   117.68390275
_cell_angle_gamma   117.68390277
_symmetry_Int_Tables_number   1
_chemical_formula_structural   P4Se3I2
_chemical_formula_sum   'P16 Se12 I8'
_cell_volume   1387.87324981
_cell_formula_units_Z   4
loop_
 _symmetry_equiv_pos_site_id
 _symmetry_equiv_pos_as_xyz
  1  'x, y, z'
loop_
 _atom_site_type_symbol
 _atom_site_label
 _atom_site_symmetry_multiplicity
 _atom_site_fract_x
 _atom_site_fract_y
 _atom_site_fract_z
 _atom_site_occupancy
  P  P0  1  0.365388  0.894808  0.523924  1
  P  P1  1  0.528663  0.012555  0.735697  1
  P  P2  1  0.471337  0.207034  0.483892  1
  P  P3  1  0.028663  0.485697  0.262555  1
  P  P4  1  0.723143  0.516108  0.987445  1
  P  P5  1  0.276857  0.264303  0.792966  1
  P  P6  1  0.223143  0.737445  0.766108  1
  P  P7  1  0.776857  0.542966  0.514303  1
  P  P8  1  0.971337  0.233892  0.457034  1
  P  P9  1  0.634612  0.158537  0.529421  1
  P  P10  1  0.134612  0.279421  0.408537  1
  P  P11  1  0.370884  0.476076  0.841463  1
  P  P12  1  0.865388  0.273924  0.144808  1
  P  P13  1  0.629116  0.470579  0.105192  1
  P  P14  1  0.870884  0.591463  0.726076  1
  P  P15  1  0.129116  0.855192  0.720579  1
  Se  Se16  1  0.000000  0.187833  0.187833  1
  Se  Se17  1  0.292007  0.035288  0.491572  1
  Se  Se18  1  0.500000  0.562167  0.062167  1
  Se  Se19  1  0.207993  0.493280  0.449564  1
  Se  Se20  1  0.543716  0.508428  0.800436  1
  Se  Se21  1  0.456284  0.256720  0.964712  1
  Se  Se22  1  0.043716  0.550436  0.758428  1
  Se  Se23  1  0.956284  0.714712  0.506720  1
  Se  Se24  1  0.792007  0.241572  0.285288  1
  Se  Se25  1  0.500000  0.937833  0.437833  1
  Se  Se26  1  0.000000  0.812167  0.812167  1
  Se  Se27  1  0.707993  0.199564  0.743280  1
  I  I28  1  0.860857  0.994212  0.407321  1
  I  I29  1  0.586892  0.592679  0.453536  1
  I  I30  1  0.413108  0.866644  0.005788  1
  I  I31  1  0.086892  0.203536  0.842679  1
  I  I32  1  0.913108  0.755788  0.116644  1
  I  I33  1  0.139143  0.546464  0.133356  1
  I  I34  1  0.360857  0.157321  0.244212  1
  I  I35  1  0.639143  0.883356  0.796464  1
