# generated using pymatgen
data_HgTeO3
_symmetry_space_group_name_H-M   'P 1'
_cell_length_a   6.29799848
_cell_length_b   7.62263222
_cell_length_c   7.68665097
_cell_angle_alpha   84.54944268
_cell_angle_beta   65.56676111
_cell_angle_gamma   87.80733860
_symmetry_Int_Tables_number   1
_chemical_formula_structural   HgTeO3
_chemical_formula_sum   'Hg4 Te4 O12'
_cell_volume   334.44866577
_cell_formula_units_Z   4
loop_
 _symmetry_equiv_pos_site_id
 _symmetry_equiv_pos_as_xyz
  1  'x, y, z'
loop_
 _atom_site_type_symbol
 _atom_site_label
 _atom_site_symmetry_multiplicity
 _atom_site_fract_x
 _atom_site_fract_y
 _atom_site_fract_z
 _atom_site_occupancy
  Hg  Hg0  1  0.793752  0.056479  0.766775  1
  Hg  Hg1  1  0.206248  0.943521  0.233225  1
  Hg  Hg2  1  0.207464  0.280039  0.845427  1
  Hg  Hg3  1  0.792536  0.719961  0.154573  1
  Te  Te4  1  0.686055  0.150309  0.320349  1
  Te  Te5  1  0.313945  0.849691  0.679651  1
  Te  Te6  1  0.230865  0.486035  0.239938  1
  Te  Te7  1  0.769135  0.513965  0.760062  1
  O  O8  1  0.663971  0.010784  0.135080  1
  O  O9  1  0.336029  0.989216  0.864920  1
  O  O10  1  0.276684  0.044530  0.520410  1
  O  O11  1  0.723316  0.955470  0.479590  1
  O  O12  1  0.030946  0.181633  0.193831  1
  O  O13  1  0.969054  0.818367  0.806169  1
  O  O14  1  0.641667  0.299721  0.718559  1
  O  O15  1  0.358333  0.700279  0.281441  1
  O  O16  1  0.086598  0.438008  0.647002  1
  O  O17  1  0.913402  0.561992  0.352998  1
  O  O18  1  0.728603  0.453720  0.017124  1
  O  O19  1  0.271397  0.546280  0.982876  1
