# generated using pymatgen
data_K2Zr7Cl18
_symmetry_space_group_name_H-M   'P 1'
_cell_length_a   10.39084081
_cell_length_b   10.39084082
_cell_length_c   10.39084082
_cell_angle_alpha   55.56984973
_cell_angle_beta   55.56984969
_cell_angle_gamma   55.56984974
_symmetry_Int_Tables_number   1
_chemical_formula_structural   K2Zr7Cl18
_chemical_formula_sum   'K2 Zr7 Cl18'
_cell_volume   711.72505028
_cell_formula_units_Z   1
loop_
 _symmetry_equiv_pos_site_id
 _symmetry_equiv_pos_as_xyz
  1  'x, y, z'
loop_
 _atom_site_type_symbol
 _atom_site_label
 _atom_site_symmetry_multiplicity
 _atom_site_fract_x
 _atom_site_fract_y
 _atom_site_fract_z
 _atom_site_occupancy
  Cl  Cl0  1  0.524321  0.359702  0.781318  1
  Cl  Cl1  1  0.359702  0.781318  0.524321  1
  Cl  Cl2  1  0.781318  0.524321  0.359702  1
  Cl  Cl3  1  0.475679  0.640297  0.218682  1
  Cl  Cl4  1  0.640297  0.218682  0.475679  1
  Cl  Cl5  1  0.218682  0.475679  0.640297  1
  Cl  Cl6  1  0.284183  0.132928  0.575778  1
  Cl  Cl7  1  0.132928  0.575778  0.284183  1
  Cl  Cl8  1  0.575778  0.284183  0.132928  1
  Cl  Cl9  1  0.348025  0.056764  0.931383  1
  Cl  Cl10  1  0.931383  0.348025  0.056764  1
  Cl  Cl11  1  0.056764  0.931383  0.348025  1
  Cl  Cl12  1  0.651975  0.943236  0.068617  1
  Cl  Cl13  1  0.068617  0.651975  0.943236  1
  Cl  Cl14  1  0.943236  0.068617  0.651975  1
  Cl  Cl15  1  0.424221  0.715817  0.867072  1
  Cl  Cl16  1  0.867072  0.424221  0.715817  1
  Cl  Cl17  1  0.715817  0.867072  0.424221  1
  K  K18  1  0.776483  0.776483  0.776483  1
  K  K19  1  0.223517  0.223517  0.223517  1
  Zr  Zr20  1  0.500000  0.500000  0.500000  1
  Zr  Zr21  1  0.789644  0.162816  0.901369  1
  Zr  Zr22  1  0.162816  0.901369  0.789644  1
  Zr  Zr23  1  0.901369  0.789644  0.162816  1
  Zr  Zr24  1  0.210356  0.837184  0.098631  1
  Zr  Zr25  1  0.837184  0.098631  0.210356  1
  Zr  Zr26  1  0.098631  0.210356  0.837184  1
