# generated using pymatgen
data_TiBr3
_symmetry_space_group_name_H-M   'P 1'
_cell_length_a   6.51870719
_cell_length_b   6.48822599
_cell_length_c   7.78059507
_cell_angle_alpha   65.49548552
_cell_angle_beta   65.49632273
_cell_angle_gamma   59.78803041
_symmetry_Int_Tables_number   1
_chemical_formula_structural   TiBr3
_chemical_formula_sum   'Ti2 Br6'
_cell_volume   249.72438721
_cell_formula_units_Z   2
loop_
 _symmetry_equiv_pos_site_id
 _symmetry_equiv_pos_as_xyz
  1  'x, y, z'
loop_
 _atom_site_type_symbol
 _atom_site_label
 _atom_site_symmetry_multiplicity
 _atom_site_fract_x
 _atom_site_fract_y
 _atom_site_fract_z
 _atom_site_occupancy
  Ti  Ti0  1  0.339325  0.819436  0.999971  1
  Ti  Ti1  1  0.660675  0.180564  0.000029  1
  Br  Br2  1  0.274994  0.425241  0.226458  1
  Br  Br3  1  0.725006  0.574759  0.773542  1
  Br  Br4  1  0.574264  0.781557  0.216767  1
  Br  Br5  1  0.425736  0.218443  0.783233  1
  Br  Br6  1  0.073096  0.926137  0.781304  1
  Br  Br7  1  0.926904  0.073863  0.218696  1
