# generated using pymatgen
data_K2HBrO
_symmetry_space_group_name_H-M   'P 1'
_cell_length_a   4.31704489
_cell_length_b   6.83196959
_cell_length_c   8.59334791
_cell_angle_alpha   108.14503681
_cell_angle_beta   90.00000000
_cell_angle_gamma   90.00000000
_symmetry_Int_Tables_number   1
_chemical_formula_structural   K2HBrO
_chemical_formula_sum   'K4 H2 Br2 O2'
_cell_volume   240.84767965
_cell_formula_units_Z   2
loop_
 _symmetry_equiv_pos_site_id
 _symmetry_equiv_pos_as_xyz
  1  'x, y, z'
loop_
 _atom_site_type_symbol
 _atom_site_label
 _atom_site_symmetry_multiplicity
 _atom_site_fract_x
 _atom_site_fract_y
 _atom_site_fract_z
 _atom_site_occupancy
  H  H0  1  0.250000  0.163817  0.788669  1
  H  H1  1  0.750000  0.836183  0.211331  1
  O  O2  1  0.250000  0.314187  0.827191  1
  O  O3  1  0.750000  0.685813  0.172809  1
  K  K4  1  0.750000  0.290891  0.035446  1
  K  K5  1  0.250000  0.709109  0.964554  1
  K  K6  1  0.250000  0.705766  0.383769  1
  K  K7  1  0.750000  0.294234  0.616231  1
  Br  Br8  1  0.250000  0.180579  0.300092  1
  Br  Br9  1  0.750000  0.819421  0.699908  1
