# generated using pymatgen
data_EuYSi4N7
_symmetry_space_group_name_H-M   'P 1'
_cell_length_a   6.05001711
_cell_length_b   6.05001711
_cell_length_c   9.88980688
_cell_angle_alpha   90.00000000
_cell_angle_beta   90.00000000
_cell_angle_gamma   120.00000004
_symmetry_Int_Tables_number   1
_chemical_formula_structural   EuYSi4N7
_chemical_formula_sum   'Eu2 Y2 Si8 N14'
_cell_volume   313.49574349
_cell_formula_units_Z   2
loop_
 _symmetry_equiv_pos_site_id
 _symmetry_equiv_pos_as_xyz
  1  'x, y, z'
loop_
 _atom_site_type_symbol
 _atom_site_label
 _atom_site_symmetry_multiplicity
 _atom_site_fract_x
 _atom_site_fract_y
 _atom_site_fract_z
 _atom_site_occupancy
  N  N0  1  0.000000  0.000000  0.837749  1
  N  N1  1  0.000000  0.000000  0.337749  1
  N  N2  1  0.847045  0.694090  0.088639  1
  N  N3  1  0.152955  0.847045  0.588639  1
  N  N4  1  0.694090  0.847045  0.588639  1
  N  N5  1  0.305910  0.152955  0.088639  1
  N  N6  1  0.847045  0.152955  0.088639  1
  N  N7  1  0.152955  0.305910  0.588639  1
  N  N8  1  0.488997  0.511003  0.812268  1
  N  N9  1  0.977994  0.488997  0.312268  1
  N  N10  1  0.511003  0.022006  0.312268  1
  N  N11  1  0.488997  0.977994  0.812268  1
  N  N12  1  0.511003  0.488997  0.312268  1
  N  N13  1  0.022006  0.511003  0.812268  1
  Si  Si14  1  0.173653  0.347306  0.761136  1
  Si  Si15  1  0.826347  0.173653  0.261136  1
  Si  Si16  1  0.347306  0.173653  0.261136  1
  Si  Si17  1  0.652694  0.826347  0.761136  1
  Si  Si18  1  0.173653  0.826347  0.761136  1
  Si  Si19  1  0.826347  0.652694  0.261136  1
  Si  Si20  1  0.000000  0.000000  0.028218  1
  Si  Si21  1  0.000000  0.000000  0.528218  1
  Y  Y22  1  0.333333  0.666667  0.452450  1
  Y  Y23  1  0.666667  0.333333  0.952450  1
  Eu  Eu24  1  0.333333  0.666667  0.087152  1
  Eu  Eu25  1  0.666667  0.333333  0.587152  1
