# generated using pymatgen
data_Be(BH4)2
_symmetry_space_group_name_H-M   'P 1'
_cell_length_a   9.10137637
_cell_length_b   10.69211187
_cell_length_c   10.69211248
_cell_angle_alpha   79.55516377
_cell_angle_beta   64.80795829
_cell_angle_gamma   64.80795700
_symmetry_Int_Tables_number   1
_chemical_formula_structural   Be(BH4)2
_chemical_formula_sum   'Be8 B16 H64'
_cell_volume   851.96547030
_cell_formula_units_Z   8
loop_
 _symmetry_equiv_pos_site_id
 _symmetry_equiv_pos_as_xyz
  1  'x, y, z'
loop_
 _atom_site_type_symbol
 _atom_site_label
 _atom_site_symmetry_multiplicity
 _atom_site_fract_x
 _atom_site_fract_y
 _atom_site_fract_z
 _atom_site_occupancy
  B  B0  1  0.173371  0.790092  0.880462  1
  B  B1  1  0.303797  0.619552  0.290123  1
  B  B2  1  0.213473  0.380443  0.709864  1
  B  B3  1  0.843912  0.209917  0.119537  1
  B  B4  1  0.713473  0.709864  0.380443  1
  B  B5  1  0.803797  0.290123  0.619552  1
  B  B6  1  0.673371  0.880462  0.790092  1
  B  B7  1  0.343912  0.119537  0.209917  1
  B  B8  1  0.261932  0.053771  0.666223  1
  B  B9  1  0.178159  0.833766  0.553765  1
  B  B10  1  0.565698  0.166245  0.446225  1
  B  B11  1  0.981919  0.946222  0.333758  1
  B  B12  1  0.065698  0.446225  0.166245  1
  B  B13  1  0.678159  0.553765  0.833766  1
  B  B14  1  0.761932  0.666223  0.053771  1
  B  B15  1  0.481919  0.333758  0.946222  1
  Be  Be16  1  0.201618  0.888894  0.709564  1
  Be  Be17  1  0.161118  0.790458  0.388933  1
  Be  Be18  1  0.340528  0.209551  0.611075  1
  Be  Be19  1  0.800058  0.111109  0.290443  1
  Be  Be20  1  0.840528  0.611075  0.209551  1
  Be  Be21  1  0.661118  0.388933  0.790458  1
  Be  Be22  1  0.701618  0.709564  0.888894  1
  Be  Be23  1  0.300058  0.290443  0.111109  1
  H  H24  1  0.154458  0.835668  0.983867  1
  H  H25  1  0.388254  0.516138  0.335752  1
  H  H26  1  0.240100  0.483881  0.664277  1
  H  H27  1  0.973955  0.164317  0.016108  1
  H  H28  1  0.740100  0.664277  0.483881  1
  H  H29  1  0.888254  0.335752  0.516138  1
  H  H30  1  0.654458  0.983867  0.835668  1
  H  H31  1  0.473955  0.016108  0.164317  1
  H  H32  1  0.175655  0.676038  0.884436  1
  H  H33  1  0.310105  0.615564  0.176041  1
  H  H34  1  0.101725  0.384418  0.823963  1
  H  H35  1  0.736139  0.324002  0.115576  1
  H  H36  1  0.601725  0.823963  0.384418  1
  H  H37  1  0.810105  0.176041  0.615564  1
  H  H38  1  0.675655  0.884436  0.676038  1
  H  H39  1  0.236139  0.115576  0.324002  1
  H  H40  1  0.316863  0.790387  0.787930  1
  H  H41  1  0.354738  0.712107  0.290392  1
  H  H42  1  0.357228  0.287880  0.709631  1
  H  H43  1  0.895093  0.209672  0.212094  1
  H  H44  1  0.857228  0.709631  0.287880  1
  H  H45  1  0.854738  0.290392  0.712107  1
  H  H46  1  0.816863  0.787930  0.790387  1
  H  H47  1  0.395093  0.212094  0.209672  1
  H  H48  1  0.050615  0.873082  0.843946  1
  H  H49  1  0.144521  0.656049  0.373129  1
  H  H50  1  0.173707  0.343946  0.626872  1
  H  H51  1  0.767726  0.126869  0.156011  1
  H  H52  1  0.673707  0.626872  0.343946  1
  H  H53  1  0.644521  0.373129  0.656049  1
  H  H54  1  0.550615  0.843946  0.873082  1
  H  H55  1  0.267726  0.156011  0.126869  1
  H  H56  1  0.114937  0.058981  0.746645  1
  H  H57  1  0.111574  0.753360  0.559004  1
  H  H58  1  0.423935  0.246660  0.440996  1
  H  H59  1  0.920569  0.941009  0.253340  1
  H  H60  1  0.923935  0.440996  0.246660  1
  H  H61  1  0.611574  0.559004  0.753360  1
  H  H62  1  0.614937  0.746645  0.058981  1
  H  H63  1  0.420569  0.253340  0.941009  1
  H  H64  1  0.369110  0.939104  0.617753  1
  H  H65  1  0.236843  0.882252  0.439106  1
  H  H66  1  0.558223  0.117750  0.560878  1
  H  H67  1  0.925961  0.060890  0.382229  1
  H  H68  1  0.058223  0.560878  0.117750  1
  H  H69  1  0.736843  0.439106  0.882252  1
  H  H70  1  0.869110  0.617753  0.939104  1
  H  H71  1  0.425961  0.382229  0.060890  1
  H  H72  1  0.242959  0.129770  0.568689  1
  H  H73  1  0.061651  0.931306  0.629778  1
  H  H74  1  0.622727  0.068708  0.370222  1
  H  H75  1  0.941390  0.870238  0.431313  1
  H  H76  1  0.122727  0.370222  0.068708  1
  H  H77  1  0.561651  0.629778  0.931306  1
  H  H78  1  0.742959  0.568689  0.129770  1
  H  H79  1  0.441390  0.431313  0.870238  1
  H  H80  1  0.320157  0.087552  0.733353  1
  H  H81  1  0.303510  0.766635  0.587575  1
  H  H82  1  0.657724  0.233368  0.412424  1
  H  H83  1  0.141063  0.912436  0.266639  1
  H  H84  1  0.157724  0.412424  0.233368  1
  H  H85  1  0.803510  0.587575  0.766635  1
  H  H86  1  0.820157  0.733353  0.087552  1
  H  H87  1  0.641063  0.266639  0.912436  1
