# generated using pymatgen
data_GeI2
_symmetry_space_group_name_H-M   'P 1'
_cell_length_a   4.29526368
_cell_length_b   4.29526375
_cell_length_c   22.14196015
_cell_angle_alpha   90.00000000
_cell_angle_beta   90.00000000
_cell_angle_gamma   119.99999949
_symmetry_Int_Tables_number   1
_chemical_formula_structural   GeI2
_chemical_formula_sum   'Ge3 I6'
_cell_volume   353.77436890
_cell_formula_units_Z   3
loop_
 _symmetry_equiv_pos_site_id
 _symmetry_equiv_pos_as_xyz
  1  'x, y, z'
loop_
 _atom_site_type_symbol
 _atom_site_label
 _atom_site_symmetry_multiplicity
 _atom_site_fract_x
 _atom_site_fract_y
 _atom_site_fract_z
 _atom_site_occupancy
  Ge  Ge0  1  0.000000  0.000000  0.000000  1
  Ge  Ge1  1  0.333333  0.666667  0.331226  1
  Ge  Ge2  1  0.666667  0.333333  0.668774  1
  I  I3  1  0.000000  0.000000  0.252120  1
  I  I4  1  0.000000  0.000000  0.747880  1
  I  I5  1  0.333333  0.666667  0.079394  1
  I  I6  1  0.666667  0.333333  0.920606  1
  I  I7  1  0.333333  0.666667  0.589572  1
  I  I8  1  0.666667  0.333333  0.410428  1
