# generated using pymatgen
data_Y4RuI5
_symmetry_space_group_name_H-M   'P 1'
_cell_length_a   12.43559644
_cell_length_b   12.43559644
_cell_length_c   18.35521984
_cell_angle_alpha   90.00000000
_cell_angle_beta   90.00000000
_cell_angle_gamma   90.00000000
_symmetry_Int_Tables_number   1
_chemical_formula_structural   Y4RuI5
_chemical_formula_sum   'Y32 Ru8 I40'
_cell_volume   2838.52569656
_cell_formula_units_Z   8
loop_
 _symmetry_equiv_pos_site_id
 _symmetry_equiv_pos_as_xyz
  1  'x, y, z'
loop_
 _atom_site_type_symbol
 _atom_site_label
 _atom_site_symmetry_multiplicity
 _atom_site_fract_x
 _atom_site_fract_y
 _atom_site_fract_z
 _atom_site_occupancy
  Y  Y0  1  0.637372  0.362628  0.467955  1
  Y  Y1  1  0.137372  0.637372  0.967955  1
  Y  Y2  1  0.362628  0.862628  0.967955  1
  Y  Y3  1  0.637372  0.137372  0.032045  1
  Y  Y4  1  0.862628  0.362628  0.032045  1
  Y  Y5  1  0.862628  0.137372  0.467955  1
  Y  Y6  1  0.362628  0.637372  0.532045  1
  Y  Y7  1  0.137372  0.862628  0.532045  1
  Y  Y8  1  0.127604  0.872396  0.834488  1
  Y  Y9  1  0.627604  0.127604  0.334488  1
  Y  Y10  1  0.872396  0.372396  0.334488  1
  Y  Y11  1  0.127604  0.627604  0.665512  1
  Y  Y12  1  0.372396  0.872396  0.665512  1
  Y  Y13  1  0.372396  0.627604  0.834488  1
  Y  Y14  1  0.872396  0.127604  0.165512  1
  Y  Y15  1  0.627604  0.372396  0.165512  1
  Y  Y16  1  0.430025  0.364847  0.325260  1
  Y  Y17  1  0.135153  0.430025  0.825260  1
  Y  Y18  1  0.364847  0.069975  0.825260  1
  Y  Y19  1  0.430025  0.135153  0.174740  1
  Y  Y20  1  0.069975  0.364847  0.174740  1
  Y  Y21  1  0.069975  0.135153  0.325260  1
  Y  Y22  1  0.364847  0.430025  0.674740  1
  Y  Y23  1  0.135153  0.069975  0.674740  1
  Y  Y24  1  0.569975  0.635153  0.674740  1
  Y  Y25  1  0.864847  0.569975  0.174740  1
  Y  Y26  1  0.635153  0.930025  0.174740  1
  Y  Y27  1  0.569975  0.864847  0.825260  1
  Y  Y28  1  0.930025  0.635153  0.825260  1
  Y  Y29  1  0.930025  0.864847  0.674740  1
  Y  Y30  1  0.635153  0.569975  0.325260  1
  Y  Y31  1  0.864847  0.930025  0.325260  1
  Ru  Ru32  1  0.645831  0.354169  0.320364  1
  Ru  Ru33  1  0.145831  0.645831  0.820364  1
  Ru  Ru34  1  0.354169  0.854169  0.820364  1
  Ru  Ru35  1  0.645831  0.145831  0.179636  1
  Ru  Ru36  1  0.854169  0.354169  0.179636  1
  Ru  Ru37  1  0.854169  0.145831  0.320364  1
  Ru  Ru38  1  0.354169  0.645831  0.679636  1
  Ru  Ru39  1  0.145831  0.854169  0.679636  1
  I  I40  1  0.355587  0.122509  0.338641  1
  I  I41  1  0.377491  0.355587  0.838641  1
  I  I42  1  0.122509  0.144413  0.838641  1
  I  I43  1  0.355587  0.377491  0.161359  1
  I  I44  1  0.144413  0.122509  0.161359  1
  I  I45  1  0.144413  0.377491  0.338641  1
  I  I46  1  0.122509  0.355587  0.661359  1
  I  I47  1  0.377491  0.144413  0.661359  1
  I  I48  1  0.644413  0.877491  0.661359  1
  I  I49  1  0.622509  0.644413  0.161359  1
  I  I50  1  0.877491  0.855587  0.161359  1
  I  I51  1  0.644413  0.622509  0.838641  1
  I  I52  1  0.855587  0.877491  0.838641  1
  I  I53  1  0.855587  0.622509  0.661359  1
  I  I54  1  0.877491  0.644413  0.338641  1
  I  I55  1  0.622509  0.855587  0.338641  1
  I  I56  1  0.388005  0.611995  0.340481  1
  I  I57  1  0.888005  0.388005  0.840481  1
  I  I58  1  0.611995  0.111995  0.840481  1
  I  I59  1  0.388005  0.888005  0.159519  1
  I  I60  1  0.111995  0.611995  0.159519  1
  I  I61  1  0.111995  0.888005  0.340481  1
  I  I62  1  0.611995  0.388005  0.659519  1
  I  I63  1  0.888005  0.111995  0.659519  1
  I  I64  1  0.119717  0.880283  0.010949  1
  I  I65  1  0.619717  0.119717  0.510949  1
  I  I66  1  0.880283  0.380283  0.510949  1
  I  I67  1  0.119717  0.619717  0.489051  1
  I  I68  1  0.380283  0.880283  0.489051  1
  I  I69  1  0.380283  0.619717  0.010949  1
  I  I70  1  0.880283  0.119717  0.989051  1
  I  I71  1  0.619717  0.380283  0.989051  1
  I  I72  1  0.379888  0.379888  0.500000  1
  I  I73  1  0.120112  0.379888  0.000000  1
  I  I74  1  0.379888  0.120112  0.000000  1
  I  I75  1  0.120112  0.120112  0.500000  1
  I  I76  1  0.620112  0.620112  0.500000  1
  I  I77  1  0.879888  0.620112  0.000000  1
  I  I78  1  0.620112  0.879888  0.000000  1
  I  I79  1  0.879888  0.879888  0.500000  1
