# generated using pymatgen
data_Fe(SbS2)2
_symmetry_space_group_name_H-M   'P 1'
_cell_length_a   3.76513136
_cell_length_b   11.53220111
_cell_length_c   14.31784608
_cell_angle_alpha   90.00000000
_cell_angle_beta   90.00000000
_cell_angle_gamma   90.00000000
_symmetry_Int_Tables_number   1
_chemical_formula_structural   Fe(SbS2)2
_chemical_formula_sum   'Fe4 Sb8 S16'
_cell_volume   621.68448559
_cell_formula_units_Z   4
loop_
 _symmetry_equiv_pos_site_id
 _symmetry_equiv_pos_as_xyz
  1  'x, y, z'
loop_
 _atom_site_type_symbol
 _atom_site_label
 _atom_site_symmetry_multiplicity
 _atom_site_fract_x
 _atom_site_fract_y
 _atom_site_fract_z
 _atom_site_occupancy
  S  S0  1  0.750000  0.271375  0.010455  1
  S  S1  1  0.250000  0.048628  0.097077  1
  S  S2  1  0.750000  0.951372  0.902923  1
  S  S3  1  0.250000  0.548628  0.402923  1
  S  S4  1  0.750000  0.199755  0.727063  1
  S  S5  1  0.250000  0.800245  0.272937  1
  S  S6  1  0.750000  0.699755  0.772937  1
  S  S7  1  0.250000  0.300245  0.227063  1
  S  S8  1  0.750000  0.579974  0.189683  1
  S  S9  1  0.250000  0.420026  0.810317  1
  S  S10  1  0.750000  0.079974  0.310317  1
  S  S11  1  0.250000  0.920026  0.689683  1
  S  S12  1  0.750000  0.771375  0.489545  1
  S  S13  1  0.250000  0.228625  0.510455  1
  S  S14  1  0.250000  0.728625  0.989545  1
  S  S15  1  0.750000  0.451372  0.597077  1
  Fe  Fe16  1  0.750000  0.682489  0.334184  1
  Fe  Fe17  1  0.250000  0.817511  0.834184  1
  Fe  Fe18  1  0.750000  0.182489  0.165816  1
  Fe  Fe19  1  0.250000  0.317511  0.665816  1
  Sb  Sb20  1  0.750000  0.859198  0.063079  1
  Sb  Sb21  1  0.250000  0.140802  0.936921  1
  Sb  Sb22  1  0.750000  0.359198  0.436921  1
  Sb  Sb23  1  0.250000  0.640802  0.563079  1
  Sb  Sb24  1  0.750000  0.037721  0.615215  1
  Sb  Sb25  1  0.250000  0.962279  0.384785  1
  Sb  Sb26  1  0.750000  0.537721  0.884785  1
  Sb  Sb27  1  0.250000  0.462279  0.115215  1
