# generated using pymatgen
data_P2H4PbO4
_symmetry_space_group_name_H-M   'P 1'
_cell_length_a   6.06658301
_cell_length_b   6.09935430
_cell_length_c   8.52849012
_cell_angle_alpha   110.95207887
_cell_angle_beta   93.03096280
_cell_angle_gamma   90.00000002
_symmetry_Int_Tables_number   1
_chemical_formula_structural   P2H4PbO4
_chemical_formula_sum   'P4 H8 Pb2 O8'
_cell_volume   294.23471827
_cell_formula_units_Z   2
loop_
 _symmetry_equiv_pos_site_id
 _symmetry_equiv_pos_as_xyz
  1  'x, y, z'
loop_
 _atom_site_type_symbol
 _atom_site_label
 _atom_site_symmetry_multiplicity
 _atom_site_fract_x
 _atom_site_fract_y
 _atom_site_fract_z
 _atom_site_occupancy
  H  H0  1  0.352409  0.177449  0.611531  1
  H  H1  1  0.647591  0.822551  0.388469  1
  H  H2  1  0.852409  0.434081  0.611531  1
  H  H3  1  0.147591  0.565919  0.388469  1
  H  H4  1  0.907777  0.075313  0.387112  1
  H  H5  1  0.592223  0.688201  0.612888  1
  H  H6  1  0.407777  0.311799  0.387112  1
  H  H7  1  0.092223  0.924687  0.612888  1
  O  O8  1  0.886829  0.816265  0.825834  1
  O  O9  1  0.613171  0.990431  0.174166  1
  O  O10  1  0.416712  0.492739  0.179888  1
  O  O11  1  0.916712  0.687149  0.179888  1
  O  O12  1  0.083289  0.312851  0.820112  1
  O  O13  1  0.583288  0.507261  0.820112  1
  O  O14  1  0.113171  0.183735  0.174166  1
  O  O15  1  0.386829  0.009569  0.825834  1
  P  P16  1  0.771146  0.890263  0.276355  1
  P  P17  1  0.728854  0.613908  0.723645  1
  P  P18  1  0.228854  0.109737  0.723645  1
  P  P19  1  0.271146  0.386092  0.276355  1
  Pb  Pb20  1  0.750000  0.249722  0.000000  1
  Pb  Pb21  1  0.250000  0.750278  0.000000  1
