# generated using pymatgen
data_Tb16B4Br23
_symmetry_space_group_name_H-M   'P 1'
_cell_length_a   10.80129840
_cell_length_b   10.80129839
_cell_length_c   12.16386644
_cell_angle_alpha   78.18028330
_cell_angle_beta   78.18028328
_cell_angle_gamma   68.62723473
_symmetry_Int_Tables_number   1
_chemical_formula_structural   Tb16B4Br23
_chemical_formula_sum   'Tb16 B4 Br23'
_cell_volume   1280.25716972
_cell_formula_units_Z   1
loop_
 _symmetry_equiv_pos_site_id
 _symmetry_equiv_pos_as_xyz
  1  'x, y, z'
loop_
 _atom_site_type_symbol
 _atom_site_label
 _atom_site_symmetry_multiplicity
 _atom_site_fract_x
 _atom_site_fract_y
 _atom_site_fract_z
 _atom_site_occupancy
  B  B0  1  0.666622  0.666622  0.772889  1
  B  B1  1  0.333378  0.333378  0.227111  1
  B  B2  1  0.669192  0.330808  0.000000  1
  B  B3  1  0.330808  0.669192  0.000000  1
  Br  Br4  1  0.000000  0.000000  0.000000  1
  Br  Br5  1  0.985587  0.985587  0.692796  1
  Br  Br6  1  0.014413  0.014413  0.307204  1
  Br  Br7  1  0.333216  0.333216  0.887180  1
  Br  Br8  1  0.666784  0.666784  0.112820  1
  Br  Br9  1  0.340626  0.001926  0.441508  1
  Br  Br10  1  0.998074  0.659374  0.558492  1
  Br  Br11  1  0.659374  0.998074  0.558492  1
  Br  Br12  1  0.001926  0.340626  0.441508  1
  Br  Br13  1  0.337866  0.668191  0.334985  1
  Br  Br14  1  0.331809  0.662134  0.665015  1
  Br  Br15  1  0.662134  0.331809  0.665015  1
  Br  Br16  1  0.340783  0.002841  0.105569  1
  Br  Br17  1  0.997159  0.659217  0.894431  1
  Br  Br18  1  0.659217  0.997159  0.894431  1
  Br  Br19  1  0.002841  0.340783  0.105569  1
  Br  Br20  1  0.327455  0.997742  0.776509  1
  Br  Br21  1  0.002258  0.672545  0.223491  1
  Br  Br22  1  0.672545  0.002258  0.223491  1
  Br  Br23  1  0.997742  0.327455  0.776509  1
  Br  Br24  1  0.335193  0.335193  0.549979  1
  Br  Br25  1  0.664807  0.664807  0.450021  1
  Br  Br26  1  0.668191  0.337866  0.334985  1
  Tb  Tb27  1  0.811443  0.811443  0.727355  1
  Tb  Tb28  1  0.188557  0.188557  0.272645  1
  Tb  Tb29  1  0.808568  0.195758  0.150375  1
  Tb  Tb30  1  0.804242  0.191432  0.849625  1
  Tb  Tb31  1  0.191432  0.804242  0.849625  1
  Tb  Tb32  1  0.195758  0.808568  0.150375  1
  Tb  Tb33  1  0.484925  0.191191  0.370510  1
  Tb  Tb34  1  0.808809  0.515075  0.629490  1
  Tb  Tb35  1  0.515075  0.808809  0.629490  1
  Tb  Tb36  1  0.191191  0.484925  0.370510  1
  Tb  Tb37  1  0.797347  0.498969  0.937211  1
  Tb  Tb38  1  0.501031  0.202653  0.062789  1
  Tb  Tb39  1  0.202653  0.501031  0.062789  1
  Tb  Tb40  1  0.498969  0.797347  0.937211  1
  Tb  Tb41  1  0.506035  0.506035  0.850484  1
  Tb  Tb42  1  0.493965  0.493965  0.149516  1
