# generated using pymatgen
data_Mo6PbSe8
_symmetry_space_group_name_H-M   'P 1'
_cell_length_a   6.89939823
_cell_length_b   6.89939823
_cell_length_c   6.89939823
_cell_angle_alpha   89.17204201
_cell_angle_beta   89.17204209
_cell_angle_gamma   89.17204205
_symmetry_Int_Tables_number   1
_chemical_formula_structural   Mo6PbSe8
_chemical_formula_sum   'Mo6 Pb1 Se8'
_cell_volume   328.32116725
_cell_formula_units_Z   1
loop_
 _symmetry_equiv_pos_site_id
 _symmetry_equiv_pos_as_xyz
  1  'x, y, z'
loop_
 _atom_site_type_symbol
 _atom_site_label
 _atom_site_symmetry_multiplicity
 _atom_site_fract_x
 _atom_site_fract_y
 _atom_site_fract_z
 _atom_site_occupancy
  Se  Se0  1  0.878212  0.255055  0.618493  1
  Se  Se1  1  0.255055  0.618493  0.878212  1
  Se  Se2  1  0.618493  0.878212  0.255055  1
  Se  Se3  1  0.121788  0.744945  0.381507  1
  Se  Se4  1  0.744945  0.381507  0.121788  1
  Se  Se5  1  0.381507  0.121788  0.744945  1
  Se  Se6  1  0.756590  0.756590  0.756590  1
  Se  Se7  1  0.243410  0.243410  0.243410  1
  Mo  Mo8  1  0.239859  0.422087  0.560568  1
  Mo  Mo9  1  0.577913  0.439432  0.760141  1
  Mo  Mo10  1  0.439432  0.760141  0.577913  1
  Mo  Mo11  1  0.760141  0.577913  0.439432  1
  Mo  Mo12  1  0.422087  0.560568  0.239859  1
  Mo  Mo13  1  0.560568  0.239859  0.422087  1
  Pb  Pb14  1  0.000000  0.000000  0.000000  1
