# generated using pymatgen
data_Sb2(SO4)3
_symmetry_space_group_name_H-M   'P 1'
_cell_length_a   4.89842004
_cell_length_b   13.36409288
_cell_length_c   14.71138847
_cell_angle_alpha   100.60360203
_cell_angle_beta   90.00000000
_cell_angle_gamma   90.00000000
_symmetry_Int_Tables_number   1
_chemical_formula_structural   Sb2(SO4)3
_chemical_formula_sum   'Sb8 S12 O48'
_cell_volume   946.60548237
_cell_formula_units_Z   4
loop_
 _symmetry_equiv_pos_site_id
 _symmetry_equiv_pos_as_xyz
  1  'x, y, z'
loop_
 _atom_site_type_symbol
 _atom_site_label
 _atom_site_symmetry_multiplicity
 _atom_site_fract_x
 _atom_site_fract_y
 _atom_site_fract_z
 _atom_site_occupancy
  O  O0  1  0.854034  0.937758  0.207788  1
  O  O1  1  0.354034  0.562242  0.292212  1
  O  O2  1  0.145966  0.062242  0.792212  1
  O  O3  1  0.645966  0.437758  0.707788  1
  O  O4  1  0.043757  0.860604  0.061687  1
  O  O5  1  0.543757  0.639396  0.438313  1
  O  O6  1  0.956243  0.139396  0.938313  1
  O  O7  1  0.456243  0.360604  0.561687  1
  O  O8  1  0.577607  0.932945  0.069440  1
  O  O9  1  0.077607  0.567055  0.430560  1
  O  O10  1  0.422393  0.067055  0.930560  1
  O  O11  1  0.922393  0.432945  0.569440  1
  O  O12  1  0.973104  0.045177  0.096123  1
  O  O13  1  0.473104  0.454823  0.403877  1
  O  O14  1  0.026896  0.954823  0.903877  1
  O  O15  1  0.526896  0.545177  0.596123  1
  O  O16  1  0.937002  0.747429  0.888691  1
  O  O17  1  0.535102  0.657712  0.828680  1
  O  O18  1  0.464898  0.342288  0.171320  1
  O  O19  1  0.964898  0.157712  0.328680  1
  O  O20  1  0.038168  0.755255  0.312600  1
  O  O21  1  0.538168  0.744745  0.187400  1
  O  O22  1  0.961832  0.244745  0.687400  1
  O  O23  1  0.461832  0.255255  0.812600  1
  O  O24  1  0.641396  0.859363  0.375417  1
  O  O25  1  0.141396  0.640637  0.124583  1
  O  O26  1  0.358604  0.140637  0.624583  1
  O  O27  1  0.858604  0.359363  0.875417  1
  O  O28  1  0.942687  0.799807  0.480153  1
  O  O29  1  0.442687  0.700193  0.019847  1
  O  O30  1  0.057313  0.200193  0.519847  1
  O  O31  1  0.557313  0.299807  0.980153  1
  O  O32  1  0.110871  0.926881  0.395071  1
  O  O33  1  0.610871  0.573119  0.104929  1
  O  O34  1  0.889129  0.073119  0.604929  1
  O  O35  1  0.389129  0.426881  0.895071  1
  O  O36  1  0.553310  0.143912  0.230584  1
  O  O37  1  0.053310  0.356088  0.269416  1
  O  O38  1  0.446690  0.856088  0.769416  1
  O  O39  1  0.946690  0.643912  0.730584  1
  O  O40  1  0.560350  0.063311  0.366046  1
  O  O41  1  0.060350  0.436689  0.133954  1
  O  O42  1  0.439650  0.936689  0.633954  1
  O  O43  1  0.939650  0.563311  0.866046  1
  O  O44  1  0.562998  0.247429  0.388691  1
  O  O45  1  0.062998  0.252570  0.111309  1
  O  O46  1  0.437002  0.752571  0.611309  1
  O  O47  1  0.035102  0.842288  0.671320  1
  S  S48  1  0.854998  0.944466  0.107206  1
  S  S49  1  0.354998  0.555534  0.392794  1
  S  S50  1  0.145002  0.055534  0.892794  1
  S  S51  1  0.645002  0.444466  0.607206  1
  S  S52  1  0.830863  0.652415  0.823365  1
  S  S53  1  0.330863  0.847585  0.676635  1
  S  S54  1  0.169137  0.347585  0.176635  1
  S  S55  1  0.669137  0.152415  0.323365  1
  S  S56  1  0.558852  0.332130  0.889904  1
  S  S57  1  0.058852  0.167870  0.610096  1
  S  S58  1  0.441148  0.667870  0.110096  1
  S  S59  1  0.941148  0.832130  0.389904  1
  Sb  Sb60  1  0.291507  0.825453  0.937290  1
  Sb  Sb61  1  0.791507  0.674547  0.562710  1
  Sb  Sb62  1  0.708493  0.174547  0.062710  1
  Sb  Sb63  1  0.208493  0.325453  0.437290  1
  Sb  Sb64  1  0.074151  0.426655  0.783611  1
  Sb  Sb65  1  0.574151  0.073345  0.716389  1
  Sb  Sb66  1  0.925849  0.573345  0.216389  1
  Sb  Sb67  1  0.425849  0.926655  0.283611  1
