# generated using pymatgen
data_VInO4
_symmetry_space_group_name_H-M   'P 1'
_cell_length_a   5.23095081
_cell_length_b   5.23095082
_cell_length_c   6.75401002
_cell_angle_alpha   90.00000000
_cell_angle_beta   90.00000000
_cell_angle_gamma   112.07578623
_symmetry_Int_Tables_number   1
_chemical_formula_structural   VInO4
_chemical_formula_sum   'V2 In2 O8'
_cell_volume   171.26014183
_cell_formula_units_Z   2
loop_
 _symmetry_equiv_pos_site_id
 _symmetry_equiv_pos_as_xyz
  1  'x, y, z'
loop_
 _atom_site_type_symbol
 _atom_site_label
 _atom_site_symmetry_multiplicity
 _atom_site_fract_x
 _atom_site_fract_y
 _atom_site_fract_z
 _atom_site_occupancy
  O  O0  1  0.246727  0.753273  0.545497  1
  O  O1  1  0.753273  0.246727  0.045497  1
  O  O2  1  0.753273  0.246727  0.454503  1
  O  O3  1  0.246727  0.753273  0.954503  1
  O  O4  1  0.732745  0.783579  0.750000  1
  O  O5  1  0.267255  0.216421  0.250000  1
  O  O6  1  0.783579  0.732745  0.250000  1
  O  O7  1  0.216421  0.267255  0.750000  1
  V  V8  1  0.640637  0.359363  0.250000  1
  V  V9  1  0.359363  0.640637  0.750000  1
  In  In10  1  0.000000  0.000000  0.500000  1
  In  In11  1  0.000000  0.000000  0.000000  1
