# generated using pymatgen
data_SrV6O11
_symmetry_space_group_name_H-M   'P 1'
_cell_length_a   5.91097755
_cell_length_b   5.91097755
_cell_length_c   13.41257507
_cell_angle_alpha   90.00000000
_cell_angle_beta   90.00000000
_cell_angle_gamma   120.00000004
_symmetry_Int_Tables_number   1
_chemical_formula_structural   SrV6O11
_chemical_formula_sum   'Sr2 V12 O22'
_cell_volume   405.84613766
_cell_formula_units_Z   2
loop_
 _symmetry_equiv_pos_site_id
 _symmetry_equiv_pos_as_xyz
  1  'x, y, z'
loop_
 _atom_site_type_symbol
 _atom_site_label
 _atom_site_symmetry_multiplicity
 _atom_site_fract_x
 _atom_site_fract_y
 _atom_site_fract_z
 _atom_site_occupancy
  O  O0  1  0.333333  0.666667  0.922538  1
  O  O1  1  0.666667  0.333333  0.422538  1
  O  O2  1  0.333333  0.666667  0.591894  1
  O  O3  1  0.666667  0.333333  0.091894  1
  O  O4  1  0.851756  0.148244  0.257239  1
  O  O5  1  0.703512  0.851756  0.757239  1
  O  O6  1  0.148244  0.296488  0.757239  1
  O  O7  1  0.851756  0.703512  0.257239  1
  O  O8  1  0.296488  0.148244  0.257239  1
  O  O9  1  0.148244  0.851756  0.757239  1
  O  O10  1  0.824227  0.175773  0.927939  1
  O  O11  1  0.648454  0.824227  0.427939  1
  O  O12  1  0.175773  0.351546  0.427939  1
  O  O13  1  0.824227  0.648454  0.927939  1
  O  O14  1  0.175832  0.824168  0.086570  1
  O  O15  1  0.351664  0.175832  0.586570  1
  O  O16  1  0.824168  0.648335  0.586570  1
  O  O17  1  0.175832  0.351664  0.086570  1
  O  O18  1  0.648335  0.824168  0.086570  1
  O  O19  1  0.824168  0.175832  0.586570  1
  O  O20  1  0.175773  0.824227  0.427939  1
  O  O21  1  0.351546  0.175773  0.927939  1
  V  V22  1  0.333333  0.666667  0.757295  1
  V  V23  1  0.666667  0.333333  0.257295  1
  V  V24  1  0.000000  0.000000  0.861422  1
  V  V25  1  0.000000  0.000000  0.361422  1
  V  V26  1  0.000000  0.000000  0.653036  1
  V  V27  1  0.000000  0.000000  0.153036  1
  V  V28  1  0.499986  0.500014  0.507214  1
  V  V29  1  0.999971  0.499986  0.007214  1
  V  V30  1  0.500014  0.000029  0.007214  1
  V  V31  1  0.499986  0.999971  0.507214  1
  V  V32  1  0.000029  0.500014  0.507214  1
  V  V33  1  0.500014  0.499986  0.007214  1
  Sr  Sr34  1  0.666667  0.333333  0.756927  1
  Sr  Sr35  1  0.333333  0.666667  0.256927  1
