# generated using pymatgen
data_Re(TeCl6)2
_symmetry_space_group_name_H-M   'P 1'
_cell_length_a   6.76787707
_cell_length_b   7.23238182
_cell_length_c   11.30611822
_cell_angle_alpha   71.91777227
_cell_angle_beta   88.41772901
_cell_angle_gamma   63.12759735
_symmetry_Int_Tables_number   1
_chemical_formula_structural   Re(TeCl6)2
_chemical_formula_sum   'Re1 Te2 Cl12'
_cell_volume   465.10841975
_cell_formula_units_Z   1
loop_
 _symmetry_equiv_pos_site_id
 _symmetry_equiv_pos_as_xyz
  1  'x, y, z'
loop_
 _atom_site_type_symbol
 _atom_site_label
 _atom_site_symmetry_multiplicity
 _atom_site_fract_x
 _atom_site_fract_y
 _atom_site_fract_z
 _atom_site_occupancy
  Cl  Cl0  1  0.972343  0.724097  0.586710  1
  Cl  Cl1  1  0.027657  0.275903  0.413290  1
  Cl  Cl2  1  0.429527  0.728264  0.702799  1
  Cl  Cl3  1  0.606045  0.216067  0.980400  1
  Cl  Cl4  1  0.393955  0.783933  0.019600  1
  Cl  Cl5  1  -0.011073  0.765514  0.197509  1
  Cl  Cl6  1  1.011073  0.234486  0.802491  1
  Cl  Cl7  1  0.945435  0.781837  0.898259  1
  Cl  Cl8  1  0.054565  0.218163  0.101741  1
  Cl  Cl9  1  0.518367  0.735671  0.351163  1
  Cl  Cl10  1  0.481633  0.264329  0.648837  1
  Cl  Cl11  1  0.570473  0.271736  0.297201  1
  Te  Te12  1  0.259785  0.498152  0.757575  1
  Te  Te13  1  0.740215  0.501848  0.242425  1
  Re  Re14  1  0.000000  0.000000  0.000000  1
