# generated using pymatgen
data_Ba3Sb2O
_symmetry_space_group_name_H-M   'P 1'
_cell_length_a   5.15433099
_cell_length_b   12.61564011
_cell_length_c   12.91947358
_cell_angle_alpha   90.00000000
_cell_angle_beta   90.00000000
_cell_angle_gamma   90.00000000
_symmetry_Int_Tables_number   1
_chemical_formula_structural   Ba3Sb2O
_chemical_formula_sum   'Ba12 Sb8 O4'
_cell_volume   840.09115677
_cell_formula_units_Z   4
loop_
 _symmetry_equiv_pos_site_id
 _symmetry_equiv_pos_as_xyz
  1  'x, y, z'
loop_
 _atom_site_type_symbol
 _atom_site_label
 _atom_site_symmetry_multiplicity
 _atom_site_fract_x
 _atom_site_fract_y
 _atom_site_fract_z
 _atom_site_occupancy
  O  O0  1  0.000000  0.270475  0.805860  1
  O  O1  1  0.000000  0.729525  0.194140  1
  O  O2  1  0.000000  0.770475  0.694140  1
  O  O3  1  0.000000  0.229525  0.305860  1
  Sb  Sb4  1  0.500000  0.988465  0.887956  1
  Sb  Sb5  1  0.500000  0.488465  0.612044  1
  Sb  Sb6  1  0.500000  0.511535  0.387956  1
  Sb  Sb7  1  0.500000  0.011535  0.112044  1
  Sb  Sb8  1  0.500000  0.112393  0.521394  1
  Sb  Sb9  1  0.500000  0.887607  0.478606  1
  Sb  Sb10  1  0.500000  0.612393  0.978606  1
  Sb  Sb11  1  0.500000  0.387607  0.021394  1
  Ba  Ba12  1  0.500000  0.243646  0.758635  1
  Ba  Ba13  1  0.500000  0.756354  0.241365  1
  Ba  Ba14  1  0.500000  0.743646  0.741365  1
  Ba  Ba15  1  0.500000  0.256354  0.258635  1
  Ba  Ba16  1  0.000000  0.179949  0.982704  1
  Ba  Ba17  1  0.000000  0.820051  0.017296  1
  Ba  Ba18  1  0.000000  0.679949  0.517296  1
  Ba  Ba19  1  0.000000  0.320051  0.482704  1
  Ba  Ba20  1  0.000000  0.471149  0.828512  1
  Ba  Ba21  1  0.000000  0.528851  0.171488  1
  Ba  Ba22  1  0.000000  0.971149  0.671488  1
  Ba  Ba23  1  0.000000  0.028851  0.328512  1
