# generated using pymatgen
data_H5NO5
_symmetry_space_group_name_H-M   'P 1'
_cell_length_a   6.77249668
_cell_length_b   9.69906848
_cell_length_c   13.00210928
_cell_angle_alpha   90.00000000
_cell_angle_beta   90.00000000
_cell_angle_gamma   98.22310758
_symmetry_Int_Tables_number   1
_chemical_formula_structural   H5NO5
_chemical_formula_sum   'H40 N8 O40'
_cell_volume   845.28737526
_cell_formula_units_Z   8
loop_
 _symmetry_equiv_pos_site_id
 _symmetry_equiv_pos_as_xyz
  1  'x, y, z'
loop_
 _atom_site_type_symbol
 _atom_site_label
 _atom_site_symmetry_multiplicity
 _atom_site_fract_x
 _atom_site_fract_y
 _atom_site_fract_z
 _atom_site_occupancy
  H  H0  1  0.760766  0.040724  0.225823  1
  H  H1  1  0.137449  0.257688  0.963652  1
  H  H2  1  0.637449  0.757688  0.536348  1
  H  H3  1  0.362551  0.242312  0.463652  1
  H  H4  1  0.739234  0.459276  0.725823  1
  H  H5  1  0.239234  0.959276  0.774177  1
  H  H6  1  0.260766  0.540724  0.274177  1
  H  H7  1  0.707022  0.163251  0.150025  1
  H  H8  1  0.792978  0.336749  0.650025  1
  H  H9  1  0.292978  0.836749  0.849975  1
  H  H10  1  0.207022  0.663251  0.349975  1
  H  H11  1  0.829434  0.404425  0.333904  1
  H  H12  1  0.670566  0.095575  0.833904  1
  H  H13  1  0.170566  0.595575  0.666096  1
  H  H14  1  0.329434  0.904425  0.166096  1
  H  H15  1  0.812844  0.233493  0.286359  1
  H  H16  1  0.687156  0.266507  0.786359  1
  H  H17  1  0.187156  0.766507  0.713641  1
  H  H18  1  0.312844  0.733493  0.213641  1
  H  H19  1  0.873511  0.280517  0.412734  1
  H  H20  1  0.626489  0.219483  0.912734  1
  H  H21  1  0.126489  0.719483  0.587266  1
  H  H22  1  0.373511  0.780517  0.087266  1
  H  H23  1  0.863706  0.775316  0.168727  1
  H  H24  1  0.862551  0.742312  0.036348  1
  H  H25  1  0.363706  0.275316  0.331273  1
  H  H26  1  0.136294  0.224684  0.831273  1
  H  H27  1  0.636294  0.724684  0.668727  1
  H  H28  1  0.523421  0.598047  0.791064  1
  H  H29  1  0.023421  0.098047  0.708936  1
  H  H30  1  0.476579  0.401953  0.208936  1
  H  H31  1  0.761218  0.823329  0.312729  1
  H  H32  1  0.738782  0.676671  0.812729  1
  H  H33  1  0.238782  0.176671  0.687271  1
  H  H34  1  0.261218  0.323329  0.187271  1
  H  H35  1  0.816775  0.608606  0.120808  1
  H  H36  1  0.683225  0.891394  0.620808  1
  H  H37  1  0.183225  0.391394  0.879192  1
  H  H38  1  0.316775  0.108606  0.379192  1
  H  H39  1  0.976579  0.901953  0.291064  1
  N  N40  1  0.710862  0.595519  0.418480  1
  N  N41  1  0.789138  0.904481  0.918480  1
  N  N42  1  0.289138  0.404481  0.581520  1
  N  N43  1  0.210862  0.095519  0.081520  1
  N  N44  1  0.696029  0.395931  0.039151  1
  N  N45  1  0.803971  0.104069  0.539151  1
  N  N46  1  0.303971  0.604069  0.960849  1
  N  N47  1  0.196029  0.895931  0.460849  1
  O  O48  1  0.717356  0.134005  0.222176  1
  O  O49  1  0.782644  0.365995  0.722176  1
  O  O50  1  0.282644  0.865995  0.777824  1
  O  O51  1  0.888461  0.313344  0.338451  1
  O  O52  1  0.611539  0.186656  0.838451  1
  O  O53  1  0.111539  0.686656  0.661549  1
  O  O54  1  0.388461  0.813344  0.161549  1
  O  O55  1  0.732172  0.529122  0.498313  1
  O  O56  1  0.767828  0.970878  0.998313  1
  O  O57  1  0.267828  0.470878  0.501687  1
  O  O58  1  0.232172  0.029122  0.001687  1
  O  O59  1  0.737669  0.547496  0.329393  1
  O  O60  1  0.762331  0.952504  0.829393  1
  O  O61  1  0.262331  0.452504  0.670607  1
  O  O62  1  0.237669  0.047496  0.170607  1
  O  O63  1  0.660156  0.719193  0.423251  1
  O  O64  1  0.839844  0.780807  0.923251  1
  O  O65  1  0.339844  0.280807  0.576749  1
  O  O66  1  0.160156  0.219193  0.076749  1
  O  O67  1  0.844863  0.874820  0.258206  1
  O  O68  1  0.655137  0.625180  0.758206  1
  O  O69  1  0.155137  0.125180  0.741794  1
  O  O70  1  0.344863  0.374820  0.241794  1
  O  O71  1  0.889134  0.707444  0.109862  1
  O  O72  1  0.610866  0.792556  0.609862  1
  O  O73  1  0.110866  0.292556  0.890138  1
  O  O74  1  0.389134  0.207444  0.390138  1
  O  O75  1  0.732066  0.468660  0.961124  1
  O  O76  1  0.767934  0.031340  0.461124  1
  O  O77  1  0.267934  0.531340  0.038876  1
  O  O78  1  0.232066  0.968660  0.538876  1
  O  O79  1  0.710692  0.450435  0.129692  1
  O  O80  1  0.789308  0.049565  0.629692  1
  O  O81  1  0.289308  0.549565  0.870308  1
  O  O82  1  0.210692  0.950435  0.370308  1
  O  O83  1  0.642744  0.264108  0.032926  1
  O  O84  1  0.857256  0.235892  0.532926  1
  O  O85  1  0.357256  0.735892  0.967074  1
  O  O86  1  0.142744  0.764108  0.467074  1
  O  O87  1  0.217356  0.634005  0.277824  1
