# generated using pymatgen
data_Nb2SiTe4
_symmetry_space_group_name_H-M   'P 1'
_cell_length_a   6.40375548
_cell_length_b   7.96872176
_cell_length_c   15.46859489
_cell_angle_alpha   90.00000000
_cell_angle_beta   97.47549177
_cell_angle_gamma   90.00000000
_symmetry_Int_Tables_number   1
_chemical_formula_structural   Nb2SiTe4
_chemical_formula_sum   'Nb8 Si4 Te16'
_cell_volume   782.64939171
_cell_formula_units_Z   4
loop_
 _symmetry_equiv_pos_site_id
 _symmetry_equiv_pos_as_xyz
  1  'x, y, z'
loop_
 _atom_site_type_symbol
 _atom_site_label
 _atom_site_symmetry_multiplicity
 _atom_site_fract_x
 _atom_site_fract_y
 _atom_site_fract_z
 _atom_site_occupancy
  Si  Si0  1  1.000010  0.625364  0.249926  1
  Si  Si1  1  0.499990  0.125364  0.250074  1
  Si  Si2  1  -0.000010  0.374636  0.750074  1
  Si  Si3  1  0.500010  0.874636  0.749926  1
  Nb  Nb4  1  0.103989  0.037378  0.749942  1
  Nb  Nb5  1  0.396011  0.537378  0.750058  1
  Nb  Nb6  1  0.896011  0.962622  0.250058  1
  Nb  Nb7  1  0.603989  0.462622  0.249942  1
  Nb  Nb8  1  0.395851  0.788024  0.250022  1
  Nb  Nb9  1  0.104149  0.288024  0.249978  1
  Nb  Nb10  1  0.604149  0.211976  0.749978  1
  Nb  Nb11  1  0.895851  0.711976  0.750022  1
  Te  Te12  1  0.739437  0.983033  0.626580  1
  Te  Te13  1  0.760563  0.483033  0.873420  1
  Te  Te14  1  0.260563  0.016967  0.373420  1
  Te  Te15  1  0.239437  0.516967  0.126580  1
  Te  Te16  1  0.260545  0.766490  0.873354  1
  Te  Te17  1  0.239455  0.266490  0.626646  1
  Te  Te18  1  0.739455  0.233510  0.126646  1
  Te  Te19  1  0.760545  0.733510  0.373354  1
  Te  Te20  1  0.683073  0.483099  0.626618  1
  Te  Te21  1  0.816927  0.983099  0.873382  1
  Te  Te22  1  0.316927  0.516901  0.373382  1
  Te  Te23  1  0.183073  0.016901  0.126618  1
  Te  Te24  1  0.317227  0.265987  0.873377  1
  Te  Te25  1  0.182773  0.765987  0.626623  1
  Te  Te26  1  0.682773  0.734013  0.126623  1
  Te  Te27  1  0.817227  0.234013  0.373377  1
