# generated using pymatgen
data_Cs2Cu5Se4
_symmetry_space_group_name_H-M   'P 1'
_cell_length_a   4.01408990
_cell_length_b   10.00804073
_cell_length_c   13.29051081
_cell_angle_alpha   90.00000000
_cell_angle_beta   90.00000000
_cell_angle_gamma   101.56872823
_symmetry_Int_Tables_number   1
_chemical_formula_structural   Cs2Cu5Se4
_chemical_formula_sum   'Cs4 Cu10 Se8'
_cell_volume   523.07531399
_cell_formula_units_Z   2
loop_
 _symmetry_equiv_pos_site_id
 _symmetry_equiv_pos_as_xyz
  1  'x, y, z'
loop_
 _atom_site_type_symbol
 _atom_site_label
 _atom_site_symmetry_multiplicity
 _atom_site_fract_x
 _atom_site_fract_y
 _atom_site_fract_z
 _atom_site_occupancy
  Cu  Cu0  1  0.784786  0.569571  0.041221  1
  Cu  Cu1  1  0.215214  0.430429  0.541221  1
  Cu  Cu2  1  0.784786  0.569571  0.458779  1
  Cu  Cu3  1  0.215214  0.430429  0.958779  1
  Cu  Cu4  1  0.083960  0.167919  0.750000  1
  Cu  Cu5  1  0.916040  0.832081  0.250000  1
  Cu  Cu6  1  0.648156  0.296312  0.657565  1
  Cu  Cu7  1  0.351844  0.703688  0.342435  1
  Cu  Cu8  1  0.351844  0.703688  0.157565  1
  Cu  Cu9  1  0.648156  0.296312  0.842435  1
  Se  Se10  1  0.342547  0.685095  0.979141  1
  Se  Se11  1  0.342547  0.685095  0.520859  1
  Se  Se12  1  0.657453  0.314905  0.020859  1
  Se  Se13  1  0.657453  0.314905  0.479141  1
  Se  Se14  1  0.206621  0.413242  0.750000  1
  Se  Se15  1  0.793379  0.586758  0.250000  1
  Se  Se16  1  0.518897  0.037795  0.750000  1
  Se  Se17  1  0.481103  0.962205  0.250000  1
  Cs  Cs18  1  0.141907  0.283814  0.250000  1
  Cs  Cs19  1  0.858093  0.716186  0.750000  1
  Cs  Cs20  1  0.000000  0.000000  0.500000  1
  Cs  Cs21  1  0.000000  0.000000  0.000000  1
