# generated using pymatgen
data_Ca2InPd2
_symmetry_space_group_name_H-M   'P 1'
_cell_length_a   5.77216232
_cell_length_b   5.88471652
_cell_length_c   8.23659822
_cell_angle_alpha   102.82209813
_cell_angle_beta   90.00000000
_cell_angle_gamma   119.36929096
_symmetry_Int_Tables_number   1
_chemical_formula_structural   Ca2InPd2
_chemical_formula_sum   'Ca4 In2 Pd4'
_cell_volume   235.78100101
_cell_formula_units_Z   2
loop_
 _symmetry_equiv_pos_site_id
 _symmetry_equiv_pos_as_xyz
  1  'x, y, z'
loop_
 _atom_site_type_symbol
 _atom_site_label
 _atom_site_symmetry_multiplicity
 _atom_site_fract_x
 _atom_site_fract_y
 _atom_site_fract_z
 _atom_site_occupancy
  Ca  Ca0  1  0.205760  0.701279  0.350402  1
  Ca  Ca1  1  0.504482  0.298721  0.149598  1
  Ca  Ca2  1  0.794240  0.298721  0.649598  1
  Ca  Ca3  1  0.495518  0.701279  0.850402  1
  Pd  Pd4  1  0.996132  0.267870  0.002791  1
  Pd  Pd5  1  0.728262  0.732130  0.497209  1
  Pd  Pd6  1  0.003868  0.732130  0.997209  1
  Pd  Pd7  1  0.271738  0.267870  0.502791  1
  In  In8  1  0.847678  0.000000  0.250000  1
  In  In9  1  0.152322  0.000000  0.750000  1
