# generated using pymatgen
data_Na6S2ClO8F
_symmetry_space_group_name_H-M   'P 1'
_cell_length_a   7.21007566
_cell_length_b   7.21007566
_cell_length_c   7.21007566
_cell_angle_alpha   60.00000002
_cell_angle_beta   60.00000002
_cell_angle_gamma   60.00000004
_symmetry_Int_Tables_number   1
_chemical_formula_structural   Na6S2ClO8F
_chemical_formula_sum   'Na6 S2 Cl1 O8 F1'
_cell_volume   265.03575634
_cell_formula_units_Z   1
loop_
 _symmetry_equiv_pos_site_id
 _symmetry_equiv_pos_as_xyz
  1  'x, y, z'
loop_
 _atom_site_type_symbol
 _atom_site_label
 _atom_site_symmetry_multiplicity
 _atom_site_fract_x
 _atom_site_fract_y
 _atom_site_fract_z
 _atom_site_occupancy
  O  O0  1  0.834648  0.834648  0.834648  1
  O  O1  1  0.165352  0.165352  0.503944  1
  O  O2  1  0.165352  0.503944  0.165352  1
  O  O3  1  0.503944  0.165352  0.165352  1
  O  O4  1  0.834648  0.496056  0.834648  1
  O  O5  1  0.496056  0.834648  0.834648  1
  O  O6  1  0.834648  0.834648  0.496056  1
  O  O7  1  0.165352  0.165352  0.165352  1
  F  F8  1  0.000000  0.000000  0.000000  1
  Na  Na9  1  0.223035  0.223035  0.776965  1
  Na  Na10  1  0.776965  0.223035  0.776965  1
  Na  Na11  1  0.776965  0.223035  0.223035  1
  Na  Na12  1  0.776965  0.776965  0.223035  1
  Na  Na13  1  0.223035  0.776965  0.776965  1
  Na  Na14  1  0.223035  0.776965  0.223035  1
  S  S15  1  0.250000  0.250000  0.250000  1
  S  S16  1  0.750000  0.750000  0.750000  1
  Cl  Cl17  1  0.500000  0.500000  0.500000  1
