# generated using pymatgen
data_Na3P6N11
_symmetry_space_group_name_H-M   'P 1'
_cell_length_a   10.19146407
_cell_length_b   10.19146407
_cell_length_c   10.19146407
_cell_angle_alpha   90.00000000
_cell_angle_beta   90.00000000
_cell_angle_gamma   90.00000000
_symmetry_Int_Tables_number   1
_chemical_formula_structural   Na3P6N11
_chemical_formula_sum   'Na12 P24 N44'
_cell_volume   1058.54599449
_cell_formula_units_Z   4
loop_
 _symmetry_equiv_pos_site_id
 _symmetry_equiv_pos_as_xyz
  1  'x, y, z'
loop_
 _atom_site_type_symbol
 _atom_site_label
 _atom_site_symmetry_multiplicity
 _atom_site_fract_x
 _atom_site_fract_y
 _atom_site_fract_z
 _atom_site_occupancy
  N  N0  1  0.711143  0.711143  0.711143  1
  N  N1  1  0.878827  0.786023  0.521221  1
  N  N2  1  0.978779  0.121173  0.286023  1
  N  N3  1  0.121173  0.286023  0.978779  1
  N  N4  1  0.478779  0.378827  0.713977  1
  N  N5  1  0.021221  0.621173  0.213977  1
  N  N6  1  0.621173  0.213977  0.021221  1
  N  N7  1  0.213977  0.021221  0.621173  1
  N  N8  1  0.460872  0.875070  0.287095  1
  N  N9  1  0.960872  0.624930  0.712905  1
  N  N10  1  0.539128  0.375070  0.212905  1
  N  N11  1  0.624930  0.712905  0.960872  1
  N  N12  1  0.963879  0.536121  0.463879  1
  N  N13  1  0.536121  0.463879  0.963879  1
  N  N14  1  0.463879  0.963879  0.536121  1
  N  N15  1  0.036121  0.036121  0.036121  1
  N  N16  1  0.288857  0.211143  0.788857  1
  N  N17  1  0.211143  0.788857  0.288857  1
  N  N18  1  0.788857  0.288857  0.211143  1
  N  N19  1  0.378827  0.713977  0.478779  1
  N  N20  1  0.460867  0.629076  0.772277  1
  N  N21  1  0.786023  0.521221  0.878827  1
  N  N22  1  0.713977  0.478779  0.378827  1
  N  N23  1  0.521221  0.878827  0.786023  1
  N  N24  1  0.272277  0.039133  0.370924  1
  N  N25  1  0.370924  0.272277  0.039133  1
  N  N26  1  0.039133  0.370924  0.272277  1
  N  N27  1  0.212905  0.539128  0.375070  1
  N  N28  1  0.870924  0.227723  0.960867  1
  N  N29  1  0.960867  0.870924  0.227723  1
  N  N30  1  0.129076  0.727723  0.539133  1
  N  N31  1  0.629076  0.772277  0.460867  1
  N  N32  1  0.539133  0.129076  0.727723  1
  N  N33  1  0.772277  0.460867  0.629076  1
  N  N34  1  0.727723  0.539133  0.129076  1
  N  N35  1  0.227723  0.960867  0.870924  1
  N  N36  1  0.039128  0.124930  0.787095  1
  N  N37  1  0.787095  0.039128  0.124930  1
  N  N38  1  0.124930  0.787095  0.039128  1
  N  N39  1  0.375070  0.212905  0.539128  1
  N  N40  1  0.287095  0.460872  0.875070  1
  N  N41  1  0.875070  0.287095  0.460872  1
  N  N42  1  0.712905  0.960872  0.624930  1
  N  N43  1  0.286023  0.978779  0.121173  1
  Na  Na44  1  0.522030  0.522030  0.522030  1
  Na  Na45  1  0.977970  0.477970  0.022030  1
  Na  Na46  1  0.022030  0.977970  0.477970  1
  Na  Na47  1  0.477970  0.022030  0.977970  1
  Na  Na48  1  0.873519  0.873519  0.873519  1
  Na  Na49  1  0.626481  0.126481  0.373519  1
  Na  Na50  1  0.373519  0.626481  0.126481  1
  Na  Na51  1  0.126481  0.373519  0.626481  1
  Na  Na52  1  0.219374  0.219374  0.219374  1
  Na  Na53  1  0.280626  0.780626  0.719374  1
  Na  Na54  1  0.719374  0.280626  0.780626  1
  Na  Na55  1  0.780626  0.719374  0.280626  1
  P  P56  1  0.937014  0.016091  0.174014  1
  P  P57  1  0.674014  0.562986  0.983909  1
  P  P58  1  0.825986  0.437014  0.483909  1
  P  P59  1  0.562986  0.983909  0.674014  1
  P  P60  1  0.483909  0.825986  0.437014  1
  P  P61  1  0.983909  0.674014  0.562986  1
  P  P62  1  0.174014  0.937014  0.016091  1
  P  P63  1  0.016091  0.174014  0.937014  1
  P  P64  1  0.437014  0.483909  0.825986  1
  P  P65  1  0.062986  0.516091  0.325986  1
  P  P66  1  0.516091  0.325986  0.062986  1
  P  P67  1  0.325986  0.062986  0.516091  1
  P  P68  1  0.311026  0.925637  0.266540  1
  P  P69  1  0.811026  0.574363  0.733460  1
  P  P70  1  0.688974  0.425637  0.233460  1
  P  P71  1  0.574363  0.733460  0.811026  1
  P  P72  1  0.233460  0.688974  0.425637  1
  P  P73  1  0.733460  0.811026  0.574363  1
  P  P74  1  0.925637  0.266540  0.311026  1
  P  P75  1  0.266540  0.311026  0.925637  1
  P  P76  1  0.425637  0.233460  0.688974  1
  P  P77  1  0.074363  0.766540  0.188974  1
  P  P78  1  0.766540  0.188974  0.074363  1
  P  P79  1  0.188974  0.074363  0.766540  1
