# generated using pymatgen
data_Tl3PbI5
_symmetry_space_group_name_H-M   'P 1'
_cell_length_a   9.12259905
_cell_length_b   9.83322841
_cell_length_c   16.58972016
_cell_angle_alpha   90.00000000
_cell_angle_beta   90.00000000
_cell_angle_gamma   90.00000000
_symmetry_Int_Tables_number   1
_chemical_formula_structural   Tl3PbI5
_chemical_formula_sum   'Tl12 Pb4 I20'
_cell_volume   1488.17421358
_cell_formula_units_Z   4
loop_
 _symmetry_equiv_pos_site_id
 _symmetry_equiv_pos_as_xyz
  1  'x, y, z'
loop_
 _atom_site_type_symbol
 _atom_site_label
 _atom_site_symmetry_multiplicity
 _atom_site_fract_x
 _atom_site_fract_y
 _atom_site_fract_z
 _atom_site_occupancy
  I  I0  1  0.977828  0.900716  0.102903  1
  I  I1  1  0.477828  0.099284  0.397097  1
  I  I2  1  0.522172  0.400716  0.897097  1
  I  I3  1  0.022172  0.599284  0.602903  1
  I  I4  1  0.522346  0.535104  0.526307  1
  I  I5  1  0.022346  0.464896  0.973693  1
  I  I6  1  0.977654  0.035104  0.473693  1
  I  I7  1  0.477654  0.964896  0.026307  1
  I  I8  1  0.165026  0.105188  0.885668  1
  I  I9  1  0.665026  0.894812  0.614332  1
  I  I10  1  0.334974  0.605188  0.114332  1
  I  I11  1  0.834974  0.394812  0.385668  1
  I  I12  1  0.847378  0.809230  0.859677  1
  I  I13  1  0.347378  0.190770  0.640323  1
  I  I14  1  0.652622  0.309230  0.140323  1
  I  I15  1  0.152622  0.690770  0.359677  1
  I  I16  1  0.329747  0.746458  0.777451  1
  I  I17  1  0.829747  0.253542  0.722549  1
  I  I18  1  0.170253  0.246458  0.222549  1
  I  I19  1  0.670253  0.753542  0.277451  1
  Tl  Tl20  1  0.025968  0.953501  0.696784  1
  Tl  Tl21  1  0.525968  0.046499  0.803216  1
  Tl  Tl22  1  0.474032  0.453501  0.303216  1
  Tl  Tl23  1  0.974032  0.546499  0.196784  1
  Tl  Tl24  1  0.170971  0.418060  0.775937  1
  Tl  Tl25  1  0.670971  0.581940  0.724063  1
  Tl  Tl26  1  0.329029  0.918060  0.224063  1
  Tl  Tl27  1  0.829029  0.081940  0.275937  1
  Tl  Tl28  1  0.187973  0.340632  0.466919  1
  Tl  Tl29  1  0.687973  0.659368  0.033081  1
  Tl  Tl30  1  0.312027  0.840632  0.533081  1
  Tl  Tl31  1  0.812027  0.159368  0.966919  1
  Pb  Pb32  1  0.828725  0.701228  0.455384  1
  Pb  Pb33  1  0.328725  0.298772  0.044616  1
  Pb  Pb34  1  0.671275  0.201228  0.544616  1
  Pb  Pb35  1  0.171275  0.798772  0.955384  1
