# generated using pymatgen
data_Tl4HgI6
_symmetry_space_group_name_H-M   'P 1'
_cell_length_a   9.51508769
_cell_length_b   9.60051015
_cell_length_c   9.60051015
_cell_angle_alpha   90.00000000
_cell_angle_beta   90.00000000
_cell_angle_gamma   90.00000000
_symmetry_Int_Tables_number   1
_chemical_formula_structural   Tl4HgI6
_chemical_formula_sum   'Tl8 Hg2 I12'
_cell_volume   877.00368313
_cell_formula_units_Z   2
loop_
 _symmetry_equiv_pos_site_id
 _symmetry_equiv_pos_as_xyz
  1  'x, y, z'
loop_
 _atom_site_type_symbol
 _atom_site_label
 _atom_site_symmetry_multiplicity
 _atom_site_fract_x
 _atom_site_fract_y
 _atom_site_fract_z
 _atom_site_occupancy
  Tl  Tl0  1  0.249882  0.148954  0.356028  1
  Tl  Tl1  1  0.249882  0.643972  0.148954  1
  Tl  Tl2  1  0.249882  0.356028  0.851046  1
  Tl  Tl3  1  0.249882  0.851046  0.643972  1
  Tl  Tl4  1  0.749882  0.648954  0.143972  1
  Tl  Tl5  1  0.749882  0.143972  0.351046  1
  Tl  Tl6  1  0.749882  0.856028  0.648954  1
  Tl  Tl7  1  0.749882  0.351046  0.856028  1
  Hg  Hg8  1  0.002394  0.000000  0.000000  1
  Hg  Hg9  1  0.502394  0.500000  0.500000  1
  I  I10  1  0.000299  0.672358  0.855059  1
  I  I11  1  0.000299  0.144941  0.672358  1
  I  I12  1  0.000299  0.855059  0.327641  1
  I  I13  1  0.000299  0.327641  0.144941  1
  I  I14  1  0.216672  0.500000  0.500000  1
  I  I15  1  0.287311  0.000000  0.000000  1
  I  I16  1  0.500299  0.172358  0.644941  1
  I  I17  1  0.500299  0.355059  0.172358  1
  I  I18  1  0.500299  0.644941  0.827642  1
  I  I19  1  0.500299  0.827642  0.355059  1
  I  I20  1  0.716672  0.000000  0.000000  1
  I  I21  1  0.787311  0.500000  0.500000  1
