# generated using pymatgen
data_Sb6Pb4S13
_symmetry_space_group_name_H-M   'P 1'
_cell_length_a   3.95969515
_cell_length_b   16.99137814
_cell_length_c   17.97804739
_cell_angle_alpha   91.09639478
_cell_angle_beta   96.29150454
_cell_angle_gamma   96.59708305
_symmetry_Int_Tables_number   1
_chemical_formula_structural   Sb6Pb4S13
_chemical_formula_sum   'Sb12 Pb8 S26'
_cell_volume   1193.71275694
_cell_formula_units_Z   2
loop_
 _symmetry_equiv_pos_site_id
 _symmetry_equiv_pos_as_xyz
  1  'x, y, z'
loop_
 _atom_site_type_symbol
 _atom_site_label
 _atom_site_symmetry_multiplicity
 _atom_site_fract_x
 _atom_site_fract_y
 _atom_site_fract_z
 _atom_site_occupancy
  S  S0  1  0.158507  0.014147  0.290374  1
  S  S1  1  0.698806  0.170944  0.217229  1
  S  S2  1  0.940123  0.256628  0.617490  1
  S  S3  1  0.714794  0.456288  0.963069  1
  S  S4  1  0.018598  0.870287  0.167906  1
  S  S5  1  0.113221  0.602598  0.615752  1
  S  S6  1  0.773355  0.112135  0.433679  1
  S  S7  1  0.549821  0.314351  0.786197  1
  S  S8  1  0.490302  0.711641  0.259974  1
  S  S9  1  0.382743  0.975379  0.785551  1
  S  S10  1  0.795159  0.394745  0.189541  1
  S  S11  1  0.870027  0.335245  0.399998  1
  S  S12  1  0.230199  0.843454  0.601693  1
  S  S13  1  0.623055  0.234190  0.008981  1
  S  S14  1  0.274363  0.734736  0.799998  1
  S  S15  1  0.496579  0.426962  0.560962  1
  S  S16  1  0.433355  0.888029  0.975381  1
  S  S17  1  0.061120  0.693909  0.422796  1
  S  S18  1  0.842455  0.707535  0.973007  1
  S  S19  1  0.829698  0.029015  0.626178  1
  S  S20  1  0.339382  0.569502  0.100979  1
  S  S21  1  0.074861  0.068519  0.077077  1
  S  S22  1  0.421284  0.502929  0.333699  1
  S  S23  1  0.664971  0.548968  0.776192  1
  S  S24  1  0.652765  0.872611  0.425807  1
  S  S25  1  0.997663  0.146000  0.844879  1
  Sb  Sb26  1  0.623077  0.754655  0.504508  1
  Sb  Sb27  1  0.795694  0.908584  0.702768  1
  Sb  Sb28  1  0.249596  0.432565  0.053046  1
  Sb  Sb29  1  0.336257  0.361988  0.293477  1
  Sb  Sb30  1  0.249088  0.151142  0.349242  1
  Sb  Sb31  1  0.851569  0.824145  0.893891  1
  Sb  Sb32  1  0.674563  0.668273  0.699239  1
  Sb  Sb33  1  0.157908  0.213835  0.108281  1
  Sb  Sb34  1  0.055048  0.798833  0.305600  1
  Sb  Sb35  1  0.410324  0.282582  0.527574  1
  Sb  Sb36  1  0.082120  0.292065  0.875365  1
  Sb  Sb37  1  0.622709  0.021995  0.187474  1
  Pb  Pb38  1  0.438749  0.778941  0.096964  1
  Pb  Pb39  1  0.240227  0.968678  0.505710  1
  Pb  Pb40  1  0.256776  0.608680  0.897373  1
  Pb  Pb41  1  0.421647  0.122031  0.715279  1
  Pb  Pb42  1  0.072423  0.455794  0.684258  1
  Pb  Pb43  1  0.891414  0.559517  0.215199  1
  Pb  Pb44  1  0.514819  0.074371  0.945105  1
  Pb  Pb45  1  0.976784  0.494080  0.453760  1
