# generated using pymatgen
data_Li5Cu(PO4)2
_symmetry_space_group_name_H-M   'P 1'
_cell_length_a   6.17498462
_cell_length_b   10.75136412
_cell_length_c   5.08058054
_cell_angle_alpha   90.00000000
_cell_angle_beta   90.00000000
_cell_angle_gamma   89.47254207
_symmetry_Int_Tables_number   1
_chemical_formula_structural   Li5Cu(PO4)2
_chemical_formula_sum   'Li10 Cu2 P4 O16'
_cell_volume   337.28295028
_cell_formula_units_Z   2
loop_
 _symmetry_equiv_pos_site_id
 _symmetry_equiv_pos_as_xyz
  1  'x, y, z'
loop_
 _atom_site_type_symbol
 _atom_site_label
 _atom_site_symmetry_multiplicity
 _atom_site_fract_x
 _atom_site_fract_y
 _atom_site_fract_z
 _atom_site_occupancy
  Li  Li0  1  0.002330  0.336269  0.798406  1
  Li  Li1  1  0.749327  0.925129  0.302098  1
  Li  Li2  1  0.749327  0.425129  0.197902  1
  Li  Li3  1  0.002330  0.836269  0.701594  1
  Li  Li4  1  0.249555  0.074224  0.704978  1
  Li  Li5  1  0.249555  0.574224  0.795022  1
  Li  Li6  1  0.497974  0.335579  0.802626  1
  Li  Li7  1  0.497974  0.835579  0.697374  1
  Li  Li8  1  0.503493  0.163892  0.308144  1
  Li  Li9  1  0.503493  0.663892  0.191856  1
  O  O10  1  0.262764  0.046427  0.306346  1
  O  O11  1  0.955521  0.656487  0.778910  1
  O  O12  1  0.045524  0.349492  0.194433  1
  O  O13  1  0.045524  0.849492  0.305567  1
  O  O14  1  0.747586  0.951351  0.698079  1
  O  O15  1  0.250920  0.911362  0.889854  1
  O  O16  1  0.250920  0.411362  0.610146  1
  O  O17  1  0.262764  0.546427  0.193654  1
  O  O18  1  0.458866  0.338358  0.203251  1
  O  O19  1  0.458866  0.838358  0.296749  1
  O  O20  1  0.542549  0.158785  0.705522  1
  O  O21  1  0.542549  0.658785  0.794478  1
  O  O22  1  0.739040  0.081942  0.114491  1
  O  O23  1  0.739040  0.581942  0.385509  1
  O  O24  1  0.747586  0.451351  0.801921  1
  O  O25  1  0.955521  0.156487  0.721090  1
  P  P26  1  0.256210  0.911497  0.196743  1
  P  P27  1  0.745842  0.086471  0.806749  1
  P  P28  1  0.256210  0.411497  0.303257  1
  P  P29  1  0.745842  0.586471  0.693251  1
  Cu  Cu30  1  0.992499  0.672735  0.201276  1
  Cu  Cu31  1  0.992499  0.172735  0.298723  1
