# generated using pymatgen
data_LaBr2
_symmetry_space_group_name_H-M   'P 1'
_cell_length_a   4.14871306
_cell_length_b   4.14871307
_cell_length_c   15.29343141
_cell_angle_alpha   90.00000000
_cell_angle_beta   90.00000000
_cell_angle_gamma   119.99999995
_symmetry_Int_Tables_number   1
_chemical_formula_structural   LaBr2
_chemical_formula_sum   'La2 Br4'
_cell_volume   227.96195308
_cell_formula_units_Z   2
loop_
 _symmetry_equiv_pos_site_id
 _symmetry_equiv_pos_as_xyz
  1  'x, y, z'
loop_
 _atom_site_type_symbol
 _atom_site_label
 _atom_site_symmetry_multiplicity
 _atom_site_fract_x
 _atom_site_fract_y
 _atom_site_fract_z
 _atom_site_occupancy
  Br  Br0  1  0.333333  0.666667  0.124920  1
  Br  Br1  1  0.666667  0.333333  0.624920  1
  Br  Br2  1  0.333333  0.666667  0.375080  1
  Br  Br3  1  0.666667  0.333333  0.875080  1
  La  La4  1  0.000000  0.000000  0.750000  1
  La  La5  1  0.000000  0.000000  0.250000  1
