# generated using pymatgen
data_V4Zn3(PO4)6
_symmetry_space_group_name_H-M   'P 1'
_cell_length_a   6.44293332
_cell_length_b   7.98935211
_cell_length_c   9.50807767
_cell_angle_alpha   105.70555629
_cell_angle_beta   108.47619365
_cell_angle_gamma   101.10008582
_symmetry_Int_Tables_number   1
_chemical_formula_structural   V4Zn3(PO4)6
_chemical_formula_sum   'V4 Zn3 P6 O24'
_cell_volume   425.60334347
_cell_formula_units_Z   1
loop_
 _symmetry_equiv_pos_site_id
 _symmetry_equiv_pos_as_xyz
  1  'x, y, z'
loop_
 _atom_site_type_symbol
 _atom_site_label
 _atom_site_symmetry_multiplicity
 _atom_site_fract_x
 _atom_site_fract_y
 _atom_site_fract_z
 _atom_site_occupancy
  V  V0  1  0.388387  0.459583  0.114120  1
  V  V1  1  0.955698  0.284983  0.477173  1
  V  V2  1  0.611531  0.540390  0.885867  1
  V  V3  1  0.044219  0.715006  0.522807  1
  Zn  Zn4  1  0.716169  0.188571  0.706702  1
  Zn  Zn5  1  0.283825  0.811444  0.293347  1
  Zn  Zn6  1  0.999885  0.999961  0.999952  1
  P  P7  1  0.773518  0.854526  0.232371  1
  P  P8  1  0.226413  0.145471  0.767559  1
  P  P9  1  0.603362  0.770663  0.632951  1
  P  P10  1  0.396668  0.229346  0.367040  1
  P  P11  1  0.912643  0.407018  0.166174  1
  P  P12  1  0.087387  0.593022  0.833884  1
  O  O13  1  0.721245  0.966253  0.761545  1
  O  O14  1  0.278780  0.033660  0.238505  1
  O  O15  1  0.105890  0.788723  0.911918  1
  O  O16  1  0.894297  0.211324  0.088240  1
  O  O17  1  0.211432  0.946048  0.705675  1
  O  O18  1  0.788373  0.053909  0.294385  1
  O  O19  1  0.367449  0.760489  0.507556  1
  O  O20  1  0.632539  0.239515  0.492508  1
  O  O21  1  0.062770  0.543129  0.655813  1
  O  O22  1  0.937228  0.456884  0.344240  1
  O  O23  1  0.751904  0.721638  0.540175  1
  O  O24  1  0.248111  0.278455  0.459747  1
  O  O25  1  0.983192  0.816507  0.341202  1
  O  O26  1  0.694588  0.458185  0.080522  1
  O  O27  1  0.305500  0.541864  0.919476  1
  O  O28  1  0.545488  0.734558  0.229477  1
  O  O29  1  0.454431  0.265348  0.770344  1
  O  O30  1  0.124025  0.537723  0.162956  1
  O  O31  1  0.016727  0.183497  0.658756  1
  O  O32  1  0.447508  0.360056  0.281466  1
  O  O33  1  0.552776  0.639742  0.718430  1
  O  O34  1  0.227565  0.200384  0.939254  1
  O  O35  1  0.772413  0.799792  0.060662  1
  O  O36  1  0.876066  0.462334  0.837205  1
