# generated using pymatgen
data_Na2CoP2O7
_symmetry_space_group_name_H-M   'P 1'
_cell_length_a   7.83812178
_cell_length_b   7.83812178
_cell_length_c   10.42389492
_cell_angle_alpha   90.00000000
_cell_angle_beta   90.00000000
_cell_angle_gamma   90.00000000
_symmetry_Int_Tables_number   1
_chemical_formula_structural   Na2CoP2O7
_chemical_formula_sum   'Na8 Co4 P8 O28'
_cell_volume   640.40400356
_cell_formula_units_Z   4
loop_
 _symmetry_equiv_pos_site_id
 _symmetry_equiv_pos_as_xyz
  1  'x, y, z'
loop_
 _atom_site_type_symbol
 _atom_site_label
 _atom_site_symmetry_multiplicity
 _atom_site_fract_x
 _atom_site_fract_y
 _atom_site_fract_z
 _atom_site_occupancy
  O  O0  1  0.500000  0.500000  0.846224  1
  O  O1  1  0.000000  0.000000  0.346224  1
  O  O2  1  0.000000  0.000000  0.653776  1
  O  O3  1  0.500000  0.500000  0.153776  1
  O  O4  1  0.194012  0.580245  0.145829  1
  O  O5  1  0.805989  0.419755  0.145829  1
  O  O6  1  0.580245  0.194012  0.854171  1
  O  O7  1  0.080245  0.305989  0.645830  1
  O  O8  1  0.919755  0.694012  0.645830  1
  O  O9  1  0.305989  0.080245  0.354171  1
  O  O10  1  0.694012  0.919755  0.354171  1
  O  O11  1  0.419755  0.805989  0.854171  1
  O  O12  1  0.805989  0.419755  0.854171  1
  O  O13  1  0.194012  0.580245  0.854171  1
  O  O14  1  0.419755  0.805989  0.145829  1
  O  O15  1  0.919755  0.694012  0.354171  1
  O  O16  1  0.080245  0.305989  0.354171  1
  O  O17  1  0.694012  0.919755  0.645830  1
  O  O18  1  0.305989  0.080245  0.645830  1
  O  O19  1  0.580245  0.194012  0.145829  1
  O  O20  1  0.637106  0.362893  0.355287  1
  O  O21  1  0.137106  0.137106  0.855288  1
  O  O22  1  0.862893  0.862893  0.855288  1
  O  O23  1  0.137106  0.137106  0.144713  1
  O  O24  1  0.637106  0.362893  0.644713  1
  O  O25  1  0.362893  0.637106  0.355287  1
  O  O26  1  0.362893  0.637106  0.644713  1
  O  O27  1  0.862893  0.862893  0.144713  1
  Na  Na28  1  0.193947  0.806054  0.500000  1
  Na  Na29  1  0.693947  0.693947  0.000000  1
  Na  Na30  1  0.306053  0.306053  0.000000  1
  Na  Na31  1  0.806054  0.193947  0.500000  1
  Na  Na32  1  0.145968  0.854033  0.000000  1
  Na  Na33  1  0.645968  0.645968  0.500000  1
  Na  Na34  1  0.354033  0.354033  0.500000  1
  Na  Na35  1  0.854033  0.145968  0.000000  1
  P  P36  1  0.638172  0.361828  0.789964  1
  P  P37  1  0.361828  0.638172  0.789964  1
  P  P38  1  0.638172  0.361828  0.210036  1
  P  P39  1  0.861828  0.861828  0.289964  1
  P  P40  1  0.138172  0.138172  0.289964  1
  P  P41  1  0.861828  0.861828  0.710036  1
  P  P42  1  0.138172  0.138172  0.710036  1
  P  P43  1  0.361828  0.638172  0.210036  1
  Co  Co44  1  0.000000  0.500000  0.750000  1
  Co  Co45  1  0.000000  0.500000  0.250000  1
  Co  Co46  1  0.500000  0.000000  0.750000  1
  Co  Co47  1  0.500000  0.000000  0.250000  1
