# generated using pymatgen
data_Sm3Co6Sn5
_symmetry_space_group_name_H-M   'P 1'
_cell_length_a   4.33428452
_cell_length_b   8.22098029
_cell_length_c   8.22098029
_cell_angle_alpha   73.06983961
_cell_angle_beta   74.71555521
_cell_angle_gamma   74.71555520
_symmetry_Int_Tables_number   1
_chemical_formula_structural   Sm3Co6Sn5
_chemical_formula_sum   'Sm3 Co6 Sn5'
_cell_volume   264.72391858
_cell_formula_units_Z   1
loop_
 _symmetry_equiv_pos_site_id
 _symmetry_equiv_pos_as_xyz
  1  'x, y, z'
loop_
 _atom_site_type_symbol
 _atom_site_label
 _atom_site_symmetry_multiplicity
 _atom_site_fract_x
 _atom_site_fract_y
 _atom_site_fract_z
 _atom_site_occupancy
  Co  Co0  1  0.893438  0.380990  0.832135  1
  Co  Co1  1  0.106562  0.619010  0.167865  1
  Co  Co2  1  0.893438  0.832135  0.380990  1
  Co  Co3  1  0.500000  0.700687  0.299313  1
  Co  Co4  1  0.500000  0.299313  0.700687  1
  Co  Co5  1  0.106562  0.167865  0.619010  1
  Sn  Sn6  1  0.676964  0.983793  0.662279  1
  Sn  Sn7  1  0.323036  0.337721  0.016207  1
  Sn  Sn8  1  0.676964  0.662279  0.983793  1
  Sn  Sn9  1  0.000000  0.500000  0.500000  1
  Sn  Sn10  1  0.323036  0.016207  0.337721  1
  Sm  Sm11  1  0.683223  0.316777  0.316777  1
  Sm  Sm12  1  0.316777  0.683223  0.683223  1
  Sm  Sm13  1  0.000000  0.000000  0.000000  1
