# generated using pymatgen
data_OsO3F2
_symmetry_space_group_name_H-M   'P 1'
_cell_length_a   5.16111457
_cell_length_b   5.67608772
_cell_length_c   12.63792194
_cell_angle_alpha   99.27243270
_cell_angle_beta   90.00000000
_cell_angle_gamma   90.00000000
_symmetry_Int_Tables_number   1
_chemical_formula_structural   OsO3F2
_chemical_formula_sum   'Os4 O12 F8'
_cell_volume   365.38952629
_cell_formula_units_Z   4
loop_
 _symmetry_equiv_pos_site_id
 _symmetry_equiv_pos_as_xyz
  1  'x, y, z'
loop_
 _atom_site_type_symbol
 _atom_site_label
 _atom_site_symmetry_multiplicity
 _atom_site_fract_x
 _atom_site_fract_y
 _atom_site_fract_z
 _atom_site_occupancy
  O  O0  1  0.925311  0.675101  0.596502  1
  O  O1  1  0.425311  0.324899  0.903498  1
  O  O2  1  0.074689  0.324899  0.403498  1
  O  O3  1  0.574689  0.675101  0.096502  1
  O  O4  1  0.400460  0.755151  0.526942  1
  O  O5  1  0.900460  0.244849  0.973058  1
  O  O6  1  0.599540  0.244849  0.473058  1
  O  O7  1  0.099540  0.755151  0.026942  1
  O  O8  1  0.337006  0.616349  0.717582  1
  O  O9  1  0.162994  0.616349  0.217582  1
  O  O10  1  0.662994  0.383651  0.282418  1
  O  O11  1  0.837006  0.383651  0.782418  1
  F  F12  1  0.883471  0.876982  0.383545  1
  F  F13  1  0.025794  0.959252  0.786833  1
  F  F14  1  0.474206  0.959252  0.286833  1
  F  F15  1  0.974206  0.040748  0.213167  1
  F  F16  1  0.116529  0.123018  0.616455  1
  F  F17  1  0.616529  0.876982  0.883545  1
  F  F18  1  0.383471  0.123018  0.116455  1
  F  F19  1  0.525794  0.040748  0.713167  1
  Os  Os20  1  0.211697  0.809376  0.639631  1
  Os  Os21  1  0.711697  0.190624  0.860369  1
  Os  Os22  1  0.788303  0.190624  0.360369  1
  Os  Os23  1  0.288303  0.809376  0.139631  1
