# generated using pymatgen
data_UTa2O8
_symmetry_space_group_name_H-M   'P 1'
_cell_length_a   6.26029358
_cell_length_b   6.26029371
_cell_length_c   3.93938110
_cell_angle_alpha   90.00000000
_cell_angle_beta   90.00000000
_cell_angle_gamma   119.99999929
_symmetry_Int_Tables_number   1
_chemical_formula_structural   UTa2O8
_chemical_formula_sum   'U1 Ta2 O8'
_cell_volume   133.70512101
_cell_formula_units_Z   1
loop_
 _symmetry_equiv_pos_site_id
 _symmetry_equiv_pos_as_xyz
  1  'x, y, z'
loop_
 _atom_site_type_symbol
 _atom_site_label
 _atom_site_symmetry_multiplicity
 _atom_site_fract_x
 _atom_site_fract_y
 _atom_site_fract_z
 _atom_site_occupancy
  U  U0  1  0.000000  0.000000  0.000000  1
  Ta  Ta1  1  0.666667  0.333333  0.000000  1
  Ta  Ta2  1  0.333333  0.666667  0.000000  1
  O  O3  1  0.333333  0.666667  0.500000  1
  O  O4  1  0.666667  0.333333  0.500000  1
  O  O5  1  0.327604  0.000000  0.139345  1
  O  O6  1  0.000000  0.327604  0.139345  1
  O  O7  1  0.672396  0.672396  0.139345  1
  O  O8  1  1.000000  0.672396  0.860655  1
  O  O9  1  0.672396  0.000000  0.860655  1
  O  O10  1  0.327604  0.327604  0.860655  1
