# generated using pymatgen
data_Cs4SiSe4
_symmetry_space_group_name_H-M   'P 1'
_cell_length_a   14.43525056
_cell_length_b   14.43525056
_cell_length_c   14.43525056
_cell_angle_alpha   90.00000000
_cell_angle_beta   90.00000000
_cell_angle_gamma   90.00000000
_symmetry_Int_Tables_number   1
_chemical_formula_structural   Cs4SiSe4
_chemical_formula_sum   'Cs32 Si8 Se32'
_cell_volume   3007.96639257
_cell_formula_units_Z   8
loop_
 _symmetry_equiv_pos_site_id
 _symmetry_equiv_pos_as_xyz
  1  'x, y, z'
loop_
 _atom_site_type_symbol
 _atom_site_label
 _atom_site_symmetry_multiplicity
 _atom_site_fract_x
 _atom_site_fract_y
 _atom_site_fract_z
 _atom_site_occupancy
  Si  Si0  1  0.000000  0.250000  0.500000  1
  Si  Si1  1  0.000000  0.750000  0.500000  1
  Si  Si2  1  0.500000  0.000000  0.750000  1
  Si  Si3  1  0.500000  0.000000  0.250000  1
  Si  Si4  1  0.750000  0.500000  0.000000  1
  Si  Si5  1  0.000000  0.000000  0.000000  1
  Si  Si6  1  0.500000  0.500000  0.500000  1
  Si  Si7  1  0.250000  0.500000  0.000000  1
  Se  Se8  1  0.100130  0.161604  0.589287  1
  Se  Se9  1  0.338396  0.600130  0.910713  1
  Se  Se10  1  0.399870  0.089287  0.338396  1
  Se  Se11  1  0.600130  0.089287  0.661604  1
  Se  Se12  1  0.089287  0.338396  0.399870  1
  Se  Se13  1  0.910713  0.661604  0.399870  1
  Se  Se14  1  0.161604  0.410713  0.899870  1
  Se  Se15  1  0.161604  0.589287  0.100130  1
  Se  Se16  1  0.838396  0.410713  0.100130  1
  Se  Se17  1  0.592518  0.592518  0.592518  1
  Se  Se18  1  0.100130  0.838396  0.410713  1
  Se  Se19  1  0.338396  0.399870  0.089287  1
  Se  Se20  1  0.410713  0.899870  0.161604  1
  Se  Se21  1  0.899870  0.161604  0.410713  1
  Se  Se22  1  0.410713  0.100130  0.838396  1
  Se  Se23  1  0.589287  0.899870  0.838396  1
  Se  Se24  1  0.899870  0.838396  0.589287  1
  Se  Se25  1  0.910713  0.338396  0.600130  1
  Se  Se26  1  0.089287  0.661604  0.600130  1
  Se  Se27  1  0.399870  0.910713  0.661604  1
  Se  Se28  1  0.600130  0.910713  0.338396  1
  Se  Se29  1  0.661604  0.600130  0.089287  1
  Se  Se30  1  0.661604  0.399870  0.910713  1
  Se  Se31  1  0.838396  0.589287  0.899870  1
  Se  Se32  1  0.907482  0.092518  0.907482  1
  Se  Se33  1  0.907482  0.907482  0.092518  1
  Se  Se34  1  0.092518  0.907482  0.907482  1
  Se  Se35  1  0.407482  0.407482  0.592518  1
  Se  Se36  1  0.592518  0.407482  0.407482  1
  Se  Se37  1  0.407482  0.592518  0.407482  1
  Se  Se38  1  0.092518  0.092518  0.092518  1
  Se  Se39  1  0.589287  0.100130  0.161604  1
  Cs  Cs40  1  0.347924  0.347924  0.347924  1
  Cs  Cs41  1  0.152076  0.847924  0.152076  1
  Cs  Cs42  1  0.847924  0.152076  0.152076  1
  Cs  Cs43  1  0.152076  0.152076  0.847924  1
  Cs  Cs44  1  0.347924  0.652076  0.652076  1
  Cs  Cs45  1  0.652076  0.652076  0.347924  1
  Cs  Cs46  1  0.652076  0.347924  0.652076  1
  Cs  Cs47  1  0.847924  0.847924  0.847924  1
  Cs  Cs48  1  0.348739  0.134709  0.084547  1
  Cs  Cs49  1  0.348739  0.865291  0.915453  1
  Cs  Cs50  1  0.134709  0.084547  0.348739  1
  Cs  Cs51  1  0.865291  0.084547  0.651261  1
  Cs  Cs52  1  0.084547  0.348739  0.134709  1
  Cs  Cs53  1  0.915453  0.651261  0.134709  1
  Cs  Cs54  1  0.151261  0.415453  0.634709  1
  Cs  Cs55  1  0.151261  0.584547  0.365291  1
  Cs  Cs56  1  0.848739  0.415453  0.365291  1
  Cs  Cs57  1  0.584547  0.365291  0.151261  1
  Cs  Cs58  1  0.365291  0.848739  0.415453  1
  Cs  Cs59  1  0.365291  0.151261  0.584547  1
  Cs  Cs60  1  0.415453  0.634709  0.151261  1
  Cs  Cs61  1  0.634709  0.151261  0.415453  1
  Cs  Cs62  1  0.415453  0.365291  0.848739  1
  Cs  Cs63  1  0.584547  0.634709  0.848739  1
  Cs  Cs64  1  0.634709  0.848739  0.584547  1
  Cs  Cs65  1  0.915453  0.348739  0.865291  1
  Cs  Cs66  1  0.084547  0.651261  0.865291  1
  Cs  Cs67  1  0.134709  0.915453  0.651261  1
  Cs  Cs68  1  0.865291  0.915453  0.348739  1
  Cs  Cs69  1  0.651261  0.865291  0.084547  1
  Cs  Cs70  1  0.651261  0.134709  0.915453  1
  Cs  Cs71  1  0.848739  0.584547  0.634709  1
