# generated using pymatgen
data_SbXe2F9
_symmetry_space_group_name_H-M   'P 1'
_cell_length_a   8.36288804
_cell_length_b   8.62127071
_cell_length_c   8.95188692
_cell_angle_alpha   72.07318156
_cell_angle_beta   62.15365695
_cell_angle_gamma   60.98655691
_symmetry_Int_Tables_number   1
_chemical_formula_structural   SbXe2F9
_chemical_formula_sum   'Sb2 Xe4 F18'
_cell_volume   496.30217716
_cell_formula_units_Z   2
loop_
 _symmetry_equiv_pos_site_id
 _symmetry_equiv_pos_as_xyz
  1  'x, y, z'
loop_
 _atom_site_type_symbol
 _atom_site_label
 _atom_site_symmetry_multiplicity
 _atom_site_fract_x
 _atom_site_fract_y
 _atom_site_fract_z
 _atom_site_occupancy
  F  F0  1  0.790125  0.241710  0.866160  1
  F  F1  1  0.102005  0.741710  0.366160  1
  F  F2  1  0.764916  0.987353  0.771738  1
  F  F3  1  0.475993  0.487353  0.271738  1
  F  F4  1  0.066401  0.091269  0.571972  1
  F  F5  1  0.270359  0.591269  0.071972  1
  F  F6  1  0.692230  0.058735  0.417498  1
  F  F7  1  0.831537  0.558735  0.917498  1
  F  F8  1  0.105222  0.281786  0.086985  1
  F  F9  1  0.526008  0.781786  0.586985  1
  F  F10  1  0.535082  0.377604  0.620032  1
  F  F11  1  0.467282  0.877604  0.120032  1
  F  F12  1  0.347860  0.263962  0.246757  1
  F  F13  1  0.141421  0.763962  0.746757  1
  F  F14  1  0.177799  0.414961  0.541606  1
  F  F15  1  0.865634  0.914961  0.041606  1
  F  F16  1  0.966795  0.523290  0.346262  1
  F  F17  1  0.163654  0.023290  0.846262  1
  Sb  Sb18  1  0.967588  0.002516  0.806402  1
  Sb  Sb19  1  0.223494  0.502516  0.306402  1
  Xe  Xe20  1  0.512577  0.821330  0.335617  1
  Xe  Xe21  1  0.330475  0.321330  0.835617  1
  Xe  Xe22  1  0.695983  0.658085  0.753172  1
  Xe  Xe23  1  0.892760  0.158085  0.253172  1
