# generated using pymatgen
data_Co3AgP3(HO6)2
_symmetry_space_group_name_H-M   'P 1'
_cell_length_a   6.59045987
_cell_length_b   8.62372598
_cell_length_c   8.62372598
_cell_angle_alpha   90.83969525
_cell_angle_beta   106.90918539
_cell_angle_gamma   106.90918543
_symmetry_Int_Tables_number   1
_chemical_formula_structural   Co3AgP3(HO6)2
_chemical_formula_sum   'Co6 Ag2 P6 H4 O24'
_cell_volume   446.01564760
_cell_formula_units_Z   2
loop_
 _symmetry_equiv_pos_site_id
 _symmetry_equiv_pos_as_xyz
  1  'x, y, z'
loop_
 _atom_site_type_symbol
 _atom_site_label
 _atom_site_symmetry_multiplicity
 _atom_site_fract_x
 _atom_site_fract_y
 _atom_site_fract_z
 _atom_site_occupancy
  H  H0  1  0.308520  0.109367  0.123250  1
  H  H1  1  0.191480  0.876750  0.890633  1
  H  H2  1  0.691480  0.890633  0.876750  1
  H  H3  1  0.808520  0.123250  0.109367  1
  O  O4  1  0.341605  0.047288  0.231494  1
  O  O5  1  0.158395  0.768506  0.952712  1
  O  O6  1  0.658395  0.952712  0.768506  1
  O  O7  1  0.841605  0.231494  0.047288  1
  O  O8  1  0.400183  0.338973  0.337117  1
  O  O9  1  0.099817  0.662883  0.661027  1
  O  O10  1  0.599817  0.661027  0.662883  1
  O  O11  1  0.900183  0.337117  0.338973  1
  O  O12  1  0.197540  0.103939  0.463799  1
  O  O13  1  0.302460  0.536201  0.896061  1
  O  O14  1  0.731527  0.786642  0.998294  1
  O  O15  1  0.768473  0.001706  0.213358  1
  O  O16  1  0.268473  0.213358  0.001706  1
  O  O17  1  0.231527  0.998294  0.786642  1
  O  O18  1  0.537983  0.710067  0.218963  1
  O  O19  1  0.962017  0.781037  0.289933  1
  O  O20  1  0.462017  0.289933  0.781037  1
  O  O21  1  0.037983  0.218963  0.710067  1
  O  O22  1  0.886082  0.485298  0.829802  1
  O  O23  1  0.613918  0.170198  0.514702  1
  O  O24  1  0.113918  0.514702  0.170198  1
  O  O25  1  0.386082  0.829802  0.485298  1
  O  O26  1  0.697540  0.463799  0.103939  1
  O  O27  1  0.802460  0.896061  0.536201  1
  P  P28  1  0.250000  0.180326  0.819674  1
  P  P29  1  0.750000  0.819674  0.180326  1
  P  P30  1  0.389413  0.167309  0.390464  1
  P  P31  1  0.110587  0.609536  0.832691  1
  P  P32  1  0.610587  0.832691  0.609536  1
  P  P33  1  0.889413  0.390464  0.167309  1
  Co  Co34  1  0.250000  0.773570  0.226430  1
  Co  Co35  1  0.750000  0.226430  0.773570  1
  Co  Co36  1  0.120059  0.876102  0.548101  1
  Co  Co37  1  0.379941  0.451899  0.123898  1
  Co  Co38  1  0.879941  0.123898  0.451899  1
  Co  Co39  1  0.620059  0.548101  0.876102  1
  Ag  Ag40  1  0.250000  0.460119  0.539881  1
  Ag  Ag41  1  0.750000  0.539881  0.460119  1
