# generated using pymatgen
data_TlSbF4
_symmetry_space_group_name_H-M   'P 1'
_cell_length_a   7.10768211
_cell_length_b   7.67893950
_cell_length_c   8.48320243
_cell_angle_alpha   98.19828348
_cell_angle_beta   90.00000000
_cell_angle_gamma   90.00000000
_symmetry_Int_Tables_number   1
_chemical_formula_structural   TlSbF4
_chemical_formula_sum   'Tl4 Sb4 F16'
_cell_volume   458.27690094
_cell_formula_units_Z   4
loop_
 _symmetry_equiv_pos_site_id
 _symmetry_equiv_pos_as_xyz
  1  'x, y, z'
loop_
 _atom_site_type_symbol
 _atom_site_label
 _atom_site_symmetry_multiplicity
 _atom_site_fract_x
 _atom_site_fract_y
 _atom_site_fract_z
 _atom_site_occupancy
  F  F0  1  0.660051  0.591773  0.687168  1
  F  F1  1  0.160051  0.408227  0.812832  1
  F  F2  1  0.339949  0.408227  0.312832  1
  F  F3  1  0.839949  0.591773  0.187168  1
  F  F4  1  0.888879  0.117440  0.802576  1
  F  F5  1  0.388879  0.882560  0.697424  1
  F  F6  1  0.111121  0.882560  0.197424  1
  F  F7  1  0.611121  0.117440  0.302576  1
  F  F8  1  0.937914  0.251046  0.207093  1
  F  F9  1  0.437914  0.748954  0.292907  1
  F  F10  1  0.062086  0.748954  0.792907  1
  F  F11  1  0.562086  0.251046  0.707093  1
  F  F12  1  0.604907  0.317180  0.062074  1
  F  F13  1  0.104907  0.682820  0.437926  1
  F  F14  1  0.395093  0.682820  0.937926  1
  F  F15  1  0.895093  0.317180  0.562074  1
  Sb  Sb16  1  0.799982  0.372525  0.785036  1
  Sb  Sb17  1  0.299982  0.627475  0.714964  1
  Sb  Sb18  1  0.200018  0.627475  0.214964  1
  Sb  Sb19  1  0.700018  0.372525  0.285036  1
  Tl  Tl20  1  0.249009  0.124792  0.954411  1
  Tl  Tl21  1  0.749009  0.875208  0.545589  1
  Tl  Tl22  1  0.750991  0.875208  0.045589  1
  Tl  Tl23  1  0.250991  0.124792  0.454411  1
