# generated using pymatgen
data_Sr2Co(ClO)2
_symmetry_space_group_name_H-M   'P 1'
_cell_length_a   4.09720829
_cell_length_b   4.09720829
_cell_length_c   8.19786153
_cell_angle_alpha   104.47129555
_cell_angle_beta   104.47129550
_cell_angle_gamma   89.99999999
_symmetry_Int_Tables_number   1
_chemical_formula_structural   Sr2Co(ClO)2
_chemical_formula_sum   'Sr2 Co1 Cl2 O2'
_cell_volume   128.73799895
_cell_formula_units_Z   1
loop_
 _symmetry_equiv_pos_site_id
 _symmetry_equiv_pos_as_xyz
  1  'x, y, z'
loop_
 _atom_site_type_symbol
 _atom_site_label
 _atom_site_symmetry_multiplicity
 _atom_site_fract_x
 _atom_site_fract_y
 _atom_site_fract_z
 _atom_site_occupancy
  O  O0  1  0.500000  1.000000  0.000000  1
  O  O1  1  0.999999  0.500000  0.000000  1
  Cl  Cl2  1  0.179914  0.179916  0.359830  1
  Cl  Cl3  1  0.820085  0.820084  0.640170  1
  Co  Co4  1  0.000000  0.000000  0.000000  1
  Sr  Sr5  1  0.607442  0.607442  0.214883  1
  Sr  Sr6  1  0.392559  0.392558  0.785117  1
