# generated using pymatgen
data_In2CoS4
_symmetry_space_group_name_H-M   'P 1'
_cell_length_a   7.50241708
_cell_length_b   7.50241708
_cell_length_c   7.50241708
_cell_angle_alpha   59.99999998
_cell_angle_beta   60.00000000
_cell_angle_gamma   59.99999998
_symmetry_Int_Tables_number   1
_chemical_formula_structural   In2CoS4
_chemical_formula_sum   'In4 Co2 S8'
_cell_volume   298.59918231
_cell_formula_units_Z   2
loop_
 _symmetry_equiv_pos_site_id
 _symmetry_equiv_pos_as_xyz
  1  'x, y, z'
loop_
 _atom_site_type_symbol
 _atom_site_label
 _atom_site_symmetry_multiplicity
 _atom_site_fract_x
 _atom_site_fract_y
 _atom_site_fract_z
 _atom_site_occupancy
  S  S0  1  0.749320  0.749320  0.749320  1
  S  S1  1  0.250680  0.250680  0.747961  1
  S  S2  1  0.250680  0.747961  0.250680  1
  S  S3  1  0.747961  0.250680  0.250680  1
  S  S4  1  0.749320  0.252039  0.749320  1
  S  S5  1  0.252039  0.749320  0.749320  1
  S  S6  1  0.250680  0.250680  0.250680  1
  S  S7  1  0.749320  0.749320  0.252039  1
  Co  Co8  1  0.875000  0.875000  0.875000  1
  Co  Co9  1  0.125000  0.125000  0.125000  1
  In  In10  1  0.500000  0.500000  0.000000  1
  In  In11  1  0.500000  0.500000  0.500000  1
  In  In12  1  0.000000  0.500000  0.500000  1
  In  In13  1  0.500000  0.000000  0.500000  1
