# generated using pymatgen
data_B4PF9
_symmetry_space_group_name_H-M   'P 1'
_cell_length_a   6.12722995
_cell_length_b   10.68874423
_cell_length_c   14.06564575
_cell_angle_alpha   90.00000000
_cell_angle_beta   90.00000000
_cell_angle_gamma   90.00000000
_symmetry_Int_Tables_number   1
_chemical_formula_structural   B4PF9
_chemical_formula_sum   'B16 P4 F36'
_cell_volume   921.19281014
_cell_formula_units_Z   4
loop_
 _symmetry_equiv_pos_site_id
 _symmetry_equiv_pos_as_xyz
  1  'x, y, z'
loop_
 _atom_site_type_symbol
 _atom_site_label
 _atom_site_symmetry_multiplicity
 _atom_site_fract_x
 _atom_site_fract_y
 _atom_site_fract_z
 _atom_site_occupancy
  B  B0  1  0.787614  0.120584  0.769818  1
  B  B1  1  0.287614  0.879416  0.730182  1
  B  B2  1  0.212386  0.620584  0.230182  1
  B  B3  1  0.712386  0.379416  0.269818  1
  B  B4  1  0.787614  0.379416  0.769818  1
  B  B5  1  0.287614  0.620584  0.730182  1
  B  B6  1  0.212386  0.879416  0.230182  1
  B  B7  1  0.420165  0.750000  0.768789  1
  B  B8  1  0.825257  0.750000  0.221880  1
  B  B9  1  0.325257  0.250000  0.278120  1
  B  B10  1  0.174743  0.250000  0.778120  1
  B  B11  1  0.674743  0.750000  0.721880  1
  B  B12  1  0.079835  0.750000  0.268789  1
  B  B13  1  0.579835  0.250000  0.231211  1
  B  B14  1  0.920165  0.250000  0.731211  1
  B  B15  1  0.712386  0.120584  0.269818  1
  F  F16  1  0.296739  0.750000  0.450606  1
  F  F17  1  0.543743  0.637398  0.948420  1
  F  F18  1  0.956257  0.862602  0.448420  1
  F  F19  1  0.456257  0.137398  0.051580  1
  F  F20  1  0.956257  0.637398  0.448420  1
  F  F21  1  0.456257  0.362602  0.051580  1
  F  F22  1  0.043743  0.137398  0.551580  1
  F  F23  1  0.543743  0.862602  0.948420  1
  F  F24  1  0.859036  0.750000  0.775087  1
  F  F25  1  0.043743  0.362602  0.551580  1
  F  F26  1  0.140964  0.250000  0.224913  1
  F  F27  1  0.640964  0.750000  0.275087  1
  F  F28  1  0.708168  0.750000  0.628046  1
  F  F29  1  0.208168  0.250000  0.871954  1
  F  F30  1  0.291832  0.250000  0.371954  1
  F  F31  1  0.791832  0.750000  0.128046  1
  F  F32  1  0.212316  0.529738  0.788773  1
  F  F33  1  0.712316  0.470262  0.711227  1
  F  F34  1  0.787684  0.029738  0.211227  1
  F  F35  1  0.287684  0.970262  0.288773  1
  F  F36  1  0.787684  0.470262  0.211227  1
  F  F37  1  0.287684  0.529738  0.288773  1
  F  F38  1  0.212316  0.970262  0.788773  1
  F  F39  1  0.712316  0.029738  0.711227  1
  F  F40  1  0.249699  0.600310  0.637891  1
  F  F41  1  0.749699  0.399690  0.862109  1
  F  F42  1  0.750301  0.100310  0.362109  1
  F  F43  1  0.250301  0.899690  0.137891  1
  F  F44  1  0.750301  0.399690  0.362109  1
  F  F45  1  0.250301  0.600310  0.137891  1
  F  F46  1  0.249699  0.899690  0.637891  1
  F  F47  1  0.749699  0.100310  0.862109  1
  F  F48  1  0.703261  0.250000  0.549394  1
  F  F49  1  0.203261  0.750000  0.950606  1
  F  F50  1  0.359036  0.250000  0.724913  1
  F  F51  1  0.796739  0.250000  0.049394  1
  P  P52  1  0.071535  0.750000  0.400072  1
  P  P53  1  0.571535  0.250000  0.099928  1
  P  P54  1  0.928465  0.250000  0.599928  1
  P  P55  1  0.428465  0.750000  0.900072  1
