# generated using pymatgen
data_CBr3F
_symmetry_space_group_name_H-M   'P 1'
_cell_length_a   6.60436033
_cell_length_b   9.50254312
_cell_length_c   10.22941050
_cell_angle_alpha   90.00000000
_cell_angle_beta   90.00000000
_cell_angle_gamma   90.00000000
_symmetry_Int_Tables_number   1
_chemical_formula_structural   CBr3F
_chemical_formula_sum   'C4 Br12 F4'
_cell_volume   641.97958252
_cell_formula_units_Z   4
loop_
 _symmetry_equiv_pos_site_id
 _symmetry_equiv_pos_as_xyz
  1  'x, y, z'
loop_
 _atom_site_type_symbol
 _atom_site_label
 _atom_site_symmetry_multiplicity
 _atom_site_fract_x
 _atom_site_fract_y
 _atom_site_fract_z
 _atom_site_occupancy
  C  C0  1  0.105817  0.921834  0.250000  1
  C  C1  1  0.605817  0.578166  0.750000  1
  C  C2  1  0.394183  0.421834  0.250000  1
  C  C3  1  0.894183  0.078166  0.750000  1
  F  F4  1  0.038392  0.057346  0.250000  1
  F  F5  1  0.538392  0.442654  0.750000  1
  F  F6  1  0.461608  0.557346  0.250000  1
  F  F7  1  0.961608  0.942654  0.750000  1
  Br  Br8  1  0.869091  0.798057  0.250000  1
  Br  Br9  1  0.369091  0.701943  0.750000  1
  Br  Br10  1  0.630909  0.298057  0.250000  1
  Br  Br11  1  0.130909  0.201943  0.750000  1
  Br  Br12  1  0.267707  0.892509  0.092786  1
  Br  Br13  1  0.767707  0.607491  0.907214  1
  Br  Br14  1  0.232293  0.392509  0.407214  1
  Br  Br15  1  0.732293  0.107491  0.592786  1
  Br  Br16  1  0.732293  0.107491  0.907214  1
  Br  Br17  1  0.232293  0.392509  0.092786  1
  Br  Br18  1  0.767707  0.607491  0.592786  1
  Br  Br19  1  0.267707  0.892509  0.407214  1
