# generated using pymatgen
data_B2H3
_symmetry_space_group_name_H-M   'P 1'
_cell_length_a   10.70078767
_cell_length_b   10.68163807
_cell_length_c   13.91547989
_cell_angle_alpha   90.00000000
_cell_angle_beta   90.00000000
_cell_angle_gamma   90.00000000
_symmetry_Int_Tables_number   1
_chemical_formula_structural   B2H3
_chemical_formula_sum   'B64 H96'
_cell_volume   1590.56636075
_cell_formula_units_Z   32
loop_
 _symmetry_equiv_pos_site_id
 _symmetry_equiv_pos_as_xyz
  1  'x, y, z'
loop_
 _atom_site_type_symbol
 _atom_site_label
 _atom_site_symmetry_multiplicity
 _atom_site_fract_x
 _atom_site_fract_y
 _atom_site_fract_z
 _atom_site_occupancy
  H  H0  1  0.888290  0.238318  0.120376  1
  H  H1  1  0.388290  0.261682  0.879624  1
  H  H2  1  0.111710  0.738318  0.379624  1
  H  H3  1  0.611710  0.761682  0.620376  1
  H  H4  1  0.111710  0.761682  0.879624  1
  H  H5  1  0.611710  0.738318  0.120376  1
  H  H6  1  0.888290  0.261682  0.620376  1
  H  H7  1  0.388290  0.238318  0.379624  1
  H  H8  1  0.046057  0.225765  0.291390  1
  H  H9  1  0.546057  0.274235  0.708610  1
  H  H10  1  0.953943  0.725765  0.208610  1
  H  H11  1  0.453943  0.774235  0.791390  1
  H  H12  1  0.953943  0.774235  0.708610  1
  H  H13  1  0.453943  0.725765  0.291390  1
  H  H14  1  0.046057  0.274235  0.791390  1
  H  H15  1  0.546057  0.225765  0.208610  1
  H  H16  1  0.017585  0.117071  0.147885  1
  H  H17  1  0.517585  0.382929  0.852115  1
  H  H18  1  0.982415  0.617071  0.352115  1
  H  H19  1  0.482415  0.882929  0.647885  1
  H  H20  1  0.982415  0.882929  0.852115  1
  H  H21  1  0.482415  0.617071  0.147885  1
  H  H22  1  0.017585  0.382929  0.647885  1
  H  H23  1  0.517585  0.117071  0.352115  1
  H  H24  1  0.957867  0.377228  0.191075  1
  H  H25  1  0.457867  0.122772  0.808925  1
  H  H26  1  0.042133  0.877228  0.308925  1
  H  H27  1  0.542133  0.622772  0.691075  1
  H  H28  1  0.042133  0.622772  0.808925  1
  H  H29  1  0.542133  0.877228  0.191075  1
  H  H30  1  0.957867  0.122772  0.691075  1
  H  H31  1  0.457867  0.377228  0.308925  1
  H  H32  1  0.870518  0.406581  0.053996  1
  H  H33  1  0.370518  0.093419  0.946004  1
  H  H34  1  0.129482  0.906582  0.446004  1
  H  H35  1  0.629482  0.593418  0.553996  1
  H  H36  1  0.129482  0.593418  0.946004  1
  H  H37  1  0.629482  0.906582  0.053996  1
  H  H38  1  0.870518  0.093419  0.553996  1
  H  H39  1  0.124500  0.386346  0.347949  1
  H  H40  1  0.370518  0.406581  0.446004  1
  H  H41  1  0.434150  0.373549  0.991901  1
  H  H42  1  0.065850  0.626451  0.491901  1
  H  H43  1  0.565850  0.873549  0.508099  1
  H  H44  1  0.065850  0.873549  0.991901  1
  H  H45  1  0.565850  0.626451  0.008099  1
  H  H46  1  0.934150  0.373549  0.508099  1
  H  H47  1  0.434150  0.126451  0.491901  1
  H  H48  1  0.185531  0.070824  0.085313  1
  H  H49  1  0.685531  0.429176  0.914687  1
  H  H50  1  0.814469  0.570824  0.414687  1
  H  H51  1  0.314469  0.929176  0.585313  1
  H  H52  1  0.814469  0.929176  0.914687  1
  H  H53  1  0.314469  0.570824  0.085313  1
  H  H54  1  0.185531  0.429176  0.585313  1
  H  H55  1  0.685531  0.070824  0.414687  1
  H  H56  1  0.191539  0.098923  0.299758  1
  H  H57  1  0.691539  0.401077  0.700242  1
  H  H58  1  0.808461  0.598923  0.200242  1
  H  H59  1  0.308461  0.901077  0.799758  1
  H  H60  1  0.808461  0.901077  0.700242  1
  H  H61  1  0.308461  0.598923  0.299758  1
  H  H62  1  0.191539  0.401077  0.799758  1
  H  H63  1  0.691539  0.098923  0.200242  1
  H  H64  1  0.800966  0.322444  0.342374  1
  H  H65  1  0.300966  0.177556  0.657626  1
  H  H66  1  0.199034  0.822444  0.157626  1
  H  H67  1  0.699034  0.677556  0.842374  1
  H  H68  1  0.199034  0.677556  0.657626  1
  H  H69  1  0.699034  0.822444  0.342374  1
  H  H70  1  0.800966  0.177556  0.842374  1
  H  H71  1  0.300966  0.322444  0.157626  1
  H  H72  1  0.645663  0.334022  0.509223  1
  H  H73  1  0.145663  0.165978  0.490777  1
  H  H74  1  0.354337  0.834022  0.990777  1
  H  H75  1  0.854337  0.665978  0.009223  1
  H  H76  1  0.354337  0.665978  0.490777  1
  H  H77  1  0.854337  0.834022  0.509223  1
  H  H78  1  0.645663  0.165978  0.009223  1
  H  H79  1  0.145663  0.334022  0.990777  1
  H  H80  1  0.583371  0.517314  0.340451  1
  H  H81  1  0.083371  0.982686  0.659549  1
  H  H82  1  0.416629  0.017314  0.159549  1
  H  H83  1  0.916629  0.482686  0.840451  1
  H  H84  1  0.416629  0.482686  0.659549  1
  H  H85  1  0.916629  0.017314  0.340451  1
  H  H86  1  0.583371  0.982686  0.840451  1
  H  H87  1  0.083371  0.517314  0.159549  1
  H  H88  1  0.624500  0.386346  0.152051  1
  H  H89  1  0.124500  0.113654  0.847949  1
  H  H90  1  0.375500  0.886346  0.347949  1
  H  H91  1  0.875500  0.613654  0.652051  1
  H  H92  1  0.375500  0.613654  0.847949  1
  H  H93  1  0.875500  0.886346  0.152051  1
  H  H94  1  0.624500  0.113654  0.652051  1
  H  H95  1  0.934150  0.126451  0.008099  1
  B  B96  1  0.946916  0.344251  0.093487  1
  B  B97  1  0.446916  0.155749  0.906513  1
  B  B98  1  0.053084  0.844251  0.406513  1
  B  B99  1  0.553084  0.655749  0.593487  1
  B  B100  1  0.053084  0.655749  0.906513  1
  B  B101  1  0.553084  0.844251  0.093487  1
  B  B102  1  0.946916  0.155749  0.593487  1
  B  B103  1  0.446916  0.344251  0.406513  1
  B  B104  1  0.982183  0.189472  0.068135  1
  B  B105  1  0.482183  0.310528  0.931865  1
  B  B106  1  0.017817  0.689472  0.431865  1
  B  B107  1  0.517817  0.810528  0.568135  1
  B  B108  1  0.017817  0.810528  0.931865  1
  B  B109  1  0.517817  0.689472  0.068135  1
  B  B110  1  0.982183  0.310528  0.568135  1
  B  B111  1  0.482183  0.189472  0.431865  1
  B  B112  1  0.129339  0.154073  0.122498  1
  B  B113  1  0.629339  0.345927  0.877502  1
  B  B114  1  0.870661  0.654073  0.377502  1
  B  B115  1  0.370661  0.845927  0.622498  1
  B  B116  1  0.870661  0.845927  0.877502  1
  B  B117  1  0.370661  0.654073  0.122498  1
  B  B118  1  0.129339  0.345927  0.622498  1
  B  B119  1  0.629339  0.154073  0.377502  1
  B  B120  1  0.150406  0.180519  0.250793  1
  B  B121  1  0.650406  0.319481  0.749207  1
  B  B122  1  0.849594  0.680519  0.249207  1
  B  B123  1  0.349594  0.819481  0.750793  1
  B  B124  1  0.849594  0.819481  0.749207  1
  B  B125  1  0.349594  0.680519  0.250793  1
  B  B126  1  0.150406  0.319481  0.750793  1
  B  B127  1  0.650406  0.180519  0.249207  1
  B  B128  1  0.116268  0.327848  0.275382  1
  B  B129  1  0.616268  0.172152  0.724618  1
  B  B130  1  0.883732  0.827848  0.224617  1
  B  B131  1  0.383732  0.672152  0.775382  1
  B  B132  1  0.883732  0.672152  0.724618  1
  B  B133  1  0.383732  0.827848  0.275382  1
  B  B134  1  0.116268  0.172152  0.775382  1
  B  B135  1  0.616268  0.327848  0.224617  1
  B  B136  1  0.071296  0.406498  0.164629  1
  B  B137  1  0.571296  0.093502  0.835371  1
  B  B138  1  0.928704  0.906498  0.335371  1
  B  B139  1  0.428704  0.593502  0.664629  1
  B  B140  1  0.928704  0.593502  0.835371  1
  B  B141  1  0.428704  0.906498  0.164629  1
  B  B142  1  0.071296  0.093502  0.664629  1
  B  B143  1  0.571296  0.406498  0.335371  1
  B  B144  1  0.097552  0.302097  0.063995  1
  B  B145  1  0.597552  0.197903  0.936005  1
  B  B146  1  0.902448  0.802097  0.436005  1
  B  B147  1  0.402448  0.697903  0.563995  1
  B  B148  1  0.902448  0.697903  0.936005  1
  B  B149  1  0.402448  0.802097  0.063995  1
  B  B150  1  0.097552  0.197903  0.563995  1
  B  B151  1  0.597552  0.302097  0.436005  1
  B  B152  1  0.194148  0.294085  0.171205  1
  B  B153  1  0.694148  0.205915  0.828795  1
  B  B154  1  0.805852  0.794085  0.328795  1
  B  B155  1  0.305852  0.705915  0.671205  1
  B  B156  1  0.805852  0.705915  0.828795  1
  B  B157  1  0.305852  0.794085  0.171205  1
  B  B158  1  0.194148  0.205915  0.671205  1
  B  B159  1  0.694148  0.294085  0.328795  1
