# generated using pymatgen
data_CuP2(HO)4
_symmetry_space_group_name_H-M   'P 1'
_cell_length_a   5.52199335
_cell_length_b   6.40165854
_cell_length_c   14.37112890
_cell_angle_alpha   90.00000000
_cell_angle_beta   90.00000000
_cell_angle_gamma   90.00000000
_symmetry_Int_Tables_number   1
_chemical_formula_structural   CuP2(HO)4
_chemical_formula_sum   'Cu4 P8 H16 O16'
_cell_volume   508.01819781
_cell_formula_units_Z   4
loop_
 _symmetry_equiv_pos_site_id
 _symmetry_equiv_pos_as_xyz
  1  'x, y, z'
loop_
 _atom_site_type_symbol
 _atom_site_label
 _atom_site_symmetry_multiplicity
 _atom_site_fract_x
 _atom_site_fract_y
 _atom_site_fract_z
 _atom_site_occupancy
  H  H0  1  0.428933  0.422496  0.356990  1
  H  H1  1  0.071067  0.922496  0.356990  1
  H  H2  1  0.571067  0.577504  0.643010  1
  H  H3  1  0.928933  0.422496  0.143010  1
  H  H4  1  0.428933  0.077504  0.856990  1
  H  H5  1  0.928933  0.077504  0.643010  1
  H  H6  1  0.071067  0.577504  0.856990  1
  H  H7  1  0.571067  0.922496  0.143010  1
  H  H8  1  0.966682  0.220673  0.286108  1
  H  H9  1  0.466682  0.279327  0.713892  1
  H  H10  1  0.033318  0.720673  0.213892  1
  H  H11  1  0.533318  0.779327  0.786108  1
  H  H12  1  0.466682  0.220673  0.213892  1
  H  H13  1  0.966682  0.279327  0.786108  1
  H  H14  1  0.533318  0.720673  0.286108  1
  H  H15  1  0.033318  0.779327  0.713892  1
  O  O16  1  0.825821  0.930217  0.884374  1
  O  O17  1  0.325821  0.569783  0.115626  1
  O  O18  1  0.174179  0.430217  0.615626  1
  O  O19  1  0.674179  0.069783  0.384374  1
  O  O20  1  0.587878  0.224416  0.051462  1
  O  O21  1  0.087878  0.275584  0.948538  1
  O  O22  1  0.087878  0.224416  0.448538  1
  O  O23  1  0.412122  0.724416  0.448538  1
  O  O24  1  0.912122  0.775584  0.551462  1
  O  O25  1  0.412122  0.775584  0.948538  1
  O  O26  1  0.912122  0.724416  0.051462  1
  O  O27  1  0.587878  0.275584  0.551462  1
  O  O28  1  0.174179  0.069783  0.115626  1
  O  O29  1  0.674179  0.430217  0.884374  1
  O  O30  1  0.825821  0.569783  0.384374  1
  O  O31  1  0.325821  0.930217  0.615626  1
  P  P32  1  0.945375  0.112049  0.371542  1
  P  P33  1  0.445375  0.387951  0.628458  1
  P  P34  1  0.054625  0.612049  0.128458  1
  P  P35  1  0.554625  0.887951  0.871542  1
  P  P36  1  0.054625  0.887951  0.628458  1
  P  P37  1  0.554625  0.612049  0.371542  1
  P  P38  1  0.945375  0.387951  0.871542  1
  P  P39  1  0.445375  0.112049  0.128458  1
  Cu  Cu40  1  0.500000  0.000000  0.500000  1
  Cu  Cu41  1  0.000000  0.500000  0.500000  1
  Cu  Cu42  1  0.500000  0.500000  0.000000  1
  Cu  Cu43  1  0.000000  0.000000  0.000000  1
