# generated using pymatgen
data_Tl2MoCl6
_symmetry_space_group_name_H-M   'P 1'
_cell_length_a   7.12086614
_cell_length_b   7.12086613
_cell_length_c   7.12086613
_cell_angle_alpha   59.99999997
_cell_angle_beta   59.99999998
_cell_angle_gamma   59.99999998
_symmetry_Int_Tables_number   1
_chemical_formula_structural   Tl2MoCl6
_chemical_formula_sum   'Tl2 Mo1 Cl6'
_cell_volume   255.31919493
_cell_formula_units_Z   1
loop_
 _symmetry_equiv_pos_site_id
 _symmetry_equiv_pos_as_xyz
  1  'x, y, z'
loop_
 _atom_site_type_symbol
 _atom_site_label
 _atom_site_symmetry_multiplicity
 _atom_site_fract_x
 _atom_site_fract_y
 _atom_site_fract_z
 _atom_site_occupancy
  Cl  Cl0  1  0.237811  0.762189  0.762189  1
  Cl  Cl1  1  0.237811  0.762189  0.237811  1
  Cl  Cl2  1  0.762189  0.237811  0.762189  1
  Cl  Cl3  1  0.762189  0.237811  0.237811  1
  Cl  Cl4  1  0.762189  0.762189  0.237811  1
  Cl  Cl5  1  0.237811  0.237811  0.762189  1
  Mo  Mo6  1  0.000000  0.000000  0.000000  1
  Tl  Tl7  1  0.250000  0.250000  0.250000  1
  Tl  Tl8  1  0.750000  0.750000  0.750000  1
