# generated using pymatgen
data_Bi2(PSe3)3
_symmetry_space_group_name_H-M   'P 1'
_cell_length_a   7.63246587
_cell_length_b   9.66253957
_cell_length_c   21.77109323
_cell_angle_alpha   91.42003821
_cell_angle_beta   90.00000000
_cell_angle_gamma   90.00000000
_symmetry_Int_Tables_number   1
_chemical_formula_structural   Bi2(PSe3)3
_chemical_formula_sum   'Bi8 P12 Se36'
_cell_volume   1605.10332698
_cell_formula_units_Z   4
loop_
 _symmetry_equiv_pos_site_id
 _symmetry_equiv_pos_as_xyz
  1  'x, y, z'
loop_
 _atom_site_type_symbol
 _atom_site_label
 _atom_site_symmetry_multiplicity
 _atom_site_fract_x
 _atom_site_fract_y
 _atom_site_fract_z
 _atom_site_occupancy
  P  P0  1  0.555574  0.028235  0.453231  1
  P  P1  1  0.055574  0.471765  0.046769  1
  P  P2  1  0.444426  0.971765  0.546769  1
  P  P3  1  0.944426  0.528235  0.953231  1
  P  P4  1  0.438397  0.068415  0.146316  1
  P  P5  1  0.938397  0.431585  0.353684  1
  P  P6  1  0.561603  0.931585  0.853684  1
  P  P7  1  0.061603  0.568415  0.646316  1
  P  P8  1  0.342496  0.060672  0.813779  1
  P  P9  1  0.842496  0.439328  0.686221  1
  P  P10  1  0.657504  0.939328  0.186221  1
  P  P11  1  0.157504  0.560672  0.313779  1
  Se  Se12  1  0.759416  0.048465  0.268563  1
  Se  Se13  1  0.455923  0.268314  0.796528  1
  Se  Se14  1  0.044077  0.768314  0.296528  1
  Se  Se15  1  0.544077  0.731686  0.203472  1
  Se  Se16  1  0.641953  0.448540  0.611082  1
  Se  Se17  1  0.141953  0.051460  0.888918  1
  Se  Se18  1  0.358047  0.551460  0.388918  1
  Se  Se19  1  0.858047  0.948540  0.111082  1
  Se  Se20  1  0.262879  0.568662  0.719435  1
  Se  Se21  1  0.762879  0.931338  0.780565  1
  Se  Se22  1  0.737121  0.431338  0.280565  1
  Se  Se23  1  0.955923  0.231686  0.703472  1
  Se  Se24  1  0.944779  0.769121  0.622216  1
  Se  Se25  1  0.444779  0.730879  0.877784  1
  Se  Se26  1  0.055221  0.230879  0.377784  1
  Se  Se27  1  0.555221  0.269121  0.122216  1
  Se  Se28  1  0.152534  0.440795  0.566161  1
  Se  Se29  1  0.652534  0.059205  0.933839  1
  Se  Se30  1  0.847466  0.559205  0.433839  1
  Se  Se31  1  0.347466  0.940795  0.066161  1
  Se  Se32  1  0.916480  0.756891  0.955672  1
  Se  Se33  1  0.416480  0.743109  0.544328  1
  Se  Se34  1  0.083520  0.243109  0.044328  1
  Se  Se35  1  0.583520  0.256891  0.455672  1
  Se  Se36  1  0.129990  0.454667  0.882103  1
  Se  Se37  1  0.629990  0.045333  0.617897  1
  Se  Se38  1  0.870010  0.545333  0.117897  1
  Se  Se39  1  0.370010  0.954667  0.382103  1
  Se  Se40  1  0.688924  0.419338  0.947076  1
  Se  Se41  1  0.188924  0.080662  0.552924  1
  Se  Se42  1  0.311076  0.580662  0.052924  1
  Se  Se43  1  0.811076  0.919338  0.447076  1
  Se  Se44  1  0.240584  0.951535  0.731437  1
  Se  Se45  1  0.740584  0.548465  0.768563  1
  Se  Se46  1  0.237121  0.068662  0.219435  1
  Se  Se47  1  0.259416  0.451535  0.231437  1
  Bi  Bi48  1  0.689944  0.741665  0.351209  1
  Bi  Bi49  1  0.189944  0.758335  0.148791  1
  Bi  Bi50  1  0.310056  0.258335  0.648791  1
  Bi  Bi51  1  0.810056  0.241665  0.851209  1
  Bi  Bi52  1  0.584852  0.730214  0.661462  1
  Bi  Bi53  1  0.084852  0.769786  0.838538  1
  Bi  Bi54  1  0.415148  0.269786  0.338538  1
  Bi  Bi55  1  0.915148  0.230214  0.161462  1
