# generated using pymatgen
data_RbMoAsO6
_symmetry_space_group_name_H-M   'P 1'
_cell_length_a   8.67038623
_cell_length_b   8.67038622
_cell_length_c   10.04162214
_cell_angle_alpha   111.77155799
_cell_angle_beta   111.77155797
_cell_angle_gamma   98.09802823
_symmetry_Int_Tables_number   1
_chemical_formula_structural   RbMoAsO6
_chemical_formula_sum   'Rb4 Mo4 As4 O24'
_cell_volume   616.17012598
_cell_formula_units_Z   4
loop_
 _symmetry_equiv_pos_site_id
 _symmetry_equiv_pos_as_xyz
  1  'x, y, z'
loop_
 _atom_site_type_symbol
 _atom_site_label
 _atom_site_symmetry_multiplicity
 _atom_site_fract_x
 _atom_site_fract_y
 _atom_site_fract_z
 _atom_site_occupancy
  O  O0  1  0.048588  0.909715  0.105359  1
  O  O1  1  0.804356  0.443229  0.394641  1
  O  O2  1  0.090285  0.951411  0.394640  1
  O  O3  1  0.556771  0.195645  0.105359  1
  O  O4  1  0.951412  0.090286  0.894641  1
  O  O5  1  0.195645  0.556771  0.605360  1
  O  O6  1  0.909715  0.048588  0.605360  1
  O  O7  1  0.443229  0.804356  0.894641  1
  O  O8  1  0.979611  0.604104  0.141887  1
  O  O9  1  0.462218  0.337724  0.358113  1
  O  O10  1  0.395895  0.020390  0.358113  1
  O  O11  1  0.662277  0.537782  0.141887  1
  O  O12  1  0.681995  0.613789  0.902235  1
  O  O13  1  0.711554  0.279759  0.597764  1
  O  O14  1  0.386211  0.318005  0.597765  1
  O  O15  1  0.720240  0.288446  0.902235  1
  O  O16  1  0.318005  0.386211  0.097764  1
  O  O17  1  0.288447  0.720241  0.402236  1
  O  O18  1  0.020389  0.395895  0.858113  1
  O  O19  1  0.279759  0.711554  0.097764  1
  O  O20  1  0.337723  0.462217  0.858113  1
  O  O21  1  0.604105  0.979611  0.641887  1
  O  O22  1  0.537782  0.662276  0.641886  1
  O  O23  1  0.613789  0.681994  0.402236  1
  As  As24  1  0.504776  0.754776  0.509552  1
  As  As25  1  0.245224  0.495224  0.990448  1
  As  As26  1  0.754776  0.504776  0.009553  1
  As  As27  1  0.495224  0.245224  0.490448  1
  Rb  Rb28  1  0.075725  0.325725  0.250000  1
  Rb  Rb29  1  0.924275  0.674276  0.750000  1
  Rb  Rb30  1  0.325725  0.075725  0.750000  1
  Rb  Rb31  1  0.674275  0.924275  0.249999  1
  Mo  Mo32  1  0.154449  0.845552  0.250000  1
  Mo  Mo33  1  0.595551  0.404448  0.249999  1
  Mo  Mo34  1  0.845551  0.154449  0.750000  1
  Mo  Mo35  1  0.404449  0.595551  0.750000  1
