# generated using pymatgen
data_AgBiSe2
_symmetry_space_group_name_H-M   'P 1'
_cell_length_a   7.05190746
_cell_length_b   7.05190707
_cell_length_c   7.05190731
_cell_angle_alpha   34.66252395
_cell_angle_beta   34.66252859
_cell_angle_gamma   34.66252215
_symmetry_Int_Tables_number   1
_chemical_formula_structural   AgBiSe2
_chemical_formula_sum   'Ag1 Bi1 Se2'
_cell_volume   101.22644239
_cell_formula_units_Z   1
loop_
 _symmetry_equiv_pos_site_id
 _symmetry_equiv_pos_as_xyz
  1  'x, y, z'
loop_
 _atom_site_type_symbol
 _atom_site_label
 _atom_site_symmetry_multiplicity
 _atom_site_fract_x
 _atom_site_fract_y
 _atom_site_fract_z
 _atom_site_occupancy
  Ag  Ag0  1  0.000000  0.000000  0.000000  1
  Bi  Bi1  1  0.500000  0.500000  0.500000  1
  Se  Se2  1  0.745861  0.745861  0.745861  1
  Se  Se3  1  0.254139  0.254139  0.254139  1
