# generated using pymatgen
data_TlTe
_symmetry_space_group_name_H-M   'P 1'
_cell_length_a   6.34256727
_cell_length_b   18.57613196
_cell_length_c   18.57613196
_cell_angle_alpha   90.00000000
_cell_angle_beta   90.00000000
_cell_angle_gamma   90.00000000
_symmetry_Int_Tables_number   1
_chemical_formula_structural   TlTe
_chemical_formula_sum   'Tl32 Te32'
_cell_volume   2188.64667703
_cell_formula_units_Z   32
loop_
 _symmetry_equiv_pos_site_id
 _symmetry_equiv_pos_as_xyz
  1  'x, y, z'
loop_
 _atom_site_type_symbol
 _atom_site_label
 _atom_site_symmetry_multiplicity
 _atom_site_fract_x
 _atom_site_fract_y
 _atom_site_fract_z
 _atom_site_occupancy
  Te  Te0  1  0.750000  0.998715  0.001285  1
  Te  Te1  1  0.250000  0.498715  0.998715  1
  Te  Te2  1  0.250000  0.001285  0.501285  1
  Te  Te3  1  0.750000  0.501285  0.498715  1
  Te  Te4  1  0.250000  0.001285  0.998715  1
  Te  Te5  1  0.750000  0.501285  0.001285  1
  Te  Te6  1  0.750000  0.998715  0.498715  1
  Te  Te7  1  0.250000  0.498715  0.501285  1
  Te  Te8  1  0.480516  0.750000  0.250000  1
  Te  Te9  1  0.980516  0.250000  0.750000  1
  Te  Te10  1  0.519484  0.250000  0.750000  1
  Te  Te11  1  0.019484  0.750000  0.250000  1
  Te  Te12  1  0.498785  0.750000  0.750000  1
  Te  Te13  1  0.998785  0.750000  0.750000  1
  Te  Te14  1  0.501215  0.250000  0.250000  1
  Te  Te15  1  0.003114  0.250000  0.412691  1
  Te  Te16  1  0.016983  0.087393  0.750000  1
  Te  Te17  1  0.016983  0.412607  0.750000  1
  Te  Te18  1  0.516983  0.750000  0.412607  1
  Te  Te19  1  0.516983  0.750000  0.087393  1
  Te  Te20  1  0.483017  0.250000  0.587393  1
  Te  Te21  1  0.983017  0.912607  0.250000  1
  Te  Te22  1  0.983017  0.587393  0.250000  1
  Te  Te23  1  0.483017  0.250000  0.912607  1
  Te  Te24  1  0.496886  0.587309  0.750000  1
  Te  Te25  1  0.496886  0.912691  0.750000  1
  Te  Te26  1  0.996886  0.750000  0.912691  1
  Te  Te27  1  0.996886  0.750000  0.587309  1
  Te  Te28  1  0.003114  0.250000  0.087309  1
  Te  Te29  1  0.503114  0.412691  0.250000  1
  Te  Te30  1  0.503114  0.087309  0.250000  1
  Te  Te31  1  0.001215  0.250000  0.250000  1
  Tl  Tl32  1  0.002484  0.846774  0.073682  1
  Tl  Tl33  1  0.003951  0.425769  0.346376  1
  Tl  Tl34  1  0.503951  0.153624  0.425769  1
  Tl  Tl35  1  0.503951  0.346376  0.074231  1
  Tl  Tl36  1  0.496049  0.653624  0.574231  1
  Tl  Tl37  1  0.996049  0.925769  0.653624  1
  Tl  Tl38  1  0.996049  0.574231  0.846376  1
  Tl  Tl39  1  0.496049  0.846376  0.925769  1
  Tl  Tl40  1  0.996049  0.925769  0.846376  1
  Tl  Tl41  1  0.996049  0.574231  0.653624  1
  Tl  Tl42  1  0.496049  0.846376  0.574231  1
  Tl  Tl43  1  0.496049  0.653624  0.925769  1
  Tl  Tl44  1  0.503951  0.346376  0.425769  1
  Tl  Tl45  1  0.003951  0.074231  0.346376  1
  Tl  Tl46  1  0.003951  0.425769  0.153624  1
  Tl  Tl47  1  0.503951  0.153624  0.074231  1
  Tl  Tl48  1  0.003951  0.074231  0.153624  1
  Tl  Tl49  1  0.002484  0.653226  0.426318  1
  Tl  Tl50  1  0.502484  0.073682  0.653226  1
  Tl  Tl51  1  0.502484  0.426318  0.846774  1
  Tl  Tl52  1  0.497516  0.573682  0.346774  1
  Tl  Tl53  1  0.997516  0.153226  0.573682  1
  Tl  Tl54  1  0.997516  0.346774  0.926318  1
  Tl  Tl55  1  0.497516  0.926318  0.153226  1
  Tl  Tl56  1  0.997516  0.153226  0.926318  1
  Tl  Tl57  1  0.997516  0.346774  0.573682  1
  Tl  Tl58  1  0.497516  0.926318  0.346774  1
  Tl  Tl59  1  0.497516  0.573682  0.153226  1
  Tl  Tl60  1  0.502484  0.426318  0.653226  1
  Tl  Tl61  1  0.002484  0.846774  0.426318  1
  Tl  Tl62  1  0.002484  0.653226  0.073682  1
  Tl  Tl63  1  0.502484  0.073682  0.846774  1
