# generated using pymatgen
data_FeCo2(CN)6
_symmetry_space_group_name_H-M   'P 1'
_cell_length_a   6.95754245
_cell_length_b   6.95754246
_cell_length_c   6.95754245
_cell_angle_alpha   59.99999999
_cell_angle_beta   59.99999997
_cell_angle_gamma   60.00000003
_symmetry_Int_Tables_number   1
_chemical_formula_structural   FeCo2(CN)6
_chemical_formula_sum   'Fe1 Co2 C6 N6'
_cell_volume   238.15110290
_cell_formula_units_Z   1
loop_
 _symmetry_equiv_pos_site_id
 _symmetry_equiv_pos_as_xyz
  1  'x, y, z'
loop_
 _atom_site_type_symbol
 _atom_site_label
 _atom_site_symmetry_multiplicity
 _atom_site_fract_x
 _atom_site_fract_y
 _atom_site_fract_z
 _atom_site_occupancy
  C  C0  1  0.190369  0.809631  0.190369  1
  C  C1  1  0.809631  0.190369  0.809631  1
  C  C2  1  0.190369  0.809631  0.809631  1
  C  C3  1  0.809631  0.190369  0.190369  1
  C  C4  1  0.190369  0.190369  0.809631  1
  C  C5  1  0.809631  0.809631  0.190369  1
  N  N6  1  0.309793  0.690207  0.690207  1
  N  N7  1  0.690207  0.309793  0.690207  1
  N  N8  1  0.309793  0.690207  0.309793  1
  N  N9  1  0.690207  0.309793  0.309793  1
  N  N10  1  0.309793  0.309793  0.690207  1
  N  N11  1  0.690207  0.690207  0.309793  1
  Fe  Fe12  1  0.000000  0.000000  0.000000  1
  Co  Co13  1  0.250000  0.250000  0.250000  1
  Co  Co14  1  0.500000  0.500000  0.500000  1
