# generated using pymatgen
data_CaTeO3
_symmetry_space_group_name_H-M   'P 1'
_cell_length_a   10.59815842
_cell_length_b   11.37964533
_cell_length_c   13.93153637
_cell_angle_alpha   76.65399760
_cell_angle_beta   85.72763871
_cell_angle_gamma   71.12597616
_symmetry_Int_Tables_number   1
_chemical_formula_structural   CaTeO3
_chemical_formula_sum   'Ca18 Te18 O54'
_cell_volume   1546.91310977
_cell_formula_units_Z   18
loop_
 _symmetry_equiv_pos_site_id
 _symmetry_equiv_pos_as_xyz
  1  'x, y, z'
loop_
 _atom_site_type_symbol
 _atom_site_label
 _atom_site_symmetry_multiplicity
 _atom_site_fract_x
 _atom_site_fract_y
 _atom_site_fract_z
 _atom_site_occupancy
  O  O0  1  0.000942  0.890359  0.954932  1
  O  O1  1  0.999058  0.109641  0.045068  1
  O  O2  1  0.131491  0.818089  0.390692  1
  O  O3  1  0.868510  0.181911  0.609308  1
  O  O4  1  0.474211  0.784450  0.115901  1
  O  O5  1  0.525789  0.215550  0.884099  1
  O  O6  1  0.761266  0.935874  0.859307  1
  O  O7  1  0.238734  0.064126  0.140693  1
  O  O8  1  0.118705  0.950086  0.544337  1
  O  O9  1  0.881295  0.049914  0.455663  1
  O  O10  1  0.505398  0.925930  0.237382  1
  O  O11  1  0.494602  0.074070  0.762618  1
  O  O12  1  0.002000  0.893649  0.745289  1
  O  O13  1  0.998000  0.106351  0.254711  1
  O  O14  1  0.282964  0.972297  0.383112  1
  O  O15  1  0.717036  0.027703  0.616888  1
  O  O16  1  0.631986  0.945621  0.055541  1
  O  O17  1  0.368014  0.054379  0.944459  1
  O  O18  1  0.077227  0.471730  0.590611  1
  O  O19  1  0.922773  0.528270  0.409389  1
  O  O20  1  0.662708  0.563510  0.285775  1
  O  O21  1  0.337292  0.436490  0.714225  1
  O  O22  1  0.780198  0.479893  0.903403  1
  O  O23  1  0.219802  0.520107  0.096597  1
  O  O24  1  0.917078  0.670801  0.700754  1
  O  O25  1  0.082922  0.329199  0.299246  1
  O  O26  1  0.427492  0.508142  0.242371  1
  O  O27  1  0.572508  0.491858  0.757629  1
  O  O28  1  0.611453  0.483372  0.059536  1
  O  O29  1  0.388547  0.516628  0.940464  1
  O  O30  1  0.142063  0.682294  0.592082  1
  O  O31  1  0.857937  0.317706  0.407918  1
  O  O32  1  0.410299  0.685895  0.365615  1
  O  O33  1  0.589701  0.314105  0.634385  1
  O  O34  1  0.727111  0.694027  0.001362  1
  O  O35  1  0.272889  0.305973  0.998638  1
  O  O36  1  0.569774  0.770497  0.770290  1
  O  O37  1  0.430226  0.229503  0.229710  1
  O  O38  1  0.870784  0.777223  0.459416  1
  O  O39  1  0.129216  0.222777  0.540584  1
  O  O40  1  0.198192  0.795302  0.119838  1
  O  O41  1  0.801808  0.204698  0.880162  1
  O  O42  1  0.366622  0.801430  0.914462  1
  O  O43  1  0.633378  0.198570  0.085538  1
  O  O44  1  0.732445  0.591788  0.568433  1
  O  O45  1  0.267555  0.408212  0.431567  1
  O  O46  1  0.916059  0.877229  0.179160  1
  O  O47  1  0.083941  0.122771  0.820840  1
  O  O48  1  0.319423  0.924826  0.704727  1
  O  O49  1  0.680577  0.075174  0.295273  1
  O  O50  1  0.589614  0.862611  0.499854  1
  O  O51  1  0.410386  0.137389  0.500146  1
  O  O52  1  0.099587  0.624880  0.266580  1
  O  O53  1  0.900413  0.375120  0.733420  1
  Ca  Ca54  1  0.096503  0.051314  0.674175  1
  Ca  Ca55  1  0.903497  0.948686  0.325825  1
  Ca  Ca56  1  0.475763  0.030890  0.367345  1
  Ca  Ca57  1  0.524237  0.969110  0.632655  1
  Ca  Ca58  1  0.813645  0.033861  0.028581  1
  Ca  Ca59  1  0.186355  0.966139  0.971419  1
  Ca  Ca60  1  0.911553  0.384516  0.564615  1
  Ca  Ca61  1  0.088447  0.615484  0.435385  1
  Ca  Ca62  1  0.255086  0.415628  0.263129  1
  Ca  Ca63  1  0.744914  0.584372  0.736871  1
  Ca  Ca64  1  0.597518  0.371204  0.923340  1
  Ca  Ca65  1  0.402482  0.628796  0.076660  1
  Ca  Ca66  1  0.934908  0.861322  0.591549  1
  Ca  Ca67  1  0.065092  0.138678  0.408451  1
  Ca  Ca68  1  0.301137  0.860279  0.243296  1
  Ca  Ca69  1  0.698863  0.139721  0.756704  1
  Ca  Ca70  1  0.565570  0.882037  0.916910  1
  Ca  Ca71  1  0.434430  0.117963  0.083090  1
  Te  Te72  1  0.935653  0.820415  0.864958  1
  Te  Te73  1  0.064347  0.179585  0.135042  1
  Te  Te74  1  0.249554  0.834699  0.480903  1
  Te  Te75  1  0.750446  0.165301  0.519097  1
  Te  Te76  1  0.622539  0.810982  0.164836  1
  Te  Te77  1  0.377461  0.189018  0.835164  1
  Te  Te78  1  0.095559  0.555247  0.689309  1
  Te  Te79  1  0.904441  0.444753  0.310691  1
  Te  Te80  1  0.514832  0.522435  0.351167  1
  Te  Te81  1  0.485168  0.477565  0.648833  1
  Te  Te82  1  0.774155  0.516205  0.030008  1
  Te  Te83  1  0.225845  0.483795  0.969992  1
  Te  Te84  1  0.953288  0.265988  0.858219  1
  Te  Te85  1  0.046712  0.734012  0.141781  1
  Te  Te86  1  0.282618  0.276206  0.545519  1
  Te  Te87  1  0.717382  0.723794  0.454481  1
  Te  Te88  1  0.608281  0.238086  0.212762  1
  Te  Te89  1  0.391719  0.761914  0.787238  1
