# generated using pymatgen
data_EuBr2
_symmetry_space_group_name_H-M   'P 1'
_cell_length_a   7.20128830
_cell_length_b   11.62054233
_cell_length_c   11.62054233
_cell_angle_alpha   90.00000000
_cell_angle_beta   90.00000000
_cell_angle_gamma   90.00000000
_symmetry_Int_Tables_number   1
_chemical_formula_structural   EuBr2
_chemical_formula_sum   'Eu10 Br20'
_cell_volume   972.44039728
_cell_formula_units_Z   10
loop_
 _symmetry_equiv_pos_site_id
 _symmetry_equiv_pos_as_xyz
  1  'x, y, z'
loop_
 _atom_site_type_symbol
 _atom_site_label
 _atom_site_symmetry_multiplicity
 _atom_site_fract_x
 _atom_site_fract_y
 _atom_site_fract_z
 _atom_site_occupancy
  Br  Br0  1  0.500000  0.750000  0.250000  1
  Br  Br1  1  0.500000  0.250000  0.750000  1
  Br  Br2  1  0.000000  0.750000  0.250000  1
  Br  Br3  1  0.000000  0.250000  0.750000  1
  Br  Br4  1  0.902922  0.839439  0.957104  1
  Br  Br5  1  0.902922  0.542896  0.839439  1
  Br  Br6  1  0.902922  0.957104  0.660561  1
  Br  Br7  1  0.902922  0.660561  0.542896  1
  Br  Br8  1  0.097078  0.160561  0.042896  1
  Br  Br9  1  0.097078  0.457104  0.160561  1
  Br  Br10  1  0.622866  0.152309  0.459174  1
  Br  Br11  1  0.622866  0.040826  0.152309  1
  Br  Br12  1  0.622866  0.459174  0.347691  1
  Br  Br13  1  0.622866  0.347691  0.040826  1
  Br  Br14  1  0.377134  0.847691  0.540826  1
  Br  Br15  1  0.377134  0.959174  0.847691  1
  Br  Br16  1  0.377134  0.540826  0.652309  1
  Br  Br17  1  0.377134  0.652309  0.959174  1
  Br  Br18  1  0.097078  0.339439  0.457104  1
  Br  Br19  1  0.097078  0.042896  0.339439  1
  Eu  Eu20  1  0.147789  0.750000  0.750000  1
  Eu  Eu21  1  0.852211  0.250000  0.250000  1
  Eu  Eu22  1  0.751553  0.602218  0.086630  1
  Eu  Eu23  1  0.751553  0.413370  0.602218  1
  Eu  Eu24  1  0.751553  0.086630  0.897782  1
  Eu  Eu25  1  0.751553  0.897782  0.413370  1
  Eu  Eu26  1  0.248447  0.397782  0.913370  1
  Eu  Eu27  1  0.248447  0.586630  0.397782  1
  Eu  Eu28  1  0.248447  0.913370  0.102218  1
  Eu  Eu29  1  0.248447  0.102218  0.586630  1
