# generated using pymatgen
data_Cs3MgH5
_symmetry_space_group_name_H-M   'P 1'
_cell_length_a   8.43329098
_cell_length_b   8.43329098
_cell_length_c   12.84082404
_cell_angle_alpha   90.00000000
_cell_angle_beta   90.00000000
_cell_angle_gamma   90.00000000
_symmetry_Int_Tables_number   1
_chemical_formula_structural   Cs3MgH5
_chemical_formula_sum   'Cs12 Mg4 H20'
_cell_volume   913.24450036
_cell_formula_units_Z   4
loop_
 _symmetry_equiv_pos_site_id
 _symmetry_equiv_pos_as_xyz
  1  'x, y, z'
loop_
 _atom_site_type_symbol
 _atom_site_label
 _atom_site_symmetry_multiplicity
 _atom_site_fract_x
 _atom_site_fract_y
 _atom_site_fract_z
 _atom_site_occupancy
  H  H0  1  0.000000  0.500000  0.741334  1
  H  H1  1  0.500000  0.000000  0.758666  1
  H  H2  1  0.500000  0.000000  0.258666  1
  H  H3  1  0.000000  0.500000  0.241334  1
  H  H4  1  0.385334  0.634164  0.587573  1
  H  H5  1  0.614666  0.365836  0.587573  1
  H  H6  1  0.634164  0.385334  0.912427  1
  H  H7  1  0.134164  0.114666  0.587573  1
  H  H8  1  0.865836  0.885334  0.587573  1
  H  H9  1  0.114666  0.134164  0.912427  1
  H  H10  1  0.885334  0.865836  0.912427  1
  H  H11  1  0.365836  0.614666  0.912427  1
  H  H12  1  0.114666  0.865836  0.412427  1
  H  H13  1  0.885334  0.134164  0.412427  1
  H  H14  1  0.865836  0.114666  0.087573  1
  H  H15  1  0.365836  0.385334  0.412427  1
  H  H16  1  0.134164  0.885334  0.087573  1
  H  H17  1  0.614666  0.634164  0.087573  1
  H  H18  1  0.385334  0.365836  0.087573  1
  H  H19  1  0.634164  0.614666  0.412427  1
  Mg  Mg20  1  0.000000  0.000000  0.500000  1
  Mg  Mg21  1  0.500000  0.500000  0.500000  1
  Mg  Mg22  1  0.500000  0.500000  0.000000  1
  Mg  Mg23  1  0.000000  0.000000  0.000000  1
  Cs  Cs24  1  0.000000  0.500000  0.496256  1
  Cs  Cs25  1  0.500000  0.000000  0.003744  1
  Cs  Cs26  1  0.500000  0.000000  0.503744  1
  Cs  Cs27  1  0.000000  0.500000  0.996256  1
  Cs  Cs28  1  0.680226  0.680226  0.750000  1
  Cs  Cs29  1  0.819774  0.180226  0.750000  1
  Cs  Cs30  1  0.180226  0.819774  0.750000  1
  Cs  Cs31  1  0.319774  0.319774  0.750000  1
  Cs  Cs32  1  0.819774  0.819774  0.250000  1
  Cs  Cs33  1  0.680226  0.319774  0.250000  1
  Cs  Cs34  1  0.319774  0.680226  0.250000  1
  Cs  Cs35  1  0.180226  0.180226  0.250000  1
