# generated using pymatgen
data_SbSCl9
_symmetry_space_group_name_H-M   'P 1'
_cell_length_a   9.08290541
_cell_length_b   9.08290541
_cell_length_c   9.09348834
_cell_angle_alpha   76.52289169
_cell_angle_beta   76.52289170
_cell_angle_gamma   76.54991188
_symmetry_Int_Tables_number   1
_chemical_formula_structural   SbSCl9
_chemical_formula_sum   'Sb2 S2 Cl18'
_cell_volume   696.73611618
_cell_formula_units_Z   2
loop_
 _symmetry_equiv_pos_site_id
 _symmetry_equiv_pos_as_xyz
  1  'x, y, z'
loop_
 _atom_site_type_symbol
 _atom_site_label
 _atom_site_symmetry_multiplicity
 _atom_site_fract_x
 _atom_site_fract_y
 _atom_site_fract_z
 _atom_site_occupancy
  S  S0  1  0.706803  0.706803  0.707059  1
  S  S1  1  0.293197  0.293197  0.292941  1
  Cl  Cl2  1  0.028426  0.028426  0.724653  1
  Cl  Cl3  1  0.971574  0.971574  0.275347  1
  Cl  Cl4  1  0.275594  0.971775  0.971909  1
  Cl  Cl5  1  0.028225  0.724406  0.028091  1
  Cl  Cl6  1  0.724406  0.028225  0.028091  1
  Cl  Cl7  1  0.971775  0.275594  0.971909  1
  Cl  Cl8  1  0.674471  0.370798  0.674572  1
  Cl  Cl9  1  0.629202  0.325529  0.325428  1
  Cl  Cl10  1  0.325529  0.629202  0.325428  1
  Cl  Cl11  1  0.370798  0.674471  0.674572  1
  Cl  Cl12  1  0.325267  0.325267  0.628664  1
  Cl  Cl13  1  0.674733  0.674733  0.371336  1
  Cl  Cl14  1  0.340974  0.062366  0.340656  1
  Cl  Cl15  1  0.937634  0.659026  0.659344  1
  Cl  Cl16  1  0.659026  0.937634  0.659344  1
  Cl  Cl17  1  0.062366  0.340974  0.340656  1
  Cl  Cl18  1  0.341123  0.341123  0.062360  1
  Cl  Cl19  1  0.658877  0.658877  0.937640  1
  Sb  Sb20  1  0.500000  0.500000  0.500000  1
  Sb  Sb21  1  0.000000  0.000000  0.000000  1
