# generated using pymatgen
data_Li2Sn3(P2O7)2
_symmetry_space_group_name_H-M   'P 1'
_cell_length_a   6.31042553
_cell_length_b   7.65910589
_cell_length_c   8.00855280
_cell_angle_alpha   70.34545634
_cell_angle_beta   82.15750225
_cell_angle_gamma   64.82845994
_symmetry_Int_Tables_number   1
_chemical_formula_structural   Li2Sn3(P2O7)2
_chemical_formula_sum   'Li2 Sn3 P4 O14'
_cell_volume   329.89420078
_cell_formula_units_Z   1
loop_
 _symmetry_equiv_pos_site_id
 _symmetry_equiv_pos_as_xyz
  1  'x, y, z'
loop_
 _atom_site_type_symbol
 _atom_site_label
 _atom_site_symmetry_multiplicity
 _atom_site_fract_x
 _atom_site_fract_y
 _atom_site_fract_z
 _atom_site_occupancy
  Li  Li0  1  0.676463  0.039834  0.694293  1
  Li  Li1  1  0.323537  0.960166  0.305707  1
  Sn  Sn2  1  0.216231  0.476991  0.300308  1
  Sn  Sn3  1  0.783769  0.523009  0.699692  1
  Sn  Sn4  1  0.000000  0.000000  0.000000  1
  P  P5  1  0.825098  0.266053  0.335748  1
  P  P6  1  0.659005  0.692521  0.069610  1
  P  P7  1  0.174902  0.733947  0.664252  1
  P  P8  1  0.340995  0.307479  0.930390  1
  O  O9  1  0.584846  0.188480  0.869045  1
  O  O10  1  0.147404  0.278268  0.859204  1
  O  O11  1  0.968821  0.334020  0.423499  1
  O  O12  1  0.619704  0.239299  0.449977  1
  O  O13  1  0.019473  0.915493  0.727222  1
  O  O14  1  0.289344  0.548458  0.849589  1
  O  O15  1  0.380296  0.760701  0.550023  1
  O  O16  1  0.670023  0.735708  0.866936  1
  O  O17  1  0.710656  0.451542  0.150411  1
  O  O18  1  0.852595  0.721732  0.140796  1
  O  O19  1  0.031179  0.665980  0.576501  1
  O  O20  1  0.980527  0.084507  0.272778  1
  O  O21  1  0.329977  0.264292  0.133064  1
  O  O22  1  0.415154  0.811520  0.130955  1
