# generated using pymatgen
data_Ba2Si3Ni
_symmetry_space_group_name_H-M   'P 1'
_cell_length_a   11.45034797
_cell_length_b   11.45034796
_cell_length_c   3.92046650
_cell_angle_alpha   90.00000000
_cell_angle_beta   90.00000000
_cell_angle_gamma   119.99999999
_symmetry_Int_Tables_number   1
_chemical_formula_structural   Ba2Si3Ni
_chemical_formula_sum   'Ba6 Si9 Ni3'
_cell_volume   445.14935499
_cell_formula_units_Z   3
loop_
 _symmetry_equiv_pos_site_id
 _symmetry_equiv_pos_as_xyz
  1  'x, y, z'
loop_
 _atom_site_type_symbol
 _atom_site_label
 _atom_site_symmetry_multiplicity
 _atom_site_fract_x
 _atom_site_fract_y
 _atom_site_fract_z
 _atom_site_occupancy
  Si  Si0  1  0.876669  0.000000  0.500000  1
  Si  Si1  1  0.000000  0.876669  0.500000  1
  Si  Si2  1  0.123331  0.123331  0.500000  1
  Si  Si3  1  0.779683  0.316317  0.500000  1
  Si  Si4  1  0.683683  0.463366  0.500000  1
  Si  Si5  1  0.316317  0.779683  0.500000  1
  Si  Si6  1  0.220317  0.536634  0.500000  1
  Si  Si7  1  0.463366  0.683683  0.500000  1
  Si  Si8  1  0.536634  0.220317  0.500000  1
  Ni  Ni9  1  0.333333  0.666667  0.000000  1
  Ni  Ni10  1  0.666667  0.333333  0.000000  1
  Ni  Ni11  1  0.000000  0.000000  0.000000  1
  Ba  Ba12  1  0.618187  0.000000  0.000000  1
  Ba  Ba13  1  0.381813  0.381813  0.000000  1
  Ba  Ba14  1  0.000000  0.618187  0.000000  1
  Ba  Ba15  1  0.000000  0.287073  0.000000  1
  Ba  Ba16  1  0.712927  0.712927  0.000000  1
  Ba  Ba17  1  0.287073  0.000000  0.000000  1
