# generated using pymatgen
data_Be(H2N)2
_symmetry_space_group_name_H-M   'P 1'
_cell_length_a   10.33451037
_cell_length_b   10.33451038
_cell_length_c   10.93201674
_cell_angle_alpha   118.20786406
_cell_angle_beta   118.20786409
_cell_angle_gamma   90.00000003
_symmetry_Int_Tables_number   1
_chemical_formula_structural   Be(H2N)2
_chemical_formula_sum   'Be16 H64 N32'
_cell_volume   868.37360788
_cell_formula_units_Z   16
loop_
 _symmetry_equiv_pos_site_id
 _symmetry_equiv_pos_as_xyz
  1  'x, y, z'
loop_
 _atom_site_type_symbol
 _atom_site_label
 _atom_site_symmetry_multiplicity
 _atom_site_fract_x
 _atom_site_fract_y
 _atom_site_fract_z
 _atom_site_occupancy
  H  H0  1  0.012348  0.257200  0.421252  1
  H  H1  1  0.835949  0.091096  0.078748  1
  H  H2  1  0.242800  0.487652  0.078748  1
  H  H3  1  0.091096  0.242800  0.578748  1
  H  H4  1  0.487652  0.835949  0.578748  1
  H  H5  1  0.664051  0.012348  0.921252  1
  H  H6  1  0.257200  0.408904  0.921252  1
  H  H7  1  0.408904  0.664051  0.421252  1
  H  H8  1  0.987652  0.742799  0.578748  1
  H  H9  1  0.164051  0.908904  0.921252  1
  H  H10  1  0.757201  0.512348  0.921252  1
  H  H11  1  0.908904  0.757201  0.421252  1
  H  H12  1  0.512348  0.164051  0.421252  1
  H  H13  1  0.335949  0.987652  0.078748  1
  H  H14  1  0.742799  0.591096  0.078748  1
  H  H15  1  0.591096  0.335949  0.578748  1
  H  H16  1  0.853640  0.497245  0.574336  1
  H  H17  1  0.922909  0.779304  0.925664  1
  H  H18  1  0.002755  0.646360  0.925664  1
  H  H19  1  0.779304  0.002755  0.425664  1
  H  H20  1  0.646360  0.922909  0.425664  1
  H  H21  1  0.577091  0.853640  0.074336  1
  H  H22  1  0.497245  0.720696  0.074336  1
  H  H23  1  0.720696  0.577091  0.574336  1
  H  H24  1  0.146360  0.502755  0.425664  1
  H  H25  1  0.077091  0.220696  0.074336  1
  H  H26  1  0.997245  0.353640  0.074336  1
  H  H27  1  0.590529  0.082777  0.171737  1
  H  H28  1  0.220696  0.997245  0.574336  1
  H  H29  1  0.422909  0.146360  0.925664  1
  H  H30  1  0.502755  0.279304  0.925664  1
  H  H31  1  0.279304  0.422909  0.425664  1
  H  H32  1  0.769259  0.167354  0.312459  1
  H  H33  1  0.854895  0.956799  0.187541  1
  H  H34  1  0.332646  0.730741  0.187541  1
  H  H35  1  0.956799  0.332646  0.687541  1
  H  H36  1  0.730741  0.854895  0.687541  1
  H  H37  1  0.645105  0.769259  0.812459  1
  H  H38  1  0.167354  0.543201  0.812459  1
  H  H39  1  0.543201  0.645105  0.312459  1
  H  H40  1  0.230741  0.832646  0.687541  1
  H  H41  1  0.145105  0.043201  0.812459  1
  H  H42  1  0.667354  0.269259  0.812459  1
  H  H43  1  0.043201  0.667354  0.312459  1
  H  H44  1  0.269259  0.145105  0.312459  1
  H  H45  1  0.354895  0.230741  0.187541  1
  H  H46  1  0.832646  0.456799  0.187541  1
  H  H47  1  0.456799  0.354895  0.687541  1
  H  H48  1  0.418792  0.411040  0.828263  1
  H  H49  1  0.917223  0.418792  0.328263  1
  H  H50  1  0.411040  0.409471  0.328263  1
  H  H51  1  0.090529  0.088960  0.171737  1
  H  H52  1  0.081208  0.582777  0.171737  1
  H  H53  1  0.582777  0.090529  0.671737  1
  H  H54  1  0.088960  0.081208  0.671737  1
  H  H55  1  0.409471  0.917223  0.828263  1
  H  H56  1  0.581208  0.588960  0.171737  1
  H  H57  1  0.082777  0.581208  0.671737  1
  H  H58  1  0.588960  0.590529  0.671737  1
  H  H59  1  0.909471  0.911040  0.828263  1
  H  H60  1  0.918792  0.417223  0.828263  1
  H  H61  1  0.417223  0.909471  0.328263  1
  H  H62  1  0.911040  0.918792  0.328263  1
  H  H63  1  0.353640  0.077091  0.574336  1
  Be  Be64  1  0.437962  0.379451  0.122629  1
  Be  Be65  1  0.243178  0.437962  0.622629  1
  Be  Be66  1  0.379451  0.684667  0.622629  1
  Be  Be67  1  0.815333  0.120549  0.877371  1
  Be  Be68  1  0.062038  0.256822  0.877371  1
  Be  Be69  1  0.256822  0.815333  0.377371  1
  Be  Be70  1  0.120549  0.062038  0.377371  1
  Be  Be71  1  0.684667  0.243178  0.122629  1
  Be  Be72  1  0.562038  0.620549  0.877371  1
  Be  Be73  1  0.756822  0.562038  0.377371  1
  Be  Be74  1  0.620549  0.315333  0.377371  1
  Be  Be75  1  0.184667  0.879451  0.122629  1
  Be  Be76  1  0.937962  0.743178  0.122629  1
  Be  Be77  1  0.743178  0.184667  0.622629  1
  Be  Be78  1  0.879451  0.937962  0.622629  1
  Be  Be79  1  0.315333  0.756822  0.877371  1
  N  N80  1  0.671096  0.187165  0.245098  1
  N  N81  1  0.942067  0.925998  0.254902  1
  N  N82  1  0.312835  0.828904  0.254902  1
  N  N83  1  0.925998  0.312835  0.754902  1
  N  N84  1  0.828904  0.942067  0.754902  1
  N  N85  1  0.557933  0.671096  0.745098  1
  N  N86  1  0.187165  0.574002  0.745098  1
  N  N87  1  0.574002  0.557933  0.245098  1
  N  N88  1  0.328904  0.812835  0.754902  1
  N  N89  1  0.057933  0.074001  0.745098  1
  N  N90  1  0.687165  0.171096  0.745098  1
  N  N91  1  0.074001  0.687165  0.245098  1
  N  N92  1  0.171096  0.057933  0.245098  1
  N  N93  1  0.442067  0.328904  0.254902  1
  N  N94  1  0.812835  0.425999  0.254902  1
  N  N95  1  0.425999  0.442067  0.754902  1
  N  N96  1  0.252079  0.502079  0.504157  1
  N  N97  1  0.502079  0.252079  0.004157  1
  N  N98  1  0.247921  0.997921  0.495843  1
  N  N99  1  0.997921  0.247921  0.995843  1
  N  N100  1  0.747921  0.497921  0.495843  1
  N  N101  1  0.497921  0.747921  0.995843  1
  N  N102  1  0.752079  0.002079  0.504157  1
  N  N103  1  0.002079  0.752079  0.004157  1
  N  N104  1  0.614110  0.250000  0.500000  1
  N  N105  1  0.750000  0.614110  0.000000  1
  N  N106  1  0.250000  0.885890  0.000000  1
  N  N107  1  0.885890  0.750000  0.500000  1
  N  N108  1  0.385890  0.750000  0.500000  1
  N  N109  1  0.250000  0.385890  0.000000  1
  N  N110  1  0.750000  0.114110  0.000000  1
  N  N111  1  0.114110  0.250000  0.500000  1
