# generated using pymatgen
data_LaIn2
_symmetry_space_group_name_H-M   'P 1'
_cell_length_a   4.87265314
_cell_length_b   6.47837368
_cell_length_c   6.47837368
_cell_angle_alpha   72.62938958
_cell_angle_beta   67.90949536
_cell_angle_gamma   67.90949542
_symmetry_Int_Tables_number   1
_chemical_formula_structural   LaIn2
_chemical_formula_sum   'La2 In4'
_cell_volume   172.61425739
_cell_formula_units_Z   2
loop_
 _symmetry_equiv_pos_site_id
 _symmetry_equiv_pos_as_xyz
  1  'x, y, z'
loop_
 _atom_site_type_symbol
 _atom_site_label
 _atom_site_symmetry_multiplicity
 _atom_site_fract_x
 _atom_site_fract_y
 _atom_site_fract_z
 _atom_site_occupancy
  In  In0  1  0.838658  0.707645  0.615040  1
  In  In1  1  0.161342  0.292355  0.384960  1
  In  In2  1  0.838658  0.115040  0.207645  1
  In  In3  1  0.161342  0.884960  0.792355  1
  La  La4  1  0.550441  0.699559  0.199559  1
  La  La5  1  0.449559  0.300441  0.800441  1
