# generated using pymatgen
data_Hg6S4Br3Cl
_symmetry_space_group_name_H-M   'P 1'
_cell_length_a   9.46425575
_cell_length_b   10.46918728
_cell_length_c   10.59423802
_cell_angle_alpha   113.79691309
_cell_angle_beta   90.00000000
_cell_angle_gamma   116.87241331
_symmetry_Int_Tables_number   1
_chemical_formula_structural   Hg6S4Br3Cl
_chemical_formula_sum   'Hg12 S8 Br6 Cl2'
_cell_volume   835.08485193
_cell_formula_units_Z   2
loop_
 _symmetry_equiv_pos_site_id
 _symmetry_equiv_pos_as_xyz
  1  'x, y, z'
loop_
 _atom_site_type_symbol
 _atom_site_label
 _atom_site_symmetry_multiplicity
 _atom_site_fract_x
 _atom_site_fract_y
 _atom_site_fract_z
 _atom_site_occupancy
  S  S0  1  0.176230  0.867330  0.753169  1
  S  S1  1  0.691100  0.867330  0.753169  1
  S  S2  1  0.823770  0.132670  0.246831  1
  S  S3  1  0.952350  0.392651  0.762439  1
  S  S4  1  0.559699  0.607349  0.237561  1
  S  S5  1  0.047650  0.607349  0.237561  1
  S  S6  1  0.440301  0.392651  0.762439  1
  S  S7  1  0.308900  0.132670  0.246831  1
  Cl  Cl8  1  0.125345  0.250690  0.986678  1
  Cl  Cl9  1  0.874655  0.749310  0.013322  1
  Br  Br10  1  0.251229  0.502458  0.497963  1
  Br  Br11  1  0.748771  0.497542  0.502037  1
  Br  Br12  1  0.500000  0.000000  0.500000  1
  Br  Br13  1  0.619164  0.238329  0.989634  1
  Br  Br14  1  0.380836  0.761671  0.010366  1
  Br  Br15  1  0.000000  0.000000  0.500000  1
  Hg  Hg16  1  0.157491  0.851914  0.205213  1
  Hg  Hg17  1  0.305576  0.148086  0.794787  1
  Hg  Hg18  1  0.842509  0.148086  0.794787  1
  Hg  Hg19  1  0.694424  0.851914  0.205213  1
  Hg  Hg20  1  0.425703  0.851406  0.774723  1
  Hg  Hg21  1  0.574297  0.148594  0.225277  1
  Hg  Hg22  1  0.282623  0.565246  0.211885  1
  Hg  Hg23  1  0.717377  0.434754  0.788115  1
  Hg  Hg24  1  0.367677  0.261800  0.504573  1
  Hg  Hg25  1  0.105877  0.738200  0.495427  1
  Hg  Hg26  1  0.632323  0.738200  0.495427  1
  Hg  Hg27  1  0.894123  0.261800  0.504573  1
