# generated using pymatgen
data_Na4Co7(PO4)6
_symmetry_space_group_name_H-M   'P 1'
_cell_length_a   6.54024613
_cell_length_b   9.01306762
_cell_length_c   9.01306762
_cell_angle_alpha   107.80472697
_cell_angle_beta   99.27431330
_cell_angle_gamma   99.27431320
_symmetry_Int_Tables_number   1
_chemical_formula_structural   Na4Co7(PO4)6
_chemical_formula_sum   'Na4 Co7 P6 O24'
_cell_volume   486.55909005
_cell_formula_units_Z   1
loop_
 _symmetry_equiv_pos_site_id
 _symmetry_equiv_pos_as_xyz
  1  'x, y, z'
loop_
 _atom_site_type_symbol
 _atom_site_label
 _atom_site_symmetry_multiplicity
 _atom_site_fract_x
 _atom_site_fract_y
 _atom_site_fract_z
 _atom_site_occupancy
  O  O0  1  0.250540  0.441663  0.441663  1
  O  O1  1  0.727112  0.547849  0.547849  1
  O  O2  1  0.125848  0.194893  0.194893  1
  O  O3  1  0.860403  0.794827  0.794827  1
  O  O4  1  0.071837  0.747498  0.575923  1
  O  O5  1  0.071837  0.575923  0.747498  1
  O  O6  1  0.915424  0.413539  0.237773  1
  O  O7  1  0.915424  0.237773  0.413539  1
  O  O8  1  0.510141  0.342432  0.016168  1
  O  O9  1  0.510141  0.016168  0.342432  1
  O  O10  1  0.486981  0.972142  0.649844  1
  O  O11  1  0.486981  0.649844  0.972142  1
  O  O12  1  0.136259  0.387374  0.966364  1
  O  O13  1  0.136259  0.966364  0.387374  1
  O  O14  1  0.863736  0.016268  0.606901  1
  O  O15  1  0.863736  0.606901  0.016268  1
  O  O16  1  0.216280  0.097963  0.888206  1
  O  O17  1  0.729380  0.260010  0.719801  1
  O  O18  1  0.729380  0.719801  0.260010  1
  O  O19  1  0.274426  0.267791  0.723631  1
  O  O20  1  0.274426  0.723631  0.267791  1
  O  O21  1  0.779958  0.896923  0.104215  1
  O  O22  1  0.779958  0.104215  0.896923  1
  O  O23  1  0.216280  0.888206  0.097963  1
  Na  Na24  1  0.520132  0.059433  0.059433  1
  Na  Na25  1  0.442156  0.676022  0.676022  1
  Na  Na26  1  0.489135  0.520434  0.291127  1
  Na  Na27  1  0.489135  0.291127  0.520434  1
  P  P28  1  0.056581  0.320551  0.320551  1
  P  P29  1  0.922595  0.666733  0.666733  1
  P  P30  1  0.710278  0.080209  0.714473  1
  P  P31  1  0.710278  0.714473  0.080209  1
  P  P32  1  0.288622  0.278006  0.903458  1
  P  P33  1  0.288622  0.903458  0.278006  1
  Co  Co34  1  0.182329  0.996622  0.639505  1
  Co  Co35  1  0.182329  0.639505  0.996622  1
  Co  Co36  1  0.815726  0.356890  0.984441  1
  Co  Co37  1  0.815726  0.984441  0.356890  1
  Co  Co38  1  0.002053  0.652392  0.337418  1
  Co  Co39  1  0.002053  0.337418  0.652392  1
  Co  Co40  1  0.996405  0.994988  0.994988  1
