# generated using pymatgen
data_Si(PbSe2)2
_symmetry_space_group_name_H-M   'P 1'
_cell_length_a   7.38648752
_cell_length_b   8.80241749
_cell_length_c   14.03233670
_cell_angle_alpha   108.56479800
_cell_angle_beta   90.00000000
_cell_angle_gamma   90.00000000
_symmetry_Int_Tables_number   1
_chemical_formula_structural   Si(PbSe2)2
_chemical_formula_sum   'Si4 Pb8 Se16'
_cell_volume   864.89196653
_cell_formula_units_Z   4
loop_
 _symmetry_equiv_pos_site_id
 _symmetry_equiv_pos_as_xyz
  1  'x, y, z'
loop_
 _atom_site_type_symbol
 _atom_site_label
 _atom_site_symmetry_multiplicity
 _atom_site_fract_x
 _atom_site_fract_y
 _atom_site_fract_z
 _atom_site_occupancy
  Si  Si0  1  0.252044  0.441707  0.645319  1
  Si  Si1  1  0.752044  0.058293  0.854681  1
  Si  Si2  1  0.747956  0.558293  0.354681  1
  Si  Si3  1  0.247956  0.941707  0.145319  1
  Se  Se4  1  0.234343  0.619676  0.556131  1
  Se  Se5  1  0.734343  0.880324  0.943869  1
  Se  Se6  1  0.765657  0.380324  0.443869  1
  Se  Se7  1  0.265657  0.119676  0.056131  1
  Se  Se8  1  0.477187  0.992340  0.262226  1
  Se  Se9  1  0.977187  0.507660  0.237774  1
  Se  Se10  1  0.522813  0.007660  0.737774  1
  Se  Se11  1  0.022813  0.492340  0.762226  1
  Se  Se12  1  0.482374  0.518912  0.265182  1
  Se  Se13  1  0.982374  0.981088  0.234818  1
  Se  Se14  1  0.517626  0.481088  0.734818  1
  Se  Se15  1  0.017626  0.018912  0.765182  1
  Se  Se16  1  0.276220  0.679123  0.042577  1
  Se  Se17  1  0.776220  0.820877  0.457423  1
  Se  Se18  1  0.723780  0.320877  0.957423  1
  Se  Se19  1  0.223780  0.179123  0.542577  1
  Pb  Pb20  1  0.362842  0.306254  0.862284  1
  Pb  Pb21  1  0.862842  0.193746  0.637716  1
  Pb  Pb22  1  0.637158  0.693746  0.137716  1
  Pb  Pb23  1  0.137158  0.806254  0.362284  1
  Pb  Pb24  1  0.356146  0.819956  0.874376  1
  Pb  Pb25  1  0.856146  0.680044  0.625624  1
  Pb  Pb26  1  0.643854  0.180044  0.125624  1
  Pb  Pb27  1  0.143854  0.319956  0.374376  1
