# generated using pymatgen
data_AsH8CN3O4
_symmetry_space_group_name_H-M   'P 1'
_cell_length_a   6.29838587
_cell_length_b   7.74940984
_cell_length_c   14.09135023
_cell_angle_alpha   90.00000000
_cell_angle_beta   90.00000000
_cell_angle_gamma   91.93078264
_symmetry_Int_Tables_number   1
_chemical_formula_structural   AsH8CN3O4
_chemical_formula_sum   'As4 H32 C4 N12 O16'
_cell_volume   687.39103883
_cell_formula_units_Z   4
loop_
 _symmetry_equiv_pos_site_id
 _symmetry_equiv_pos_as_xyz
  1  'x, y, z'
loop_
 _atom_site_type_symbol
 _atom_site_label
 _atom_site_symmetry_multiplicity
 _atom_site_fract_x
 _atom_site_fract_y
 _atom_site_fract_z
 _atom_site_occupancy
  H  H0  1  0.126805  0.826511  0.931614  1
  H  H1  1  0.873195  0.673489  0.431614  1
  H  H2  1  0.873195  0.173489  0.068386  1
  H  H3  1  0.126805  0.326511  0.568386  1
  H  H4  1  0.130386  0.055555  0.937636  1
  H  H5  1  0.869614  0.444445  0.437636  1
  H  H6  1  0.869614  0.944445  0.062364  1
  H  H7  1  0.130386  0.555555  0.562364  1
  H  H8  1  0.405201  0.699821  0.849081  1
  H  H9  1  0.594799  0.800179  0.349081  1
  H  H10  1  0.594799  0.300179  0.150919  1
  H  H11  1  0.405201  0.199821  0.650919  1
  H  H12  1  0.628156  0.821254  0.811813  1
  H  H13  1  0.371844  0.678746  0.311813  1
  H  H14  1  0.371844  0.178746  0.188187  1
  H  H15  1  0.628156  0.321254  0.688187  1
  H  H16  1  0.781905  0.063654  0.527334  1
  H  H17  1  0.626596  0.635913  0.664728  1
  H  H18  1  0.218095  0.936346  0.472666  1
  H  H19  1  0.781905  0.563654  0.972666  1
  H  H20  1  0.404347  0.215563  0.894076  1
  H  H21  1  0.595653  0.284437  0.394076  1
  H  H22  1  0.595653  0.784437  0.105924  1
  H  H23  1  0.404347  0.715563  0.605924  1
  H  H24  1  0.013604  0.147874  0.722408  1
  H  H25  1  0.986396  0.352126  0.222408  1
  H  H26  1  0.986396  0.852126  0.277592  1
  H  H27  1  0.013604  0.647874  0.777592  1
  H  H28  1  0.626596  0.135913  0.835272  1
  H  H29  1  0.373404  0.364087  0.335272  1
  H  H30  1  0.373404  0.864087  0.164728  1
  H  H31  1  0.218095  0.436346  0.027334  1
  C  C32  1  0.392718  0.455714  0.621164  1
  C  C33  1  0.607282  0.044286  0.121164  1
  C  C34  1  0.607282  0.544286  0.378836  1
  C  C35  1  0.392718  0.955714  0.878836  1
  N  N36  1  0.483550  0.612774  0.631598  1
  N  N37  1  0.516450  0.387226  0.368402  1
  N  N38  1  0.516450  0.887226  0.131598  1
  N  N39  1  0.483550  0.112774  0.868402  1
  N  N40  1  0.202477  0.942715  0.921467  1
  N  N41  1  0.797523  0.557285  0.421467  1
  N  N42  1  0.797523  0.057285  0.078533  1
  N  N43  1  0.202477  0.442715  0.578533  1
  N  N44  1  0.489706  0.314058  0.650128  1
  N  N45  1  0.510294  0.185942  0.150128  1
  N  N46  1  0.510294  0.685942  0.349872  1
  N  N47  1  0.489706  0.814058  0.849872  1
  O  O48  1  0.731976  0.479740  0.920637  1
  O  O49  1  0.268024  0.020260  0.420637  1
  O  O50  1  0.118438  0.803465  0.551876  1
  O  O51  1  0.731976  0.979740  0.579363  1
  O  O52  1  0.861932  0.262842  0.780239  1
  O  O53  1  0.138068  0.237158  0.280239  1
  O  O54  1  0.138068  0.737158  0.219761  1
  O  O55  1  0.861932  0.762842  0.719761  1
  O  O56  1  0.107471  0.074383  0.679039  1
  O  O57  1  0.892529  0.425617  0.179039  1
  O  O58  1  0.892529  0.925617  0.320961  1
  O  O59  1  0.107471  0.574383  0.820961  1
  O  O60  1  0.118438  0.303465  0.948124  1
  O  O61  1  0.881562  0.196535  0.448124  1
  O  O62  1  0.881562  0.696535  0.051876  1
  O  O63  1  0.268024  0.520260  0.079363  1
  As  As64  1  0.958817  0.396070  0.866846  1
  As  As65  1  0.041183  0.103930  0.366846  1
  As  As66  1  0.041183  0.603930  0.133154  1
  As  As67  1  0.958817  0.896070  0.633154  1
