# generated using pymatgen
data_CeBO3
_symmetry_space_group_name_H-M   'P 1'
_cell_length_a   4.13628348
_cell_length_b   5.11314560
_cell_length_c   6.34451656
_cell_angle_alpha   90.00000000
_cell_angle_beta   108.36619170
_cell_angle_gamma   90.00000000
_symmetry_Int_Tables_number   1
_chemical_formula_structural   CeBO3
_chemical_formula_sum   'Ce2 B2 O6'
_cell_volume   127.34785096
_cell_formula_units_Z   2
loop_
 _symmetry_equiv_pos_site_id
 _symmetry_equiv_pos_as_xyz
  1  'x, y, z'
loop_
 _atom_site_type_symbol
 _atom_site_label
 _atom_site_symmetry_multiplicity
 _atom_site_fract_x
 _atom_site_fract_y
 _atom_site_fract_z
 _atom_site_occupancy
  B  B0  1  0.001477  0.250000  0.255572  1
  B  B1  1  0.998523  0.750000  0.744428  1
  O  O2  1  0.664163  0.750000  0.609164  1
  O  O3  1  0.335837  0.250000  0.390836  1
  O  O4  1  0.156979  0.983623  0.827186  1
  O  O5  1  0.843021  0.483623  0.172814  1
  O  O6  1  0.843021  0.016377  0.172814  1
  O  O7  1  0.156979  0.516377  0.827186  1
  Ce  Ce8  1  0.614895  0.250000  0.777518  1
  Ce  Ce9  1  0.385105  0.750000  0.222482  1
