# generated using pymatgen
data_UCrC2
_symmetry_space_group_name_H-M   'P 1'
_cell_length_a   3.72883692
_cell_length_b   5.24584130
_cell_length_c   10.39471688
_cell_angle_alpha   90.00000000
_cell_angle_beta   90.00000000
_cell_angle_gamma   90.00000000
_symmetry_Int_Tables_number   1
_chemical_formula_structural   UCrC2
_chemical_formula_sum   'U4 Cr4 C8'
_cell_volume   203.32987933
_cell_formula_units_Z   4
loop_
 _symmetry_equiv_pos_site_id
 _symmetry_equiv_pos_as_xyz
  1  'x, y, z'
loop_
 _atom_site_type_symbol
 _atom_site_label
 _atom_site_symmetry_multiplicity
 _atom_site_fract_x
 _atom_site_fract_y
 _atom_site_fract_z
 _atom_site_occupancy
  C  C0  1  0.250000  0.255073  0.500689  1
  C  C1  1  0.750000  0.744927  0.499311  1
  C  C2  1  0.250000  0.755073  0.999311  1
  C  C3  1  0.750000  0.244927  0.000689  1
  C  C4  1  0.250000  0.100514  0.375525  1
  C  C5  1  0.750000  0.399486  0.875525  1
  C  C6  1  0.250000  0.600514  0.124475  1
  C  C7  1  0.750000  0.899486  0.624475  1
  Cr  Cr8  1  0.750000  0.599120  0.069834  1
  Cr  Cr9  1  0.750000  0.099120  0.430166  1
  Cr  Cr10  1  0.250000  0.400880  0.930166  1
  Cr  Cr11  1  0.250000  0.900880  0.569834  1
  U  U12  1  0.250000  0.604492  0.355971  1
  U  U13  1  0.750000  0.395508  0.644029  1
  U  U14  1  0.250000  0.104492  0.144029  1
  U  U15  1  0.750000  0.895508  0.855971  1
