# generated using pymatgen
data_Tl2Pt5S6
_symmetry_space_group_name_H-M   'P 1'
_cell_length_a   7.09245766
_cell_length_b   7.04392253
_cell_length_c   11.32950269
_cell_angle_alpha   97.80537219
_cell_angle_beta   90.00000000
_cell_angle_gamma   90.00000000
_symmetry_Int_Tables_number   1
_chemical_formula_structural   Tl2Pt5S6
_chemical_formula_sum   'Tl4 Pt10 S12'
_cell_volume   560.76348217
_cell_formula_units_Z   2
loop_
 _symmetry_equiv_pos_site_id
 _symmetry_equiv_pos_as_xyz
  1  'x, y, z'
loop_
 _atom_site_type_symbol
 _atom_site_label
 _atom_site_symmetry_multiplicity
 _atom_site_fract_x
 _atom_site_fract_y
 _atom_site_fract_z
 _atom_site_occupancy
  S  S0  1  0.841395  0.264689  0.113418  1
  S  S1  1  0.341394  0.235311  0.386582  1
  S  S2  1  0.158606  0.735311  0.886582  1
  S  S3  1  0.658605  0.764689  0.613418  1
  S  S4  1  0.935999  0.064830  0.806949  1
  S  S5  1  0.435999  0.435170  0.693051  1
  S  S6  1  0.058778  0.593119  0.334856  1
  S  S7  1  0.558778  0.906881  0.165144  1
  S  S8  1  0.941222  0.406881  0.665144  1
  S  S9  1  0.441222  0.093119  0.834856  1
  S  S10  1  0.564001  0.564830  0.306949  1
  S  S11  1  0.064001  0.935170  0.193051  1
  Pt  Pt12  1  0.311140  0.744706  0.244879  1
  Pt  Pt13  1  0.811140  0.755294  0.255121  1
  Pt  Pt14  1  0.071984  0.267559  0.267134  1
  Pt  Pt15  1  0.571984  0.232441  0.232866  1
  Pt  Pt16  1  0.928016  0.732441  0.732866  1
  Pt  Pt17  1  0.428016  0.767559  0.767134  1
  Pt  Pt18  1  0.000000  0.000000  0.000000  1
  Pt  Pt19  1  0.500000  0.500000  0.500000  1
  Pt  Pt20  1  0.688860  0.255294  0.755121  1
  Pt  Pt21  1  0.188860  0.244706  0.744879  1
  Tl  Tl22  1  0.787356  0.115660  0.454463  1
  Tl  Tl23  1  0.287356  0.384340  0.045537  1
  Tl  Tl24  1  0.212644  0.884340  0.545537  1
  Tl  Tl25  1  0.712644  0.615660  0.954463  1
