# generated using pymatgen
data_TePbF6
_symmetry_space_group_name_H-M   'P 1'
_cell_length_a   4.75923885
_cell_length_b   8.69164516
_cell_length_c   13.06667162
_cell_angle_alpha   90.00000000
_cell_angle_beta   90.00000000
_cell_angle_gamma   103.30892672
_symmetry_Int_Tables_number   1
_chemical_formula_structural   TePbF6
_chemical_formula_sum   'Te4 Pb4 F24'
_cell_volume   525.99442017
_cell_formula_units_Z   4
loop_
 _symmetry_equiv_pos_site_id
 _symmetry_equiv_pos_as_xyz
  1  'x, y, z'
loop_
 _atom_site_type_symbol
 _atom_site_label
 _atom_site_symmetry_multiplicity
 _atom_site_fract_x
 _atom_site_fract_y
 _atom_site_fract_z
 _atom_site_occupancy
  F  F0  1  0.889442  0.635955  0.671687  1
  F  F1  1  0.110558  0.864045  0.171687  1
  F  F2  1  0.110558  0.364045  0.328313  1
  F  F3  1  0.889442  0.135955  0.828313  1
  F  F4  1  0.251743  0.662402  0.812990  1
  F  F5  1  0.748257  0.837598  0.312990  1
  F  F6  1  0.748257  0.337598  0.187010  1
  F  F7  1  0.251743  0.162402  0.687010  1
  F  F8  1  0.779556  0.084390  0.469831  1
  F  F9  1  0.220444  0.415610  0.969831  1
  F  F10  1  0.220444  0.915610  0.530169  1
  F  F11  1  0.779556  0.584390  0.030169  1
  F  F12  1  0.674089  0.455527  0.394863  1
  F  F13  1  0.325911  0.044473  0.894863  1
  F  F14  1  0.325911  0.544473  0.605137  1
  F  F15  1  0.674089  0.955527  0.105137  1
  F  F16  1  0.806983  0.843659  0.882452  1
  F  F17  1  0.193017  0.656341  0.382452  1
  F  F18  1  0.193017  0.156341  0.117548  1
  F  F19  1  0.806983  0.343659  0.617548  1
  F  F20  1  0.703243  0.935927  0.684010  1
  F  F21  1  0.296757  0.564073  0.184009  1
  F  F22  1  0.296757  0.064073  0.315991  1
  F  F23  1  0.703243  0.435927  0.815990  1
  Te  Te24  1  0.058316  0.971595  0.777433  1
  Te  Te25  1  0.941684  0.528405  0.277433  1
  Te  Te26  1  0.941684  0.028405  0.222567  1
  Te  Te27  1  0.058316  0.471595  0.722567  1
  Pb  Pb28  1  0.637392  0.808070  0.505000  1
  Pb  Pb29  1  0.362608  0.691930  0.005000  1
  Pb  Pb30  1  0.362608  0.191930  0.495000  1
  Pb  Pb31  1  0.637392  0.308070  0.995000  1
