# generated using pymatgen
data_Ba3SiS5
_symmetry_space_group_name_H-M   'P 1'
_cell_length_a   8.69300459
_cell_length_b   9.55183217
_cell_length_c   12.13416415
_cell_angle_alpha   90.00000000
_cell_angle_beta   90.00000000
_cell_angle_gamma   90.00000000
_symmetry_Int_Tables_number   1
_chemical_formula_structural   Ba3SiS5
_chemical_formula_sum   'Ba12 Si4 S20'
_cell_volume   1007.54965301
_cell_formula_units_Z   4
loop_
 _symmetry_equiv_pos_site_id
 _symmetry_equiv_pos_as_xyz
  1  'x, y, z'
loop_
 _atom_site_type_symbol
 _atom_site_label
 _atom_site_symmetry_multiplicity
 _atom_site_fract_x
 _atom_site_fract_y
 _atom_site_fract_z
 _atom_site_occupancy
  Si  Si0  1  0.305889  0.750000  0.403054  1
  Si  Si1  1  0.194111  0.750000  0.903054  1
  Si  Si2  1  0.694111  0.250000  0.596946  1
  Si  Si3  1  0.805889  0.250000  0.096946  1
  S  S4  1  0.682120  0.750000  0.765587  1
  S  S5  1  0.182120  0.250000  0.734413  1
  S  S6  1  0.317880  0.250000  0.234413  1
  S  S7  1  0.817880  0.750000  0.265587  1
  S  S8  1  0.986526  0.750000  0.994767  1
  S  S9  1  0.486526  0.250000  0.505233  1
  S  S10  1  0.013474  0.250000  0.005233  1
  S  S11  1  0.513474  0.750000  0.494767  1
  S  S12  1  0.149634  0.750000  0.729267  1
  S  S13  1  0.350366  0.750000  0.229267  1
  S  S14  1  0.850366  0.250000  0.270733  1
  S  S15  1  0.649634  0.250000  0.770733  1
  S  S16  1  0.683398  0.065895  0.055330  1
  S  S17  1  0.183398  0.934105  0.444670  1
  S  S18  1  0.316602  0.565895  0.944670  1
  S  S19  1  0.816602  0.434105  0.555330  1
  S  S20  1  0.316602  0.934105  0.944670  1
  S  S21  1  0.816602  0.065895  0.555330  1
  S  S22  1  0.683398  0.434105  0.055330  1
  S  S23  1  0.183398  0.565895  0.444670  1
  Ba  Ba24  1  0.886047  0.750000  0.519722  1
  Ba  Ba25  1  0.386047  0.250000  0.980278  1
  Ba  Ba26  1  0.113953  0.250000  0.480278  1
  Ba  Ba27  1  0.613953  0.750000  0.019722  1
  Ba  Ba28  1  0.077771  0.980266  0.182594  1
  Ba  Ba29  1  0.577771  0.019734  0.317406  1
  Ba  Ba30  1  0.922229  0.480266  0.817406  1
  Ba  Ba31  1  0.422229  0.519734  0.682594  1
  Ba  Ba32  1  0.922229  0.019734  0.817406  1
  Ba  Ba33  1  0.422229  0.980266  0.682594  1
  Ba  Ba34  1  0.077771  0.519734  0.182594  1
  Ba  Ba35  1  0.577771  0.480266  0.317406  1
