# generated using pymatgen
data_In(MoSe)3
_symmetry_space_group_name_H-M   'P 1'
_cell_length_a   9.11464293
_cell_length_b   9.11464293
_cell_length_c   4.52992692
_cell_angle_alpha   90.00000000
_cell_angle_beta   90.00000000
_cell_angle_gamma   120.00000001
_symmetry_Int_Tables_number   1
_chemical_formula_structural   In(MoSe)3
_chemical_formula_sum   'In2 Mo6 Se6'
_cell_volume   325.91259691
_cell_formula_units_Z   2
loop_
 _symmetry_equiv_pos_site_id
 _symmetry_equiv_pos_as_xyz
  1  'x, y, z'
loop_
 _atom_site_type_symbol
 _atom_site_label
 _atom_site_symmetry_multiplicity
 _atom_site_fract_x
 _atom_site_fract_y
 _atom_site_fract_z
 _atom_site_occupancy
  Se  Se0  1  0.931355  0.636533  0.750000  1
  Se  Se1  1  0.294822  0.931355  0.250000  1
  Se  Se2  1  0.705178  0.068645  0.750000  1
  Se  Se3  1  0.068645  0.363467  0.250000  1
  Se  Se4  1  0.636533  0.705178  0.250000  1
  Se  Se5  1  0.363467  0.294822  0.750000  1
  Mo  Mo6  1  0.966637  0.816545  0.250000  1
  Mo  Mo7  1  0.816545  0.849908  0.750000  1
  Mo  Mo8  1  0.033363  0.183455  0.750000  1
  Mo  Mo9  1  0.183455  0.150092  0.250000  1
  Mo  Mo10  1  0.849908  0.033363  0.250000  1
  Mo  Mo11  1  0.150092  0.966637  0.750000  1
  In  In12  1  0.333333  0.666667  0.750000  1
  In  In13  1  0.666667  0.333333  0.250000  1
