# generated using pymatgen
data_Ba(TeO3)2
_symmetry_space_group_name_H-M   'P 1'
_cell_length_a   5.66291862
_cell_length_b   7.15062761
_cell_length_c   7.46171565
_cell_angle_alpha   90.00000000
_cell_angle_beta   90.00000000
_cell_angle_gamma   113.32670495
_symmetry_Int_Tables_number   1
_chemical_formula_structural   Ba(TeO3)2
_chemical_formula_sum   'Ba2 Te4 O12'
_cell_volume   277.45320916
_cell_formula_units_Z   2
loop_
 _symmetry_equiv_pos_site_id
 _symmetry_equiv_pos_as_xyz
  1  'x, y, z'
loop_
 _atom_site_type_symbol
 _atom_site_label
 _atom_site_symmetry_multiplicity
 _atom_site_fract_x
 _atom_site_fract_y
 _atom_site_fract_z
 _atom_site_occupancy
  O  O0  1  0.658315  0.789892  0.044754  1
  O  O1  1  0.868423  0.210108  0.955246  1
  O  O2  1  0.341685  0.210108  0.544754  1
  O  O3  1  0.131577  0.789892  0.455246  1
  O  O4  1  0.341685  0.210108  0.955246  1
  O  O5  1  0.131577  0.789892  0.044754  1
  O  O6  1  0.951584  0.903168  0.750000  1
  O  O7  1  0.048416  0.096832  0.250000  1
  O  O8  1  0.725911  0.451821  0.750000  1
  O  O9  1  0.274089  0.548179  0.250000  1
  O  O10  1  0.868423  0.210108  0.544754  1
  O  O11  1  0.658315  0.789892  0.455246  1
  Te  Te12  1  0.000000  0.000000  0.000000  1
  Te  Te13  1  0.000000  0.000000  0.500000  1
  Te  Te14  1  0.415209  0.830418  0.250000  1
  Te  Te15  1  0.584791  0.169582  0.750000  1
  Ba  Ba16  1  0.277923  0.555846  0.750000  1
  Ba  Ba17  1  0.722077  0.444154  0.250000  1
