# generated using pymatgen
data_VNCl4
_symmetry_space_group_name_H-M   'P 1'
_cell_length_a   5.99751776
_cell_length_b   7.67355400
_cell_length_c   8.21960298
_cell_angle_alpha   108.13732850
_cell_angle_beta   93.89048838
_cell_angle_gamma   112.83219013
_symmetry_Int_Tables_number   1
_chemical_formula_structural   VNCl4
_chemical_formula_sum   'V2 N2 Cl8'
_cell_volume   323.54522388
_cell_formula_units_Z   2
loop_
 _symmetry_equiv_pos_site_id
 _symmetry_equiv_pos_as_xyz
  1  'x, y, z'
loop_
 _atom_site_type_symbol
 _atom_site_label
 _atom_site_symmetry_multiplicity
 _atom_site_fract_x
 _atom_site_fract_y
 _atom_site_fract_z
 _atom_site_occupancy
  N  N0  1  0.912486  0.648379  0.758259  1
  N  N1  1  0.087514  0.351621  0.241741  1
  Cl  Cl2  1  0.917931  0.201930  0.326855  1
  Cl  Cl3  1  0.082069  0.798070  0.673145  1
  Cl  Cl4  1  0.467622  0.250829  0.624486  1
  Cl  Cl5  1  0.532378  0.749171  0.375514  1
  Cl  Cl6  1  0.529199  0.693203  0.953731  1
  Cl  Cl7  1  0.470801  0.306797  0.046269  1
  Cl  Cl8  1  0.960861  0.299311  0.858177  1
  Cl  Cl9  1  0.039139  0.700689  0.141823  1
  V  V10  1  0.258475  0.496237  0.143015  1
  V  V11  1  0.741525  0.503763  0.856985  1
