# generated using pymatgen
data_AlSbI6
_symmetry_space_group_name_H-M   'P 1'
_cell_length_a   8.07858910
_cell_length_b   10.98407702
_cell_length_c   10.98407702
_cell_angle_alpha   79.12586698
_cell_angle_beta   70.02286660
_cell_angle_gamma   70.02286657
_symmetry_Int_Tables_number   1
_chemical_formula_structural   AlSbI6
_chemical_formula_sum   'Al2 Sb2 I12'
_cell_volume   858.05574437
_cell_formula_units_Z   2
loop_
 _symmetry_equiv_pos_site_id
 _symmetry_equiv_pos_as_xyz
  1  'x, y, z'
loop_
 _atom_site_type_symbol
 _atom_site_label
 _atom_site_symmetry_multiplicity
 _atom_site_fract_x
 _atom_site_fract_y
 _atom_site_fract_z
 _atom_site_occupancy
  Al  Al0  1  0.348629  0.803539  0.803539  1
  Al  Al1  1  0.651371  0.196461  0.196461  1
  Sb  Sb2  1  0.000000  0.190408  0.809592  1
  Sb  Sb3  1  0.000000  0.809592  0.190408  1
  I  I4  1  0.074590  0.785353  0.422936  1
  I  I5  1  0.925410  0.577064  0.214647  1
  I  I6  1  0.925410  0.214647  0.577064  1
  I  I7  1  0.074590  0.422936  0.785353  1
  I  I8  1  0.578066  0.975313  0.277632  1
  I  I9  1  0.421934  0.722368  0.024687  1
  I  I10  1  0.421934  0.024687  0.722368  1
  I  I11  1  0.578066  0.277632  0.975313  1
  I  I12  1  0.004737  0.141988  0.141988  1
  I  I13  1  0.995263  0.858012  0.858012  1
  I  I14  1  0.466857  0.359979  0.359979  1
  I  I15  1  0.533143  0.640021  0.640021  1
