# generated using pymatgen
data_C15S4
_symmetry_space_group_name_H-M   'P 1'
_cell_length_a   11.18867826
_cell_length_b   15.76385488
_cell_length_c   15.76385453
_cell_angle_alpha   90.51849313
_cell_angle_beta   104.61188264
_cell_angle_gamma   104.61188111
_symmetry_Int_Tables_number   1
_chemical_formula_structural   C15S4
_chemical_formula_sum   'C120 S32'
_cell_volume   2595.57649599
_cell_formula_units_Z   8
loop_
 _symmetry_equiv_pos_site_id
 _symmetry_equiv_pos_as_xyz
  1  'x, y, z'
loop_
 _atom_site_type_symbol
 _atom_site_label
 _atom_site_symmetry_multiplicity
 _atom_site_fract_x
 _atom_site_fract_y
 _atom_site_fract_z
 _atom_site_occupancy
  C  C0  1  0.645848  0.574856  0.252867  1
  C  C1  1  0.854152  0.747133  0.425144  1
  C  C2  1  0.354152  0.425144  0.747133  1
  C  C3  1  0.145848  0.252867  0.574856  1
  C  C4  1  0.695593  0.564677  0.177774  1
  C  C5  1  0.804407  0.822226  0.435323  1
  C  C6  1  0.304407  0.435323  0.822226  1
  C  C7  1  0.195593  0.177774  0.564677  1
  C  C8  1  0.834396  0.593744  0.206816  1
  C  C9  1  0.665604  0.793184  0.406256  1
  C  C10  1  0.165604  0.406256  0.793184  1
  C  C11  1  0.334396  0.206816  0.593744  1
  C  C12  1  0.870596  0.621805  0.299861  1
  C  C13  1  0.629404  0.700139  0.378195  1
  C  C14  1  0.129404  0.378195  0.700139  1
  C  C15  1  0.370596  0.299861  0.621805  1
  C  C16  1  0.754028  0.610157  0.328379  1
  C  C17  1  0.745972  0.671621  0.389843  1
  C  C18  1  0.245972  0.389843  0.671621  1
  C  C19  1  0.254028  0.328379  0.610157  1
  C  C20  1  0.703204  0.629466  0.036550  1
  C  C21  1  0.796796  0.963450  0.370534  1
  C  C22  1  0.296796  0.370534  0.963450  1
  C  C23  1  0.203204  0.036550  0.629466  1
  C  C24  1  0.631177  0.582202  0.094235  1
  C  C25  1  0.868823  0.905765  0.417798  1
  C  C26  1  0.368823  0.417798  0.905765  1
  C  C27  1  0.131177  0.094235  0.582202  1
  C  C28  1  0.514608  0.610624  0.082626  1
  C  C29  1  0.985392  0.917374  0.389376  1
  C  C30  1  0.485392  0.389376  0.917374  1
  C  C31  1  0.014608  0.082626  0.610624  1
  C  C32  1  0.514635  0.675523  0.017733  1
  C  C33  1  0.985365  0.982267  0.324477  1
  C  C34  1  0.485365  0.324477  0.982267  1
  C  C35  1  0.014635  0.017733  0.675523  1
  C  C36  1  0.631168  0.687163  0.989254  1
  C  C37  1  0.868832  0.010746  0.312837  1
  C  C38  1  0.368832  0.312837  0.010746  1
  C  C39  1  0.131168  0.989254  0.687163  1
  C  C40  1  0.836909  0.657457  0.064530  1
  C  C41  1  0.663091  0.935470  0.342543  1
  C  C42  1  0.163091  0.342543  0.935470  1
  C  C43  1  0.336909  0.064530  0.657457  1
  C  C44  1  0.903827  0.744173  0.046242  1
  C  C45  1  0.596173  0.953758  0.255827  1
  C  C46  1  0.096173  0.255827  0.953758  1
  C  C47  1  0.403827  0.046242  0.744173  1
  C  C48  1  0.012093  0.779499  0.121668  1
  C  C49  1  0.487907  0.878332  0.220501  1
  C  C50  1  0.987907  0.220501  0.878332  1
  C  C51  1  0.512093  0.121668  0.779499  1
  C  C52  1  0.012024  0.714626  0.186568  1
  C  C53  1  0.487976  0.813432  0.285374  1
  C  C54  1  0.987976  0.285374  0.813432  1
  C  C55  1  0.512024  0.186568  0.714626  1
  C  C56  1  0.903749  0.639246  0.151241  1
  C  C57  1  0.596251  0.848759  0.360754  1
  C  C58  1  0.096251  0.360754  0.848759  1
  C  C59  1  0.403749  0.151241  0.639246  1
  C  C60  1  0.834412  0.799718  0.000748  1
  C  C61  1  0.665588  0.999252  0.200282  1
  C  C62  1  0.165588  0.200282  0.999252  1
  C  C63  1  0.334412  0.000748  0.799718  1
  C  C64  1  0.695557  0.770699  0.971696  1
  C  C65  1  0.804443  0.028304  0.229301  1
  C  C66  1  0.304443  0.229301  0.028304  1
  C  C67  1  0.195557  0.971696  0.770699  1
  C  C68  1  0.645830  0.845817  0.981873  1
  C  C69  1  0.854170  0.018127  0.154183  1
  C  C70  1  0.354170  0.154183  0.018127  1
  C  C71  1  0.145830  0.981873  0.845817  1
  C  C72  1  0.754031  0.921293  0.017223  1
  C  C73  1  0.745969  0.982777  0.078707  1
  C  C74  1  0.245969  0.078707  0.982777  1
  C  C75  1  0.254031  0.017223  0.921293  1
  C  C76  1  0.870543  0.892745  0.028901  1
  C  C77  1  0.629457  0.971099  0.107255  1
  C  C78  1  0.129457  0.107255  0.971099  1
  C  C79  1  0.370543  0.028901  0.892745  1
  C  C80  1  0.974760  0.926786  0.101569  1
  C  C81  1  0.525240  0.898431  0.073214  1
  C  C82  1  0.025240  0.073214  0.898431  1
  C  C83  1  0.474760  0.101569  0.926786  1
  C  C84  1  0.533636  0.834595  0.009373  1
  C  C85  1  0.966364  0.990627  0.165405  1
  C  C86  1  0.466364  0.165405  0.990627  1
  C  C87  1  0.033636  0.009373  0.834595  1
  C  C88  1  0.466843  0.747870  0.027635  1
  C  C89  1  0.033157  0.972365  0.252130  1
  C  C90  1  0.533157  0.252130  0.972365  1
  C  C91  1  0.966843  0.027635  0.747870  1
  C  C92  1  0.417038  0.758092  0.102732  1
  C  C93  1  0.082962  0.897268  0.241908  1
  C  C94  1  0.582962  0.241908  0.897268  1
  C  C95  1  0.917038  0.102732  0.758092  1
  C  C96  1  0.453098  0.851152  0.130862  1
  C  C97  1  0.046902  0.869138  0.148848  1
  C  C98  1  0.546902  0.148848  0.869138  1
  C  C99  1  0.953098  0.130862  0.851152  1
  C  C100  1  0.453141  0.723791  0.258278  1
  C  C101  1  0.046859  0.741722  0.276209  1
  C  C102  1  0.546859  0.276209  0.741722  1
  C  C103  1  0.953141  0.258278  0.723791  1
  C  C104  1  0.417002  0.695615  0.165217  1
  C  C105  1  0.082998  0.834783  0.304385  1
  C  C106  1  0.582998  0.304385  0.834783  1
  C  C107  1  0.917002  0.165217  0.695615  1
  C  C108  1  0.466731  0.620477  0.154964  1
  C  C109  1  0.033269  0.845036  0.379523  1
  C  C110  1  0.533269  0.379523  0.845036  1
  C  C111  1  0.966731  0.154964  0.620477  1
  C  C112  1  0.533629  0.602279  0.241694  1
  C  C113  1  0.966371  0.758306  0.397721  1
  C  C114  1  0.466371  0.397721  0.758306  1
  C  C115  1  0.033629  0.241694  0.602279  1
  C  C116  1  0.974808  0.694430  0.333916  1
  C  C117  1  0.525192  0.666084  0.305570  1
  C  C118  1  0.025192  0.305570  0.666084  1
  C  C119  1  0.474808  0.333916  0.694430  1
  S  S120  1  0.370140  0.121264  0.269178  1
  S  S121  1  0.129860  0.730822  0.878736  1
  S  S122  1  0.629860  0.878736  0.730822  1
  S  S123  1  0.870140  0.269178  0.121264  1
  S  S124  1  0.283647  0.221370  0.275463  1
  S  S125  1  0.216353  0.724537  0.778630  1
  S  S126  1  0.716353  0.778630  0.724537  1
  S  S127  1  0.783647  0.275463  0.221370  1
  S  S128  1  0.413002  0.340022  0.273656  1
  S  S129  1  0.086998  0.726344  0.659978  1
  S  S130  1  0.586998  0.659978  0.726344  1
  S  S131  1  0.913002  0.273656  0.340022  1
  S  S132  1  0.499123  0.393599  0.400941  1
  S  S133  1  0.000877  0.599059  0.606401  1
  S  S134  1  0.500877  0.606401  0.599059  1
  S  S135  1  0.999123  0.400941  0.393599  1
  S  S136  1  0.673042  0.364304  0.442332  1
  S  S137  1  0.826958  0.557668  0.635696  1
  S  S138  1  0.326958  0.635696  0.557668  1
  S  S139  1  0.173042  0.442332  0.364304  1
  S  S140  1  0.653713  0.257996  0.517615  1
  S  S141  1  0.846287  0.482385  0.742004  1
  S  S142  1  0.346287  0.742004  0.482385  1
  S  S143  1  0.153713  0.517615  0.257996  1
  S  S144  1  0.626417  0.144119  0.441341  1
  S  S145  1  0.873583  0.558659  0.855881  1
  S  S146  1  0.373583  0.855881  0.558659  1
  S  S147  1  0.126417  0.441341  0.144119  1
  S  S148  1  0.433296  0.084744  0.394503  1
  S  S149  1  0.066704  0.605497  0.915256  1
  S  S150  1  0.566704  0.915256  0.605497  1
  S  S151  1  0.933296  0.394503  0.084744  1
