# generated using pymatgen
data_Sr4Zn3F14
_symmetry_space_group_name_H-M   'P 1'
_cell_length_a   6.89637556
_cell_length_b   6.89801065
_cell_length_c   7.20784034
_cell_angle_alpha   90.00183766
_cell_angle_beta   90.00367610
_cell_angle_gamma   60.00784079
_symmetry_Int_Tables_number   1
_chemical_formula_structural   Sr4Zn3F14
_chemical_formula_sum   'Sr4 Zn3 F14'
_cell_volume   296.97156077
_cell_formula_units_Z   1
loop_
 _symmetry_equiv_pos_site_id
 _symmetry_equiv_pos_as_xyz
  1  'x, y, z'
loop_
 _atom_site_type_symbol
 _atom_site_label
 _atom_site_symmetry_multiplicity
 _atom_site_fract_x
 _atom_site_fract_y
 _atom_site_fract_z
 _atom_site_occupancy
  F  F0  1  0.244533  0.000000  0.730017  1
  F  F1  1  0.397862  0.607509  0.464113  1
  F  F2  1  0.005371  0.392491  0.464113  1
  F  F3  1  0.338884  0.333268  0.737802  1
  F  F4  1  0.672152  0.666732  0.737802  1
  F  F5  1  0.613506  0.000000  0.464478  1
  F  F6  1  0.006121  0.760427  0.730323  1
  F  F7  1  0.005329  0.734328  0.230644  1
  F  F8  1  0.739657  0.265672  0.230644  1
  F  F9  1  0.271892  0.000000  0.231196  1
  F  F10  1  0.615488  0.000000  0.999670  1
  F  F11  1  0.395522  0.610141  -0.000137  1
  F  F12  1  0.005663  0.389859  -0.000137  1
  F  F13  1  0.766548  0.239573  0.730323  1
  Zn  Zn14  1  0.541833  0.000000  0.731845  1
  Zn  Zn15  1  0.005490  0.463272  0.731788  1
  Zn  Zn16  1  0.468762  0.536728  0.731788  1
  Sr  Sr17  1  0.672246  0.666568  0.229677  1
  Sr  Sr18  1  0.338814  0.333432  0.229677  1
  Sr  Sr19  1  0.005689  0.000000  0.992163  1
  Sr  Sr20  1  0.005239  0.000000  0.469009  1
