# generated using pymatgen
data_Rb2SnI6
_symmetry_space_group_name_H-M   'P 1'
_cell_length_a   8.38047243
_cell_length_b   8.38047218
_cell_length_c   8.38047259
_cell_angle_alpha   60.00000262
_cell_angle_beta   60.00000359
_cell_angle_gamma   59.99999899
_symmetry_Int_Tables_number   1
_chemical_formula_structural   Rb2SnI6
_chemical_formula_sum   'Rb2 Sn1 I6'
_cell_volume   416.18892553
_cell_formula_units_Z   1
loop_
 _symmetry_equiv_pos_site_id
 _symmetry_equiv_pos_as_xyz
  1  'x, y, z'
loop_
 _atom_site_type_symbol
 _atom_site_label
 _atom_site_symmetry_multiplicity
 _atom_site_fract_x
 _atom_site_fract_y
 _atom_site_fract_z
 _atom_site_occupancy
  Sn  Sn0  1  0.000000  0.000000  0.000000  1
  Rb  Rb1  1  0.250000  0.250000  0.250000  1
  Rb  Rb2  1  0.750000  0.750000  0.750000  1
  I  I3  1  0.755088  0.244912  0.244912  1
  I  I4  1  0.755088  0.755088  0.244912  1
  I  I5  1  0.244912  0.244912  0.755088  1
  I  I6  1  0.755088  0.244912  0.755088  1
  I  I7  1  0.244912  0.755088  0.244912  1
  I  I8  1  0.244912  0.755088  0.755088  1
