# generated using pymatgen
data_Ca(AuO2)2
_symmetry_space_group_name_H-M   'P 1'
_cell_length_a   6.10501340
_cell_length_b   6.10501339
_cell_length_c   6.69014669
_cell_angle_alpha   117.14661511
_cell_angle_beta   117.14661518
_cell_angle_gamma   90.00000008
_symmetry_Int_Tables_number   1
_chemical_formula_structural   Ca(AuO2)2
_chemical_formula_sum   'Ca2 Au4 O8'
_cell_volume   190.49358268
_cell_formula_units_Z   2
loop_
 _symmetry_equiv_pos_site_id
 _symmetry_equiv_pos_as_xyz
  1  'x, y, z'
loop_
 _atom_site_type_symbol
 _atom_site_label
 _atom_site_symmetry_multiplicity
 _atom_site_fract_x
 _atom_site_fract_y
 _atom_site_fract_z
 _atom_site_occupancy
  O  O0  1  0.832935  0.219294  0.348039  1
  O  O1  1  0.128745  0.332935  0.848039  1
  O  O2  1  0.719294  0.015105  0.848039  1
  O  O3  1  0.515105  0.628745  0.348039  1
  O  O4  1  0.167065  0.780706  0.651961  1
  O  O5  1  0.871255  0.667065  0.151961  1
  O  O6  1  0.484895  0.371255  0.651961  1
  O  O7  1  0.280706  0.984895  0.151961  1
  Ca  Ca8  1  0.125000  0.375000  0.250000  1
  Ca  Ca9  1  0.875000  0.625000  0.750000  1
  Au  Au10  1  0.500000  0.000000  0.500000  1
  Au  Au11  1  0.500000  0.500000  0.000000  1
  Au  Au12  1  0.000000  0.000000  0.500000  1
  Au  Au13  1  0.500000  0.000000  0.000000  1
