# generated using pymatgen
data_SbCl4F
_symmetry_space_group_name_H-M   'P 1'
_cell_length_a   8.30129479
_cell_length_b   10.37445476
_cell_length_c   10.37445476
_cell_angle_alpha   80.78922952
_cell_angle_beta   66.41660614
_cell_angle_gamma   66.41660609
_symmetry_Int_Tables_number   1
_chemical_formula_structural   SbCl4F
_chemical_formula_sum   'Sb4 Cl16 F4'
_cell_volume   750.44898441
_cell_formula_units_Z   4
loop_
 _symmetry_equiv_pos_site_id
 _symmetry_equiv_pos_as_xyz
  1  'x, y, z'
loop_
 _atom_site_type_symbol
 _atom_site_label
 _atom_site_symmetry_multiplicity
 _atom_site_fract_x
 _atom_site_fract_y
 _atom_site_fract_z
 _atom_site_occupancy
  F  F0  1  0.120232  0.957587  0.799318  1
  F  F1  1  0.877137  0.042413  0.200682  1
  F  F2  1  0.922180  0.200682  0.957587  1
  F  F3  1  0.080450  0.799318  0.042413  1
  Cl  Cl4  1  0.689210  0.836043  0.245029  1
  Cl  Cl5  1  0.770282  0.163957  0.754971  1
  Cl  Cl6  1  0.474747  0.754971  0.836043  1
  Cl  Cl7  1  0.065761  0.245029  0.163957  1
  Cl  Cl8  1  0.216179  0.101311  0.499756  1
  Cl  Cl9  1  0.284065  0.499756  0.898689  1
  Cl  Cl10  1  0.682511  0.500244  0.101311  1
  Cl  Cl11  1  0.817245  0.898689  0.500244  1
  Cl  Cl12  1  0.621277  0.299203  0.416819  1
  Cl  Cl13  1  0.961904  0.416819  0.700797  1
  Cl  Cl14  1  0.079520  0.583181  0.299203  1
  Cl  Cl15  1  0.337299  0.700797  0.583181  1
  Cl  Cl16  1  0.325150  0.147190  0.773636  1
  Cl  Cl17  1  0.901214  0.773636  0.852810  1
  Cl  Cl18  1  0.527660  0.226364  0.147190  1
  Cl  Cl19  1  0.245976  0.852810  0.226364  1
  Sb  Sb20  1  0.963484  0.826030  0.266207  1
  Sb  Sb21  1  0.770308  0.266207  0.173970  1
  Sb  Sb22  1  0.210486  0.733793  0.826030  1
  Sb  Sb23  1  0.055721  0.173970  0.733793  1
