# generated using pymatgen
data_Rb3BS3
_symmetry_space_group_name_H-M   'P 1'
_cell_length_a   6.46961821
_cell_length_b   10.53230069
_cell_length_c   13.24064812
_cell_angle_alpha   104.52650047
_cell_angle_beta   90.00000000
_cell_angle_gamma   90.00000000
_symmetry_Int_Tables_number   1
_chemical_formula_structural   Rb3BS3
_chemical_formula_sum   'Rb12 B4 S12'
_cell_volume   873.37496556
_cell_formula_units_Z   4
loop_
 _symmetry_equiv_pos_site_id
 _symmetry_equiv_pos_as_xyz
  1  'x, y, z'
loop_
 _atom_site_type_symbol
 _atom_site_label
 _atom_site_symmetry_multiplicity
 _atom_site_fract_x
 _atom_site_fract_y
 _atom_site_fract_z
 _atom_site_occupancy
  B  B0  1  0.117033  0.765861  0.372265  1
  B  B1  1  0.617033  0.234139  0.127735  1
  B  B2  1  0.882967  0.234139  0.627735  1
  B  B3  1  0.382967  0.765861  0.872265  1
  S  S4  1  0.924352  0.714315  0.267275  1
  S  S5  1  0.424352  0.285685  0.232725  1
  S  S6  1  0.075648  0.285685  0.732725  1
  S  S7  1  0.575648  0.714315  0.767275  1
  S  S8  1  0.284521  0.908905  0.377826  1
  S  S9  1  0.784521  0.091095  0.122174  1
  S  S10  1  0.715479  0.091095  0.622174  1
  S  S11  1  0.215479  0.908905  0.877826  1
  S  S12  1  0.353049  0.669744  0.969565  1
  S  S13  1  0.853049  0.330256  0.530435  1
  S  S14  1  0.646951  0.330256  0.030435  1
  S  S15  1  0.146951  0.669744  0.469565  1
  Rb  Rb16  1  0.643087  0.747944  0.508008  1
  Rb  Rb17  1  0.143087  0.252056  0.991992  1
  Rb  Rb18  1  0.356913  0.252056  0.491992  1
  Rb  Rb19  1  0.856913  0.747944  0.008008  1
  Rb  Rb20  1  0.286097  0.972294  0.141126  1
  Rb  Rb21  1  0.786097  0.027706  0.358874  1
  Rb  Rb22  1  0.713903  0.027706  0.858874  1
  Rb  Rb23  1  0.213903  0.972294  0.641126  1
  Rb  Rb24  1  0.437621  0.594878  0.195756  1
  Rb  Rb25  1  0.937621  0.405122  0.304244  1
  Rb  Rb26  1  0.562379  0.405122  0.804244  1
  Rb  Rb27  1  0.062379  0.594878  0.695756  1
