# generated using pymatgen
data_Sc7Cl12
_symmetry_space_group_name_H-M   'P 1'
_cell_length_a   8.20394627
_cell_length_b   8.20394626
_cell_length_c   8.20394627
_cell_angle_alpha   107.39831764
_cell_angle_beta   107.39831772
_cell_angle_gamma   107.39831772
_symmetry_Int_Tables_number   1
_chemical_formula_structural   Sc7Cl12
_chemical_formula_sum   'Sc7 Cl12'
_cell_volume   454.75875540
_cell_formula_units_Z   1
loop_
 _symmetry_equiv_pos_site_id
 _symmetry_equiv_pos_as_xyz
  1  'x, y, z'
loop_
 _atom_site_type_symbol
 _atom_site_label
 _atom_site_symmetry_multiplicity
 _atom_site_fract_x
 _atom_site_fract_y
 _atom_site_fract_z
 _atom_site_occupancy
  Cl  Cl0  1  0.618260  0.842290  0.541368  1
  Cl  Cl1  1  0.842290  0.541368  0.618260  1
  Cl  Cl2  1  0.541368  0.618260  0.842290  1
  Cl  Cl3  1  0.381740  0.157710  0.458632  1
  Cl  Cl4  1  0.157710  0.458632  0.381740  1
  Cl  Cl5  1  0.458632  0.381740  0.157710  1
  Cl  Cl6  1  0.074853  0.219656  0.684292  1
  Cl  Cl7  1  0.315708  0.925147  0.780344  1
  Cl  Cl8  1  0.780344  0.315708  0.925147  1
  Cl  Cl9  1  0.925147  0.780344  0.315708  1
  Cl  Cl10  1  0.684292  0.074853  0.219656  1
  Cl  Cl11  1  0.219656  0.684292  0.074853  1
  Sc  Sc12  1  0.500000  0.500000  0.500000  1
  Sc  Sc13  1  0.972439  0.898517  0.694327  1
  Sc  Sc14  1  0.898517  0.694327  0.972439  1
  Sc  Sc15  1  0.694327  0.972439  0.898517  1
  Sc  Sc16  1  0.027561  0.101483  0.305673  1
  Sc  Sc17  1  0.101483  0.305673  0.027561  1
  Sc  Sc18  1  0.305673  0.027561  0.101483  1
