# generated using pymatgen
data_KMo3(PO7)2
_symmetry_space_group_name_H-M   'P 1'
_cell_length_a   6.50784950
_cell_length_b   8.95416939
_cell_length_c   10.81614420
_cell_angle_alpha   111.11255889
_cell_angle_beta   90.00000000
_cell_angle_gamma   90.00000000
_symmetry_Int_Tables_number   1
_chemical_formula_structural   KMo3(PO7)2
_chemical_formula_sum   'K2 Mo6 P4 O28'
_cell_volume   587.97457304
_cell_formula_units_Z   2
loop_
 _symmetry_equiv_pos_site_id
 _symmetry_equiv_pos_as_xyz
  1  'x, y, z'
loop_
 _atom_site_type_symbol
 _atom_site_label
 _atom_site_symmetry_multiplicity
 _atom_site_fract_x
 _atom_site_fract_y
 _atom_site_fract_z
 _atom_site_occupancy
  O  O0  1  0.249999  0.947389  0.580141  1
  O  O1  1  0.750000  0.052611  0.419860  1
  O  O2  1  0.249999  0.793968  0.181012  1
  O  O3  1  0.750000  0.206033  0.818987  1
  O  O4  1  0.534770  0.275262  0.629975  1
  O  O5  1  0.034770  0.724737  0.370025  1
  O  O6  1  0.465229  0.724737  0.370025  1
  O  O7  1  0.965229  0.275262  0.629975  1
  O  O8  1  0.061400  0.779886  0.691468  1
  O  O9  1  0.561401  0.220114  0.308533  1
  O  O10  1  0.938600  0.220114  0.308533  1
  O  O11  1  0.438600  0.779886  0.691468  1
  O  O12  1  0.750000  0.617699  0.052068  1
  O  O13  1  0.249999  0.382301  0.947932  1
  O  O14  1  0.750000  0.965065  0.172110  1
  O  O15  1  0.249999  0.034935  0.827890  1
  O  O16  1  0.438529  0.785663  0.975563  1
  O  O17  1  0.938530  0.214336  0.024436  1
  O  O18  1  0.561471  0.214336  0.024436  1
  O  O19  1  0.061471  0.785663  0.975563  1
  O  O20  1  0.249999  0.065709  0.384880  1
  O  O21  1  0.249999  0.343147  0.201105  1
  O  O22  1  0.750000  0.960206  0.886218  1
  O  O23  1  0.249999  0.039794  0.113782  1
  O  O24  1  0.750000  0.595169  0.531378  1
  O  O25  1  0.249999  0.404831  0.468621  1
  O  O26  1  0.750000  0.934292  0.615119  1
  O  O27  1  0.750000  0.656853  0.798895  1
  P  P28  1  0.750000  0.144957  0.935160  1
  P  P29  1  0.249999  0.855042  0.064840  1
  P  P30  1  0.750000  0.111174  0.301257  1
  P  P31  1  0.249999  0.888827  0.698744  1
  K  K32  1  0.249999  0.511412  0.747641  1
  K  K33  1  0.750000  0.488588  0.252360  1
  Mo  Mo34  1  0.249999  0.840466  0.377930  1
  Mo  Mo35  1  0.750000  0.159534  0.622070  1
  Mo  Mo36  1  0.249999  0.239944  0.325795  1
  Mo  Mo37  1  0.750000  0.760057  0.674205  1
  Mo  Mo38  1  0.249999  0.227333  0.004748  1
  Mo  Mo39  1  0.750000  0.772667  0.995253  1
