# generated using pymatgen
data_Cs2Mo3SeO12
_symmetry_space_group_name_H-M   'P 1'
_cell_length_a   7.41850868
_cell_length_b   7.41850868
_cell_length_c   12.96140552
_cell_angle_alpha   90.00000000
_cell_angle_beta   90.00000000
_cell_angle_gamma   119.99999996
_symmetry_Int_Tables_number   1
_chemical_formula_structural   Cs2Mo3SeO12
_chemical_formula_sum   'Cs4 Mo6 Se2 O24'
_cell_volume   617.75454386
_cell_formula_units_Z   2
loop_
 _symmetry_equiv_pos_site_id
 _symmetry_equiv_pos_as_xyz
  1  'x, y, z'
loop_
 _atom_site_type_symbol
 _atom_site_label
 _atom_site_symmetry_multiplicity
 _atom_site_fract_x
 _atom_site_fract_y
 _atom_site_fract_z
 _atom_site_occupancy
  O  O0  1  0.752798  0.870809  0.233809  1
  O  O1  1  0.881988  0.752798  0.733809  1
  O  O2  1  0.870809  0.118012  0.733809  1
  O  O3  1  0.129191  0.881989  0.233809  1
  O  O4  1  0.118012  0.247202  0.233809  1
  O  O5  1  0.247202  0.129190  0.733809  1
  O  O6  1  0.453347  0.911802  0.356032  1
  O  O7  1  0.541545  0.453347  0.856031  1
  O  O8  1  0.911801  0.458454  0.856031  1
  O  O9  1  0.088198  0.541544  0.356032  1
  O  O10  1  0.458455  0.546653  0.356032  1
  O  O11  1  0.546653  0.088199  0.856031  1
  O  O12  1  0.122884  0.872451  0.907730  1
  O  O13  1  0.250435  0.122885  0.407730  1
  O  O14  1  0.872451  0.749566  0.407730  1
  O  O15  1  0.127549  0.250433  0.907730  1
  O  O16  1  0.749566  0.877115  0.907730  1
  O  O17  1  0.877116  0.127550  0.407730  1
  O  O18  1  0.601120  0.801347  0.527995  1
  O  O19  1  0.200226  0.398880  0.527995  1
  O  O20  1  0.198654  0.799773  0.527995  1
  O  O21  1  0.801346  0.200228  0.027996  1
  O  O22  1  0.799773  0.601119  0.027996  1
  O  O23  1  0.398881  0.198653  0.027996  1
  Se  Se24  1  0.000000  0.000000  0.178595  1
  Se  Se25  1  0.000000  0.000000  0.678595  1
  Mo  Mo26  1  0.803212  0.661278  0.897766  1
  Mo  Mo27  1  0.661279  0.858068  0.397767  1
  Mo  Mo28  1  0.858067  0.196789  0.897766  1
  Mo  Mo29  1  0.141933  0.803211  0.397767  1
  Mo  Mo30  1  0.338721  0.141933  0.897766  1
  Mo  Mo31  1  0.196788  0.338722  0.397767  1
  Cs  Cs32  1  0.666667  0.333334  0.228974  1
  Cs  Cs33  1  0.333333  0.666666  0.728974  1
  Cs  Cs34  1  0.666667  0.333334  0.601733  1
  Cs  Cs35  1  0.333333  0.666666  0.101732  1
