# generated using pymatgen
data_U2Ti3Si4
_symmetry_space_group_name_H-M   'P 1'
_cell_length_a   6.97095291
_cell_length_b   6.85224065
_cell_length_c   6.86643021
_cell_angle_alpha   90.00000000
_cell_angle_beta   110.65932783
_cell_angle_gamma   90.00000000
_symmetry_Int_Tables_number   1
_chemical_formula_structural   U2Ti3Si4
_chemical_formula_sum   'U4 Ti6 Si8'
_cell_volume   306.89509152
_cell_formula_units_Z   2
loop_
 _symmetry_equiv_pos_site_id
 _symmetry_equiv_pos_as_xyz
  1  'x, y, z'
loop_
 _atom_site_type_symbol
 _atom_site_label
 _atom_site_symmetry_multiplicity
 _atom_site_fract_x
 _atom_site_fract_y
 _atom_site_fract_z
 _atom_site_occupancy
  Si  Si0  1  0.139240  0.866250  0.523899  1
  Si  Si1  1  0.360760  0.366250  0.476101  1
  Si  Si2  1  0.860760  0.133750  0.476101  1
  Si  Si3  1  0.639240  0.633750  0.523899  1
  Si  Si4  1  0.882624  0.536221  0.087287  1
  Si  Si5  1  0.617376  0.036221  0.912713  1
  Si  Si6  1  0.382624  0.963779  0.087287  1
  Si  Si7  1  0.117376  0.463779  0.912713  1
  Ti  Ti8  1  0.251451  0.683664  0.254453  1
  Ti  Ti9  1  0.248549  0.183664  0.745547  1
  Ti  Ti10  1  0.000000  0.500000  0.500000  1
  Ti  Ti11  1  0.500000  0.000000  0.500000  1
  Ti  Ti12  1  0.748549  0.316336  0.745547  1
  Ti  Ti13  1  0.751451  0.816336  0.254453  1
  U  U14  1  0.448991  0.630470  0.848244  1
  U  U15  1  0.051009  0.130470  0.151756  1
  U  U16  1  0.551009  0.369530  0.151756  1
  U  U17  1  0.948991  0.869530  0.848244  1
