# generated using pymatgen
data_Pr3RuI3
_symmetry_space_group_name_H-M   'P 1'
_cell_length_a   4.34669968
_cell_length_b   9.43825637
_cell_length_c   12.69798820
_cell_angle_alpha   93.10575301
_cell_angle_beta   90.00000000
_cell_angle_gamma   90.00000000
_symmetry_Int_Tables_number   1
_chemical_formula_structural   Pr3RuI3
_chemical_formula_sum   'Pr6 Ru2 I6'
_cell_volume   520.17320684
_cell_formula_units_Z   2
loop_
 _symmetry_equiv_pos_site_id
 _symmetry_equiv_pos_as_xyz
  1  'x, y, z'
loop_
 _atom_site_type_symbol
 _atom_site_label
 _atom_site_symmetry_multiplicity
 _atom_site_fract_x
 _atom_site_fract_y
 _atom_site_fract_z
 _atom_site_occupancy
  Ru  Ru0  1  0.250000  0.109755  0.120119  1
  Ru  Ru1  1  0.750000  0.890245  0.879881  1
  I  I2  1  0.250000  0.131718  0.618131  1
  I  I3  1  0.750000  0.868282  0.381869  1
  I  I4  1  0.750000  0.365289  0.375955  1
  I  I5  1  0.250000  0.634711  0.624045  1
  I  I6  1  0.250000  0.605041  0.133225  1
  I  I7  1  0.750000  0.394959  0.866775  1
  Pr  Pr8  1  0.750000  0.309006  0.117968  1
  Pr  Pr9  1  0.250000  0.690994  0.882032  1
  Pr  Pr10  1  0.250000  0.115418  0.330274  1
  Pr  Pr11  1  0.750000  0.884582  0.669726  1
  Pr  Pr12  1  0.250000  0.096190  0.891747  1
  Pr  Pr13  1  0.750000  0.903810  0.108253  1
