# generated using pymatgen
data_TlCrP2O7
_symmetry_space_group_name_H-M   'P 1'
_cell_length_a   7.61079318
_cell_length_b   8.36103926
_cell_length_c   10.09663418
_cell_angle_alpha   90.00000000
_cell_angle_beta   90.00000000
_cell_angle_gamma   106.19700892
_symmetry_Int_Tables_number   1
_chemical_formula_structural   TlCrP2O7
_chemical_formula_sum   'Tl4 Cr4 P8 O28'
_cell_volume   616.98906009
_cell_formula_units_Z   4
loop_
 _symmetry_equiv_pos_site_id
 _symmetry_equiv_pos_as_xyz
  1  'x, y, z'
loop_
 _atom_site_type_symbol
 _atom_site_label
 _atom_site_symmetry_multiplicity
 _atom_site_fract_x
 _atom_site_fract_y
 _atom_site_fract_z
 _atom_site_occupancy
  O  O0  1  0.354611  0.985298  0.590116  1
  O  O1  1  0.645389  0.514702  0.090116  1
  O  O2  1  0.645389  0.014702  0.409884  1
  O  O3  1  0.354611  0.485298  0.909884  1
  O  O4  1  0.414860  0.743069  0.762821  1
  O  O5  1  0.585140  0.756931  0.262821  1
  O  O6  1  0.585140  0.256931  0.237179  1
  O  O7  1  0.414860  0.243069  0.737179  1
  O  O8  1  0.488609  0.724524  0.499503  1
  O  O9  1  0.511391  0.775476  0.999503  1
  O  O10  1  0.511391  0.275476  0.500497  1
  O  O11  1  0.488609  0.224524  0.000497  1
  O  O12  1  0.174208  0.193017  0.554082  1
  O  O13  1  0.825792  0.306983  0.054082  1
  O  O14  1  0.825792  0.806983  0.445918  1
  O  O15  1  0.174208  0.693017  0.945918  1
  O  O16  1  0.056239  0.759800  0.721489  1
  O  O17  1  0.943761  0.740200  0.221489  1
  O  O18  1  0.943761  0.240200  0.278511  1
  O  O19  1  0.056239  0.259800  0.778511  1
  O  O20  1  0.875512  0.764138  0.927476  1
  O  O21  1  0.124488  0.735862  0.427476  1
  O  O22  1  0.124488  0.235862  0.072524  1
  O  O23  1  0.875512  0.264138  0.572524  1
  O  O24  1  0.181495  0.988991  0.896585  1
  O  O25  1  0.818505  0.511009  0.396585  1
  O  O26  1  0.818505  0.011009  0.103415  1
  O  O27  1  0.181495  0.488991  0.603415  1
  P  P28  1  0.068079  0.311361  0.631327  1
  P  P29  1  0.931921  0.188639  0.131327  1
  P  P30  1  0.931921  0.688639  0.368673  1
  P  P31  1  0.068079  0.811361  0.868673  1
  P  P32  1  0.370728  0.168454  0.596987  1
  P  P33  1  0.629272  0.331546  0.096987  1
  P  P34  1  0.629272  0.831546  0.403013  1
  P  P35  1  0.370728  0.668454  0.903013  1
  Cr  Cr36  1  0.260878  0.739890  0.601181  1
  Cr  Cr37  1  0.739122  0.760110  0.101181  1
  Cr  Cr38  1  0.739122  0.260110  0.398819  1
  Cr  Cr39  1  0.260878  0.239890  0.898819  1
  Tl  Tl40  1  0.683007  0.052190  0.814029  1
  Tl  Tl41  1  0.316993  0.447810  0.314029  1
  Tl  Tl42  1  0.316993  0.947810  0.185971  1
  Tl  Tl43  1  0.683007  0.552190  0.685971  1
