# generated using pymatgen
data_Cd2Ge7O16
_symmetry_space_group_name_H-M   'P 1'
_cell_length_a   4.71242087
_cell_length_b   11.46441577
_cell_length_c   11.46441577
_cell_angle_alpha   90.00000000
_cell_angle_beta   90.00000000
_cell_angle_gamma   90.00000000
_symmetry_Int_Tables_number   1
_chemical_formula_structural   Cd2Ge7O16
_chemical_formula_sum   'Cd4 Ge14 O32'
_cell_volume   619.36680613
_cell_formula_units_Z   2
loop_
 _symmetry_equiv_pos_site_id
 _symmetry_equiv_pos_as_xyz
  1  'x, y, z'
loop_
 _atom_site_type_symbol
 _atom_site_label
 _atom_site_symmetry_multiplicity
 _atom_site_fract_x
 _atom_site_fract_y
 _atom_site_fract_z
 _atom_site_occupancy
  O  O0  1  0.334096  0.638781  0.435510  1
  O  O1  1  0.334096  0.361219  0.564490  1
  O  O2  1  0.665904  0.435510  0.361219  1
  O  O3  1  0.665904  0.564490  0.638781  1
  O  O4  1  0.334096  0.861219  0.935510  1
  O  O5  1  0.665904  0.935510  0.138781  1
  O  O6  1  0.665904  0.064490  0.861219  1
  O  O7  1  0.334096  0.138781  0.064490  1
  O  O8  1  0.771406  0.673493  0.268690  1
  O  O9  1  0.771406  0.326507  0.731310  1
  O  O10  1  0.228594  0.268690  0.326507  1
  O  O11  1  0.228594  0.731310  0.673493  1
  O  O12  1  0.771406  0.826507  0.768690  1
  O  O13  1  0.228594  0.768690  0.173493  1
  O  O14  1  0.228594  0.231310  0.826507  1
  O  O15  1  0.771406  0.173493  0.231310  1
  O  O16  1  0.228078  0.530767  0.219638  1
  O  O17  1  0.228078  0.469233  0.780362  1
  O  O18  1  0.748006  1.000652  0.381489  1
  O  O19  1  0.251994  0.381489  -0.000652  1
  O  O20  1  0.251994  0.618511  1.000652  1
  O  O21  1  0.748006  -0.000652  0.618511  1
  O  O22  1  0.251994  0.881489  0.500652  1
  O  O23  1  0.251994  0.118511  0.499348  1
  O  O24  1  0.748006  0.499348  0.881489  1
  O  O25  1  0.748006  0.500652  0.118511  1
  O  O26  1  0.228078  0.030767  0.280362  1
  O  O27  1  0.771922  0.280362  0.969233  1
  O  O28  1  0.771922  0.719638  0.030767  1
  O  O29  1  0.228078  0.969233  0.719638  1
  O  O30  1  0.771922  0.780362  0.530767  1
  O  O31  1  0.771922  0.219638  0.469233  1
  Ge  Ge32  1  0.509909  0.569412  0.315002  1
  Ge  Ge33  1  0.509909  0.430588  0.684998  1
  Ge  Ge34  1  0.490091  0.315002  0.430588  1
  Ge  Ge35  1  0.490091  0.684998  0.569412  1
  Ge  Ge36  1  0.509909  0.930588  0.815002  1
  Ge  Ge37  1  0.490091  0.815002  0.069412  1
  Ge  Ge38  1  0.490091  0.184998  0.930588  1
  Ge  Ge39  1  0.509909  0.069412  0.184998  1
  Ge  Ge40  1  0.000000  0.635716  0.135716  1
  Ge  Ge41  1  0.000000  0.135716  0.364284  1
  Ge  Ge42  1  0.000000  0.864284  0.635716  1
  Ge  Ge43  1  0.000000  0.364284  0.864284  1
  Ge  Ge44  1  0.500000  0.500000  0.000000  1
  Ge  Ge45  1  0.500000  0.000000  0.500000  1
  Cd  Cd46  1  0.000000  0.836788  0.336788  1
  Cd  Cd47  1  0.000000  0.336788  0.163212  1
  Cd  Cd48  1  0.000000  0.663212  0.836788  1
  Cd  Cd49  1  0.000000  0.163212  0.663212  1
