# generated using pymatgen
data_DySn2
_symmetry_space_group_name_H-M   'P 1'
_cell_length_a   4.36187920
_cell_length_b   4.43409927
_cell_length_c   8.46090747
_cell_angle_alpha   105.19081631
_cell_angle_beta   90.00000000
_cell_angle_gamma   90.00000000
_symmetry_Int_Tables_number   1
_chemical_formula_structural   DySn2
_chemical_formula_sum   'Dy2 Sn4'
_cell_volume   157.92454521
_cell_formula_units_Z   2
loop_
 _symmetry_equiv_pos_site_id
 _symmetry_equiv_pos_as_xyz
  1  'x, y, z'
loop_
 _atom_site_type_symbol
 _atom_site_label
 _atom_site_symmetry_multiplicity
 _atom_site_fract_x
 _atom_site_fract_y
 _atom_site_fract_z
 _atom_site_occupancy
  Sn  Sn0  1  0.250000  0.250333  0.500665  1
  Sn  Sn1  1  0.750000  0.749667  0.499335  1
  Sn  Sn2  1  0.750000  0.435894  0.871788  1
  Sn  Sn3  1  0.250000  0.564106  0.128212  1
  Dy  Dy4  1  0.250000  0.901741  0.803481  1
  Dy  Dy5  1  0.750000  0.098259  0.196519  1
