# generated using pymatgen
data_Ta2O
_symmetry_space_group_name_H-M   'P 1'
_cell_length_a   6.51728046
_cell_length_b   6.51728046
_cell_length_c   6.51728046
_cell_angle_alpha   109.47122064
_cell_angle_beta   109.47122065
_cell_angle_gamma   109.47122062
_symmetry_Int_Tables_number   1
_chemical_formula_structural   Ta2O
_chemical_formula_sum   'Ta8 O4'
_cell_volume   213.09700225
_cell_formula_units_Z   4
loop_
 _symmetry_equiv_pos_site_id
 _symmetry_equiv_pos_as_xyz
  1  'x, y, z'
loop_
 _atom_site_type_symbol
 _atom_site_label
 _atom_site_symmetry_multiplicity
 _atom_site_fract_x
 _atom_site_fract_y
 _atom_site_fract_z
 _atom_site_occupancy
  O  O0  1  0.000000  0.000000  0.711258  1
  O  O1  1  0.000000  0.711258  0.000000  1
  O  O2  1  0.711258  0.000000  0.000000  1
  O  O3  1  0.288742  0.288742  0.288742  1
  Ta  Ta4  1  0.571068  0.571068  0.571068  1
  Ta  Ta5  1  0.428932  0.000000  0.000000  1
  Ta  Ta6  1  0.000000  0.428932  0.000000  1
  Ta  Ta7  1  0.000000  0.000000  0.428932  1
  Ta  Ta8  1  0.500000  0.500000  0.000000  1
  Ta  Ta9  1  0.500000  0.000000  0.500000  1
  Ta  Ta10  1  0.000000  0.500000  0.500000  1
  Ta  Ta11  1  0.000000  0.000000  0.000000  1
