# generated using pymatgen
data_NaInBr4
_symmetry_space_group_name_H-M   'P 1'
_cell_length_a   6.89019419
_cell_length_b   10.82036872
_cell_length_c   11.61800747
_cell_angle_alpha   90.00000000
_cell_angle_beta   90.00000000
_cell_angle_gamma   90.00000000
_symmetry_Int_Tables_number   1
_chemical_formula_structural   NaInBr4
_chemical_formula_sum   'Na4 In4 Br16'
_cell_volume   866.17406046
_cell_formula_units_Z   4
loop_
 _symmetry_equiv_pos_site_id
 _symmetry_equiv_pos_as_xyz
  1  'x, y, z'
loop_
 _atom_site_type_symbol
 _atom_site_label
 _atom_site_symmetry_multiplicity
 _atom_site_fract_x
 _atom_site_fract_y
 _atom_site_fract_z
 _atom_site_occupancy
  Na  Na0  1  0.318269  0.775376  0.896997  1
  Na  Na1  1  0.818269  0.224624  0.603003  1
  Na  Na2  1  0.181731  0.275376  0.103003  1
  Na  Na3  1  0.681731  0.724624  0.396997  1
  Br  Br4  1  0.925090  0.492743  0.539104  1
  Br  Br5  1  0.567967  0.810324  0.130983  1
  Br  Br6  1  0.067967  0.189676  0.369017  1
  Br  Br7  1  0.932033  0.310324  0.869017  1
  Br  Br8  1  0.425090  0.507257  0.960896  1
  Br  Br9  1  0.910052  0.696509  0.849508  1
  Br  Br10  1  0.074910  0.007257  0.039104  1
  Br  Br11  1  0.574910  0.992743  0.460896  1
  Br  Br12  1  0.589948  0.196509  0.150492  1
  Br  Br13  1  0.410052  0.303491  0.650492  1
  Br  Br14  1  0.947378  0.502483  0.161500  1
  Br  Br15  1  0.089948  0.803491  0.349508  1
  Br  Br16  1  0.052622  0.997517  0.661500  1
  Br  Br17  1  0.552622  0.002483  0.838500  1
  Br  Br18  1  0.447378  0.497517  0.338500  1
  Br  Br19  1  0.432033  0.689676  0.630983  1
  In  In20  1  0.795705  0.507428  0.961461  1
  In  In21  1  0.204295  0.992572  0.461461  1
  In  In22  1  0.704295  0.007428  0.038539  1
  In  In23  1  0.295705  0.492572  0.538539  1
