# generated using pymatgen
data_GdInPt2
_symmetry_space_group_name_H-M   'P 1'
_cell_length_a   4.61385296
_cell_length_b   4.61385296
_cell_length_c   9.10858740
_cell_angle_alpha   90.00000000
_cell_angle_beta   90.00000000
_cell_angle_gamma   120.00000002
_symmetry_Int_Tables_number   1
_chemical_formula_structural   GdInPt2
_chemical_formula_sum   'Gd2 In2 Pt4'
_cell_volume   167.92260421
_cell_formula_units_Z   2
loop_
 _symmetry_equiv_pos_site_id
 _symmetry_equiv_pos_as_xyz
  1  'x, y, z'
loop_
 _atom_site_type_symbol
 _atom_site_label
 _atom_site_symmetry_multiplicity
 _atom_site_fract_x
 _atom_site_fract_y
 _atom_site_fract_z
 _atom_site_occupancy
  In  In0  1  0.000000  0.000000  0.500000  1
  In  In1  1  0.000000  0.000000  0.000000  1
  Gd  Gd2  1  0.666667  0.333333  0.750000  1
  Gd  Gd3  1  0.333333  0.666667  0.250000  1
  Pt  Pt4  1  0.666667  0.333333  0.090276  1
  Pt  Pt5  1  0.333333  0.666667  0.909724  1
  Pt  Pt6  1  0.333333  0.666667  0.590276  1
  Pt  Pt7  1  0.666667  0.333333  0.409724  1
