# generated using pymatgen
data_Mo3S3Br
_symmetry_space_group_name_H-M   'P 1'
_cell_length_a   6.57026003
_cell_length_b   6.57026004
_cell_length_c   6.57026003
_cell_angle_alpha   94.16505056
_cell_angle_beta   94.16505064
_cell_angle_gamma   94.16505059
_symmetry_Int_Tables_number   1
_chemical_formula_structural   Mo3S3Br
_chemical_formula_sum   'Mo6 S6 Br2'
_cell_volume   281.26432095
_cell_formula_units_Z   2
loop_
 _symmetry_equiv_pos_site_id
 _symmetry_equiv_pos_as_xyz
  1  'x, y, z'
loop_
 _atom_site_type_symbol
 _atom_site_label
 _atom_site_symmetry_multiplicity
 _atom_site_fract_x
 _atom_site_fract_y
 _atom_site_fract_z
 _atom_site_occupancy
  S  S0  1  0.378420  0.133999  0.716959  1
  S  S1  1  0.133999  0.716959  0.378420  1
  S  S2  1  0.283041  0.621580  0.866001  1
  S  S3  1  0.621580  0.866001  0.283041  1
  S  S4  1  0.866001  0.283041  0.621580  1
  S  S5  1  0.716959  0.378420  0.133999  1
  Br  Br6  1  0.191279  0.191279  0.191279  1
  Br  Br7  1  0.808721  0.808721  0.808721  1
  Mo  Mo8  1  0.450185  0.779078  0.592129  1
  Mo  Mo9  1  0.779078  0.592129  0.450185  1
  Mo  Mo10  1  0.592129  0.450185  0.779078  1
  Mo  Mo11  1  0.549815  0.220922  0.407871  1
  Mo  Mo12  1  0.220922  0.407871  0.549815  1
  Mo  Mo13  1  0.407871  0.549815  0.220922  1
