# generated using pymatgen
data_NbBiO4
_symmetry_space_group_name_H-M   'P 1'
_cell_length_a   5.09804039
_cell_length_b   5.80231041
_cell_length_c   11.89041299
_cell_angle_alpha   90.00000000
_cell_angle_beta   90.00000000
_cell_angle_gamma   90.00000000
_symmetry_Int_Tables_number   1
_chemical_formula_structural   NbBiO4
_chemical_formula_sum   'Nb4 Bi4 O16'
_cell_volume   351.72332491
_cell_formula_units_Z   4
loop_
 _symmetry_equiv_pos_site_id
 _symmetry_equiv_pos_as_xyz
  1  'x, y, z'
loop_
 _atom_site_type_symbol
 _atom_site_label
 _atom_site_symmetry_multiplicity
 _atom_site_fract_x
 _atom_site_fract_y
 _atom_site_fract_z
 _atom_site_occupancy
  O  O0  1  0.913625  0.920305  0.402010  1
  O  O1  1  0.913625  0.579695  0.597990  1
  O  O2  1  0.586375  0.920305  0.097990  1
  O  O3  1  0.586375  0.579695  0.902010  1
  O  O4  1  0.086374  0.079694  0.597990  1
  O  O5  1  0.086374  0.420305  0.402010  1
  O  O6  1  0.413626  0.079694  0.902010  1
  O  O7  1  0.413626  0.420305  0.097990  1
  O  O8  1  0.504878  0.144686  0.306920  1
  O  O9  1  0.504878  0.355313  0.693080  1
  O  O10  1  0.995123  0.144686  0.193080  1
  O  O11  1  0.995123  0.355313  0.806920  1
  O  O12  1  0.004876  0.644687  0.193080  1
  O  O13  1  0.495123  0.644687  0.306920  1
  O  O14  1  0.004876  0.855314  0.806920  1
  O  O15  1  0.495123  0.855314  0.693080  1
  Nb  Nb16  1  0.750000  0.855005  0.250000  1
  Nb  Nb17  1  0.750000  0.644994  0.750000  1
  Nb  Nb18  1  0.250001  0.144995  0.750000  1
  Nb  Nb19  1  0.250001  0.355006  0.250000  1
  Bi  Bi20  1  0.283179  0.750000  0.000000  1
  Bi  Bi21  1  0.216822  0.750000  0.500000  1
  Bi  Bi22  1  0.716822  0.250000  0.000000  1
  Bi  Bi23  1  0.783179  0.250000  0.500000  1
