# generated using pymatgen
data_NaCu5S3
_symmetry_space_group_name_H-M   'P 1'
_cell_length_a   7.14641326
_cell_length_b   7.14645603
_cell_length_c   6.98355564
_cell_angle_alpha   90.00000000
_cell_angle_beta   90.00000000
_cell_angle_gamma   119.99979979
_symmetry_Int_Tables_number   1
_chemical_formula_structural   NaCu5S3
_chemical_formula_sum   'Na2 Cu10 S6'
_cell_volume   308.87798690
_cell_formula_units_Z   2
loop_
 _symmetry_equiv_pos_site_id
 _symmetry_equiv_pos_as_xyz
  1  'x, y, z'
loop_
 _atom_site_type_symbol
 _atom_site_label
 _atom_site_symmetry_multiplicity
 _atom_site_fract_x
 _atom_site_fract_y
 _atom_site_fract_z
 _atom_site_occupancy
  Na  Na0  1  0.000033  0.000065  0.750000  1
  Na  Na1  1  0.999967  0.999935  0.250000  1
  Cu  Cu2  1  0.430662  0.215267  0.750057  1
  Cu  Cu3  1  0.784695  0.569390  0.750000  1
  Cu  Cu4  1  0.784605  0.215267  0.749943  1
  Cu  Cu5  1  0.215395  0.784733  0.249943  1
  Cu  Cu6  1  0.215305  0.430610  0.250000  1
  Cu  Cu7  1  0.569338  0.784733  0.250057  1
  Cu  Cu8  1  0.333110  0.666570  0.551738  1
  Cu  Cu9  1  0.666540  0.333430  0.448262  1
  Cu  Cu10  1  0.666890  0.333430  0.051738  1
  Cu  Cu11  1  0.333460  0.666570  0.948262  1
  S  S12  1  0.343642  0.343640  0.999992  1
  S  S13  1  0.000002  0.656360  0.000008  1
  S  S14  1  0.656103  1.000000  0.000000  1
  S  S15  1  0.656358  0.656360  0.499992  1
  S  S16  1  -0.000002  0.343640  0.500008  1
  S  S17  1  0.343897  0.000000  0.500000  1
