# generated using pymatgen
data_As2PbO4
_symmetry_space_group_name_H-M   'P 1'
_cell_length_a   6.40119741
_cell_length_b   7.33558234
_cell_length_c   12.16019719
_cell_angle_alpha   90.00000000
_cell_angle_beta   90.00000000
_cell_angle_gamma   112.79567609
_symmetry_Int_Tables_number   1
_chemical_formula_structural   As2PbO4
_chemical_formula_sum   'As8 Pb4 O16'
_cell_volume   526.40095179
_cell_formula_units_Z   4
loop_
 _symmetry_equiv_pos_site_id
 _symmetry_equiv_pos_as_xyz
  1  'x, y, z'
loop_
 _atom_site_type_symbol
 _atom_site_label
 _atom_site_symmetry_multiplicity
 _atom_site_fract_x
 _atom_site_fract_y
 _atom_site_fract_z
 _atom_site_occupancy
  O  O0  1  0.741894  0.553185  0.089941  1
  O  O1  1  0.758106  0.446815  0.589941  1
  O  O2  1  0.258106  0.446815  0.910059  1
  O  O3  1  0.241894  0.553185  0.410059  1
  O  O4  1  0.524921  0.788977  0.021338  1
  O  O5  1  0.975079  0.211023  0.521338  1
  O  O6  1  0.475079  0.211023  0.978662  1
  O  O7  1  0.024921  0.788977  0.478662  1
  O  O8  1  0.519888  0.192966  0.198364  1
  O  O9  1  0.980112  0.807034  0.698364  1
  O  O10  1  0.480112  0.807034  0.801636  1
  O  O11  1  0.019888  0.192966  0.301636  1
  O  O12  1  0.202886  0.821739  0.275713  1
  O  O13  1  0.297114  0.178261  0.775713  1
  O  O14  1  0.797114  0.178261  0.724287  1
  O  O15  1  0.702886  0.821739  0.224287  1
  As  As16  1  0.701622  0.291794  0.084022  1
  As  As17  1  0.798378  0.708206  0.584022  1
  As  As18  1  0.298378  0.708206  0.915978  1
  As  As19  1  0.201622  0.291794  0.415978  1
  As  As20  1  0.514021  0.629574  0.141259  1
  As  As21  1  0.985979  0.370426  0.641259  1
  As  As22  1  0.485979  0.370426  0.858741  1
  As  As23  1  0.014021  0.629574  0.358741  1
  Pb  Pb24  1  0.597005  0.015909  0.341908  1
  Pb  Pb25  1  0.902995  0.984091  0.841908  1
  Pb  Pb26  1  0.402995  0.984091  0.658092  1
  Pb  Pb27  1  0.097005  0.015909  0.158092  1
