# generated using pymatgen
data_UGeRh
_symmetry_space_group_name_H-M   'P 1'
_cell_length_a   4.50008917
_cell_length_b   6.40614974
_cell_length_c   7.70805247
_cell_angle_alpha   90.00000000
_cell_angle_beta   90.00000000
_cell_angle_gamma   90.00000000
_symmetry_Int_Tables_number   1
_chemical_formula_structural   UGeRh
_chemical_formula_sum   'U4 Ge4 Rh4'
_cell_volume   222.20962559
_cell_formula_units_Z   4
loop_
 _symmetry_equiv_pos_site_id
 _symmetry_equiv_pos_as_xyz
  1  'x, y, z'
loop_
 _atom_site_type_symbol
 _atom_site_label
 _atom_site_symmetry_multiplicity
 _atom_site_fract_x
 _atom_site_fract_y
 _atom_site_fract_z
 _atom_site_occupancy
  Ge  Ge0  1  0.250000  0.305684  0.914516  1
  Ge  Ge1  1  0.750000  0.694316  0.085484  1
  Ge  Ge2  1  0.250000  0.805684  0.585484  1
  Ge  Ge3  1  0.750000  0.194316  0.414516  1
  Rh  Rh4  1  0.750000  0.773335  0.419530  1
  Rh  Rh5  1  0.250000  0.226665  0.580470  1
  Rh  Rh6  1  0.750000  0.273335  0.080470  1
  Rh  Rh7  1  0.250000  0.726665  0.919530  1
  U  U8  1  0.250000  0.489346  0.288919  1
  U  U9  1  0.750000  0.510654  0.711081  1
  U  U10  1  0.250000  0.989346  0.211081  1
  U  U11  1  0.750000  0.010654  0.788919  1
