# generated using pymatgen
data_Mn2GeO4
_symmetry_space_group_name_H-M   'P 1'
_cell_length_a   5.12745963
_cell_length_b   6.39950121
_cell_length_c   10.90502603
_cell_angle_alpha   90.00000000
_cell_angle_beta   90.00000000
_cell_angle_gamma   90.00000000
_symmetry_Int_Tables_number   1
_chemical_formula_structural   Mn2GeO4
_chemical_formula_sum   'Mn8 Ge4 O16'
_cell_volume   357.82862681
_cell_formula_units_Z   4
loop_
 _symmetry_equiv_pos_site_id
 _symmetry_equiv_pos_as_xyz
  1  'x, y, z'
loop_
 _atom_site_type_symbol
 _atom_site_label
 _atom_site_symmetry_multiplicity
 _atom_site_fract_x
 _atom_site_fract_y
 _atom_site_fract_z
 _atom_site_occupancy
  O  O0  1  0.224276  0.469998  0.664446  1
  O  O1  1  0.724275  0.530003  0.835554  1
  O  O2  1  0.775724  0.969998  0.335554  1
  O  O3  1  0.275724  0.030003  0.164446  1
  O  O4  1  0.775724  0.530003  0.335554  1
  O  O5  1  0.275724  0.469998  0.164446  1
  O  O6  1  0.224276  0.030003  0.664446  1
  O  O7  1  0.724275  0.969998  0.835554  1
  O  O8  1  0.779708  0.750000  0.553517  1
  O  O9  1  0.279708  0.250000  0.946483  1
  O  O10  1  0.220293  0.250000  0.446483  1
  O  O11  1  0.720293  0.750000  0.053516  1
  O  O12  1  0.220962  0.750000  0.906169  1
  O  O13  1  0.720960  0.250000  0.593831  1
  O  O14  1  0.279038  0.750000  0.406169  1
  O  O15  1  0.779039  0.250000  0.093830  1
  Mn  Mn16  1  0.000000  0.000000  0.000000  1
  Mn  Mn17  1  0.500000  0.000000  0.500000  1
  Mn  Mn18  1  0.000000  0.500000  0.000000  1
  Mn  Mn19  1  0.500000  0.500000  0.500000  1
  Mn  Mn20  1  0.492463  0.750000  0.221295  1
  Mn  Mn21  1  0.992461  0.250000  0.278705  1
  Mn  Mn22  1  0.007537  0.750000  0.721294  1
  Mn  Mn23  1  0.507538  0.250000  0.778706  1
  Ge  Ge24  1  0.564699  0.750000  0.904055  1
  Ge  Ge25  1  0.064699  0.250000  0.595945  1
  Ge  Ge26  1  0.435300  0.250000  0.095945  1
  Ge  Ge27  1  0.935300  0.750000  0.404056  1
