# generated using pymatgen
data_Ta(TeCl3)2
_symmetry_space_group_name_H-M   'P 1'
_cell_length_a   7.10441817
_cell_length_b   7.60863820
_cell_length_c   11.74189427
_cell_angle_alpha   79.13128148
_cell_angle_beta   75.98996274
_cell_angle_gamma   83.98446997
_symmetry_Int_Tables_number   1
_chemical_formula_structural   Ta(TeCl3)2
_chemical_formula_sum   'Ta2 Te4 Cl12'
_cell_volume   603.61384378
_cell_formula_units_Z   2
loop_
 _symmetry_equiv_pos_site_id
 _symmetry_equiv_pos_as_xyz
  1  'x, y, z'
loop_
 _atom_site_type_symbol
 _atom_site_label
 _atom_site_symmetry_multiplicity
 _atom_site_fract_x
 _atom_site_fract_y
 _atom_site_fract_z
 _atom_site_occupancy
  Cl  Cl0  1  0.856768  0.288632  -0.013403  1
  Cl  Cl1  1  0.143232  0.711368  1.013403  1
  Cl  Cl2  1  0.947476  0.037816  0.762956  1
  Cl  Cl3  1  0.052524  0.962184  0.237044  1
  Cl  Cl4  1  0.104098  0.448441  0.713947  1
  Cl  Cl5  1  0.895902  0.551559  0.286053  1
  Cl  Cl6  1  0.264204  0.627894  0.398963  1
  Cl  Cl7  1  0.735796  0.372106  0.601037  1
  Cl  Cl8  1  0.502424  0.800734  0.126135  1
  Cl  Cl9  1  0.497576  0.199266  0.873865  1
  Cl  Cl10  1  0.346400  0.375147  0.186516  1
  Cl  Cl11  1  0.653600  0.624853  0.813484  1
  Te  Te12  1  0.268941  0.157447  0.495271  1
  Te  Te13  1  0.731059  0.842553  0.504729  1
  Te  Te14  1  0.391427  0.905726  0.663616  1
  Te  Te15  1  0.608573  0.094274  0.336384  1
  Ta  Ta16  1  0.795045  0.329795  0.797764  1
  Ta  Ta17  1  0.204955  0.670205  0.202236  1
