# generated using pymatgen
data_InTeBr
_symmetry_space_group_name_H-M   'P 1'
_cell_length_a   7.52848582
_cell_length_b   7.72917047
_cell_length_c   8.36015226
_cell_angle_alpha   90.00000000
_cell_angle_beta   115.26856936
_cell_angle_gamma   90.00000000
_symmetry_Int_Tables_number   1
_chemical_formula_structural   InTeBr
_chemical_formula_sum   'In4 Te4 Br4'
_cell_volume   439.92164644
_cell_formula_units_Z   4
loop_
 _symmetry_equiv_pos_site_id
 _symmetry_equiv_pos_as_xyz
  1  'x, y, z'
loop_
 _atom_site_type_symbol
 _atom_site_label
 _atom_site_symmetry_multiplicity
 _atom_site_fract_x
 _atom_site_fract_y
 _atom_site_fract_z
 _atom_site_occupancy
  Br  Br0  1  0.266731  0.601932  0.584112  1
  Br  Br1  1  0.733269  0.398068  0.415888  1
  Br  Br2  1  0.233269  0.101932  0.915888  1
  Br  Br3  1  0.766731  0.898068  0.084112  1
  In  In4  1  0.142496  0.300695  0.118062  1
  In  In5  1  0.642496  0.199305  0.618062  1
  In  In6  1  0.857504  0.699305  0.881938  1
  In  In7  1  0.357504  0.800695  0.381938  1
  Te  Te8  1  0.276876  0.631043  0.058142  1
  Te  Te9  1  0.723124  0.368957  0.941858  1
  Te  Te10  1  0.776876  0.868957  0.558142  1
  Te  Te11  1  0.223124  0.131043  0.441858  1
