# generated using pymatgen
data_Na3TiCl6
_symmetry_space_group_name_H-M   'P 1'
_cell_length_a   6.73724903
_cell_length_b   7.12654534
_cell_length_c   9.89152990
_cell_angle_alpha   90.00000000
_cell_angle_beta   90.31144006
_cell_angle_gamma   90.00000000
_symmetry_Int_Tables_number   1
_chemical_formula_structural   Na3TiCl6
_chemical_formula_sum   'Na6 Ti2 Cl12'
_cell_volume   474.91808232
_cell_formula_units_Z   2
loop_
 _symmetry_equiv_pos_site_id
 _symmetry_equiv_pos_as_xyz
  1  'x, y, z'
loop_
 _atom_site_type_symbol
 _atom_site_label
 _atom_site_symmetry_multiplicity
 _atom_site_fract_x
 _atom_site_fract_y
 _atom_site_fract_z
 _atom_site_occupancy
  Ti  Ti0  1  0.000000  0.000000  0.000000  1
  Ti  Ti1  1  0.500000  0.500000  0.500000  1
  Cl  Cl2  1  0.128839  0.049502  0.229462  1
  Cl  Cl3  1  0.371161  0.549502  0.270538  1
  Cl  Cl4  1  0.871161  0.950498  0.770538  1
  Cl  Cl5  1  0.628839  0.450498  0.729462  1
  Cl  Cl6  1  0.702210  0.174857  0.061275  1
  Cl  Cl7  1  0.797790  0.674857  0.438725  1
  Cl  Cl8  1  0.297790  0.825143  0.938725  1
  Cl  Cl9  1  0.202210  0.325143  0.561275  1
  Cl  Cl10  1  0.160934  0.289911  0.929737  1
  Cl  Cl11  1  0.339066  0.789911  0.570263  1
  Cl  Cl12  1  0.839066  0.710089  0.070263  1
  Cl  Cl13  1  0.660934  0.210089  0.429737  1
  Na  Na14  1  0.500000  0.500000  0.000000  1
  Na  Na15  1  0.000000  0.000000  0.500000  1
  Na  Na16  1  0.973404  0.419517  0.254328  1
  Na  Na17  1  0.526596  0.919517  0.245672  1
  Na  Na18  1  0.026596  0.580483  0.745672  1
  Na  Na19  1  0.473404  0.080483  0.754328  1
