# generated using pymatgen
data_ReBi3O8
_symmetry_space_group_name_H-M   'P 1'
_cell_length_a   11.75410770
_cell_length_b   11.75410770
_cell_length_c   11.75410770
_cell_angle_alpha   90.00000000
_cell_angle_beta   90.00000000
_cell_angle_gamma   90.00000000
_symmetry_Int_Tables_number   1
_chemical_formula_structural   ReBi3O8
_chemical_formula_sum   'Re8 Bi24 O64'
_cell_volume   1623.93632784
_cell_formula_units_Z   8
loop_
 _symmetry_equiv_pos_site_id
 _symmetry_equiv_pos_as_xyz
  1  'x, y, z'
loop_
 _atom_site_type_symbol
 _atom_site_label
 _atom_site_symmetry_multiplicity
 _atom_site_fract_x
 _atom_site_fract_y
 _atom_site_fract_z
 _atom_site_occupancy
  O  O0  1  0.239436  0.469235  0.503591  1
  O  O1  1  0.739436  0.030765  0.496409  1
  O  O2  1  0.760564  0.969235  0.996409  1
  O  O3  1  0.030765  0.496409  0.739436  1
  O  O4  1  0.996409  0.760564  0.969235  1
  O  O5  1  0.496409  0.739436  0.030765  1
  O  O6  1  0.469235  0.503591  0.239436  1
  O  O7  1  0.503591  0.239436  0.469235  1
  O  O8  1  0.969235  0.996409  0.760564  1
  O  O9  1  0.530765  0.003591  0.260564  1
  O  O10  1  0.003591  0.260564  0.530765  1
  O  O11  1  0.260564  0.530765  0.003591  1
  O  O12  1  0.258242  0.770881  1.003643  1
  O  O13  1  0.758242  0.729119  -0.003643  1
  O  O14  1  0.741758  0.270881  0.496357  1
  O  O15  1  0.729119  -0.003643  0.758242  1
  O  O16  1  0.496357  0.741758  0.270881  1
  O  O17  1  -0.003643  0.758242  0.729119  1
  O  O18  1  0.770881  1.003643  0.258242  1
  O  O19  1  1.003643  0.258242  0.770881  1
  O  O20  1  0.270881  0.496357  0.741758  1
  O  O21  1  0.229119  0.503643  0.241758  1
  O  O22  1  0.503643  0.241758  0.229119  1
  O  O23  1  0.881603  0.247180  0.058436  1
  O  O24  1  0.241758  0.229119  0.503643  1
  O  O25  1  0.271043  0.728957  0.228957  1
  O  O26  1  0.728957  0.228957  0.271043  1
  O  O27  1  0.771043  0.771043  0.771043  1
  O  O28  1  0.713733  0.786267  0.213733  1
  O  O29  1  0.786267  0.213733  0.713733  1
  O  O30  1  0.213733  0.713733  0.786267  1
  O  O31  1  0.286267  0.286267  0.286267  1
  O  O32  1  0.033101  0.033101  0.033101  1
  O  O33  1  0.466899  0.966899  0.533101  1
  O  O34  1  0.533101  0.466899  0.966899  1
  O  O35  1  0.966899  0.533101  0.466899  1
  O  O36  1  0.527874  0.527874  0.527874  1
  O  O37  1  0.972126  0.472126  0.027874  1
  O  O38  1  0.027874  0.972126  0.472126  1
  O  O39  1  0.472126  0.027874  0.972126  1
  O  O40  1  0.143383  0.252000  0.054341  1
  O  O41  1  0.054341  0.143383  0.252000  1
  O  O42  1  0.252000  0.054341  0.143383  1
  O  O43  1  0.248000  0.945659  0.643383  1
  O  O44  1  0.554341  0.356617  0.748000  1
  O  O45  1  0.748000  0.554341  0.356617  1
  O  O46  1  0.445659  0.856617  0.752000  1
  O  O47  1  0.945659  0.643383  0.248000  1
  O  O48  1  0.752000  0.445659  0.856617  1
  O  O49  1  0.643383  0.248000  0.945659  1
  O  O50  1  0.856617  0.752000  0.445659  1
  O  O51  1  0.356617  0.748000  0.554341  1
  O  O52  1  0.618397  0.752820  0.558436  1
  O  O53  1  0.558436  0.618397  0.752820  1
  O  O54  1  0.752820  0.558436  0.618397  1
  O  O55  1  0.747180  0.441564  0.118397  1
  O  O56  1  0.058436  0.881603  0.247180  1
  O  O57  1  0.247180  0.058436  0.881603  1
  O  O58  1  0.941564  0.381603  0.252820  1
  O  O59  1  0.441564  0.118397  0.747180  1
  O  O60  1  0.252820  0.941564  0.381603  1
  O  O61  1  0.118397  0.747180  0.441564  1
  O  O62  1  0.381603  0.252820  0.941564  1
  O  O63  1  0.228957  0.271043  0.728957  1
  Re  Re64  1  0.119672  0.119672  0.119672  1
  Re  Re65  1  0.380328  0.880328  0.619672  1
  Re  Re66  1  0.619672  0.380328  0.880328  1
  Re  Re67  1  0.880328  0.619672  0.380328  1
  Re  Re68  1  0.614890  0.614890  0.614890  1
  Re  Re69  1  0.885110  0.385110  0.114890  1
  Re  Re70  1  0.114890  0.885110  0.385110  1
  Re  Re71  1  0.385110  0.114890  0.885110  1
  Bi  Bi72  1  0.345543  0.364047  0.615638  1
  Bi  Bi73  1  0.154457  0.635953  0.115638  1
  Bi  Bi74  1  0.635953  0.115638  0.154457  1
  Bi  Bi75  1  0.115638  0.154457  0.635953  1
  Bi  Bi76  1  0.353605  0.644565  0.890226  1
  Bi  Bi77  1  0.853605  0.855435  0.109774  1
  Bi  Bi78  1  0.646395  0.144565  0.609774  1
  Bi  Bi79  1  0.855435  0.109774  0.853605  1
  Bi  Bi80  1  0.609774  0.646395  0.144565  1
  Bi  Bi81  1  0.109774  0.853605  0.855435  1
  Bi  Bi82  1  0.644565  0.890226  0.353605  1
  Bi  Bi83  1  0.890226  0.353605  0.644565  1
  Bi  Bi84  1  0.144565  0.609774  0.646395  1
  Bi  Bi85  1  0.355435  0.390226  0.146395  1
  Bi  Bi86  1  0.390226  0.146395  0.355435  1
  Bi  Bi87  1  0.146395  0.355435  0.390226  1
  Bi  Bi88  1  0.135953  0.384362  0.845543  1
  Bi  Bi89  1  0.845543  0.135953  0.384362  1
  Bi  Bi90  1  0.864047  0.884362  0.654457  1
  Bi  Bi91  1  0.364047  0.615638  0.345543  1
  Bi  Bi92  1  0.654457  0.864047  0.884362  1
  Bi  Bi93  1  0.615638  0.345543  0.364047  1
  Bi  Bi94  1  0.884362  0.654457  0.864047  1
  Bi  Bi95  1  0.384362  0.845543  0.135953  1
