# generated using pymatgen
data_CdGeO3
_symmetry_space_group_name_H-M   'P 1'
_cell_length_a   5.48468842
_cell_length_b   7.16397147
_cell_length_c   7.16397147
_cell_angle_alpha   87.16736151
_cell_angle_beta   80.62062644
_cell_angle_gamma   80.62062634
_symmetry_Int_Tables_number   1
_chemical_formula_structural   CdGeO3
_chemical_formula_sum   'Cd4 Ge4 O12'
_cell_volume   273.93611906
_cell_formula_units_Z   4
loop_
 _symmetry_equiv_pos_site_id
 _symmetry_equiv_pos_as_xyz
  1  'x, y, z'
loop_
 _atom_site_type_symbol
 _atom_site_label
 _atom_site_symmetry_multiplicity
 _atom_site_fract_x
 _atom_site_fract_y
 _atom_site_fract_z
 _atom_site_occupancy
  O  O0  1  0.129818  0.606888  0.143917  1
  O  O1  1  0.370182  0.856083  0.393112  1
  O  O2  1  0.870182  0.393112  0.856083  1
  O  O3  1  0.629818  0.143917  0.606888  1
  O  O4  1  0.058163  0.299767  0.404484  1
  O  O5  1  0.441837  0.595516  0.700233  1
  O  O6  1  0.941837  0.700233  0.595516  1
  O  O7  1  0.558163  0.404484  0.299767  1
  O  O8  1  0.653237  0.786382  0.971532  1
  O  O9  1  0.846763  0.028468  0.213618  1
  O  O10  1  0.346763  0.213618  0.028468  1
  O  O11  1  0.153237  0.971532  0.786382  1
  Ge  Ge12  1  0.226965  0.793298  0.616714  1
  Ge  Ge13  1  0.273035  0.383286  0.206702  1
  Ge  Ge14  1  0.773035  0.206702  0.383286  1
  Ge  Ge15  1  0.726965  0.616714  0.793298  1
  Cd  Cd16  1  0.250000  0.287615  0.712385  1
  Cd  Cd17  1  0.750000  0.712385  0.287615  1
  Cd  Cd18  1  0.250000  0.902372  0.097628  1
  Cd  Cd19  1  0.750000  0.097628  0.902372  1
