# generated using pymatgen
data_H6CSN4
_symmetry_space_group_name_H-M   'P 1'
_cell_length_a   4.77395698
_cell_length_b   6.28891900
_cell_length_c   15.71238605
_cell_angle_alpha   90.00000000
_cell_angle_beta   90.00000000
_cell_angle_gamma   98.01444421
_symmetry_Int_Tables_number   1
_chemical_formula_structural   H6CSN4
_chemical_formula_sum   'H24 C4 S4 N16'
_cell_volume   467.12597558
_cell_formula_units_Z   4
loop_
 _symmetry_equiv_pos_site_id
 _symmetry_equiv_pos_as_xyz
  1  'x, y, z'
loop_
 _atom_site_type_symbol
 _atom_site_label
 _atom_site_symmetry_multiplicity
 _atom_site_fract_x
 _atom_site_fract_y
 _atom_site_fract_z
 _atom_site_occupancy
  H  H0  1  0.929079  0.450085  0.399621  1
  H  H1  1  0.570921  0.049915  0.899621  1
  H  H2  1  0.070921  0.549915  0.600379  1
  H  H3  1  0.429079  0.950085  0.100379  1
  H  H4  1  0.160749  0.330362  0.456116  1
  H  H5  1  0.339251  0.169638  0.956116  1
  H  H6  1  0.839251  0.669638  0.543884  1
  H  H7  1  0.660749  0.830362  0.043884  1
  H  H8  1  0.690107  0.137755  0.475583  1
  H  H9  1  0.809893  0.362245  0.975583  1
  H  H10  1  0.309893  0.862245  0.524417  1
  H  H11  1  0.190107  0.637755  0.024417  1
  H  H12  1  0.160416  0.716690  0.272942  1
  H  H13  1  0.614584  0.597514  0.204454  1
  H  H14  1  0.839584  0.283310  0.727058  1
  H  H15  1  0.660416  0.216690  0.227058  1
  H  H16  1  0.011578  0.838015  0.194413  1
  H  H17  1  0.488422  0.661985  0.694413  1
  H  H18  1  0.988422  0.161985  0.805587  1
  H  H19  1  0.511578  0.338015  0.305587  1
  H  H20  1  0.114584  0.097514  0.295546  1
  H  H21  1  0.385416  0.402486  0.795546  1
  H  H22  1  0.885416  0.902486  0.704454  1
  H  H23  1  0.339583  0.783310  0.772942  1
  C  C24  1  0.299536  0.455726  0.124856  1
  C  C25  1  0.700464  0.544274  0.875144  1
  C  C26  1  0.200464  0.044274  0.624856  1
  C  C27  1  0.799536  0.955726  0.375144  1
  N  N28  1  0.686508  0.362021  0.921721  1
  N  N29  1  0.476145  0.186545  0.905078  1
  N  N30  1  0.976145  0.686545  0.594922  1
  N  N31  1  0.523855  0.813455  0.094922  1
  N  N32  1  0.813492  0.137979  0.421721  1
  N  N33  1  0.023855  0.313455  0.405078  1
  N  N34  1  0.186508  0.862021  0.578279  1
  N  N35  1  0.313492  0.637979  0.078279  1
  N  N36  1  0.467851  0.463230  0.193472  1
  N  N37  1  0.517289  0.718216  0.755461  1
  N  N38  1  0.982711  0.781784  0.255461  1
  N  N39  1  0.482711  0.281784  0.244539  1
  N  N40  1  0.967851  0.963230  0.306528  1
  N  N41  1  0.532149  0.536770  0.806528  1
  N  N42  1  0.032149  0.036770  0.693472  1
  N  N43  1  0.017289  0.218216  0.744539  1
  S  S44  1  0.572492  0.734254  0.405577  1
  S  S45  1  0.927508  0.765746  0.905577  1
  S  S46  1  0.427508  0.265746  0.594423  1
  S  S47  1  0.072492  0.234254  0.094423  1
