# generated using pymatgen
data_Na3AlH6
_symmetry_space_group_name_H-M   'P 1'
_cell_length_a   5.34582837
_cell_length_b   5.54309454
_cell_length_c   7.70949002
_cell_angle_alpha   90.00000000
_cell_angle_beta   89.97468042
_cell_angle_gamma   90.00000000
_symmetry_Int_Tables_number   1
_chemical_formula_structural   Na3AlH6
_chemical_formula_sum   'Na6 Al2 H12'
_cell_volume   228.45091698
_cell_formula_units_Z   2
loop_
 _symmetry_equiv_pos_site_id
 _symmetry_equiv_pos_as_xyz
  1  'x, y, z'
loop_
 _atom_site_type_symbol
 _atom_site_label
 _atom_site_symmetry_multiplicity
 _atom_site_fract_x
 _atom_site_fract_y
 _atom_site_fract_z
 _atom_site_occupancy
  H  H0  1  0.660477  0.232931  0.436392  1
  H  H1  1  0.839523  0.732931  0.063608  1
  H  H2  1  0.339523  0.767069  0.563608  1
  H  H3  1  0.160477  0.267069  0.936392  1
  H  H4  1  0.728239  0.169213  0.043612  1
  H  H5  1  0.771761  0.669213  0.456388  1
  H  H6  1  0.271761  0.830787  0.956388  1
  H  H7  1  0.228239  0.330787  0.543612  1
  H  H8  1  0.100015  0.047930  0.216230  1
  H  H9  1  0.399985  0.547930  0.283770  1
  H  H10  1  0.899985  0.952070  0.783770  1
  H  H11  1  0.600015  0.452070  0.716230  1
  Na  Na12  1  0.000000  0.000000  0.500000  1
  Na  Na13  1  0.500000  0.500000  0.000000  1
  Na  Na14  1  0.489220  0.046924  0.753946  1
  Na  Na15  1  0.010780  0.546924  0.746054  1
  Na  Na16  1  0.510780  0.953076  0.246054  1
  Na  Na17  1  0.989220  0.453076  0.253946  1
  Al  Al18  1  0.000000  0.000000  0.000000  1
  Al  Al19  1  0.500000  0.500000  0.500000  1
