# generated using pymatgen
data_Ba(InSe2)2
_symmetry_space_group_name_H-M   'P 1'
_cell_length_a   13.40166126
_cell_length_b   13.40166127
_cell_length_c   13.55625700
_cell_angle_alpha   105.21307113
_cell_angle_beta   105.21307115
_cell_angle_gamma   117.97766059
_symmetry_Int_Tables_number   1
_chemical_formula_structural   Ba(InSe2)2
_chemical_formula_sum   'Ba8 In16 Se32'
_cell_volume   1850.41402746
_cell_formula_units_Z   8
loop_
 _symmetry_equiv_pos_site_id
 _symmetry_equiv_pos_as_xyz
  1  'x, y, z'
loop_
 _atom_site_type_symbol
 _atom_site_label
 _atom_site_symmetry_multiplicity
 _atom_site_fract_x
 _atom_site_fract_y
 _atom_site_fract_z
 _atom_site_occupancy
  Se  Se0  1  0.815038  0.146658  0.997236  1
  Se  Se1  1  0.149422  0.317801  0.502764  1
  Se  Se2  1  0.853342  0.184962  0.502764  1
  Se  Se3  1  0.682199  0.850578  0.997236  1
  Se  Se4  1  0.184962  0.853342  0.002764  1
  Se  Se5  1  0.850578  0.682199  0.497236  1
  Se  Se6  1  0.146658  0.815038  0.497236  1
  Se  Se7  1  0.317801  0.149422  0.002764  1
  Se  Se8  1  0.161614  0.348603  0.002017  1
  Se  Se9  1  0.346586  0.659597  0.497983  1
  Se  Se10  1  0.651397  0.838386  0.497983  1
  Se  Se11  1  0.340403  0.653414  0.002017  1
  Se  Se12  1  0.838386  0.651397  0.997983  1
  Se  Se13  1  0.653414  0.340403  0.502017  1
  Se  Se14  1  0.348603  0.161614  0.502017  1
  Se  Se15  1  0.659597  0.346586  0.997983  1
  Se  Se16  1  0.584842  0.085058  0.671769  1
  Se  Se17  1  0.413289  0.413073  0.828231  1
  Se  Se18  1  0.914942  0.415158  0.828231  1
  Se  Se19  1  0.586927  0.586711  0.671769  1
  Se  Se20  1  0.415158  0.914942  0.328231  1
  Se  Se21  1  0.586711  0.586927  0.171769  1
  Se  Se22  1  0.085058  0.584842  0.171769  1
  Se  Se23  1  0.413073  0.413289  0.328231  1
  Se  Se24  1  0.912828  0.413203  0.328973  1
  Se  Se25  1  0.084230  0.083855  0.171027  1
  Se  Se26  1  0.586797  0.087172  0.171027  1
  Se  Se27  1  0.916145  0.915770  0.328973  1
  Se  Se28  1  0.087172  0.586797  0.671027  1
  Se  Se29  1  0.915770  0.916145  0.828973  1
  Se  Se30  1  0.413203  0.912828  0.828973  1
  Se  Se31  1  0.083855  0.084230  0.671027  1
  In  In32  1  0.532009  0.640865  0.999738  1
  In  In33  1  0.641128  0.032271  0.500262  1
  In  In34  1  0.359135  0.467991  0.500262  1
  In  In35  1  0.967729  0.358872  0.999738  1
  In  In36  1  0.467991  0.359135  0.000262  1
  In  In37  1  0.358872  0.967729  0.499738  1
  In  In38  1  0.640865  0.532009  0.499738  1
  In  In39  1  0.032271  0.641128  0.000262  1
  In  In40  1  0.886640  0.862706  0.998618  1
  In  In41  1  0.864088  0.388022  0.501382  1
  In  In42  1  0.137294  0.113360  0.501382  1
  In  In43  1  0.611978  0.135912  0.998618  1
  In  In44  1  0.113360  0.137294  0.001382  1
  In  In45  1  0.135912  0.611978  0.498618  1
  In  In46  1  0.862706  0.886640  0.498618  1
  In  In47  1  0.388022  0.864088  0.001382  1
  Ba  Ba48  1  0.872751  0.622751  0.245502  1
  Ba  Ba49  1  0.377249  0.127249  0.254498  1
  Ba  Ba50  1  0.127249  0.377249  0.754498  1
  Ba  Ba51  1  0.622751  0.872751  0.745502  1
  Ba  Ba52  1  0.625000  0.375000  0.750000  1
  Ba  Ba53  1  0.375000  0.625000  0.250000  1
  Ba  Ba54  1  0.125000  0.875000  0.750000  1
  Ba  Ba55  1  0.875000  0.125000  0.250000  1
