# generated using pymatgen
data_Be(B3H7)2
_symmetry_space_group_name_H-M   'P 1'
_cell_length_a   8.64038542
_cell_length_b   8.73668010
_cell_length_c   10.93950920
_cell_angle_alpha   97.46340672
_cell_angle_beta   90.00000000
_cell_angle_gamma   90.00000000
_symmetry_Int_Tables_number   1
_chemical_formula_structural   Be(B3H7)2
_chemical_formula_sum   'Be4 B24 H56'
_cell_volume   818.80857034
_cell_formula_units_Z   4
loop_
 _symmetry_equiv_pos_site_id
 _symmetry_equiv_pos_as_xyz
  1  'x, y, z'
loop_
 _atom_site_type_symbol
 _atom_site_label
 _atom_site_symmetry_multiplicity
 _atom_site_fract_x
 _atom_site_fract_y
 _atom_site_fract_z
 _atom_site_occupancy
  H  H0  1  0.542707  0.438975  0.730105  1
  H  H1  1  0.042707  0.061025  0.769895  1
  H  H2  1  0.457293  0.561025  0.269895  1
  H  H3  1  0.957293  0.938975  0.230105  1
  H  H4  1  0.600724  0.399418  0.546132  1
  H  H5  1  0.100724  0.100582  0.953868  1
  H  H6  1  0.399276  0.600582  0.453868  1
  H  H7  1  0.899276  0.899418  0.046132  1
  H  H8  1  0.733960  0.323523  0.674715  1
  H  H9  1  0.233960  0.176477  0.825285  1
  H  H10  1  0.266040  0.676477  0.325285  1
  H  H11  1  0.766040  0.823523  0.174715  1
  H  H12  1  0.520779  0.230063  0.632580  1
  H  H13  1  0.020778  0.269937  0.867420  1
  H  H14  1  0.479222  0.769937  0.367420  1
  H  H15  1  0.979221  0.730063  0.132580  1
  H  H16  1  0.820067  0.097897  0.602532  1
  H  H17  1  0.320067  0.402103  0.897468  1
  H  H18  1  0.179933  0.902103  0.397468  1
  H  H19  1  0.679933  0.597897  0.102532  1
  H  H20  1  0.732683  0.981343  0.883903  1
  H  H21  1  0.873788  0.890993  0.604196  1
  H  H22  1  0.126212  0.109007  0.395804  1
  H  H23  1  0.626212  0.390993  0.104196  1
  H  H24  1  0.835054  0.821776  0.766320  1
  H  H25  1  0.335054  0.678224  0.733680  1
  H  H26  1  0.164946  0.178224  0.233680  1
  H  H27  1  0.664946  0.321776  0.266320  1
  H  H28  1  0.020190  0.387065  0.143253  1
  H  H29  1  0.520190  0.112935  0.356747  1
  H  H30  1  0.979810  0.612935  0.856747  1
  H  H31  1  0.479810  0.887065  0.643253  1
  H  H32  1  0.978016  0.584656  0.392680  1
  H  H33  1  0.478016  0.915344  0.107320  1
  H  H34  1  0.021984  0.415344  0.607320  1
  H  H35  1  0.521984  0.084656  0.892680  1
  H  H36  1  0.857342  0.263734  0.361530  1
  H  H37  1  0.357342  0.236266  0.138470  1
  H  H38  1  0.142658  0.736266  0.638470  1
  H  H39  1  0.642658  0.763734  0.861530  1
  H  H40  1  0.729965  0.181326  0.108579  1
  H  H41  1  0.229965  0.318674  0.391421  1
  H  H42  1  0.270035  0.818674  0.891421  1
  H  H43  1  0.770035  0.681326  0.608579  1
  H  H44  1  0.761240  0.444614  0.964130  1
  H  H45  1  0.261240  0.055386  0.535870  1
  H  H46  1  0.238760  0.555386  0.035870  1
  H  H47  1  0.738760  0.944614  0.464130  1
  H  H48  1  0.787022  0.666906  0.317450  1
  H  H49  1  0.287022  0.833094  0.182550  1
  H  H50  1  0.212978  0.333094  0.682550  1
  H  H51  1  0.712978  0.166906  0.817450  1
  H  H52  1  0.767317  0.481343  0.383903  1
  H  H53  1  0.267317  0.018657  0.116097  1
  H  H54  1  0.232683  0.518657  0.616097  1
  H  H55  1  0.373788  0.609007  0.895804  1
  Be  Be56  1  0.832173  0.656023  0.176683  1
  Be  Be57  1  0.332173  0.843977  0.323317  1
  Be  Be58  1  0.167827  0.343977  0.823317  1
  Be  Be59  1  0.667827  0.156023  0.676683  1
  B  B60  1  0.752042  0.972539  0.573526  1
  B  B61  1  0.252042  0.527461  0.926474  1
  B  B62  1  0.247958  0.027461  0.426474  1
  B  B63  1  0.747958  0.472539  0.073526  1
  B  B64  1  0.763787  0.811663  0.655872  1
  B  B65  1  0.263787  0.688337  0.844128  1
  B  B66  1  0.236213  0.188337  0.344128  1
  B  B67  1  0.736213  0.311663  0.155872  1
  B  B68  1  0.689745  0.859669  0.802991  1
  B  B69  1  0.189745  0.640331  0.697009  1
  B  B70  1  0.310255  0.140331  0.197009  1
  B  B71  1  0.810255  0.359669  0.302991  1
  B  B72  1  0.626960  0.053188  0.822707  1
  B  B73  1  0.126960  0.446812  0.677293  1
  B  B74  1  0.373040  0.946812  0.177293  1
  B  B75  1  0.873040  0.553188  0.322707  1
  B  B76  1  0.604228  0.932691  0.679029  1
  B  B77  1  0.104228  0.567309  0.820971  1
  B  B78  1  0.395772  0.067309  0.320971  1
  B  B79  1  0.895772  0.432691  0.179029  1
  B  B80  1  0.902552  0.854194  0.145309  1
  B  B81  1  0.402552  0.645806  0.354691  1
  B  B82  1  0.097448  0.145806  0.854691  1
  B  B83  1  0.597448  0.354194  0.645309  1
