# generated using pymatgen
data_TlAgSe2
_symmetry_space_group_name_H-M   'P 1'
_cell_length_a   10.48623775
_cell_length_b   10.48623775
_cell_length_c   7.43070426
_cell_angle_alpha   90.00000000
_cell_angle_beta   90.00000000
_cell_angle_gamma   120.00000003
_symmetry_Int_Tables_number   1
_chemical_formula_structural   TlAgSe2
_chemical_formula_sum   'Tl6 Ag6 Se12'
_cell_volume   707.61985236
_cell_formula_units_Z   6
loop_
 _symmetry_equiv_pos_site_id
 _symmetry_equiv_pos_as_xyz
  1  'x, y, z'
loop_
 _atom_site_type_symbol
 _atom_site_label
 _atom_site_symmetry_multiplicity
 _atom_site_fract_x
 _atom_site_fract_y
 _atom_site_fract_z
 _atom_site_occupancy
  Se  Se0  1  0.405942  0.202971  0.500000  1
  Se  Se1  1  0.797029  0.594058  0.500000  1
  Se  Se2  1  0.797029  0.202971  0.500000  1
  Se  Se3  1  0.594058  0.797029  0.500000  1
  Se  Se4  1  0.202971  0.405942  0.500000  1
  Se  Se5  1  0.202971  0.797029  0.500000  1
  Se  Se6  1  0.402326  0.201163  0.000000  1
  Se  Se7  1  0.798837  0.597674  0.000000  1
  Se  Se8  1  0.201163  0.798837  0.000000  1
  Se  Se9  1  0.597674  0.798837  0.000000  1
  Se  Se10  1  0.201163  0.402326  0.000000  1
  Se  Se11  1  0.798837  0.201163  0.000000  1
  Ag  Ag12  1  0.290536  0.290536  0.748278  1
  Ag  Ag13  1  0.000000  0.290536  0.251722  1
  Ag  Ag14  1  0.709464  0.709464  0.251722  1
  Ag  Ag15  1  0.000000  0.709464  0.748278  1
  Ag  Ag16  1  0.709464  0.000000  0.748278  1
  Ag  Ag17  1  0.290536  0.000000  0.251722  1
  Tl  Tl18  1  0.000000  0.000000  0.248739  1
  Tl  Tl19  1  0.000000  0.000000  0.751261  1
  Tl  Tl20  1  0.333333  0.666667  0.248220  1
  Tl  Tl21  1  0.333333  0.666667  0.751780  1
  Tl  Tl22  1  0.666667  0.333333  0.751780  1
  Tl  Tl23  1  0.666667  0.333333  0.248220  1
