# generated using pymatgen
data_Fe2(PO4)3
_symmetry_space_group_name_H-M   'P 1'
_cell_length_a   8.49812546
_cell_length_b   8.49674601
_cell_length_c   8.92762514
_cell_angle_alpha   118.25987788
_cell_angle_beta   118.26619075
_cell_angle_gamma   60.02126087
_symmetry_Int_Tables_number   1
_chemical_formula_structural   Fe2(PO4)3
_chemical_formula_sum   'Fe4 P6 O24'
_cell_volume   467.50514474
_cell_formula_units_Z   2
loop_
 _symmetry_equiv_pos_site_id
 _symmetry_equiv_pos_as_xyz
  1  'x, y, z'
loop_
 _atom_site_type_symbol
 _atom_site_label
 _atom_site_symmetry_multiplicity
 _atom_site_fract_x
 _atom_site_fract_y
 _atom_site_fract_z
 _atom_site_occupancy
  O  O0  1  0.731316  0.612824  0.233149  1
  O  O1  1  0.844062  0.987062  0.598554  1
  O  O2  1  0.819478  0.008388  0.290020  1
  O  O3  1  0.888932  0.232043  0.235735  1
  O  O4  1  0.155939  0.012938  0.401445  1
  O  O5  1  0.180522  0.991612  0.709980  1
  O  O6  1  0.111069  0.767957  0.764264  1
  O  O7  1  0.510260  0.960314  0.292339  1
  O  O8  1  0.234541  0.654056  0.408234  1
  O  O9  1  0.375710  0.704947  0.075280  1
  O  O10  1  0.200175  0.498798  0.077297  1
  O  O11  1  0.112311  0.390809  0.237419  1
  O  O12  1  0.516977  0.728846  0.403680  1
  O  O13  1  0.541118  0.682324  0.712557  1
  O  O14  1  0.765459  0.345944  0.591766  1
  O  O15  1  0.008971  0.122092  0.927818  1
  O  O16  1  0.991029  0.877908  0.072182  1
  O  O17  1  0.489740  0.039686  0.707661  1
  O  O18  1  0.458881  0.317677  0.287443  1
  O  O19  1  0.483023  0.271153  0.596320  1
  O  O20  1  0.887690  0.609190  0.762581  1
  O  O21  1  0.799826  0.501202  0.922704  1
  O  O22  1  0.624290  0.295053  0.924720  1
  O  O23  1  0.268684  0.387175  0.766850  1
  P  P24  1  0.532534  0.754032  0.250589  1
  P  P25  1  0.253763  0.463621  0.251893  1
  P  P26  1  0.746238  0.536378  0.748106  1
  P  P27  1  0.467466  0.245968  0.749411  1
  P  P28  1  0.037846  0.968251  0.750504  1
  P  P29  1  0.962153  0.031749  0.249497  1
  Fe  Fe30  1  0.859973  0.359018  0.079325  1
  Fe  Fe31  1  0.644627  0.145294  0.435619  1
  Fe  Fe32  1  0.355374  0.854706  0.564382  1
  Fe  Fe33  1  0.140027  0.640982  0.920676  1
