# generated using pymatgen
data_USiPd
_symmetry_space_group_name_H-M   'P 1'
_cell_length_a   4.18652701
_cell_length_b   7.06619013
_cell_length_c   7.51623960
_cell_angle_alpha   90.00000000
_cell_angle_beta   90.00000000
_cell_angle_gamma   90.00000000
_symmetry_Int_Tables_number   1
_chemical_formula_structural   USiPd
_chemical_formula_sum   'U4 Si4 Pd4'
_cell_volume   222.35138155
_cell_formula_units_Z   4
loop_
 _symmetry_equiv_pos_site_id
 _symmetry_equiv_pos_as_xyz
  1  'x, y, z'
loop_
 _atom_site_type_symbol
 _atom_site_label
 _atom_site_symmetry_multiplicity
 _atom_site_fract_x
 _atom_site_fract_y
 _atom_site_fract_z
 _atom_site_occupancy
  Si  Si0  1  0.250000  0.289726  0.886626  1
  Si  Si1  1  0.750000  0.710274  0.113374  1
  Si  Si2  1  0.250000  0.789726  0.613374  1
  Si  Si3  1  0.750000  0.210274  0.386626  1
  Pd  Pd4  1  0.750000  0.839486  0.430307  1
  Pd  Pd5  1  0.250000  0.160514  0.569693  1
  Pd  Pd6  1  0.750000  0.339486  0.069693  1
  Pd  Pd7  1  0.250000  0.660514  0.930307  1
  U  U8  1  0.250000  0.505986  0.326522  1
  U  U9  1  0.750000  0.494014  0.673478  1
  U  U10  1  0.250000  0.005986  0.173478  1
  U  U11  1  0.750000  0.994014  0.826522  1
