# generated using pymatgen
data_Ag5CF4
_symmetry_space_group_name_H-M   'P 1'
_cell_length_a   7.54022905
_cell_length_b   7.54022905
_cell_length_c   10.63329991
_cell_angle_alpha   90.00000000
_cell_angle_beta   90.00000000
_cell_angle_gamma   90.00000000
_symmetry_Int_Tables_number   1
_chemical_formula_structural   Ag5CF4
_chemical_formula_sum   'Ag20 C4 F16'
_cell_volume   604.55684193
_cell_formula_units_Z   4
loop_
 _symmetry_equiv_pos_site_id
 _symmetry_equiv_pos_as_xyz
  1  'x, y, z'
loop_
 _atom_site_type_symbol
 _atom_site_label
 _atom_site_symmetry_multiplicity
 _atom_site_fract_x
 _atom_site_fract_y
 _atom_site_fract_z
 _atom_site_occupancy
  C  C0  1  0.578446  0.038310  0.734755  1
  C  C1  1  0.038310  0.421554  0.265245  1
  C  C2  1  0.961690  0.578446  0.265245  1
  C  C3  1  0.421554  0.961690  0.734755  1
  F  F4  1  0.776066  0.942733  0.396071  1
  F  F5  1  0.574021  0.293890  0.397812  1
  F  F6  1  0.425979  0.706110  0.397812  1
  F  F7  1  0.293890  0.425979  0.602188  1
  F  F8  1  0.942733  0.223934  0.603929  1
  F  F9  1  0.706110  0.574021  0.602188  1
  F  F10  1  0.223934  0.057267  0.396071  1
  F  F11  1  0.057267  0.776066  0.603929  1
  F  F12  1  0.288896  0.555137  0.898107  1
  F  F13  1  0.555137  0.711104  0.101893  1
  F  F14  1  0.444863  0.288896  0.101893  1
  F  F15  1  0.711104  0.444863  0.898107  1
  F  F16  1  0.062200  0.210175  0.904877  1
  F  F17  1  0.210175  0.937800  0.095123  1
  F  F18  1  0.789825  0.062200  0.095123  1
  F  F19  1  0.937800  0.789825  0.904877  1
  Ag  Ag20  1  0.769478  0.102074  0.878041  1
  Ag  Ag21  1  0.102074  0.230522  0.121959  1
  Ag  Ag22  1  0.897926  0.769478  0.121959  1
  Ag  Ag23  1  0.230522  0.897926  0.878041  1
  Ag  Ag24  1  0.406265  0.264055  0.876181  1
  Ag  Ag25  1  0.264055  0.593735  0.123819  1
  Ag  Ag26  1  0.735945  0.406265  0.123819  1
  Ag  Ag27  1  0.593735  0.735945  0.876181  1
  Ag  Ag28  1  0.622292  0.297957  0.652169  1
  Ag  Ag29  1  0.297957  0.377708  0.347831  1
  Ag  Ag30  1  0.702043  0.622292  0.347831  1
  Ag  Ag31  1  0.377708  0.702043  0.652169  1
  Ag  Ag32  1  0.201936  0.108566  0.655602  1
  Ag  Ag33  1  0.108566  0.798064  0.344398  1
  Ag  Ag34  1  0.891434  0.201936  0.344398  1
  Ag  Ag35  1  0.798064  0.891434  0.655602  1
  Ag  Ag36  1  0.000000  0.500000  0.502991  1
  Ag  Ag37  1  0.500000  0.000000  0.497009  1
  Ag  Ag38  1  0.000000  0.500000  0.798040  1
  Ag  Ag39  1  0.500000  0.000000  0.201960  1
