# generated using pymatgen
data_CeInPd
_symmetry_space_group_name_H-M   'P 1'
_cell_length_a   7.65151240
_cell_length_b   7.65151240
_cell_length_c   4.10166267
_cell_angle_alpha   90.00000000
_cell_angle_beta   90.00000000
_cell_angle_gamma   119.99999998
_symmetry_Int_Tables_number   1
_chemical_formula_structural   CeInPd
_chemical_formula_sum   'Ce3 In3 Pd3'
_cell_volume   207.96255521
_cell_formula_units_Z   3
loop_
 _symmetry_equiv_pos_site_id
 _symmetry_equiv_pos_as_xyz
  1  'x, y, z'
loop_
 _atom_site_type_symbol
 _atom_site_label
 _atom_site_symmetry_multiplicity
 _atom_site_fract_x
 _atom_site_fract_y
 _atom_site_fract_z
 _atom_site_occupancy
  Pd  Pd0  1  0.333333  0.666667  0.500000  1
  Pd  Pd1  1  0.000000  0.000000  0.000000  1
  Pd  Pd2  1  0.666667  0.333333  0.500000  1
  In  In3  1  0.748593  0.748593  0.500000  1
  In  In4  1  0.000000  0.251407  0.500000  1
  In  In5  1  0.251407  0.000000  0.500000  1
  Ce  Ce6  1  0.000000  0.586244  0.000000  1
  Ce  Ce7  1  0.413756  0.413756  0.000000  1
  Ce  Ce8  1  0.586244  0.000000  0.000000  1
