# generated using pymatgen
data_Er7(NiTe)2
_symmetry_space_group_name_H-M   'P 1'
_cell_length_a   3.83228749
_cell_length_b   9.28991905
_cell_length_c   9.28991905
_cell_angle_alpha   61.63121897
_cell_angle_beta   78.09670000
_cell_angle_gamma   78.09670003
_symmetry_Int_Tables_number   1
_chemical_formula_structural   Er7(NiTe)2
_chemical_formula_sum   'Er7 Ni2 Te2'
_cell_volume   282.49979683
_cell_formula_units_Z   1
loop_
 _symmetry_equiv_pos_site_id
 _symmetry_equiv_pos_as_xyz
  1  'x, y, z'
loop_
 _atom_site_type_symbol
 _atom_site_label
 _atom_site_symmetry_multiplicity
 _atom_site_fract_x
 _atom_site_fract_y
 _atom_site_fract_z
 _atom_site_occupancy
  Ni  Ni0  1  0.737402  0.015982  0.509214  1
  Ni  Ni1  1  0.262598  0.490786  0.984018  1
  Te  Te2  1  0.500000  0.518883  0.481117  1
  Te  Te3  1  0.000000  0.916587  0.083413  1
  Er  Er4  1  0.146518  0.264392  0.442572  1
  Er  Er5  1  0.633369  0.630569  0.102694  1
  Er  Er6  1  0.366631  0.897306  0.369431  1
  Er  Er7  1  0.853482  0.557428  0.735608  1
  Er  Er8  1  0.185199  0.875262  0.754340  1
  Er  Er9  1  0.814801  0.245660  0.124738  1
  Er  Er10  1  0.500000  0.181785  0.818215  1
