# generated using pymatgen
data_KCeSiS4
_symmetry_space_group_name_H-M   'P 1'
_cell_length_a   6.57542190
_cell_length_b   6.70026807
_cell_length_c   8.82506583
_cell_angle_alpha   90.00000000
_cell_angle_beta   107.23730005
_cell_angle_gamma   90.00000000
_symmetry_Int_Tables_number   1
_chemical_formula_structural   KCeSiS4
_chemical_formula_sum   'K2 Ce2 Si2 S8'
_cell_volume   371.34371398
_cell_formula_units_Z   2
loop_
 _symmetry_equiv_pos_site_id
 _symmetry_equiv_pos_as_xyz
  1  'x, y, z'
loop_
 _atom_site_type_symbol
 _atom_site_label
 _atom_site_symmetry_multiplicity
 _atom_site_fract_x
 _atom_site_fract_y
 _atom_site_fract_z
 _atom_site_occupancy
  Si  Si0  1  0.216382  0.510842  0.318960  1
  Si  Si1  1  0.783618  0.010842  0.681040  1
  S  S2  1  0.401848  0.550560  0.561491  1
  S  S3  1  0.598152  0.050560  0.438509  1
  S  S4  1  0.586686  0.010018  0.831380  1
  S  S5  1  0.413314  0.510018  0.168620  1
  S  S6  1  0.022085  0.249067  0.287851  1
  S  S7  1  0.977915  0.749067  0.712149  1
  S  S8  1  0.012730  0.246575  0.727325  1
  S  S9  1  0.987270  0.746575  0.272675  1
  K  K10  1  0.722622  0.499063  0.931941  1
  K  K11  1  0.277378  0.999063  0.068059  1
  Ce  Ce12  1  0.770110  0.480874  0.450070  1
  Ce  Ce13  1  0.229890  0.980874  0.549930  1
