# generated using pymatgen
data_LaIn4Ni
_symmetry_space_group_name_H-M   'P 1'
_cell_length_a   4.53522348
_cell_length_b   7.31457376
_cell_length_c   8.82896245
_cell_angle_alpha   90.00000000
_cell_angle_beta   104.88251375
_cell_angle_gamma   90.00000000
_symmetry_Int_Tables_number   1
_chemical_formula_structural   LaIn4Ni
_chemical_formula_sum   'La2 In8 Ni2'
_cell_volume   283.06019557
_cell_formula_units_Z   2
loop_
 _symmetry_equiv_pos_site_id
 _symmetry_equiv_pos_as_xyz
  1  'x, y, z'
loop_
 _atom_site_type_symbol
 _atom_site_label
 _atom_site_symmetry_multiplicity
 _atom_site_fract_x
 _atom_site_fract_y
 _atom_site_fract_z
 _atom_site_occupancy
  Ni  Ni0  1  0.226459  0.250000  0.452918  1
  Ni  Ni1  1  0.773541  0.750000  0.547082  1
  In  In2  1  0.500000  0.500000  0.000000  1
  In  In3  1  0.500000  0.000000  0.000000  1
  In  In4  1  0.688776  0.048596  0.377553  1
  In  In5  1  0.311224  0.951404  0.622447  1
  In  In6  1  0.311224  0.548596  0.622447  1
  In  In7  1  0.688776  0.451404  0.377553  1
  In  In8  1  0.075518  0.250000  0.151036  1
  In  In9  1  0.924482  0.750000  0.848964  1
  La  La10  1  0.118192  0.750000  0.236384  1
  La  La11  1  0.881808  0.250000  0.763616  1
