# generated using pymatgen
data_SrYb2O4
_symmetry_space_group_name_H-M   'P 1'
_cell_length_a   3.47209703
_cell_length_b   9.81279073
_cell_length_c   11.94805346
_cell_angle_alpha   90.00000000
_cell_angle_beta   90.00000000
_cell_angle_gamma   90.00000000
_symmetry_Int_Tables_number   1
_chemical_formula_structural   SrYb2O4
_chemical_formula_sum   'Sr4 Yb8 O16'
_cell_volume   407.08167003
_cell_formula_units_Z   4
loop_
 _symmetry_equiv_pos_site_id
 _symmetry_equiv_pos_as_xyz
  1  'x, y, z'
loop_
 _atom_site_type_symbol
 _atom_site_label
 _atom_site_symmetry_multiplicity
 _atom_site_fract_x
 _atom_site_fract_y
 _atom_site_fract_z
 _atom_site_occupancy
  O  O0  1  0.250000  0.077446  0.084850  1
  O  O1  1  0.750000  0.922554  0.915150  1
  O  O2  1  0.250000  0.577446  0.415150  1
  O  O3  1  0.750000  0.422554  0.584850  1
  O  O4  1  0.250000  0.989340  0.722310  1
  O  O5  1  0.750000  0.010660  0.277690  1
  O  O6  1  0.250000  0.489340  0.777690  1
  O  O7  1  0.750000  0.510660  0.222310  1
  O  O8  1  0.250000  0.367666  0.019942  1
  O  O9  1  0.750000  0.632334  0.980058  1
  O  O10  1  0.250000  0.867666  0.480058  1
  O  O11  1  0.750000  0.132334  0.519942  1
  O  O12  1  0.750000  0.214115  0.818256  1
  O  O13  1  0.250000  0.785885  0.181744  1
  O  O14  1  0.750000  0.714115  0.681744  1
  O  O15  1  0.250000  0.285885  0.318256  1
  Sr  Sr16  1  0.750000  0.750320  0.342907  1
  Sr  Sr17  1  0.250000  0.249680  0.657093  1
  Sr  Sr18  1  0.750000  0.250320  0.157093  1
  Sr  Sr19  1  0.250000  0.749680  0.842907  1
  Yb  Yb20  1  0.250000  0.076140  0.391269  1
  Yb  Yb21  1  0.750000  0.923860  0.608731  1
  Yb  Yb22  1  0.250000  0.576140  0.108731  1
  Yb  Yb23  1  0.750000  0.423860  0.891269  1
  Yb  Yb24  1  0.750000  0.414897  0.394784  1
  Yb  Yb25  1  0.250000  0.585103  0.605216  1
  Yb  Yb26  1  0.750000  0.914897  0.105216  1
  Yb  Yb27  1  0.250000  0.085103  0.894784  1
