# generated using pymatgen
data_CuBr
_symmetry_space_group_name_H-M   'P 1'
_cell_length_a   6.93163236
_cell_length_b   6.93163236
_cell_length_c   6.93163236
_cell_angle_alpha   90.00000000
_cell_angle_beta   90.00000000
_cell_angle_gamma   90.00000000
_symmetry_Int_Tables_number   1
_chemical_formula_structural   CuBr
_chemical_formula_sum   'Cu8 Br8'
_cell_volume   333.04779418
_cell_formula_units_Z   8
loop_
 _symmetry_equiv_pos_site_id
 _symmetry_equiv_pos_as_xyz
  1  'x, y, z'
loop_
 _atom_site_type_symbol
 _atom_site_label
 _atom_site_symmetry_multiplicity
 _atom_site_fract_x
 _atom_site_fract_y
 _atom_site_fract_z
 _atom_site_occupancy
  Cu  Cu0  1  0.628779  0.628779  0.628779  1
  Cu  Cu1  1  0.871221  0.371221  0.128779  1
  Cu  Cu2  1  0.128779  0.871221  0.371221  1
  Cu  Cu3  1  0.371221  0.128779  0.871221  1
  Cu  Cu4  1  0.371221  0.371221  0.371221  1
  Cu  Cu5  1  0.128779  0.628779  0.871221  1
  Cu  Cu6  1  0.871221  0.128779  0.628779  1
  Cu  Cu7  1  0.628779  0.871221  0.128779  1
  Br  Br8  1  0.154883  0.154883  0.154883  1
  Br  Br9  1  0.345117  0.845117  0.654883  1
  Br  Br10  1  0.654883  0.345117  0.845117  1
  Br  Br11  1  0.845117  0.654883  0.345117  1
  Br  Br12  1  0.845117  0.845117  0.845117  1
  Br  Br13  1  0.654883  0.154883  0.345117  1
  Br  Br14  1  0.345117  0.654883  0.154883  1
  Br  Br15  1  0.154883  0.345117  0.654883  1
