# generated using pymatgen
data_H5CN3O4
_symmetry_space_group_name_H-M   'P 1'
_cell_length_a   7.87215491
_cell_length_b   8.51168375
_cell_length_c   8.30836047
_cell_angle_alpha   90.00000000
_cell_angle_beta   90.00000000
_cell_angle_gamma   107.74210140
_symmetry_Int_Tables_number   1
_chemical_formula_structural   H5CN3O4
_chemical_formula_sum   'H20 C4 N12 O16'
_cell_volume   530.22606511
_cell_formula_units_Z   4
loop_
 _symmetry_equiv_pos_site_id
 _symmetry_equiv_pos_as_xyz
  1  'x, y, z'
loop_
 _atom_site_type_symbol
 _atom_site_label
 _atom_site_symmetry_multiplicity
 _atom_site_fract_x
 _atom_site_fract_y
 _atom_site_fract_z
 _atom_site_occupancy
  H  H0  1  0.518485  0.767125  0.145201  1
  H  H1  1  0.845466  0.588648  0.545100  1
  H  H2  1  0.654534  0.411352  0.045100  1
  H  H3  1  0.154534  0.411352  0.454900  1
  H  H4  1  0.981515  0.232875  0.645201  1
  H  H5  1  0.481515  0.232875  0.854799  1
  H  H6  1  0.018485  0.767125  0.354799  1
  H  H7  1  0.751471  0.001790  0.831374  1
  H  H8  1  0.748529  0.998210  0.331374  1
  H  H9  1  0.248529  0.998210  0.168626  1
  H  H10  1  0.251471  0.001790  0.668626  1
  H  H11  1  0.345466  0.588648  0.954900  1
  H  H12  1  0.871538  0.128031  0.177853  1
  H  H13  1  0.371538  0.128031  0.322147  1
  H  H14  1  0.128462  0.871969  0.822147  1
  H  H15  1  0.398122  0.636453  0.752743  1
  H  H16  1  0.101878  0.363547  0.252743  1
  H  H17  1  0.628462  0.871969  0.677853  1
  H  H18  1  0.898122  0.636453  0.747257  1
  H  H19  1  0.601878  0.363547  0.247257  1
  C  C20  1  0.555805  0.800475  0.910348  1
  C  C21  1  0.944195  0.199525  0.410348  1
  C  C22  1  0.444195  0.199525  0.089652  1
  C  C23  1  0.055805  0.800475  0.589652  1
  N  N24  1  0.055346  0.309547  0.918726  1
  N  N25  1  0.944654  0.690453  0.081274  1
  N  N26  1  0.847132  0.101684  0.297561  1
  N  N27  1  0.652868  0.898316  0.797561  1
  N  N28  1  0.444654  0.690453  0.418726  1
  N  N29  1  0.925430  0.665112  0.628112  1
  N  N30  1  0.574570  0.334888  0.128112  1
  N  N31  1  0.074570  0.334888  0.371888  1
  N  N32  1  0.425430  0.665112  0.871888  1
  N  N33  1  0.152868  0.898316  0.702439  1
  N  N34  1  0.347132  0.101684  0.202439  1
  N  N35  1  0.555346  0.309547  0.581274  1
  O  O36  1  0.901360  0.652436  0.227521  1
  O  O37  1  0.598640  0.347564  0.727521  1
  O  O38  1  0.098640  0.347564  0.772479  1
  O  O39  1  0.853993  0.601240  0.970784  1
  O  O40  1  0.401360  0.652436  0.272479  1
  O  O41  1  0.075526  0.814998  0.047808  1
  O  O42  1  0.424474  0.185002  0.547808  1
  O  O43  1  0.924474  0.185002  0.952192  1
  O  O44  1  0.596636  0.845336  0.060727  1
  O  O45  1  0.903364  0.154664  0.560727  1
  O  O46  1  0.403364  0.154664  0.939273  1
  O  O47  1  0.096636  0.845336  0.439273  1
  O  O48  1  0.353993  0.601240  0.529216  1
  O  O49  1  0.575526  0.814998  0.452192  1
  O  O50  1  0.646007  0.398760  0.470784  1
  O  O51  1  0.146007  0.398760  0.029216  1
