# generated using pymatgen
data_La2Re3B7
_symmetry_space_group_name_H-M   'P 1'
_cell_length_a   6.80857516
_cell_length_b   7.69797293
_cell_length_c   11.68813269
_cell_angle_alpha   90.00000000
_cell_angle_beta   90.00000000
_cell_angle_gamma   90.00000000
_symmetry_Int_Tables_number   1
_chemical_formula_structural   La2Re3B7
_chemical_formula_sum   'La8 Re12 B28'
_cell_volume   612.60106695
_cell_formula_units_Z   4
loop_
 _symmetry_equiv_pos_site_id
 _symmetry_equiv_pos_as_xyz
  1  'x, y, z'
loop_
 _atom_site_type_symbol
 _atom_site_label
 _atom_site_symmetry_multiplicity
 _atom_site_fract_x
 _atom_site_fract_y
 _atom_site_fract_z
 _atom_site_occupancy
  B  B0  1  0.633175  0.500000  0.250000  1
  B  B1  1  0.366825  0.000000  0.250000  1
  B  B2  1  0.366825  0.500000  0.750000  1
  B  B3  1  0.633175  0.000000  0.750000  1
  B  B4  1  0.698155  0.129168  0.038293  1
  B  B5  1  0.698155  0.870832  0.461707  1
  B  B6  1  0.301845  0.629168  0.461707  1
  B  B7  1  0.301845  0.370832  0.038293  1
  B  B8  1  0.301845  0.870832  0.961707  1
  B  B9  1  0.301845  0.129168  0.538293  1
  B  B10  1  0.698155  0.370832  0.538293  1
  B  B11  1  0.698155  0.629168  0.961707  1
  B  B12  1  0.877340  0.460299  0.183078  1
  B  B13  1  0.877340  0.539701  0.316922  1
  B  B14  1  0.122660  0.960299  0.316922  1
  B  B15  1  0.122660  0.039701  0.183078  1
  B  B16  1  0.122660  0.539701  0.816922  1
  B  B17  1  0.122660  0.460299  0.683078  1
  B  B18  1  0.877340  0.039701  0.683078  1
  B  B19  1  0.877340  0.960299  0.816922  1
  B  B20  1  0.896446  0.966783  0.541095  1
  B  B21  1  0.896446  0.033217  0.958905  1
  B  B22  1  0.103554  0.466783  0.958905  1
  B  B23  1  0.103554  0.533217  0.541095  1
  B  B24  1  0.103554  0.033217  0.458905  1
  B  B25  1  0.103554  0.966783  0.041095  1
  B  B26  1  0.896446  0.533217  0.041095  1
  B  B27  1  0.896446  0.466783  0.458905  1
  La  La28  1  0.764103  0.676962  0.677877  1
  La  La29  1  0.764103  0.323038  0.822123  1
  La  La30  1  0.235897  0.176962  0.822123  1
  La  La31  1  0.235897  0.823038  0.677877  1
  La  La32  1  0.235897  0.323038  0.322123  1
  La  La33  1  0.235897  0.676962  0.177877  1
  La  La34  1  0.764103  0.823038  0.177877  1
  La  La35  1  0.764103  0.176962  0.322123  1
  Re  Re36  1  0.394670  0.591324  0.919719  1
  Re  Re37  1  0.394670  0.408676  0.580281  1
  Re  Re38  1  0.605330  0.091324  0.580281  1
  Re  Re39  1  0.605330  0.908676  0.919719  1
  Re  Re40  1  0.394670  0.091324  0.080281  1
  Re  Re41  1  0.394670  0.908676  0.419719  1
  Re  Re42  1  0.605330  0.591324  0.419719  1
  Re  Re43  1  0.605330  0.408676  0.080281  1
  Re  Re44  1  0.000000  0.750000  0.931854  1
  Re  Re45  1  0.000000  0.250000  0.568146  1
  Re  Re46  1  0.000000  0.250000  0.068146  1
  Re  Re47  1  0.000000  0.750000  0.431854  1
