# generated using pymatgen
data_TeSeS(NCl)2
_symmetry_space_group_name_H-M   'P 1'
_cell_length_a   8.18806558
_cell_length_b   8.81618922
_cell_length_c   20.99026639
_cell_angle_alpha   90.00000000
_cell_angle_beta   90.00000000
_cell_angle_gamma   90.00000000
_symmetry_Int_Tables_number   1
_chemical_formula_structural   TeSeS(NCl)2
_chemical_formula_sum   'Te8 Se8 S8 N16 Cl16'
_cell_volume   1515.23560016
_cell_formula_units_Z   8
loop_
 _symmetry_equiv_pos_site_id
 _symmetry_equiv_pos_as_xyz
  1  'x, y, z'
loop_
 _atom_site_type_symbol
 _atom_site_label
 _atom_site_symmetry_multiplicity
 _atom_site_fract_x
 _atom_site_fract_y
 _atom_site_fract_z
 _atom_site_occupancy
  N  N0  1  0.005498  0.108558  0.571901  1
  N  N1  1  0.627105  0.804360  0.816549  1
  N  N2  1  0.127105  0.195640  0.683451  1
  N  N3  1  0.127105  0.695640  0.816549  1
  N  N4  1  0.627105  0.304360  0.683451  1
  N  N5  1  0.372895  0.195640  0.183451  1
  N  N6  1  0.872895  0.804360  0.316549  1
  N  N7  1  0.994502  0.391442  0.071901  1
  N  N8  1  0.494502  0.608558  0.428099  1
  N  N9  1  0.505498  0.891442  0.928099  1
  N  N10  1  0.872895  0.304360  0.183451  1
  N  N11  1  0.372895  0.695640  0.316549  1
  N  N12  1  0.505498  0.391442  0.571901  1
  N  N13  1  0.494502  0.108558  0.071901  1
  N  N14  1  0.994502  0.891442  0.428099  1
  N  N15  1  0.005498  0.608558  0.928099  1
  S  S16  1  0.954029  0.759453  0.381325  1
  S  S17  1  0.454029  0.240547  0.118675  1
  S  S18  1  0.545971  0.259453  0.618675  1
  S  S19  1  0.045971  0.740547  0.881325  1
  S  S20  1  0.045971  0.240547  0.618675  1
  S  S21  1  0.545971  0.759453  0.881325  1
  S  S22  1  0.454029  0.740547  0.381325  1
  S  S23  1  0.954029  0.259453  0.118675  1
  Cl  Cl24  1  0.743100  0.856542  0.148685  1
  Cl  Cl25  1  0.256900  0.643458  0.648685  1
  Cl  Cl26  1  0.756900  0.356542  0.851315  1
  Cl  Cl27  1  0.243100  0.143458  0.351315  1
  Cl  Cl28  1  0.669852  0.565683  0.034266  1
  Cl  Cl29  1  0.743100  0.356542  0.351315  1
  Cl  Cl30  1  0.243100  0.643458  0.148685  1
  Cl  Cl31  1  0.669852  0.065683  0.465734  1
  Cl  Cl32  1  0.169852  0.934317  0.034266  1
  Cl  Cl33  1  0.830148  0.565683  0.534266  1
  Cl  Cl34  1  0.330148  0.434317  0.965734  1
  Cl  Cl35  1  0.330148  0.934317  0.534266  1
  Cl  Cl36  1  0.830148  0.065683  0.965734  1
  Cl  Cl37  1  0.169852  0.434317  0.465734  1
  Cl  Cl38  1  0.756900  0.856542  0.648685  1
  Cl  Cl39  1  0.256900  0.143458  0.851315  1
  Se  Se40  1  0.826227  0.501160  0.201854  1
  Se  Se41  1  0.326227  0.498840  0.298146  1
  Se  Se42  1  0.673773  0.001160  0.798146  1
  Se  Se43  1  0.173773  0.998840  0.701854  1
  Se  Se44  1  0.173773  0.498840  0.798146  1
  Se  Se45  1  0.673773  0.501160  0.701854  1
  Se  Se46  1  0.326227  0.998840  0.201854  1
  Se  Se47  1  0.826227  0.001160  0.298146  1
  Te  Te48  1  0.925419  0.608007  0.092713  1
  Te  Te49  1  0.425419  0.391993  0.407287  1
  Te  Te50  1  0.574581  0.108007  0.907287  1
  Te  Te51  1  0.074581  0.891993  0.592713  1
  Te  Te52  1  0.074581  0.391993  0.907287  1
  Te  Te53  1  0.574581  0.608007  0.592713  1
  Te  Te54  1  0.425419  0.891993  0.092713  1
  Te  Te55  1  0.925419  0.108007  0.407287  1
