# generated using pymatgen
data_LiDy2Cl5
_symmetry_space_group_name_H-M   'P 1'
_cell_length_a   6.40935889
_cell_length_b   7.33998815
_cell_length_c   8.32334083
_cell_angle_alpha   92.83819946
_cell_angle_beta   112.64518146
_cell_angle_gamma   89.99999999
_symmetry_Int_Tables_number   1
_chemical_formula_structural   LiDy2Cl5
_chemical_formula_sum   'Li2 Dy4 Cl10'
_cell_volume   360.86066975
_cell_formula_units_Z   2
loop_
 _symmetry_equiv_pos_site_id
 _symmetry_equiv_pos_as_xyz
  1  'x, y, z'
loop_
 _atom_site_type_symbol
 _atom_site_label
 _atom_site_symmetry_multiplicity
 _atom_site_fract_x
 _atom_site_fract_y
 _atom_site_fract_z
 _atom_site_occupancy
  Li  Li0  1  0.000000  0.000000  0.500000  1
  Li  Li1  1  0.500000  0.500000  0.500000  1
  Cl  Cl2  1  0.494254  0.402422  0.179013  1
  Cl  Cl3  1  0.878860  0.250000  0.000000  1
  Cl  Cl4  1  0.121140  0.750000  0.000000  1
  Cl  Cl5  1  0.148932  0.330517  0.407020  1
  Cl  Cl6  1  0.851068  0.669483  0.592980  1
  Cl  Cl7  1  0.258089  0.830517  0.407020  1
  Cl  Cl8  1  0.741911  0.169483  0.592980  1
  Cl  Cl9  1  0.505746  0.597578  0.820987  1
  Cl  Cl10  1  0.684758  0.902422  0.179013  1
  Cl  Cl11  1  0.315242  0.097578  0.820987  1
  Dy  Dy12  1  0.885495  0.569226  0.150254  1
  Dy  Dy13  1  0.264759  0.069226  0.150254  1
  Dy  Dy14  1  0.114505  0.430774  0.849746  1
  Dy  Dy15  1  0.735241  0.930774  0.849746  1
