# generated using pymatgen
data_Tl(CuO)2
_symmetry_space_group_name_H-M   'P 1'
_cell_length_a   5.58185180
_cell_length_b   6.18934749
_cell_length_c   6.15367895
_cell_angle_alpha   120.19192585
_cell_angle_beta   116.97089190
_cell_angle_gamma   90.00000003
_symmetry_Int_Tables_number   1
_chemical_formula_structural   Tl(CuO)2
_chemical_formula_sum   'Tl2 Cu4 O4'
_cell_volume   156.42850614
_cell_formula_units_Z   2
loop_
 _symmetry_equiv_pos_site_id
 _symmetry_equiv_pos_as_xyz
  1  'x, y, z'
loop_
 _atom_site_type_symbol
 _atom_site_label
 _atom_site_symmetry_multiplicity
 _atom_site_fract_x
 _atom_site_fract_y
 _atom_site_fract_z
 _atom_site_occupancy
  O  O0  1  0.298899  0.263701  0.597798  1
  O  O1  1  0.701101  0.736299  0.402202  1
  O  O2  1  0.701101  0.165903  0.402202  1
  O  O3  1  0.298899  0.834097  0.597798  1
  Cu  Cu4  1  0.000000  0.000000  0.500000  1
  Cu  Cu5  1  0.500000  0.000000  0.500000  1
  Cu  Cu6  1  0.500000  0.000000  0.000000  1
  Cu  Cu7  1  0.500000  0.500000  0.000000  1
  Tl  Tl8  1  0.893945  0.643945  0.787891  1
  Tl  Tl9  1  0.106055  0.356055  0.212109  1
