# generated using pymatgen
data_H5IO6
_symmetry_space_group_name_H-M   'P 1'
_cell_length_a   5.41892031
_cell_length_b   19.40367745
_cell_length_c   5.01407949
_cell_angle_alpha   89.97748789
_cell_angle_beta   110.47578209
_cell_angle_gamma   90.04514333
_symmetry_Int_Tables_number   1
_chemical_formula_structural   H5IO6
_chemical_formula_sum   'H20 I4 O24'
_cell_volume   493.90577339
_cell_formula_units_Z   4
loop_
 _symmetry_equiv_pos_site_id
 _symmetry_equiv_pos_as_xyz
  1  'x, y, z'
loop_
 _atom_site_type_symbol
 _atom_site_label
 _atom_site_symmetry_multiplicity
 _atom_site_fract_x
 _atom_site_fract_y
 _atom_site_fract_z
 _atom_site_occupancy
  H  H0  1  0.159326  0.498510  0.832876  1
  H  H1  1  0.658335  0.001381  0.333017  1
  H  H2  1  0.842560  0.501865  0.167231  1
  H  H3  1  0.341561  0.998048  0.667254  1
  H  H4  1  0.321444  0.558521  0.504101  1
  H  H5  1  0.821028  0.941322  0.004478  1
  H  H6  1  0.679282  0.441538  0.496008  1
  H  H7  1  0.178406  0.058448  0.995782  1
  H  H8  1  0.308026  0.718219  0.341281  1
  H  H9  1  0.809860  0.782596  0.846224  1
  H  H10  1  0.685925  0.284680  0.646439  1
  H  H11  1  0.186905  0.215517  0.147569  1
  H  H12  1  0.608952  0.625989  0.040506  1
  H  H13  1  0.107987  0.873904  0.540345  1
  H  H14  1  0.393777  0.374017  0.961117  1
  H  H15  1  0.893587  0.125867  0.460884  1
  H  H16  1  0.027411  0.677754  0.588571  1
  H  H17  1  0.526088  0.822047  0.089300  1
  H  H18  1  0.975945  0.322650  0.411962  1
  H  H19  1  0.475876  0.177338  0.911417  1
  I  I20  1  0.154854  0.615655  0.041588  1
  I  I21  1  0.653959  0.884189  0.542027  1
  I  I22  1  0.847472  0.384619  0.959018  1
  I  I23  1  0.347067  0.115277  0.458728  1
  O  O24  1  0.179213  0.548037  0.769831  1
  O  O25  1  0.678370  0.951865  0.270234  1
  O  O26  1  0.822021  0.452329  0.229966  1
  O  O27  1  0.321119  0.047585  0.729814  1
  O  O28  1  0.858873  0.580185  0.086484  1
  O  O29  1  0.358057  0.919644  0.586731  1
  O  O30  1  0.143228  0.420126  0.913837  1
  O  O31  1  0.642655  0.079731  0.413774  1
  O  O32  1  0.389129  0.560719  0.341974  1
  O  O33  1  0.888963  0.939133  0.842515  1
  O  O34  1  0.611411  0.439262  0.658048  1
  O  O35  1  0.110849  0.060612  0.158047  1
  O  O36  1  0.150664  0.689257  0.308647  1
  O  O37  1  0.650142  0.810748  0.809977  1
  O  O38  1  0.850499  0.311182  0.690444  1
  O  O39  1  0.350609  0.188744  0.190310  1
  O  O40  1  0.454826  0.660121  0.003159  1
  O  O41  1  0.953512  0.839840  0.502849  1
  O  O42  1  0.547994  0.340002  0.998841  1
  O  O43  1  0.048037  0.159908  0.498633  1
  O  O44  1  0.941640  0.673481  0.735136  1
  O  O45  1  0.440498  0.826289  0.235989  1
  O  O46  1  0.061432  0.327067  0.265267  1
  O  O47  1  0.561597  0.172790  0.765047  1
