# generated using pymatgen
data_TiBr4
_symmetry_space_group_name_H-M   'P 1'
_cell_length_a   7.44178431
_cell_length_b   11.21976925
_cell_length_c   11.21654911
_cell_angle_alpha   101.40233542
_cell_angle_beta   90.00000000
_cell_angle_gamma   90.00000000
_symmetry_Int_Tables_number   1
_chemical_formula_structural   TiBr4
_chemical_formula_sum   'Ti4 Br16'
_cell_volume   918.04279861
_cell_formula_units_Z   4
loop_
 _symmetry_equiv_pos_site_id
 _symmetry_equiv_pos_as_xyz
  1  'x, y, z'
loop_
 _atom_site_type_symbol
 _atom_site_label
 _atom_site_symmetry_multiplicity
 _atom_site_fract_x
 _atom_site_fract_y
 _atom_site_fract_z
 _atom_site_occupancy
  Ti  Ti0  1  0.422022  0.749953  0.632272  1
  Ti  Ti1  1  0.922022  0.250047  0.867728  1
  Ti  Ti2  1  0.577978  0.250047  0.367728  1
  Ti  Ti3  1  0.077978  0.749953  0.132272  1
  Br  Br4  1  0.420744  0.917421  0.793690  1
  Br  Br5  1  0.920744  0.082579  0.706310  1
  Br  Br6  1  0.579256  0.082579  0.206310  1
  Br  Br7  1  0.079256  0.917421  0.293690  1
  Br  Br8  1  0.126359  0.692225  0.578647  1
  Br  Br9  1  0.626359  0.307775  0.921353  1
  Br  Br10  1  0.873641  0.307775  0.421353  1
  Br  Br11  1  0.373641  0.692225  0.078647  1
  Br  Br12  1  0.572746  0.588336  0.691694  1
  Br  Br13  1  0.072746  0.411664  0.808306  1
  Br  Br14  1  0.427254  0.411664  0.308306  1
  Br  Br15  1  0.927254  0.588336  0.191694  1
  Br  Br16  1  0.569196  0.802145  0.465774  1
  Br  Br17  1  0.069196  0.197855  0.034226  1
  Br  Br18  1  0.430804  0.197855  0.534226  1
  Br  Br19  1  0.930804  0.802145  0.965774  1
