# generated using pymatgen
data_Pr7O12
_symmetry_space_group_name_H-M   'P 1'
_cell_length_a   6.96394483
_cell_length_b   6.96394484
_cell_length_c   6.96394483
_cell_angle_alpha   99.52174804
_cell_angle_beta   99.52174799
_cell_angle_gamma   99.52174802
_symmetry_Int_Tables_number   1
_chemical_formula_structural   Pr7O12
_chemical_formula_sum   'Pr7 O12'
_cell_volume   321.96812405
_cell_formula_units_Z   1
loop_
 _symmetry_equiv_pos_site_id
 _symmetry_equiv_pos_as_xyz
  1  'x, y, z'
loop_
 _atom_site_type_symbol
 _atom_site_label
 _atom_site_symmetry_multiplicity
 _atom_site_fract_x
 _atom_site_fract_y
 _atom_site_fract_z
 _atom_site_occupancy
  O  O0  1  0.939512  0.066227  0.674427  1
  O  O1  1  0.674427  0.939512  0.066227  1
  O  O2  1  0.066227  0.674427  0.939512  1
  O  O3  1  0.060488  0.933773  0.325573  1
  O  O4  1  0.325573  0.060488  0.933773  1
  O  O5  1  0.933773  0.325573  0.060488  1
  O  O6  1  0.561736  0.419117  0.821005  1
  O  O7  1  0.821005  0.561736  0.419117  1
  O  O8  1  0.419117  0.821005  0.561736  1
  O  O9  1  0.438264  0.580883  0.178995  1
  O  O10  1  0.178995  0.438264  0.580883  1
  O  O11  1  0.580883  0.178995  0.438264  1
  Pr  Pr12  1  0.000000  0.000000  0.000000  1
  Pr  Pr13  1  0.300932  0.138810  0.608090  1
  Pr  Pr14  1  0.608090  0.300932  0.138810  1
  Pr  Pr15  1  0.138810  0.608090  0.300932  1
  Pr  Pr16  1  0.699068  0.861190  0.391910  1
  Pr  Pr17  1  0.391910  0.699068  0.861190  1
  Pr  Pr18  1  0.861190  0.391910  0.699068  1
