# generated using pymatgen
data_In3Sb5O12
_symmetry_space_group_name_H-M   'P 1'
_cell_length_a   9.29691314
_cell_length_b   9.29691314
_cell_length_c   9.29691314
_cell_angle_alpha   109.53222039
_cell_angle_beta   109.53222042
_cell_angle_gamma   109.53222041
_symmetry_Int_Tables_number   1
_chemical_formula_structural   In3Sb5O12
_chemical_formula_sum   'In6 Sb10 O24'
_cell_volume   617.17695842
_cell_formula_units_Z   2
loop_
 _symmetry_equiv_pos_site_id
 _symmetry_equiv_pos_as_xyz
  1  'x, y, z'
loop_
 _atom_site_type_symbol
 _atom_site_label
 _atom_site_symmetry_multiplicity
 _atom_site_fract_x
 _atom_site_fract_y
 _atom_site_fract_z
 _atom_site_occupancy
  O  O0  1  0.521259  0.995383  0.794921  1
  O  O1  1  0.995383  0.794921  0.521259  1
  O  O2  1  0.794921  0.521259  0.995383  1
  O  O3  1  0.794921  0.995383  0.521259  1
  O  O4  1  0.995383  0.521259  0.794921  1
  O  O5  1  0.521259  0.794921  0.995383  1
  O  O6  1  0.723388  0.199983  0.199983  1
  O  O7  1  0.199983  0.199983  0.723388  1
  O  O8  1  0.199983  0.723388  0.199983  1
  O  O9  1  0.271972  0.474726  0.474726  1
  O  O10  1  0.474726  0.474726  0.271972  1
  O  O11  1  0.474726  0.271972  0.474726  1
  O  O12  1  0.503723  0.296265  0.997360  1
  O  O13  1  0.296265  0.997360  0.503723  1
  O  O14  1  0.997360  0.503723  0.296265  1
  O  O15  1  0.997360  0.296265  0.503723  1
  O  O16  1  0.492532  0.492532  0.789310  1
  O  O17  1  0.789310  0.492532  0.492532  1
  O  O18  1  0.492532  0.789310  0.492532  1
  O  O19  1  0.700152  0.203910  0.700152  1
  O  O20  1  0.700152  0.700152  0.203910  1
  O  O21  1  0.203910  0.700152  0.700152  1
  O  O22  1  0.503723  0.997360  0.296265  1
  O  O23  1  0.296265  0.503723  0.997360  1
  In  In24  1  0.249025  0.499199  0.747800  1
  In  In25  1  0.499199  0.747800  0.249025  1
  In  In26  1  0.747800  0.249025  0.499199  1
  In  In27  1  0.747800  0.499199  0.249025  1
  In  In28  1  0.499199  0.249025  0.747800  1
  In  In29  1  0.249025  0.747800  0.499199  1
  Sb  Sb30  1  0.513729  0.513729  0.513729  1
  Sb  Sb31  1  0.481644  0.997063  0.997063  1
  Sb  Sb32  1  0.997063  0.997063  0.481644  1
  Sb  Sb33  1  0.997063  0.481644  0.997063  1
  Sb  Sb34  1  0.997027  0.714338  0.714338  1
  Sb  Sb35  1  0.714338  0.714338  0.997027  1
  Sb  Sb36  1  0.714338  0.997027  0.714338  1
  Sb  Sb37  1  0.996427  0.281968  0.281968  1
  Sb  Sb38  1  0.281968  0.281968  0.996427  1
  Sb  Sb39  1  0.281968  0.996427  0.281968  1
