# generated using pymatgen
data_Te3(PbO4)2
_symmetry_space_group_name_H-M   'P 1'
_cell_length_a   7.22616165
_cell_length_b   10.68551443
_cell_length_c   19.23715940
_cell_angle_alpha   90.00000000
_cell_angle_beta   90.00000000
_cell_angle_gamma   109.76291514
_symmetry_Int_Tables_number   1
_chemical_formula_structural   Te3(PbO4)2
_chemical_formula_sum   'Te18 Pb12 O48'
_cell_volume   1397.91170778
_cell_formula_units_Z   6
loop_
 _symmetry_equiv_pos_site_id
 _symmetry_equiv_pos_as_xyz
  1  'x, y, z'
loop_
 _atom_site_type_symbol
 _atom_site_label
 _atom_site_symmetry_multiplicity
 _atom_site_fract_x
 _atom_site_fract_y
 _atom_site_fract_z
 _atom_site_occupancy
  O  O0  1  0.679097  0.664840  0.750000  1
  O  O1  1  0.014257  0.335160  0.750000  1
  O  O2  1  0.320903  0.335160  0.250000  1
  O  O3  1  0.985743  0.664840  0.250000  1
  O  O4  1  0.365511  0.856067  0.750000  1
  O  O5  1  0.509445  0.143933  0.750000  1
  O  O6  1  0.634489  0.143933  0.250000  1
  O  O7  1  0.490555  0.856067  0.250000  1
  O  O8  1  0.144336  0.144213  0.113356  1
  O  O9  1  1.000123  0.855787  0.386644  1
  O  O10  1  0.855664  0.855787  0.613356  1
  O  O11  1  -0.000123  0.144213  0.886644  1
  O  O12  1  0.855664  0.855787  0.886644  1
  O  O13  1  -0.000123  0.144213  0.613356  1
  O  O14  1  0.144336  0.144213  0.386644  1
  O  O15  1  1.000123  0.855787  0.113356  1
  O  O16  1  0.645366  0.352900  0.384200  1
  O  O17  1  0.292466  0.647100  0.115800  1
  O  O18  1  0.354634  0.647100  0.884200  1
  O  O19  1  0.707534  0.352900  0.615800  1
  O  O20  1  0.354634  0.647100  0.615800  1
  O  O21  1  0.707534  0.352900  0.884200  1
  O  O22  1  0.645366  0.352900  0.115800  1
  O  O23  1  0.292466  0.647100  0.384200  1
  O  O24  1  0.978003  0.328251  0.321448  1
  O  O25  1  0.649752  0.671749  0.178552  1
  O  O26  1  0.021997  0.671749  0.821448  1
  O  O27  1  0.350248  0.328251  0.678552  1
  O  O28  1  0.021997  0.671749  0.678552  1
  O  O29  1  0.350248  0.328251  0.821448  1
  O  O30  1  0.414507  0.000000  0.136615  1
  O  O31  1  0.414507  0.000000  0.363385  1
  O  O32  1  0.585493  0.000000  0.636615  1
  O  O33  1  0.585493  0.000000  0.863385  1
  O  O34  1  0.412566  0.825132  0.500000  1
  O  O35  1  0.587434  0.174868  0.000000  1
  O  O36  1  0.587434  0.174868  0.500000  1
  O  O37  1  0.412566  0.825132  0.000000  1
  O  O38  1  0.625719  0.645242  0.467605  1
  O  O39  1  0.980476  0.354758  0.032395  1
  O  O40  1  0.374281  0.354758  0.967605  1
  O  O41  1  0.019524  0.645242  0.532395  1
  O  O42  1  0.374281  0.354758  0.532395  1
  O  O43  1  0.019524  0.645242  0.967605  1
  O  O44  1  0.625719  0.645242  0.032395  1
  O  O45  1  0.980476  0.354758  0.467605  1
  O  O46  1  0.649752  0.671749  0.321448  1
  O  O47  1  0.978003  0.328251  0.178552  1
  Te  Te48  1  0.948574  0.772545  0.750000  1
  Te  Te49  1  0.176028  0.227455  0.750000  1
  Te  Te50  1  0.051426  0.227455  0.250000  1
  Te  Te51  1  0.823972  0.772545  0.250000  1
  Te  Te52  1  0.769288  0.233438  0.416324  1
  Te  Te53  1  0.535850  0.766562  0.083676  1
  Te  Te54  1  0.230712  0.766562  0.916324  1
  Te  Te55  1  0.464150  0.233438  0.583676  1
  Te  Te56  1  0.230712  0.766562  0.583676  1
  Te  Te57  1  0.464150  0.233438  0.916324  1
  Te  Te58  1  0.769288  0.233438  0.083676  1
  Te  Te59  1  0.535850  0.766562  0.416324  1
  Te  Te60  1  0.794659  0.000000  0.925126  1
  Te  Te61  1  0.794659  0.000000  0.574874  1
  Te  Te62  1  0.205341  0.000000  0.425126  1
  Te  Te63  1  0.205341  0.000000  0.074874  1
  Te  Te64  1  0.603054  0.000000  0.750000  1
  Te  Te65  1  0.396946  0.000000  0.250000  1
  Pb  Pb66  1  0.698157  0.379451  0.750000  1
  Pb  Pb67  1  0.318706  0.620549  0.750000  1
  Pb  Pb68  1  0.301843  0.620549  0.250000  1
  Pb  Pb69  1  0.681294  0.379451  0.250000  1
  Pb  Pb70  1  0.318140  0.381504  0.410308  1
  Pb  Pb71  1  0.936636  0.618496  0.089692  1
  Pb  Pb72  1  0.681860  0.618496  0.910308  1
  Pb  Pb73  1  0.063364  0.381504  0.589692  1
  Pb  Pb74  1  0.681860  0.618496  0.589692  1
  Pb  Pb75  1  0.063364  0.381504  0.910308  1
  Pb  Pb76  1  0.318140  0.381504  0.089692  1
  Pb  Pb77  1  0.936636  0.618496  0.410308  1
