# generated using pymatgen
data_La2Be2O5
_symmetry_space_group_name_H-M   'P 1'
_cell_length_a   5.29710690
_cell_length_b   5.29710714
_cell_length_c   7.45694515
_cell_angle_alpha   89.23326402
_cell_angle_beta   89.23326404
_cell_angle_gamma   88.39009016
_symmetry_Int_Tables_number   1
_chemical_formula_structural   La2Be2O5
_chemical_formula_sum   'La4 Be4 O10'
_cell_volume   209.11795517
_cell_formula_units_Z   2
loop_
 _symmetry_equiv_pos_site_id
 _symmetry_equiv_pos_as_xyz
  1  'x, y, z'
loop_
 _atom_site_type_symbol
 _atom_site_label
 _atom_site_symmetry_multiplicity
 _atom_site_fract_x
 _atom_site_fract_y
 _atom_site_fract_z
 _atom_site_occupancy
  La  La0  1  0.271691  0.200227  0.805560  1
  La  La1  1  0.799773  0.728309  0.694440  1
  La  La2  1  0.728309  0.799773  0.194440  1
  La  La3  1  0.200227  0.271691  0.305560  1
  Be  Be4  1  0.687705  0.252106  0.469944  1
  Be  Be5  1  0.747894  0.312295  0.030056  1
  Be  Be6  1  0.312295  0.747894  0.530056  1
  Be  Be7  1  0.252106  0.687705  0.969944  1
  O  O8  1  0.256187  0.943820  0.083948  1
  O  O9  1  0.056180  0.743813  0.416052  1
  O  O10  1  0.743813  0.056180  0.916052  1
  O  O11  1  0.943820  0.256187  0.583948  1
  O  O12  1  0.500000  0.000000  0.500000  1
  O  O13  1  0.000000  0.500000  0.000000  1
  O  O14  1  0.246933  0.753067  0.750000  1
  O  O15  1  0.753067  0.246933  0.250000  1
  O  O16  1  0.500000  0.500000  0.000000  1
  O  O17  1  0.500000  0.500000  0.500000  1
