# generated using pymatgen
data_U4Te3O4
_symmetry_space_group_name_H-M   'P 1'
_cell_length_a   3.97889284
_cell_length_b   3.97889327
_cell_length_c   14.08411073
_cell_angle_alpha   98.12045658
_cell_angle_beta   98.12045748
_cell_angle_gamma   90.00000117
_symmetry_Int_Tables_number   1
_chemical_formula_structural   U4Te3O4
_chemical_formula_sum   'U4 Te3 O4'
_cell_volume   218.47959923
_cell_formula_units_Z   1
loop_
 _symmetry_equiv_pos_site_id
 _symmetry_equiv_pos_as_xyz
  1  'x, y, z'
loop_
 _atom_site_type_symbol
 _atom_site_label
 _atom_site_symmetry_multiplicity
 _atom_site_fract_x
 _atom_site_fract_y
 _atom_site_fract_z
 _atom_site_occupancy
  U  U0  1  0.158412  0.158412  0.316825  1
  U  U1  1  0.841588  0.841588  0.683176  1
  U  U2  1  0.430174  0.430174  0.860349  1
  U  U3  1  0.569826  0.569826  0.139651  1
  Te  Te4  1  0.000000  0.000000  0.000000  1
  Te  Te5  1  0.287263  0.287263  0.574525  1
  Te  Te6  1  0.712737  0.712737  0.425475  1
  O  O7  1  0.609911  0.109911  0.219822  1
  O  O8  1  0.109911  0.609911  0.219822  1
  O  O9  1  0.390089  0.890089  0.780178  1
  O  O10  1  0.890089  0.390089  0.780178  1
