# generated using pymatgen
data_Ge(BiTe2)2
_symmetry_space_group_name_H-M   'P 1'
_cell_length_a   14.21710102
_cell_length_b   14.21710108
_cell_length_c   14.21710077
_cell_angle_alpha   17.75695333
_cell_angle_beta   17.75695260
_cell_angle_gamma   17.75695395
_symmetry_Int_Tables_number   1
_chemical_formula_structural   Ge(BiTe2)2
_chemical_formula_sum   'Ge1 Bi2 Te4'
_cell_volume   233.32852608
_cell_formula_units_Z   1
loop_
 _symmetry_equiv_pos_site_id
 _symmetry_equiv_pos_as_xyz
  1  'x, y, z'
loop_
 _atom_site_type_symbol
 _atom_site_label
 _atom_site_symmetry_multiplicity
 _atom_site_fract_x
 _atom_site_fract_y
 _atom_site_fract_z
 _atom_site_occupancy
  Ge  Ge0  1  0.000000  0.000000  0.000000  1
  Bi  Bi1  1  0.423535  0.423535  0.423535  1
  Bi  Bi2  1  0.576465  0.576465  0.576465  1
  Te  Te3  1  0.132007  0.132007  0.132007  1
  Te  Te4  1  0.867993  0.867993  0.867993  1
  Te  Te5  1  0.293414  0.293414  0.293414  1
  Te  Te6  1  0.706586  0.706586  0.706586  1
