# generated using pymatgen
data_YbIn2Au
_symmetry_space_group_name_H-M   'P 1'
_cell_length_a   4.58889131
_cell_length_b   5.87744683
_cell_length_c   7.72224948
_cell_angle_alpha   90.00000000
_cell_angle_beta   90.00000000
_cell_angle_gamma   112.97823042
_symmetry_Int_Tables_number   1
_chemical_formula_structural   YbIn2Au
_chemical_formula_sum   'Yb2 In4 Au2'
_cell_volume   191.75045228
_cell_formula_units_Z   2
loop_
 _symmetry_equiv_pos_site_id
 _symmetry_equiv_pos_as_xyz
  1  'x, y, z'
loop_
 _atom_site_type_symbol
 _atom_site_label
 _atom_site_symmetry_multiplicity
 _atom_site_fract_x
 _atom_site_fract_y
 _atom_site_fract_z
 _atom_site_occupancy
  In  In0  1  0.365872  0.731745  0.549980  1
  In  In1  1  0.634128  0.268255  0.450020  1
  In  In2  1  0.365872  0.731745  0.950020  1
  In  In3  1  0.634128  0.268255  0.049980  1
  Yb  Yb4  1  0.924150  0.848300  0.250000  1
  Yb  Yb5  1  0.075850  0.151700  0.750000  1
  Au  Au6  1  0.788935  0.577870  0.750000  1
  Au  Au7  1  0.211065  0.422130  0.250000  1
