# generated using pymatgen
data_LiSi3Pd
_symmetry_space_group_name_H-M   'P 1'
_cell_length_a   3.38632372
_cell_length_b   3.38632372
_cell_length_c   7.41530710
_cell_angle_alpha   103.19896852
_cell_angle_beta   103.19896857
_cell_angle_gamma   89.99999998
_symmetry_Int_Tables_number   1
_chemical_formula_structural   LiSi3Pd
_chemical_formula_sum   'Li1 Si3 Pd1'
_cell_volume   80.47743125
_cell_formula_units_Z   1
loop_
 _symmetry_equiv_pos_site_id
 _symmetry_equiv_pos_as_xyz
  1  'x, y, z'
loop_
 _atom_site_type_symbol
 _atom_site_label
 _atom_site_symmetry_multiplicity
 _atom_site_fract_x
 _atom_site_fract_y
 _atom_site_fract_z
 _atom_site_occupancy
  Li  Li0  1  0.602738  0.602738  0.205476  1
  Si  Si1  1  0.763232  0.263232  0.526464  1
  Si  Si2  1  0.263232  0.763232  0.526464  1
  Si  Si3  1  0.412742  0.412742  0.825484  1
  Pd  Pd4  1  0.979056  0.979056  0.958112  1
