# generated using pymatgen
data_UBr4
_symmetry_space_group_name_H-M   'P 1'
_cell_length_a   7.65355483
_cell_length_b   7.20690273
_cell_length_c   7.20690273
_cell_angle_alpha   76.15618906
_cell_angle_beta   87.47129547
_cell_angle_gamma   87.47129551
_symmetry_Int_Tables_number   1
_chemical_formula_structural   UBr4
_chemical_formula_sum   'U2 Br8'
_cell_volume   385.36730867
_cell_formula_units_Z   2
loop_
 _symmetry_equiv_pos_site_id
 _symmetry_equiv_pos_as_xyz
  1  'x, y, z'
loop_
 _atom_site_type_symbol
 _atom_site_label
 _atom_site_symmetry_multiplicity
 _atom_site_fract_x
 _atom_site_fract_y
 _atom_site_fract_z
 _atom_site_occupancy
  Br  Br0  1  0.348784  0.550268  0.168434  1
  Br  Br1  1  0.651216  0.831566  0.449732  1
  Br  Br2  1  0.731989  0.949854  0.949854  1
  Br  Br3  1  0.268011  0.050146  0.050146  1
  Br  Br4  1  0.839173  0.322817  0.322817  1
  Br  Br5  1  0.160827  0.677183  0.677183  1
  Br  Br6  1  0.348784  0.168434  0.550268  1
  Br  Br7  1  0.651216  0.449732  0.831566  1
  U  U8  1  0.442247  0.804042  0.804042  1
  U  U9  1  0.557753  0.195958  0.195958  1
