# generated using pymatgen
data_Na2PdCl4
_symmetry_space_group_name_H-M   'P 1'
_cell_length_a   7.68433072
_cell_length_b   9.69582317
_cell_length_c   9.69582317
_cell_angle_alpha   90.00000000
_cell_angle_beta   90.00000000
_cell_angle_gamma   90.00000000
_symmetry_Int_Tables_number   1
_chemical_formula_structural   Na2PdCl4
_chemical_formula_sum   'Na8 Pd4 Cl16'
_cell_volume   722.39614633
_cell_formula_units_Z   4
loop_
 _symmetry_equiv_pos_site_id
 _symmetry_equiv_pos_as_xyz
  1  'x, y, z'
loop_
 _atom_site_type_symbol
 _atom_site_label
 _atom_site_symmetry_multiplicity
 _atom_site_fract_x
 _atom_site_fract_y
 _atom_site_fract_z
 _atom_site_occupancy
  Na  Na0  1  0.250000  0.943951  0.056049  1
  Na  Na1  1  0.250000  0.443951  0.943951  1
  Na  Na2  1  0.250000  0.056049  0.556049  1
  Na  Na3  1  0.250000  0.556049  0.443951  1
  Na  Na4  1  0.750000  0.056049  0.943951  1
  Na  Na5  1  0.750000  0.556049  0.056049  1
  Na  Na6  1  0.750000  0.943951  0.443951  1
  Na  Na7  1  0.750000  0.443951  0.556049  1
  Cl  Cl8  1  0.568884  0.015118  0.195740  1
  Cl  Cl9  1  0.568884  0.304260  0.015118  1
  Cl  Cl10  1  0.568884  0.195740  0.484882  1
  Cl  Cl11  1  0.068884  0.304260  0.484882  1
  Cl  Cl12  1  0.068884  0.015118  0.304260  1
  Cl  Cl13  1  0.068884  0.195740  0.015118  1
  Cl  Cl14  1  0.431116  0.804260  0.515118  1
  Cl  Cl15  1  0.068884  0.484882  0.195740  1
  Cl  Cl16  1  0.431116  0.515118  0.695740  1
  Cl  Cl17  1  0.431116  0.984882  0.804260  1
  Cl  Cl18  1  0.931116  0.515118  0.804260  1
  Cl  Cl19  1  0.431116  0.695740  0.984882  1
  Cl  Cl20  1  0.931116  0.984882  0.695740  1
  Cl  Cl21  1  0.931116  0.804260  0.984882  1
  Cl  Cl22  1  0.931116  0.695740  0.515118  1
  Cl  Cl23  1  0.568884  0.484882  0.304260  1
  Pd  Pd24  1  0.064849  0.250000  0.250000  1
  Pd  Pd25  1  0.564849  0.250000  0.250000  1
  Pd  Pd26  1  0.935151  0.750000  0.750000  1
  Pd  Pd27  1  0.435151  0.750000  0.750000  1
