# generated using pymatgen
data_Hg4As2I3
_symmetry_space_group_name_H-M   'P 1'
_cell_length_a   13.39567026
_cell_length_b   13.39567026
_cell_length_c   13.39567026
_cell_angle_alpha   90.00000000
_cell_angle_beta   90.00000000
_cell_angle_gamma   90.00000000
_symmetry_Int_Tables_number   1
_chemical_formula_structural   Hg4As2I3
_chemical_formula_sum   'Hg32 As16 I24'
_cell_volume   2403.77240919
_cell_formula_units_Z   8
loop_
 _symmetry_equiv_pos_site_id
 _symmetry_equiv_pos_as_xyz
  1  'x, y, z'
loop_
 _atom_site_type_symbol
 _atom_site_label
 _atom_site_symmetry_multiplicity
 _atom_site_fract_x
 _atom_site_fract_y
 _atom_site_fract_z
 _atom_site_occupancy
  As  As0  1  0.113455  0.113455  0.113455  1
  As  As1  1  0.386545  0.886545  0.613455  1
  As  As2  1  0.613455  0.386545  0.886545  1
  As  As3  1  0.886545  0.613455  0.386545  1
  As  As4  1  0.886545  0.886545  0.886545  1
  As  As5  1  0.613455  0.113455  0.386545  1
  As  As6  1  0.386545  0.613455  0.113455  1
  As  As7  1  0.113455  0.386545  0.613455  1
  As  As8  1  0.446878  0.446878  0.446878  1
  As  As9  1  0.053122  0.553122  0.946878  1
  As  As10  1  0.946878  0.053122  0.553122  1
  As  As11  1  0.553122  0.946878  0.053122  1
  As  As12  1  0.553122  0.553122  0.553122  1
  As  As13  1  0.946878  0.446878  0.053122  1
  As  As14  1  0.053122  0.946878  0.446878  1
  As  As15  1  0.446878  0.053122  0.946878  1
  I  I16  1  0.186409  0.441748  0.259464  1
  I  I17  1  0.259464  0.186409  0.441748  1
  I  I18  1  0.441748  0.259464  0.186409  1
  I  I19  1  0.058252  0.740536  0.686409  1
  I  I20  1  0.759464  0.313591  0.558252  1
  I  I21  1  0.558252  0.759464  0.313591  1
  I  I22  1  0.240536  0.813591  0.941748  1
  I  I23  1  0.740536  0.686409  0.058252  1
  I  I24  1  0.941748  0.240536  0.813591  1
  I  I25  1  0.686409  0.058252  0.740536  1
  I  I26  1  0.813591  0.941748  0.240536  1
  I  I27  1  0.313591  0.558252  0.759464  1
  I  I28  1  0.813591  0.558252  0.740536  1
  I  I29  1  0.740536  0.813591  0.558252  1
  I  I30  1  0.558252  0.740536  0.813591  1
  I  I31  1  0.941748  0.259464  0.313591  1
  I  I32  1  0.240536  0.686409  0.441748  1
  I  I33  1  0.441748  0.240536  0.686409  1
  I  I34  1  0.759464  0.186409  0.058252  1
  I  I35  1  0.259464  0.313591  0.941748  1
  I  I36  1  0.058252  0.759464  0.186409  1
  I  I37  1  0.313591  0.941748  0.259464  1
  I  I38  1  0.186409  0.058252  0.759464  1
  I  I39  1  0.686409  0.441748  0.240536  1
  Hg  Hg40  1  0.225035  0.225035  0.225035  1
  Hg  Hg41  1  0.274965  0.774965  0.725035  1
  Hg  Hg42  1  0.725035  0.274965  0.774965  1
  Hg  Hg43  1  0.774965  0.725035  0.274965  1
  Hg  Hg44  1  0.774965  0.774965  0.774965  1
  Hg  Hg45  1  0.725035  0.225035  0.274965  1
  Hg  Hg46  1  0.274965  0.725035  0.225035  1
  Hg  Hg47  1  0.225035  0.274965  0.725035  1
  Hg  Hg48  1  0.039348  0.012624  0.262576  1
  Hg  Hg49  1  0.262576  0.039348  0.012624  1
  Hg  Hg50  1  0.012624  0.262576  0.039348  1
  Hg  Hg51  1  0.487376  0.737424  0.539348  1
  Hg  Hg52  1  0.762576  0.460652  0.987376  1
  Hg  Hg53  1  0.987376  0.762576  0.460652  1
  Hg  Hg54  1  0.237424  0.960652  0.512624  1
  Hg  Hg55  1  0.737424  0.539348  0.487376  1
  Hg  Hg56  1  0.512624  0.237424  0.960652  1
  Hg  Hg57  1  0.539348  0.487376  0.737424  1
  Hg  Hg58  1  0.960652  0.512624  0.237424  1
  Hg  Hg59  1  0.460652  0.987376  0.762576  1
  Hg  Hg60  1  0.960652  0.987376  0.737424  1
  Hg  Hg61  1  0.737424  0.960652  0.987376  1
  Hg  Hg62  1  0.987376  0.737424  0.960652  1
  Hg  Hg63  1  0.512624  0.262576  0.460652  1
  Hg  Hg64  1  0.237424  0.539348  0.012624  1
  Hg  Hg65  1  0.012624  0.237424  0.539348  1
  Hg  Hg66  1  0.762576  0.039348  0.487376  1
  Hg  Hg67  1  0.262576  0.460652  0.512624  1
  Hg  Hg68  1  0.487376  0.762576  0.039348  1
  Hg  Hg69  1  0.460652  0.512624  0.262576  1
  Hg  Hg70  1  0.039348  0.487376  0.762576  1
  Hg  Hg71  1  0.539348  0.012624  0.237424  1
