# generated using pymatgen
data_TbCoO3
_symmetry_space_group_name_H-M   'P 1'
_cell_length_a   5.18608011
_cell_length_b   5.49248303
_cell_length_c   7.44204825
_cell_angle_alpha   89.99999431
_cell_angle_beta   89.99893223
_cell_angle_gamma   90.00000972
_symmetry_Int_Tables_number   1
_chemical_formula_structural   TbCoO3
_chemical_formula_sum   'Tb4 Co4 O12'
_cell_volume   211.98270342
_cell_formula_units_Z   4
loop_
 _symmetry_equiv_pos_site_id
 _symmetry_equiv_pos_as_xyz
  1  'x, y, z'
loop_
 _atom_site_type_symbol
 _atom_site_label
 _atom_site_symmetry_multiplicity
 _atom_site_fract_x
 _atom_site_fract_y
 _atom_site_fract_z
 _atom_site_occupancy
  Tb  Tb0  1  0.480494  0.428615  0.749998  1
  Tb  Tb1  1  0.980510  0.071385  0.249998  1
  Tb  Tb2  1  0.519506  0.571385  0.250002  1
  Tb  Tb3  1  0.019490  0.928615  0.750002  1
  Co  Co4  1  0.500000  0.000000  0.500000  1
  Co  Co5  1  0.500000  0.000000  0.000000  1
  Co  Co6  1  0.000000  0.500000  0.500000  1
  Co  Co7  1  0.000000  0.500000  0.000000  1
  O  O8  1  0.694235  0.300141  0.450630  1
  O  O9  1  0.805747  0.800166  0.450630  1
  O  O10  1  0.194230  0.199856  0.950632  1
  O  O11  1  0.305765  0.699859  0.549369  1
  O  O12  1  0.401855  0.973399  0.250016  1
  O  O13  1  0.805770  0.800144  0.049368  1
  O  O14  1  0.901842  0.526599  0.750016  1
  O  O15  1  0.598145  0.026601  0.749984  1
  O  O16  1  0.305743  0.699837  0.950630  1
  O  O17  1  0.694257  0.300163  0.049370  1
  O  O18  1  0.194253  0.199835  0.549371  1
  O  O19  1  0.098158  0.473401  0.249984  1
