# generated using pymatgen
data_Mn2GeO4
_symmetry_space_group_name_H-M   'P 1'
_cell_length_a   3.01215365
_cell_length_b   5.34673618
_cell_length_c   9.41382990
_cell_angle_alpha   90.00000000
_cell_angle_beta   90.00000000
_cell_angle_gamma   90.00000000
_symmetry_Int_Tables_number   1
_chemical_formula_structural   Mn2GeO4
_chemical_formula_sum   'Mn4 Ge2 O8'
_cell_volume   151.61152764
_cell_formula_units_Z   2
loop_
 _symmetry_equiv_pos_site_id
 _symmetry_equiv_pos_as_xyz
  1  'x, y, z'
loop_
 _atom_site_type_symbol
 _atom_site_label
 _atom_site_symmetry_multiplicity
 _atom_site_fract_x
 _atom_site_fract_y
 _atom_site_fract_z
 _atom_site_occupancy
  O  O0  1  0.000000  0.130073  0.812757  1
  O  O1  1  0.000000  0.869926  0.187243  1
  O  O2  1  0.000000  0.630074  0.687243  1
  O  O3  1  0.000000  0.369927  0.312757  1
  O  O4  1  0.500001  0.269422  0.543073  1
  O  O5  1  0.500001  0.730578  0.456927  1
  O  O6  1  0.500001  0.230577  0.043074  1
  O  O7  1  0.500001  0.769421  0.956927  1
  Mn  Mn8  1  0.500001  0.436462  0.823294  1
  Mn  Mn9  1  0.500001  0.563538  0.176706  1
  Mn  Mn10  1  0.500001  0.936461  0.676706  1
  Mn  Mn11  1  0.500001  0.063537  0.323294  1
  Ge  Ge12  1  0.000000  0.499999  0.500001  1
  Ge  Ge13  1  0.000000  0.000000  0.000000  1
