# generated using pymatgen
data_CuHOF
_symmetry_space_group_name_H-M   'P 1'
_cell_length_a   5.07660378
_cell_length_b   5.39002941
_cell_length_c   6.46915858
_cell_angle_alpha   90.00000000
_cell_angle_beta   90.00000000
_cell_angle_gamma   114.33633063
_symmetry_Int_Tables_number   1
_chemical_formula_structural   CuHOF
_chemical_formula_sum   'Cu4 H4 O4 F4'
_cell_volume   161.28662065
_cell_formula_units_Z   4
loop_
 _symmetry_equiv_pos_site_id
 _symmetry_equiv_pos_as_xyz
  1  'x, y, z'
loop_
 _atom_site_type_symbol
 _atom_site_label
 _atom_site_symmetry_multiplicity
 _atom_site_fract_x
 _atom_site_fract_y
 _atom_site_fract_z
 _atom_site_occupancy
  H  H0  1  0.387494  0.752893  0.135211  1
  H  H1  1  0.612506  0.747107  0.635211  1
  H  H2  1  0.612506  0.247107  0.864789  1
  H  H3  1  0.387494  0.252893  0.364789  1
  O  O4  1  0.168636  0.163862  0.360312  1
  O  O5  1  0.831364  0.336138  0.860312  1
  O  O6  1  0.831364  0.836138  0.639688  1
  O  O7  1  0.168636  0.663862  0.139688  1
  F  F8  1  0.717764  0.371327  0.391326  1
  F  F9  1  0.282236  0.128673  0.891326  1
  F  F10  1  0.282236  0.628673  0.608674  1
  F  F11  1  0.717764  0.871327  0.108674  1
  Cu  Cu12  1  0.987784  0.758979  0.379736  1
  Cu  Cu13  1  0.012216  0.741021  0.879736  1
  Cu  Cu14  1  0.012216  0.241021  0.620264  1
  Cu  Cu15  1  0.987784  0.258979  0.120264  1
