# generated using pymatgen
data_Ba(Ag3O2)2
_symmetry_space_group_name_H-M   'P 1'
_cell_length_a   6.77627779
_cell_length_b   9.24756497
_cell_length_c   12.98540327
_cell_angle_alpha   90.00000000
_cell_angle_beta   90.00000000
_cell_angle_gamma   90.00000000
_symmetry_Int_Tables_number   1
_chemical_formula_structural   Ba(Ag3O2)2
_chemical_formula_sum   'Ba4 Ag24 O16'
_cell_volume   813.71820803
_cell_formula_units_Z   4
loop_
 _symmetry_equiv_pos_site_id
 _symmetry_equiv_pos_as_xyz
  1  'x, y, z'
loop_
 _atom_site_type_symbol
 _atom_site_label
 _atom_site_symmetry_multiplicity
 _atom_site_fract_x
 _atom_site_fract_y
 _atom_site_fract_z
 _atom_site_occupancy
  O  O0  1  0.576146  0.334828  0.605455  1
  O  O1  1  0.576146  0.165172  0.894545  1
  O  O2  1  0.923854  0.334828  0.394545  1
  O  O3  1  0.923854  0.165172  0.105455  1
  O  O4  1  0.076146  0.665172  0.605455  1
  O  O5  1  0.076146  0.834828  0.894545  1
  O  O6  1  0.051194  0.091711  0.627936  1
  O  O7  1  0.051194  0.408289  0.872064  1
  O  O8  1  0.448806  0.091711  0.372064  1
  O  O9  1  0.448806  0.408289  0.127936  1
  O  O10  1  0.948806  0.908289  0.372064  1
  O  O11  1  0.948806  0.591711  0.127936  1
  O  O12  1  0.551194  0.908289  0.627936  1
  O  O13  1  0.551194  0.591711  0.872064  1
  O  O14  1  0.423854  0.665172  0.394545  1
  O  O15  1  0.423854  0.834828  0.105455  1
  Ag  Ag16  1  0.292083  0.238454  0.626621  1
  Ag  Ag17  1  0.076913  0.534120  0.737214  1
  Ag  Ag18  1  0.423087  0.965880  0.237214  1
  Ag  Ag19  1  0.076913  0.965880  0.762786  1
  Ag  Ag20  1  0.923087  0.034120  0.237214  1
  Ag  Ag21  1  0.923087  0.465880  0.262786  1
  Ag  Ag22  1  0.576913  0.034120  0.762786  1
  Ag  Ag23  1  0.576913  0.465880  0.737214  1
  Ag  Ag24  1  0.401973  0.750000  0.750000  1
  Ag  Ag25  1  0.098027  0.750000  0.250000  1
  Ag  Ag26  1  0.598027  0.250000  0.250000  1
  Ag  Ag27  1  0.901973  0.250000  0.750000  1
  Ag  Ag28  1  0.207917  0.238454  0.373379  1
  Ag  Ag29  1  0.207917  0.261546  0.126621  1
  Ag  Ag30  1  0.707917  0.761546  0.373379  1
  Ag  Ag31  1  0.707917  0.738454  0.126621  1
  Ag  Ag32  1  0.792083  0.761546  0.626621  1
  Ag  Ag33  1  0.792083  0.738454  0.873379  1
  Ag  Ag34  1  0.500000  0.500000  0.500000  1
  Ag  Ag35  1  0.500000  0.000000  0.000000  1
  Ag  Ag36  1  0.000000  0.500000  0.500000  1
  Ag  Ag37  1  0.000000  0.000000  0.000000  1
  Ag  Ag38  1  0.423087  0.534120  0.262786  1
  Ag  Ag39  1  0.292083  0.261546  0.873379  1
  Ba  Ba40  1  0.250000  0.875944  0.500000  1
  Ba  Ba41  1  0.250000  0.624056  0.000000  1
  Ba  Ba42  1  0.750000  0.124056  0.500000  1
  Ba  Ba43  1  0.750000  0.375944  0.000000  1
