# generated using pymatgen
data_BiPt
_symmetry_space_group_name_H-M   'P 1'
_cell_length_a   3.82999260
_cell_length_b   3.82999260
_cell_length_c   7.47483855
_cell_angle_alpha   90.00000000
_cell_angle_beta   90.00000000
_cell_angle_gamma   119.99999998
_symmetry_Int_Tables_number   1
_chemical_formula_structural   BiPt
_chemical_formula_sum   'Bi2 Pt2'
_cell_volume   94.95729146
_cell_formula_units_Z   2
loop_
 _symmetry_equiv_pos_site_id
 _symmetry_equiv_pos_as_xyz
  1  'x, y, z'
loop_
 _atom_site_type_symbol
 _atom_site_label
 _atom_site_symmetry_multiplicity
 _atom_site_fract_x
 _atom_site_fract_y
 _atom_site_fract_z
 _atom_site_occupancy
  Pt  Pt0  1  0.666667  0.333333  0.750000  1
  Pt  Pt1  1  0.333333  0.666667  0.250000  1
  Bi  Bi2  1  0.000000  0.000000  0.500000  1
  Bi  Bi3  1  0.000000  0.000000  0.000000  1
