# generated using pymatgen
data_La5Pb4
_symmetry_space_group_name_H-M   'P 1'
_cell_length_a   8.66111718
_cell_length_b   8.76402006
_cell_length_c   16.51620759
_cell_angle_alpha   90.00000000
_cell_angle_beta   90.00000000
_cell_angle_gamma   90.00000000
_symmetry_Int_Tables_number   1
_chemical_formula_structural   La5Pb4
_chemical_formula_sum   'La20 Pb16'
_cell_volume   1253.68263432
_cell_formula_units_Z   4
loop_
 _symmetry_equiv_pos_site_id
 _symmetry_equiv_pos_as_xyz
  1  'x, y, z'
loop_
 _atom_site_type_symbol
 _atom_site_label
 _atom_site_symmetry_multiplicity
 _atom_site_fract_x
 _atom_site_fract_y
 _atom_site_fract_z
 _atom_site_occupancy
  La  La0  1  0.879387  0.659448  0.882705  1
  La  La1  1  0.379387  0.840552  0.617295  1
  La  La2  1  0.620613  0.159448  0.117295  1
  La  La3  1  0.120613  0.340552  0.382705  1
  La  La4  1  0.120613  0.340552  0.117295  1
  La  La5  1  0.620613  0.159448  0.382705  1
  La  La6  1  0.379387  0.840552  0.882705  1
  La  La7  1  0.879387  0.659448  0.617295  1
  La  La8  1  0.028407  0.179017  0.898833  1
  La  La9  1  0.528407  0.320983  0.601167  1
  La  La10  1  0.471593  0.679017  0.101167  1
  La  La11  1  0.971593  0.820983  0.398833  1
  La  La12  1  0.971593  0.820983  0.101167  1
  La  La13  1  0.471593  0.679017  0.398833  1
  La  La14  1  0.528407  0.320983  0.898833  1
  La  La15  1  0.028407  0.179017  0.601167  1
  La  La16  1  0.710550  0.996762  0.750000  1
  La  La17  1  0.210550  0.503238  0.750000  1
  La  La18  1  0.789450  0.496762  0.250000  1
  La  La19  1  0.289450  0.003238  0.250000  1
  Pb  Pb20  1  0.077866  0.880255  0.750000  1
  Pb  Pb21  1  0.577866  0.619745  0.750000  1
  Pb  Pb22  1  0.422134  0.380255  0.250000  1
  Pb  Pb23  1  0.922134  0.119745  0.250000  1
  Pb  Pb24  1  0.834995  0.356264  0.750000  1
  Pb  Pb25  1  0.334995  0.143736  0.750000  1
  Pb  Pb26  1  0.665005  0.856264  0.250000  1
  Pb  Pb27  1  0.165005  0.643736  0.250000  1
  Pb  Pb28  1  0.779287  0.467784  0.043703  1
  Pb  Pb29  1  0.279287  0.032216  0.456297  1
  Pb  Pb30  1  0.720713  0.967784  0.956297  1
  Pb  Pb31  1  0.220713  0.532216  0.543703  1
  Pb  Pb32  1  0.220713  0.532216  0.956297  1
  Pb  Pb33  1  0.720713  0.967784  0.543703  1
  Pb  Pb34  1  0.279287  0.032216  0.043703  1
  Pb  Pb35  1  0.779287  0.467784  0.456297  1
