# generated using pymatgen
data_Ba(Co5As3)2
_symmetry_space_group_name_H-M   'P 1'
_cell_length_a   6.81229047
_cell_length_b   8.90452430
_cell_length_c   16.42082287
_cell_angle_alpha   90.00000000
_cell_angle_beta   90.00000000
_cell_angle_gamma   90.00000000
_symmetry_Int_Tables_number   1
_chemical_formula_structural   Ba(Co5As3)2
_chemical_formula_sum   'Ba4 Co40 As24'
_cell_volume   996.09049846
_cell_formula_units_Z   4
loop_
 _symmetry_equiv_pos_site_id
 _symmetry_equiv_pos_as_xyz
  1  'x, y, z'
loop_
 _atom_site_type_symbol
 _atom_site_label
 _atom_site_symmetry_multiplicity
 _atom_site_fract_x
 _atom_site_fract_y
 _atom_site_fract_z
 _atom_site_occupancy
  Co  Co0  1  0.750000  0.742024  0.065547  1
  Co  Co1  1  0.437765  0.499900  0.428016  1
  Co  Co2  1  0.937765  0.500100  0.571984  1
  Co  Co3  1  0.562235  -0.000100  0.071984  1
  Co  Co4  1  0.250000  0.646719  0.204968  1
  Co  Co5  1  0.750000  0.353281  0.795032  1
  Co  Co6  1  0.750000  0.146719  0.295032  1
  Co  Co7  1  0.250000  0.853281  0.704968  1
  Co  Co8  1  0.250000  0.083426  0.798540  1
  Co  Co9  1  0.750000  0.916574  0.201460  1
  Co  Co10  1  0.750000  0.583426  0.701460  1
  Co  Co11  1  0.250000  0.416574  0.298540  1
  Co  Co12  1  0.250000  0.821374  0.036009  1
  Co  Co13  1  0.750000  0.178626  0.963991  1
  Co  Co14  1  0.750000  0.321374  0.463991  1
  Co  Co15  1  0.562235  0.500100  0.571984  1
  Co  Co16  1  0.250000  0.257976  0.934453  1
  Co  Co17  1  0.250000  0.678626  0.536009  1
  Co  Co18  1  0.750000  0.757976  0.565547  1
  Co  Co19  1  0.250000  0.242024  0.434453  1
  Co  Co20  1  0.060710  0.569502  0.068812  1
  Co  Co21  1  0.560710  0.430498  0.931188  1
  Co  Co22  1  0.939290  0.069502  0.431188  1
  Co  Co23  1  0.439290  0.930498  0.568812  1
  Co  Co24  1  0.939290  0.430498  0.931188  1
  Co  Co25  1  0.439290  0.569502  0.068812  1
  Co  Co26  1  0.060710  0.930498  0.568812  1
  Co  Co27  1  0.560710  0.069502  0.431188  1
  Co  Co28  1  0.000154  0.283172  0.071085  1
  Co  Co29  1  0.500154  0.716828  0.928915  1
  Co  Co30  1  0.999846  0.783172  0.428915  1
  Co  Co31  1  0.499846  0.216828  0.571085  1
  Co  Co32  1  0.999846  0.716828  0.928915  1
  Co  Co33  1  0.499846  0.283172  0.071085  1
  Co  Co34  1  0.000154  0.216828  0.571085  1
  Co  Co35  1  0.500154  0.783172  0.428915  1
  Co  Co36  1  0.937765  -0.000100  0.071984  1
  Co  Co37  1  0.437765  1.000100  0.928016  1
  Co  Co38  1  0.062235  0.499900  0.428016  1
  Co  Co39  1  0.062235  1.000100  0.928016  1
  As  As40  1  0.486549  0.711702  0.647745  1
  As  As41  1  0.986549  0.211702  0.852255  1
  As  As42  1  0.486549  0.788298  0.147745  1
  As  As43  1  0.013451  0.711702  0.647745  1
  As  As44  1  0.250000  0.094276  0.042739  1
  As  As45  1  0.750000  0.905724  0.957261  1
  As  As46  1  0.750000  0.594276  0.457261  1
  As  As47  1  0.250000  0.405724  0.542739  1
  As  As48  1  0.250000  0.527235  0.954251  1
  As  As49  1  0.750000  0.472765  0.045749  1
  As  As50  1  0.750000  0.027235  0.545749  1
  As  As51  1  0.250000  0.972765  0.454251  1
  As  As52  1  0.250000  0.828940  0.845673  1
  As  As53  1  0.750000  0.171060  0.154327  1
  As  As54  1  0.513451  0.288298  0.352255  1
  As  As55  1  0.250000  0.671060  0.345673  1
  As  As56  1  0.250000  0.398431  0.156322  1
  As  As57  1  0.750000  0.601569  0.843678  1
  As  As58  1  0.750000  0.898431  0.343678  1
  As  As59  1  0.250000  0.101569  0.656322  1
  As  As60  1  0.013451  0.788298  0.147745  1
  As  As61  1  0.513451  0.211702  0.852255  1
  As  As62  1  0.986549  0.288298  0.352255  1
  As  As63  1  0.750000  0.328940  0.654327  1
  Ba  Ba64  1  0.250000  0.458592  0.749510  1
  Ba  Ba65  1  0.750000  0.541408  0.250490  1
  Ba  Ba66  1  0.750000  0.958592  0.750490  1
  Ba  Ba67  1  0.250000  0.041408  0.249510  1
