# generated using pymatgen
data_NiH14SO11
_symmetry_space_group_name_H-M   'P 1'
_cell_length_a   6.68896627
_cell_length_b   11.88177944
_cell_length_c   12.11870788
_cell_angle_alpha   90.00000000
_cell_angle_beta   90.00000000
_cell_angle_gamma   90.00000000
_symmetry_Int_Tables_number   1
_chemical_formula_structural   NiH14SO11
_chemical_formula_sum   'Ni4 H56 S4 O44'
_cell_volume   963.15638786
_cell_formula_units_Z   4
loop_
 _symmetry_equiv_pos_site_id
 _symmetry_equiv_pos_as_xyz
  1  'x, y, z'
loop_
 _atom_site_type_symbol
 _atom_site_label
 _atom_site_symmetry_multiplicity
 _atom_site_fract_x
 _atom_site_fract_y
 _atom_site_fract_z
 _atom_site_occupancy
  H  H0  1  0.488198  0.516852  0.865452  1
  H  H1  1  0.988197  0.983148  0.134548  1
  H  H2  1  0.511803  0.016852  0.634548  1
  H  H3  1  0.011803  0.483148  0.365452  1
  H  H4  1  0.550386  0.567444  0.981441  1
  H  H5  1  0.050385  0.932557  0.018559  1
  H  H6  1  0.449614  0.067444  0.518559  1
  H  H7  1  0.949614  0.432557  0.481441  1
  H  H8  1  0.092857  0.591569  0.503050  1
  H  H9  1  0.592857  0.908430  0.496950  1
  H  H10  1  0.907143  0.091569  0.996950  1
  H  H11  1  0.407144  0.408430  0.003050  1
  H  H12  1  0.163762  0.718299  0.534222  1
  H  H13  1  0.663763  0.781701  0.465778  1
  H  H14  1  0.836237  0.218299  0.965778  1
  H  H15  1  0.336237  0.281701  0.034222  1
  H  H16  1  0.724429  0.584059  0.441066  1
  H  H17  1  0.224430  0.915942  0.558933  1
  H  H18  1  0.275570  0.084059  0.058933  1
  H  H19  1  0.775571  0.415942  0.941066  1
  H  H20  1  0.521469  0.638428  0.390932  1
  H  H21  1  0.021470  0.861573  0.609069  1
  H  H22  1  0.478531  0.138427  0.109069  1
  H  H23  1  0.978531  0.361573  0.890931  1
  H  H24  1  0.478435  0.398938  0.469692  1
  H  H25  1  0.978436  0.101062  0.530308  1
  H  H26  1  0.393647  0.766843  0.720661  1
  H  H27  1  0.021565  0.601062  0.969692  1
  H  H28  1  0.299156  0.380331  0.553408  1
  H  H29  1  0.799157  0.119669  0.446592  1
  H  H30  1  0.700844  0.880332  0.946592  1
  H  H31  1  0.200844  0.619669  0.053408  1
  H  H32  1  0.754565  0.454083  0.679472  1
  H  H33  1  0.254565  0.045917  0.320528  1
  H  H34  1  0.245434  0.954083  0.820527  1
  H  H35  1  0.745435  0.545917  0.179472  1
  H  H36  1  0.809819  0.578666  0.721099  1
  H  H37  1  0.309818  0.921334  0.278902  1
  H  H38  1  0.190182  0.078666  0.778902  1
  H  H39  1  0.690181  0.421334  0.221098  1
  H  H40  1  0.250050  0.452984  0.751406  1
  H  H41  1  0.750051  0.047016  0.248595  1
  H  H42  1  0.749950  0.952984  0.748595  1
  H  H43  1  0.249950  0.547016  0.251405  1
  H  H44  1  0.201226  0.580721  0.773528  1
  H  H45  1  0.701225  0.919279  0.226472  1
  H  H46  1  0.798774  0.080721  0.726472  1
  H  H47  1  0.298774  0.419279  0.273528  1
  H  H48  1  0.630439  0.764660  0.696624  1
  H  H49  1  0.130439  0.735340  0.303376  1
  H  H50  1  0.369562  0.264660  0.803376  1
  H  H51  1  0.869561  0.235340  0.196624  1
  H  H52  1  0.106353  0.233157  0.220661  1
  H  H53  1  0.606352  0.266843  0.779339  1
  H  H54  1  0.893646  0.733157  0.279339  1
  H  H55  1  0.521565  0.898937  0.030308  1
  O  O56  1  0.563407  0.500005  0.934224  1
  O  O57  1  0.063408  -0.000006  0.065776  1
  O  O58  1  0.436592  1.000006  0.565776  1
  O  O59  1  0.936593  0.499994  0.434224  1
  O  O60  1  0.189373  0.637395  0.546768  1
  O  O61  1  0.689373  0.862605  0.453232  1
  O  O62  1  0.810627  0.137395  0.953232  1
  O  O63  1  0.310626  0.362605  0.046768  1
  O  O64  1  0.606333  0.632956  0.457739  1
  O  O65  1  0.106334  0.867044  0.542262  1
  O  O66  1  0.393667  0.132956  0.042261  1
  O  O67  1  0.893667  0.367044  0.957739  1
  O  O68  1  0.427727  0.421285  0.542807  1
  O  O69  1  0.927727  0.078715  0.457194  1
  O  O70  1  0.572274  0.921285  0.957194  1
  O  O71  1  0.072274  0.578715  0.042806  1
  O  O72  1  0.735275  0.535933  0.664894  1
  O  O73  1  0.235276  0.964067  0.335105  1
  O  O74  1  0.264724  0.035933  0.835106  1
  O  O75  1  0.764723  0.464067  0.164894  1
  O  O76  1  0.313338  0.529168  0.753625  1
  O  O77  1  0.813338  0.970832  0.246375  1
  O  O78  1  0.686663  0.029168  0.746375  1
  O  O79  1  0.186662  0.470832  0.253625  1
  O  O80  1  0.498160  0.741123  0.668037  1
  O  O81  1  0.998159  0.758877  0.331964  1
  O  O82  1  0.429474  0.676028  0.070653  1
  O  O83  1  0.001840  0.258877  0.168036  1
  O  O84  1  0.136339  0.323690  0.769404  1
  O  O85  1  0.636339  0.176310  0.230596  1
  O  O86  1  0.863661  0.823689  0.730596  1
  O  O87  1  0.363662  0.676310  0.269404  1
  O  O88  1  0.794425  0.315663  0.700654  1
  O  O89  1  0.294426  0.184337  0.299347  1
  O  O90  1  0.205574  0.815663  0.799347  1
  O  O91  1  0.705573  0.684337  0.200654  1
  O  O92  1  0.014130  0.152853  0.678498  1
  O  O93  1  0.514129  0.347147  0.321502  1
  O  O94  1  0.985869  0.652853  0.821502  1
  O  O95  1  0.485870  0.847147  0.178498  1
  O  O96  1  0.070527  0.323972  0.570653  1
  O  O97  1  0.570527  0.176028  0.429348  1
  O  O98  1  0.929473  0.823972  0.929348  1
  O  O99  1  0.501839  0.241123  0.831963  1
  S  S100  1  0.003134  0.278875  0.678383  1
  S  S101  1  0.503135  0.221125  0.321617  1
  S  S102  1  0.996865  0.778875  0.821617  1
  S  S103  1  0.496866  0.721124  0.178383  1
  Ni  Ni104  1  0.459293  0.582191  0.604185  1
  Ni  Ni105  1  0.959293  0.917809  0.395814  1
  Ni  Ni106  1  0.540707  0.082191  0.895814  1
  Ni  Ni107  1  0.040708  0.417809  0.104186  1
