# generated using pymatgen
data_Na3Ir(NO2)6
_symmetry_space_group_name_H-M   'P 1'
_cell_length_a   6.84927280
_cell_length_b   6.84927280
_cell_length_c   6.84927280
_cell_angle_alpha   72.37387524
_cell_angle_beta   72.37387522
_cell_angle_gamma   72.37387522
_symmetry_Int_Tables_number   1
_chemical_formula_structural   Na3Ir(NO2)6
_chemical_formula_sum   'Na3 Ir1 N6 O12'
_cell_volume   283.86240080
_cell_formula_units_Z   1
loop_
 _symmetry_equiv_pos_site_id
 _symmetry_equiv_pos_as_xyz
  1  'x, y, z'
loop_
 _atom_site_type_symbol
 _atom_site_label
 _atom_site_symmetry_multiplicity
 _atom_site_fract_x
 _atom_site_fract_y
 _atom_site_fract_z
 _atom_site_occupancy
  N  N0  1  0.799070  0.173376  0.799070  1
  N  N1  1  0.799070  0.799070  0.173376  1
  N  N2  1  0.173376  0.799070  0.799070  1
  N  N3  1  0.826624  0.200930  0.200930  1
  N  N4  1  0.200930  0.826624  0.200930  1
  N  N5  1  0.200930  0.200930  0.826624  1
  O  O6  1  0.912449  0.282239  0.282239  1
  O  O7  1  0.087551  0.717761  0.717761  1
  O  O8  1  0.717761  0.717761  0.087551  1
  O  O9  1  0.717761  0.087551  0.717761  1
  O  O10  1  0.240980  0.629237  0.240980  1
  O  O11  1  0.240980  0.240980  0.629237  1
  O  O12  1  0.629237  0.240980  0.240980  1
  O  O13  1  0.370763  0.759020  0.759020  1
  O  O14  1  0.759020  0.370763  0.759020  1
  O  O15  1  0.759020  0.759020  0.370763  1
  O  O16  1  0.282239  0.912449  0.282239  1
  O  O17  1  0.282239  0.282239  0.912449  1
  Na  Na18  1  0.734097  0.734097  0.734097  1
  Na  Na19  1  0.265903  0.265903  0.265903  1
  Na  Na20  1  0.500000  0.500000  0.500000  1
  Ir  Ir21  1  0.000000  0.000000  0.000000  1
