# generated using pymatgen
data_NbTeCl9
_symmetry_space_group_name_H-M   'P 1'
_cell_length_a   6.70481344
_cell_length_b   9.79131192
_cell_length_c   11.96055152
_cell_angle_alpha   73.08576523
_cell_angle_beta   72.48505360
_cell_angle_gamma   88.85090301
_symmetry_Int_Tables_number   1
_chemical_formula_structural   NbTeCl9
_chemical_formula_sum   'Nb2 Te2 Cl18'
_cell_volume   714.43893498
_cell_formula_units_Z   2
loop_
 _symmetry_equiv_pos_site_id
 _symmetry_equiv_pos_as_xyz
  1  'x, y, z'
loop_
 _atom_site_type_symbol
 _atom_site_label
 _atom_site_symmetry_multiplicity
 _atom_site_fract_x
 _atom_site_fract_y
 _atom_site_fract_z
 _atom_site_occupancy
  Cl  Cl0  1  0.680693  0.131739  0.842437  1
  Cl  Cl1  1  0.319307  0.868261  0.157563  1
  Cl  Cl2  1  0.084477  0.366928  0.635941  1
  Cl  Cl3  1  0.915523  0.633072  0.364059  1
  Cl  Cl4  1  0.360061  0.741802  0.529928  1
  Cl  Cl5  1  0.639939  0.258198  0.470072  1
  Cl  Cl6  1  0.560208  0.496603  0.715716  1
  Cl  Cl7  1  0.439792  0.503397  0.284284  1
  Cl  Cl8  1  0.264813  0.942714  0.726555  1
  Cl  Cl9  1  0.735187  0.057286  0.273445  1
  Cl  Cl10  1  0.072171  0.600991  0.827862  1
  Cl  Cl11  1  0.927829  0.399009  0.172138  1
  Cl  Cl12  1  0.468268  0.690971  0.914760  1
  Cl  Cl13  1  0.531732  0.309029  0.085240  1
  Cl  Cl14  1  0.757517  0.843489  0.619651  1
  Cl  Cl15  1  0.242483  0.156511  0.380349  1
  Cl  Cl16  1  0.905516  0.792014  0.067004  1
  Cl  Cl17  1  0.094484  0.207986  0.932996  1
  Nb  Nb18  1  0.577020  0.265714  0.288776  1
  Nb  Nb19  1  0.422980  0.734286  0.711224  1
  Te  Te20  1  0.864605  0.338375  0.835753  1
  Te  Te21  1  0.135395  0.661625  0.164247  1
