# generated using pymatgen
data_SiH4
_symmetry_space_group_name_H-M   'P 1'
_cell_length_a   5.04114828
_cell_length_b   7.65803465
_cell_length_c   7.61352905
_cell_angle_alpha   103.68012037
_cell_angle_beta   90.00000000
_cell_angle_gamma   90.00000000
_symmetry_Int_Tables_number   1
_chemical_formula_structural   SiH4
_chemical_formula_sum   'Si4 H16'
_cell_volume   285.58426568
_cell_formula_units_Z   4
loop_
 _symmetry_equiv_pos_site_id
 _symmetry_equiv_pos_as_xyz
  1  'x, y, z'
loop_
 _atom_site_type_symbol
 _atom_site_label
 _atom_site_symmetry_multiplicity
 _atom_site_fract_x
 _atom_site_fract_y
 _atom_site_fract_z
 _atom_site_occupancy
  H  H0  1  0.062535  0.021413  0.205115  1
  H  H1  1  0.562535  0.478587  0.794885  1
  H  H2  1  0.937465  0.978587  0.794885  1
  H  H3  1  0.437465  0.521413  0.205115  1
  H  H4  1  0.572357  0.210301  0.087226  1
  H  H5  1  0.072357  0.289699  0.912774  1
  H  H6  1  0.427643  0.789699  0.912774  1
  H  H7  1  0.927643  0.710301  0.087226  1
  H  H8  1  0.853918  0.414073  0.303346  1
  H  H9  1  0.353918  0.085927  0.696654  1
  H  H10  1  0.146082  0.585927  0.696654  1
  H  H11  1  0.646082  0.914073  0.303346  1
  H  H12  1  0.433637  0.311761  0.400986  1
  H  H13  1  0.933637  0.188239  0.599014  1
  H  H14  1  0.566363  0.688239  0.599014  1
  H  H15  1  0.066363  0.811761  0.400986  1
  Si  Si16  1  0.925553  0.864394  0.248986  1
  Si  Si17  1  0.425553  0.635606  0.751014  1
  Si  Si18  1  0.074447  0.135606  0.751014  1
  Si  Si19  1  0.574447  0.364394  0.248986  1
