# generated using pymatgen
data_Ca2RuO4
_symmetry_space_group_name_H-M   'P 1'
_cell_length_a   5.52586820
_cell_length_b   5.49029419
_cell_length_c   11.96814508
_cell_angle_alpha   90.07970246
_cell_angle_beta   90.00000000
_cell_angle_gamma   90.00000000
_symmetry_Int_Tables_number   1
_chemical_formula_structural   Ca2RuO4
_chemical_formula_sum   'Ca8 Ru4 O16'
_cell_volume   363.09691830
_cell_formula_units_Z   4
loop_
 _symmetry_equiv_pos_site_id
 _symmetry_equiv_pos_as_xyz
  1  'x, y, z'
loop_
 _atom_site_type_symbol
 _atom_site_label
 _atom_site_symmetry_multiplicity
 _atom_site_fract_x
 _atom_site_fract_y
 _atom_site_fract_z
 _atom_site_occupancy
  Ca  Ca0  1  0.451016  0.014838  0.850108  1
  Ca  Ca1  1  0.049209  0.514724  0.149738  1
  Ca  Ca2  1  0.450791  0.514724  0.649738  1
  Ca  Ca3  1  0.548984  0.985162  0.149892  1
  Ca  Ca4  1  0.048984  0.014838  0.350108  1
  Ca  Ca5  1  0.951016  0.985162  0.649892  1
  Ca  Ca6  1  0.549209  0.485276  0.350262  1
  Ca  Ca7  1  0.950791  0.485276  0.850262  1
  Ru  Ru8  1  0.500000  0.000000  0.500000  1
  Ru  Ru9  1  0.000000  0.500000  0.500000  1
  Ru  Ru10  1  0.500000  0.500000  0.000000  1
  Ru  Ru11  1  0.000000  0.000000  0.000000  1
  O  O12  1  0.975910  0.930001  0.167109  1
  O  O13  1  0.297080  0.199295  0.027915  1
  O  O14  1  0.202920  0.199295  0.527915  1
  O  O15  1  0.702920  0.800705  0.972085  1
  O  O16  1  0.524090  0.930001  0.667109  1
  O  O17  1  0.523239  0.429578  0.833236  1
  O  O18  1  0.476761  0.570422  0.166764  1
  O  O19  1  0.797080  0.800705  0.472085  1
  O  O20  1  0.475910  0.069999  0.332891  1
  O  O21  1  0.798146  0.299412  0.027319  1
  O  O22  1  0.976761  0.429578  0.333236  1
  O  O23  1  0.201854  0.700588  0.972681  1
  O  O24  1  0.298146  0.700588  0.472681  1
  O  O25  1  0.024090  0.069999  0.832891  1
  O  O26  1  0.023239  0.570422  0.666764  1
  O  O27  1  0.701854  0.299412  0.527319  1
