# generated using pymatgen
data_VClO
_symmetry_space_group_name_H-M   'P 1'
_cell_length_a   3.37862924
_cell_length_b   3.84984060
_cell_length_c   8.21559911
_cell_angle_alpha   90.00000000
_cell_angle_beta   90.00000000
_cell_angle_gamma   90.00000000
_symmetry_Int_Tables_number   1
_chemical_formula_structural   VClO
_chemical_formula_sum   'V2 Cl2 O2'
_cell_volume   106.86180946
_cell_formula_units_Z   2
loop_
 _symmetry_equiv_pos_site_id
 _symmetry_equiv_pos_as_xyz
  1  'x, y, z'
loop_
 _atom_site_type_symbol
 _atom_site_label
 _atom_site_symmetry_multiplicity
 _atom_site_fract_x
 _atom_site_fract_y
 _atom_site_fract_z
 _atom_site_occupancy
  O  O0  1  0.249999  0.250000  0.956583  1
  O  O1  1  0.750001  0.750000  0.043417  1
  Cl  Cl2  1  0.750001  0.750000  0.677139  1
  Cl  Cl3  1  0.249999  0.250000  0.322862  1
  V  V4  1  0.750001  0.250000  0.113543  1
  V  V5  1  0.249999  0.750000  0.886457  1
