# generated using pymatgen
data_RbB3O5
_symmetry_space_group_name_H-M   'P 1'
_cell_length_a   6.48029202
_cell_length_b   8.52900329
_cell_length_c   8.80245652
_cell_angle_alpha   90.00000000
_cell_angle_beta   90.00000000
_cell_angle_gamma   90.00000000
_symmetry_Int_Tables_number   1
_chemical_formula_structural   RbB3O5
_chemical_formula_sum   'Rb4 B12 O20'
_cell_volume   486.51557416
_cell_formula_units_Z   4
loop_
 _symmetry_equiv_pos_site_id
 _symmetry_equiv_pos_as_xyz
  1  'x, y, z'
loop_
 _atom_site_type_symbol
 _atom_site_label
 _atom_site_symmetry_multiplicity
 _atom_site_fract_x
 _atom_site_fract_y
 _atom_site_fract_z
 _atom_site_occupancy
  Rb  Rb0  1  0.135461  0.343963  0.605656  1
  Rb  Rb1  1  0.635461  0.156037  0.394344  1
  Rb  Rb2  1  0.864539  0.843963  0.894344  1
  Rb  Rb3  1  0.364539  0.656037  0.105656  1
  O  O4  1  0.626197  0.335063  0.699379  1
  O  O5  1  0.126197  0.164937  0.300621  1
  O  O6  1  0.373803  0.835063  0.800621  1
  O  O7  1  0.873803  0.664937  0.199379  1
  O  O8  1  0.712733  0.508566  0.911674  1
  O  O9  1  0.212733  0.991434  0.088326  1
  O  O10  1  0.287267  0.008566  0.588326  1
  O  O11  1  0.787267  0.491434  0.411674  1
  O  O12  1  0.414871  0.561191  0.753320  1
  O  O13  1  0.914871  0.938809  0.246680  1
  O  O14  1  0.585129  0.061191  0.746680  1
  O  O15  1  0.085129  0.438809  0.253320  1
  O  O16  1  0.760013  0.603866  0.660988  1
  O  O17  1  0.260013  0.896134  0.339012  1
  O  O18  1  0.239987  0.103866  0.839012  1
  O  O19  1  0.739987  0.396134  0.160988  1
  O  O20  1  0.673664  0.231207  0.951405  1
  O  O21  1  0.173664  0.268793  0.048595  1
  O  O22  1  0.326336  0.731207  0.548595  1
  O  O23  1  0.826336  0.768793  0.451405  1
  B  B24  1  0.714504  0.382249  0.007461  1
  B  B25  1  0.214504  0.117751  0.992539  1
  B  B26  1  0.285496  0.882249  0.492539  1
  B  B27  1  0.785496  0.617751  0.507461  1
  B  B28  1  0.630067  0.499530  0.754512  1
  B  B29  1  0.130067  0.000470  0.245488  1
  B  B30  1  0.369933  0.999530  0.745488  1
  B  B31  1  0.869933  0.500470  0.254512  1
  B  B32  1  0.624637  0.210545  0.798211  1
  B  B33  1  0.124637  0.289455  0.201789  1
  B  B34  1  0.375363  0.710545  0.701789  1
  B  B35  1  0.875363  0.789455  0.298211  1
