# generated using pymatgen
data_LiNb2(PO4)3
_symmetry_space_group_name_H-M   'P 1'
_cell_length_a   8.76867949
_cell_length_b   8.78165507
_cell_length_c   9.21457865
_cell_angle_alpha   118.25566335
_cell_angle_beta   91.63224238
_cell_angle_gamma   118.88923555
_symmetry_Int_Tables_number   1
_chemical_formula_structural   LiNb2(PO4)3
_chemical_formula_sum   'Li2 Nb4 P6 O24'
_cell_volume   515.90186569
_cell_formula_units_Z   2
loop_
 _symmetry_equiv_pos_site_id
 _symmetry_equiv_pos_as_xyz
  1  'x, y, z'
loop_
 _atom_site_type_symbol
 _atom_site_label
 _atom_site_symmetry_multiplicity
 _atom_site_fract_x
 _atom_site_fract_y
 _atom_site_fract_z
 _atom_site_occupancy
  Li  Li0  1  0.252184  0.795153  0.605026  1
  Li  Li1  1  0.747816  0.204846  0.394974  1
  O  O2  1  0.428697  0.729492  0.276220  1
  O  O3  1  0.741406  0.116995  0.563701  1
  O  O4  1  0.800864  0.272392  0.893827  1
  O  O5  1  0.910022  0.498977  0.773695  1
  O  O6  1  0.099619  0.866916  0.747949  1
  O  O7  1  0.258594  0.883004  0.436299  1
  O  O8  1  0.199136  0.727609  0.106174  1
  O  O9  1  0.089977  0.501022  0.226304  1
  O  O10  1  0.287494  0.707616  0.775961  1
  O  O11  1  0.031530  0.132237  0.936242  1
  O  O12  1  0.900382  0.133084  0.252052  1
  O  O13  1  0.146319  0.124392  0.387234  1
  O  O14  1  0.190103  0.170228  0.719903  1
  O  O15  1  0.478672  0.762809  0.598424  1
  O  O16  1  0.634957  0.911126  0.913227  1
  O  O17  1  0.455521  0.524902  0.697196  1
  O  O18  1  0.712506  0.292384  0.224039  1
  O  O19  1  0.365043  0.088875  0.086772  1
  O  O20  1  0.521328  0.237192  0.401577  1
  O  O21  1  0.809897  0.829771  0.280095  1
  O  O22  1  0.853682  0.875609  0.612767  1
  O  O23  1  0.571303  0.270507  0.723779  1
  O  O24  1  0.968470  0.867762  0.063757  1
  O  O25  1  0.544479  0.475098  0.302804  1
  P  P26  1  0.756528  0.286924  0.742442  1
  P  P27  1  0.954368  0.984112  0.243552  1
  P  P28  1  0.534991  0.278644  0.254254  1
  P  P29  1  0.465008  0.721355  0.745745  1
  P  P30  1  0.243471  0.713075  0.257557  1
  P  P31  1  0.045632  0.015888  0.756448  1
  Nb  Nb32  1  0.136794  0.795756  0.933163  1
  Nb  Nb33  1  0.356035  0.209661  0.566190  1
  Nb  Nb34  1  0.643965  0.790338  0.433810  1
  Nb  Nb35  1  0.863206  0.204245  0.066836  1
