# generated using pymatgen
data_KLi2(HO)3
_symmetry_space_group_name_H-M   'P 1'
_cell_length_a   5.52851864
_cell_length_b   5.67772212
_cell_length_c   7.36700924
_cell_angle_alpha   96.37319291
_cell_angle_beta   90.00000000
_cell_angle_gamma   90.00000000
_symmetry_Int_Tables_number   1
_chemical_formula_structural   KLi2(HO)3
_chemical_formula_sum   'K2 Li4 H6 O6'
_cell_volume   229.81683671
_cell_formula_units_Z   2
loop_
 _symmetry_equiv_pos_site_id
 _symmetry_equiv_pos_as_xyz
  1  'x, y, z'
loop_
 _atom_site_type_symbol
 _atom_site_label
 _atom_site_symmetry_multiplicity
 _atom_site_fract_x
 _atom_site_fract_y
 _atom_site_fract_z
 _atom_site_occupancy
  H  H0  1  0.250000  0.786391  0.828078  1
  H  H1  1  0.750000  0.213609  0.171922  1
  H  H2  1  0.250000  0.909975  0.800998  1
  H  H3  1  0.750000  0.090025  0.199002  1
  H  H4  1  0.750000  0.769837  0.984413  1
  H  H5  1  0.250000  0.230163  0.015587  1
  Li  Li6  1  0.549355  0.390958  0.847573  1
  Li  Li7  1  0.950645  0.390958  0.847573  1
  Li  Li8  1  0.450645  0.609042  0.152427  1
  Li  Li9  1  0.049355  0.609042  0.152427  1
  O  O10  1  0.750000  0.145302  0.744022  1
  O  O11  1  0.250000  0.854698  0.255978  1
  O  O12  1  0.750000  0.353943  0.627758  1
  O  O13  1  0.750000  0.611405  0.023400  1
  O  O14  1  0.250000  0.646057  0.372242  1
  O  O15  1  0.250000  0.388595  0.976600  1
  K  K16  1  0.250000  0.232937  0.486950  1
  K  K17  1  0.750000  0.767063  0.513050  1
