# generated using pymatgen
data_SrV2P2O9
_symmetry_space_group_name_H-M   'P 1'
_cell_length_a   6.64176972
_cell_length_b   7.67148900
_cell_length_c   14.42506957
_cell_angle_alpha   90.00000000
_cell_angle_beta   90.00000000
_cell_angle_gamma   90.00000000
_symmetry_Int_Tables_number   1
_chemical_formula_structural   SrV2P2O9
_chemical_formula_sum   'Sr4 V8 P8 O36'
_cell_volume   734.98994354
_cell_formula_units_Z   4
loop_
 _symmetry_equiv_pos_site_id
 _symmetry_equiv_pos_as_xyz
  1  'x, y, z'
loop_
 _atom_site_type_symbol
 _atom_site_label
 _atom_site_symmetry_multiplicity
 _atom_site_fract_x
 _atom_site_fract_y
 _atom_site_fract_z
 _atom_site_occupancy
  O  O0  1  0.060627  0.600030  0.372177  1
  O  O1  1  0.560627  0.399969  0.627823  1
  O  O2  1  0.939374  0.100030  0.127823  1
  O  O3  1  0.439374  0.899969  0.872177  1
  O  O4  1  0.939374  0.399969  0.627823  1
  O  O5  1  0.439374  0.600030  0.372177  1
  O  O6  1  0.060627  0.899969  0.872177  1
  O  O7  1  0.560627  0.100030  0.127823  1
  O  O8  1  0.250001  0.329244  0.489281  1
  O  O9  1  0.750000  0.670755  0.510718  1
  O  O10  1  0.750000  0.829244  0.010719  1
  O  O11  1  0.250001  0.170756  0.989281  1
  O  O12  1  0.750000  0.124923  0.945847  1
  O  O13  1  0.250001  0.875077  0.054153  1
  O  O14  1  0.250001  0.624922  0.554153  1
  O  O15  1  0.750000  0.375077  0.445848  1
  O  O16  1  0.750000  0.220570  0.749511  1
  O  O17  1  0.250001  0.779430  0.250489  1
  O  O18  1  0.250001  0.720570  0.750489  1
  O  O19  1  0.750000  0.279430  0.249511  1
  O  O20  1  0.435115  0.138646  0.374502  1
  O  O21  1  0.935115  0.861353  0.625499  1
  O  O22  1  0.564885  0.638647  0.125498  1
  O  O23  1  0.064886  0.361354  0.874502  1
  O  O24  1  0.564885  0.861353  0.625499  1
  O  O25  1  0.064886  0.138646  0.374502  1
  O  O26  1  0.435115  0.361354  0.874502  1
  O  O27  1  0.935115  0.638647  0.125498  1
  O  O28  1  0.750000  0.507722  0.986005  1
  O  O29  1  0.250001  0.034625  0.733542  1
  O  O30  1  0.250001  0.465375  0.233542  1
  O  O31  1  0.750000  0.534625  0.766457  1
  O  O32  1  0.750000  0.992277  0.486005  1
  O  O33  1  0.250001  0.007723  0.513995  1
  O  O34  1  0.250001  0.492277  0.013996  1
  O  O35  1  0.750000  0.965374  0.266457  1
  P  P36  1  0.250001  0.352794  0.939250  1
  P  P37  1  0.750000  0.647205  0.060749  1
  P  P38  1  0.750000  0.852794  0.560749  1
  P  P39  1  0.250001  0.147205  0.439250  1
  P  P40  1  0.750000  0.390412  0.690664  1
  P  P41  1  0.250001  0.609587  0.309336  1
  P  P42  1  0.250001  0.890413  0.809336  1
  P  P43  1  0.750000  0.109588  0.190664  1
  V  V44  1  0.000000  0.500000  0.500000  1
  V  V45  1  0.500000  0.500000  0.500000  1
  V  V46  1  0.750000  0.153359  0.382950  1
  V  V47  1  0.500000  0.000000  0.000000  1
  V  V48  1  0.750000  0.346642  0.882950  1
  V  V49  1  0.250001  0.653359  0.117050  1
  V  V50  1  0.250001  0.846641  0.617050  1
  V  V51  1  0.000000  0.000000  0.000000  1
  Sr  Sr52  1  0.250001  0.377841  0.720720  1
  Sr  Sr53  1  0.750000  0.622159  0.279280  1
  Sr  Sr54  1  0.750000  0.877841  0.779280  1
  Sr  Sr55  1  0.250001  0.122159  0.220720  1
