# generated using pymatgen
data_Ba3NaIr2O9
_symmetry_space_group_name_H-M   'P 1'
_cell_length_a   5.97206904
_cell_length_b   5.97206940
_cell_length_c   14.69641367
_cell_angle_alpha   90.00000000
_cell_angle_beta   90.00000000
_cell_angle_gamma   119.99999799
_symmetry_Int_Tables_number   1
_chemical_formula_structural   Ba3NaIr2O9
_chemical_formula_sum   'Ba6 Na2 Ir4 O18'
_cell_volume   453.93291422
_cell_formula_units_Z   2
loop_
 _symmetry_equiv_pos_site_id
 _symmetry_equiv_pos_as_xyz
  1  'x, y, z'
loop_
 _atom_site_type_symbol
 _atom_site_label
 _atom_site_symmetry_multiplicity
 _atom_site_fract_x
 _atom_site_fract_y
 _atom_site_fract_z
 _atom_site_occupancy
  Ba  Ba0  1  0.666667  0.333333  0.412097  1
  Ba  Ba1  1  0.666667  0.333333  0.087903  1
  Ba  Ba2  1  0.000000  0.000000  0.750000  1
  Ba  Ba3  1  0.333333  0.666667  0.587903  1
  Ba  Ba4  1  0.333333  0.666667  0.912097  1
  Ba  Ba5  1  0.000000  0.000000  0.250000  1
  Na  Na6  1  0.000000  0.000000  0.500000  1
  Na  Na7  1  0.000000  0.000000  0.000000  1
  Ir  Ir8  1  0.333333  0.666667  0.159712  1
  Ir  Ir9  1  0.333333  0.666667  0.340288  1
  Ir  Ir10  1  0.666667  0.333333  0.840288  1
  Ir  Ir11  1  0.666667  0.333333  0.659712  1
  O  O12  1  0.355589  0.177795  0.909913  1
  O  O13  1  0.024434  0.512217  0.250000  1
  O  O14  1  0.487783  0.975566  0.250000  1
  O  O15  1  0.975566  0.487783  0.750000  1
  O  O16  1  0.177795  0.822205  0.409913  1
  O  O17  1  0.512217  0.024434  0.750000  1
  O  O18  1  0.822205  0.644411  0.590087  1
  O  O19  1  0.644411  0.822205  0.409913  1
  O  O20  1  0.177795  0.822205  0.090087  1
  O  O21  1  0.177795  0.355589  0.409913  1
  O  O22  1  0.487783  0.512217  0.250000  1
  O  O23  1  0.512217  0.487783  0.750000  1
  O  O24  1  0.177795  0.355589  0.090087  1
  O  O25  1  0.822205  0.644411  0.909913  1
  O  O26  1  0.644411  0.822205  0.090087  1
  O  O27  1  0.355589  0.177795  0.590087  1
  O  O28  1  0.822205  0.177795  0.909913  1
  O  O29  1  0.822205  0.177795  0.590087  1
