# generated using pymatgen
data_B2AsCl2
_symmetry_space_group_name_H-M   'P 1'
_cell_length_a   7.39730469
_cell_length_b   7.66471405
_cell_length_c   11.45798133
_cell_angle_alpha   99.41099514
_cell_angle_beta   100.30175316
_cell_angle_gamma   117.12145869
_symmetry_Int_Tables_number   1
_chemical_formula_structural   B2AsCl2
_chemical_formula_sum   'B8 As4 Cl8'
_cell_volume   546.16568322
_cell_formula_units_Z   4
loop_
 _symmetry_equiv_pos_site_id
 _symmetry_equiv_pos_as_xyz
  1  'x, y, z'
loop_
 _atom_site_type_symbol
 _atom_site_label
 _atom_site_symmetry_multiplicity
 _atom_site_fract_x
 _atom_site_fract_y
 _atom_site_fract_z
 _atom_site_occupancy
  B  B0  1  0.156998  0.775596  0.709514  1
  B  B1  1  0.843002  0.224404  0.290486  1
  B  B2  1  0.105670  0.731761  0.848773  1
  B  B3  1  0.894330  0.268239  0.151227  1
  B  B4  1  0.901975  0.729668  0.640845  1
  B  B5  1  0.098025  0.270332  0.359155  1
  B  B6  1  0.059953  0.906926  0.785683  1
  B  B7  1  0.940047  0.093074  0.214317  1
  Cl  Cl8  1  0.742215  0.252745  1.009726  1
  Cl  Cl9  1  0.257785  0.747255  -0.009726  1
  Cl  Cl10  1  0.613029  0.143653  0.340050  1
  Cl  Cl11  1  0.386971  0.856347  0.659950  1
  Cl  Cl12  1  0.778556  0.741790  0.498931  1
  Cl  Cl13  1  0.221444  0.258210  0.501069  1
  Cl  Cl14  1  0.156422  0.170081  0.843727  1
  Cl  Cl15  1  0.843578  0.829919  0.156273  1
  As  As16  1  0.775602  0.661166  0.795776  1
  As  As17  1  0.224398  0.338834  0.204224  1
  As  As18  1  0.916904  0.469606  0.685853  1
  As  As19  1  0.083096  0.530394  0.314147  1
