# generated using pymatgen
data_Mg2PHO5
_symmetry_space_group_name_H-M   'P 1'
_cell_length_a   6.18448044
_cell_length_b   7.48592368
_cell_length_c   8.35826898
_cell_angle_alpha   90.00000000
_cell_angle_beta   90.00000000
_cell_angle_gamma   90.00000000
_symmetry_Int_Tables_number   1
_chemical_formula_structural   Mg2PHO5
_chemical_formula_sum   'Mg8 P4 H4 O20'
_cell_volume   386.95900583
_cell_formula_units_Z   4
loop_
 _symmetry_equiv_pos_site_id
 _symmetry_equiv_pos_as_xyz
  1  'x, y, z'
loop_
 _atom_site_type_symbol
 _atom_site_label
 _atom_site_symmetry_multiplicity
 _atom_site_fract_x
 _atom_site_fract_y
 _atom_site_fract_z
 _atom_site_occupancy
  Mg  Mg0  1  0.000000  0.000000  0.000000  1
  Mg  Mg1  1  0.250000  0.576950  0.173612  1
  Mg  Mg2  1  0.500000  0.000000  0.000000  1
  Mg  Mg3  1  0.750000  0.076950  0.326388  1
  Mg  Mg4  1  0.000000  0.500000  0.500000  1
  Mg  Mg5  1  0.250000  0.923050  0.673612  1
  Mg  Mg6  1  0.750000  0.423050  0.826388  1
  Mg  Mg7  1  0.500000  0.500000  0.500000  1
  P  P8  1  0.250000  0.167529  0.322848  1
  P  P9  1  0.250000  0.332471  0.822848  1
  P  P10  1  0.750000  0.667529  0.177152  1
  P  P11  1  0.750000  0.832471  0.677152  1
  H  H12  1  0.250000  0.739362  0.945012  1
  H  H13  1  0.750000  0.239362  0.554988  1
  H  H14  1  0.750000  0.260638  0.054988  1
  H  H15  1  0.250000  0.760638  0.445012  1
  O  O16  1  0.750000  0.185289  0.959377  1
  O  O17  1  0.250000  0.685289  0.540623  1
  O  O18  1  0.250000  0.373285  0.363735  1
  O  O19  1  0.045015  0.374443  0.721816  1
  O  O20  1  0.250000  0.062241  0.478201  1
  O  O21  1  0.454985  0.374443  0.721816  1
  O  O22  1  0.750000  0.937759  0.521799  1
  O  O23  1  0.545015  0.625557  0.278184  1
  O  O24  1  0.750000  0.626715  0.636265  1
  O  O25  1  0.250000  0.814711  0.040623  1
  O  O26  1  0.750000  0.562241  0.021799  1
  O  O27  1  0.250000  0.437759  0.978201  1
  O  O28  1  0.545015  0.874443  0.778184  1
  O  O29  1  0.250000  0.126715  0.863735  1
  O  O30  1  0.454985  0.125557  0.221816  1
  O  O31  1  0.954985  0.874443  0.778184  1
  O  O32  1  0.954985  0.625557  0.278184  1
  O  O33  1  0.750000  0.873285  0.136265  1
  O  O34  1  0.750000  0.314711  0.459377  1
  O  O35  1  0.045015  0.125557  0.221816  1
