# generated using pymatgen
data_Li3Sb5(PO4)6
_symmetry_space_group_name_H-M   'P 1'
_cell_length_a   8.78750761
_cell_length_b   8.64153219
_cell_length_c   8.78572281
_cell_angle_alpha   109.75628542
_cell_angle_beta   108.69989252
_cell_angle_gamma   109.01722096
_symmetry_Int_Tables_number   1
_chemical_formula_structural   Li3Sb5(PO4)6
_chemical_formula_sum   'Li3 Sb5 P6 O24'
_cell_volume   519.42384170
_cell_formula_units_Z   1
loop_
 _symmetry_equiv_pos_site_id
 _symmetry_equiv_pos_as_xyz
  1  'x, y, z'
loop_
 _atom_site_type_symbol
 _atom_site_label
 _atom_site_symmetry_multiplicity
 _atom_site_fract_x
 _atom_site_fract_y
 _atom_site_fract_z
 _atom_site_occupancy
  Li  Li0  1  0.462774  0.010158  0.270339  1
  Li  Li1  1  0.239036  0.194260  0.215411  1
  Li  Li2  1  0.780686  0.498687  0.987571  1
  O  O3  1  0.904412  0.073784  0.257234  1
  O  O4  1  0.662948  0.335168  0.072256  1
  O  O5  1  0.859243  0.149855  0.584762  1
  O  O6  1  0.658292  0.240280  0.314771  1
  O  O7  1  0.818037  0.736089  0.166935  1
  O  O8  1  0.436982  0.356089  0.190787  1
  O  O9  1  0.773100  0.580091  0.404321  1
  O  O10  1  0.737753  0.163670  0.809031  1
  O  O11  1  0.353516  0.162261  0.425404  1
  O  O12  1  0.572397  0.837261  0.152494  1
  O  O13  1  0.363407  0.102441  0.690675  1
  O  O14  1  0.318015  0.655193  0.244185  1
  O  O15  1  0.907562  0.656713  0.828273  1
  O  O16  1  0.197716  0.425651  0.357468  1
  O  O17  1  0.563453  0.432731  0.761026  1
  O  O18  1  0.218555  0.289716  0.628490  1
  O  O19  1  0.234779  0.930817  0.054173  1
  O  O20  1  0.849832  0.925545  0.708082  1
  O  O21  1  0.086725  0.659313  0.345723  1
  O  O22  1  0.420522  0.776064  0.581476  1
  O  O23  1  0.697002  0.832885  0.928162  1
  O  O24  1  0.075470  0.271687  0.927458  1
  O  O25  1  0.166006  0.590549  0.863732  1
  O  O26  1  0.127540  0.779312  0.708580  1
  P  P27  1  0.627583  0.371113  0.241299  1
  P  P28  1  0.883012  0.127646  0.757382  1
  P  P29  1  0.743314  0.865287  0.130210  1
  P  P30  1  0.376898  0.248189  0.617044  1
  P  P31  1  0.256048  0.624227  0.385186  1
  P  P32  1  0.115350  0.750401  0.871729  1
  Sb  Sb33  1  0.990004  0.313958  0.486560  1
  Sb  Sb34  1  0.330095  0.506086  0.018135  1
  Sb  Sb35  1  0.996119  0.817076  0.480899  1
  Sb  Sb36  1  0.523520  0.032352  0.847474  1
  Sb  Sb37  1  0.672296  0.655245  0.685265  1
