# generated using pymatgen
data_Ca4In2N
_symmetry_space_group_name_H-M   'P 1'
_cell_length_a   4.93531960
_cell_length_b   4.93531960
_cell_length_c   14.98903535
_cell_angle_alpha   99.47579884
_cell_angle_beta   99.47579884
_cell_angle_gamma   90.00000004
_symmetry_Int_Tables_number   1
_chemical_formula_structural   Ca4In2N
_chemical_formula_sum   'Ca8 In4 N2'
_cell_volume   355.06049798
_cell_formula_units_Z   2
loop_
 _symmetry_equiv_pos_site_id
 _symmetry_equiv_pos_as_xyz
  1  'x, y, z'
loop_
 _atom_site_type_symbol
 _atom_site_label
 _atom_site_symmetry_multiplicity
 _atom_site_fract_x
 _atom_site_fract_y
 _atom_site_fract_z
 _atom_site_occupancy
  N  N0  1  0.625000  0.875000  0.750000  1
  N  N1  1  0.375000  0.125000  0.250000  1
  Ca  Ca2  1  0.543832  0.793832  0.587665  1
  Ca  Ca3  1  0.375796  0.625796  0.251592  1
  Ca  Ca4  1  0.706168  0.956168  0.912335  1
  Ca  Ca5  1  0.293832  0.043832  0.087665  1
  Ca  Ca6  1  0.456168  0.206168  0.412335  1
  Ca  Ca7  1  0.874204  0.124204  0.248408  1
  Ca  Ca8  1  0.624204  0.374204  0.748408  1
  Ca  Ca9  1  0.125796  0.875796  0.751592  1
  In  In10  1  0.784502  0.534502  0.069005  1
  In  In11  1  0.034502  0.284502  0.569005  1
  In  In12  1  0.965498  0.715498  0.430995  1
  In  In13  1  0.215498  0.465498  0.930995  1
