# generated using pymatgen
data_Cu5Se2(ClO4)2
_symmetry_space_group_name_H-M   'P 1'
_cell_length_a   5.67813711
_cell_length_b   6.15563847
_cell_length_c   13.91093244
_cell_angle_alpha   90.00000000
_cell_angle_beta   90.00000000
_cell_angle_gamma   95.05372654
_symmetry_Int_Tables_number   1
_chemical_formula_structural   Cu5Se2(ClO4)2
_chemical_formula_sum   'Cu10 Se4 Cl4 O16'
_cell_volume   484.33251552
_cell_formula_units_Z   2
loop_
 _symmetry_equiv_pos_site_id
 _symmetry_equiv_pos_as_xyz
  1  'x, y, z'
loop_
 _atom_site_type_symbol
 _atom_site_label
 _atom_site_symmetry_multiplicity
 _atom_site_fract_x
 _atom_site_fract_y
 _atom_site_fract_z
 _atom_site_occupancy
  Cu  Cu0  1  0.509078  0.741574  0.003503  1
  Cu  Cu1  1  0.053130  0.433453  0.311918  1
  Cu  Cu2  1  0.946870  0.566546  0.688082  1
  Cu  Cu3  1  0.500000  0.500000  0.500000  1
  Cu  Cu4  1  0.553130  0.433453  0.188082  1
  Cu  Cu5  1  0.446870  0.566546  0.811918  1
  Cu  Cu6  1  0.009078  0.741574  0.496497  1
  Cu  Cu7  1  0.490922  0.258426  0.996497  1
  Cu  Cu8  1  0.000000  0.500000  0.000000  1
  Cu  Cu9  1  0.990922  0.258426  0.503503  1
  Se  Se10  1  0.599640  0.933900  0.634655  1
  Se  Se11  1  0.900360  0.066100  0.134655  1
  Se  Se12  1  0.099640  0.933900  0.865345  1
  Se  Se13  1  0.400360  0.066100  0.365345  1
  Cl  Cl14  1  0.229410  0.329928  0.675711  1
  Cl  Cl15  1  0.729410  0.329928  0.824289  1
  Cl  Cl16  1  0.770590  0.670072  0.324289  1
  Cl  Cl17  1  0.270590  0.670072  0.175711  1
  O  O18  1  0.426863  0.770024  0.556451  1
  O  O19  1  0.181919  0.505151  0.440986  1
  O  O20  1  0.630472  0.025651  0.073582  1
  O  O21  1  0.681919  0.505151  0.059014  1
  O  O22  1  0.314110  0.249285  0.277691  1
  O  O23  1  0.073137  0.229976  0.056451  1
  O  O24  1  0.573137  0.229976  0.443549  1
  O  O25  1  0.818081  0.494849  0.559014  1
  O  O26  1  0.869528  0.974349  0.573582  1
  O  O27  1  0.185890  0.750715  0.777691  1
  O  O28  1  0.685890  0.750715  0.722309  1
  O  O29  1  0.318081  0.494849  0.940986  1
  O  O30  1  0.814110  0.249285  0.222309  1
  O  O31  1  0.926863  0.770024  0.943549  1
  O  O32  1  0.130472  0.025651  0.426418  1
  O  O33  1  0.369528  0.974349  0.926418  1
