# generated using pymatgen
data_Rb2CuH4(Cl2O)2
_symmetry_space_group_name_H-M   'P 1'
_cell_length_a   7.79352466
_cell_length_b   7.79352466
_cell_length_c   8.08543560
_cell_angle_alpha   90.00000000
_cell_angle_beta   90.00000000
_cell_angle_gamma   90.00000000
_symmetry_Int_Tables_number   1
_chemical_formula_structural   Rb2CuH4(Cl2O)2
_chemical_formula_sum   'Rb4 Cu2 H8 Cl8 O4'
_cell_volume   491.10148819
_cell_formula_units_Z   2
loop_
 _symmetry_equiv_pos_site_id
 _symmetry_equiv_pos_as_xyz
  1  'x, y, z'
loop_
 _atom_site_type_symbol
 _atom_site_label
 _atom_site_symmetry_multiplicity
 _atom_site_fract_x
 _atom_site_fract_y
 _atom_site_fract_z
 _atom_site_occupancy
  H  H0  1  0.926788  0.926788  0.682949  1
  H  H1  1  0.073212  0.073212  0.682949  1
  H  H2  1  0.926788  0.926788  0.317051  1
  H  H3  1  0.426788  0.573212  0.182949  1
  H  H4  1  0.573212  0.426788  0.182949  1
  H  H5  1  0.073212  0.073212  0.317051  1
  H  H6  1  0.426788  0.573212  0.817051  1
  H  H7  1  0.573212  0.426788  0.817051  1
  O  O8  1  0.000000  0.000000  0.244374  1
  O  O9  1  0.500000  0.500000  0.744374  1
  O  O10  1  0.500000  0.500000  0.255626  1
  O  O11  1  0.000000  0.000000  0.755626  1
  Cl  Cl12  1  0.708033  0.291967  0.000000  1
  Cl  Cl13  1  0.793819  0.793819  0.000000  1
  Cl  Cl14  1  0.791967  0.791967  0.500000  1
  Cl  Cl15  1  0.293819  0.706181  0.500000  1
  Cl  Cl16  1  0.206181  0.206181  0.000000  1
  Cl  Cl17  1  0.208033  0.208033  0.500000  1
  Cl  Cl18  1  0.291967  0.708033  0.000000  1
  Cl  Cl19  1  0.706181  0.293819  0.500000  1
  Cu  Cu20  1  0.500000  0.500000  0.500000  1
  Cu  Cu21  1  0.000000  0.000000  0.000000  1
  Rb  Rb22  1  0.500000  0.000000  0.750000  1
  Rb  Rb23  1  0.500000  0.000000  0.250000  1
  Rb  Rb24  1  0.000000  0.500000  0.750000  1
  Rb  Rb25  1  0.000000  0.500000  0.250000  1
