# generated using pymatgen
data_H9C4NO4
_symmetry_space_group_name_H-M   'P 1'
_cell_length_a   5.64454410
_cell_length_b   10.21977994
_cell_length_c   11.95590873
_cell_angle_alpha   90.00000000
_cell_angle_beta   97.71064472
_cell_angle_gamma   90.00000000
_symmetry_Int_Tables_number   1
_chemical_formula_structural   H9C4NO4
_chemical_formula_sum   'H36 C16 N4 O16'
_cell_volume   683.45256980
_cell_formula_units_Z   4
loop_
 _symmetry_equiv_pos_site_id
 _symmetry_equiv_pos_as_xyz
  1  'x, y, z'
loop_
 _atom_site_type_symbol
 _atom_site_label
 _atom_site_symmetry_multiplicity
 _atom_site_fract_x
 _atom_site_fract_y
 _atom_site_fract_z
 _atom_site_occupancy
  H  H0  1  0.961889  0.188453  0.495219  1
  H  H1  1  0.420147  0.382692  0.208548  1
  H  H2  1  0.079853  0.882692  0.291452  1
  H  H3  1  0.579853  0.617308  0.791452  1
  H  H4  1  0.920147  0.117308  0.708548  1
  H  H5  1  0.602821  0.429817  0.336744  1
  H  H6  1  0.897179  0.929817  0.163256  1
  H  H7  1  0.397179  0.570183  0.663256  1
  H  H8  1  0.102821  0.070183  0.836744  1
  H  H9  1  0.626546  0.516003  0.207776  1
  H  H10  1  0.873454  0.016003  0.292224  1
  H  H11  1  0.373454  0.483997  0.792224  1
  H  H12  1  0.126546  0.983997  0.707776  1
  H  H13  1  0.010283  0.573058  0.365112  1
  H  H14  1  0.489717  0.073058  0.134888  1
  H  H15  1  0.989717  0.426942  0.634888  1
  H  H16  1  0.038111  0.811547  0.504781  1
  H  H17  1  0.461889  0.311547  0.995219  1
  H  H18  1  0.510283  0.926942  0.865112  1
  H  H19  1  0.538111  0.688453  0.004781  1
  H  H20  1  0.901979  0.860374  0.823095  1
  H  H21  1  0.598021  0.360374  0.676905  1
  H  H22  1  0.098021  0.139626  0.176905  1
  H  H23  1  0.401979  0.639626  0.323095  1
  H  H24  1  0.712530  0.911601  0.706815  1
  H  H25  1  0.787470  0.411601  0.793185  1
  H  H26  1  0.287470  0.088399  0.293185  1
  H  H27  1  0.212530  0.588399  0.206815  1
  H  H28  1  0.747310  0.024274  0.937483  1
  H  H29  1  0.752690  0.524274  0.562517  1
  H  H30  1  0.252690  0.975726  0.062517  1
  H  H31  1  0.247310  0.475726  0.437483  1
  H  H32  1  0.569269  0.087663  0.813947  1
  H  H33  1  0.930731  0.587663  0.686053  1
  H  H34  1  0.430731  0.912337  0.186053  1
  H  H35  1  0.069269  0.412337  0.313947  1
  C  C36  1  0.443786  0.824865  0.523999  1
  C  C37  1  0.504750  0.465056  0.257073  1
  C  C38  1  0.995250  0.965056  0.242927  1
  C  C39  1  0.495250  0.534944  0.742927  1
  C  C40  1  0.004750  0.034944  0.757073  1
  C  C41  1  0.149039  0.500826  0.354920  1
  C  C42  1  0.350961  0.000826  0.145080  1
  C  C43  1  0.850961  0.499174  0.645080  1
  C  C44  1  0.649039  0.999174  0.854920  1
  C  C45  1  0.180052  0.708857  0.975637  1
  C  C46  1  0.319948  0.208857  0.524363  1
  C  C47  1  0.819948  0.291143  0.024363  1
  C  C48  1  0.680052  0.791143  0.475637  1
  C  C49  1  0.943786  0.675135  0.023999  1
  C  C50  1  0.556214  0.175135  0.476001  1
  C  C51  1  0.056214  0.324865  0.976001  1
  N  N52  1  0.816789  0.941857  0.782667  1
  N  N53  1  0.683211  0.441857  0.717333  1
  N  N54  1  0.183211  0.058143  0.217333  1
  N  N55  1  0.316789  0.558143  0.282667  1
  O  O56  1  0.455462  0.887594  0.614625  1
  O  O57  1  0.044538  0.387594  0.885375  1
  O  O58  1  0.544538  0.112406  0.385375  1
  O  O59  1  0.955462  0.612406  0.114625  1
  O  O60  1  0.254607  0.781446  0.464705  1
  O  O61  1  0.245393  0.281446  0.035295  1
  O  O62  1  0.745393  0.218554  0.535295  1
  O  O63  1  0.754607  0.718554  0.964705  1
  O  O64  1  0.677400  0.725989  0.387884  1
  O  O65  1  0.822600  0.225989  0.112116  1
  O  O66  1  0.322600  0.274011  0.612116  1
  O  O67  1  0.177400  0.774011  0.887884  1
  O  O68  1  0.871953  0.835233  0.537684  1
  O  O69  1  0.628047  0.335233  0.962316  1
  O  O70  1  0.128047  0.164767  0.462316  1
  O  O71  1  0.371953  0.664767  0.037684  1
