# generated using pymatgen
data_FeSb6(Pb2S7)2
_symmetry_space_group_name_H-M   'P 1'
_cell_length_a   4.04394283
_cell_length_b   15.97091487
_cell_length_c   19.48387442
_cell_angle_alpha   90.00000000
_cell_angle_beta   90.00000000
_cell_angle_gamma   92.23017413
_symmetry_Int_Tables_number   1
_chemical_formula_structural   FeSb6(Pb2S7)2
_chemical_formula_sum   'Fe2 Sb12 Pb8 S28'
_cell_volume   1257.42198035
_cell_formula_units_Z   2
loop_
 _symmetry_equiv_pos_site_id
 _symmetry_equiv_pos_as_xyz
  1  'x, y, z'
loop_
 _atom_site_type_symbol
 _atom_site_label
 _atom_site_symmetry_multiplicity
 _atom_site_fract_x
 _atom_site_fract_y
 _atom_site_fract_z
 _atom_site_occupancy
  S  S0  1  0.893198  0.279762  0.798548  1
  S  S1  1  0.968273  0.215097  0.507088  1
  S  S2  1  0.031727  0.284903  0.007088  1
  S  S3  1  0.031727  0.784903  0.492912  1
  S  S4  1  0.968273  0.715097  0.992912  1
  S  S5  1  0.937231  0.499917  0.895771  1
  S  S6  1  0.062769  0.000083  0.395771  1
  S  S7  1  0.062769  0.500083  0.104229  1
  S  S8  1  0.937231  0.999917  0.604229  1
  S  S9  1  0.415954  0.449963  0.729987  1
  S  S10  1  0.015529  0.582214  0.600636  1
  S  S11  1  0.984471  0.917786  0.100636  1
  S  S12  1  0.984471  0.417786  0.399364  1
  S  S13  1  0.015529  0.082214  0.899364  1
  S  S14  1  0.474440  0.907051  0.955973  1
  S  S15  1  0.525560  0.592949  0.455973  1
  S  S16  1  0.525560  0.092949  0.044027  1
  S  S17  1  0.474440  0.407051  0.544027  1
  S  S18  1  0.442427  0.684264  0.838154  1
  S  S19  1  0.557573  0.815736  0.338154  1
  S  S20  1  0.557573  0.315736  0.161846  1
  S  S21  1  0.442427  0.184264  0.661846  1
  S  S22  1  0.893198  0.779762  0.701452  1
  S  S23  1  0.106802  0.720238  0.201452  1
  S  S24  1  0.106802  0.220238  0.298548  1
  S  S25  1  0.584046  0.550037  0.270013  1
  S  S26  1  0.415954  0.949963  0.770013  1
  S  S27  1  0.584046  0.050037  0.229987  1
  Fe  Fe28  1  0.000000  0.000000  0.000000  1
  Fe  Fe29  1  0.000000  0.500000  0.500000  1
  Sb  Sb30  1  0.407498  0.317145  0.440129  1
  Sb  Sb31  1  0.626516  0.896137  0.446291  1
  Sb  Sb32  1  0.373484  0.603863  0.946291  1
  Sb  Sb33  1  0.592502  0.182855  0.940129  1
  Sb  Sb34  1  0.407498  0.817145  0.059871  1
  Sb  Sb35  1  0.626516  0.396137  0.053709  1
  Sb  Sb36  1  0.592502  0.682855  0.559871  1
  Sb  Sb37  1  0.373484  0.103863  0.553709  1
  Sb  Sb38  1  0.372213  0.872478  0.660522  1
  Sb  Sb39  1  0.627787  0.627522  0.160522  1
  Sb  Sb40  1  0.627787  0.127522  0.339478  1
  Sb  Sb41  1  0.372213  0.372478  0.839478  1
  Pb  Pb42  1  0.962508  0.817406  0.863160  1
  Pb  Pb43  1  0.037492  0.682594  0.363160  1
  Pb  Pb44  1  0.037492  0.182594  0.136840  1
  Pb  Pb45  1  0.962508  0.317406  0.636840  1
  Pb  Pb46  1  0.935265  0.574959  0.757581  1
  Pb  Pb47  1  0.064735  0.925041  0.257581  1
  Pb  Pb48  1  0.064735  0.425041  0.242419  1
  Pb  Pb49  1  0.935265  0.074959  0.742419  1
