# generated using pymatgen
data_TbSiIr
_symmetry_space_group_name_H-M   'P 1'
_cell_length_a   4.26522550
_cell_length_b   6.92415518
_cell_length_c   7.40994534
_cell_angle_alpha   90.00000000
_cell_angle_beta   90.00000000
_cell_angle_gamma   90.00000000
_symmetry_Int_Tables_number   1
_chemical_formula_structural   TbSiIr
_chemical_formula_sum   'Tb4 Si4 Ir4'
_cell_volume   218.83853253
_cell_formula_units_Z   4
loop_
 _symmetry_equiv_pos_site_id
 _symmetry_equiv_pos_as_xyz
  1  'x, y, z'
loop_
 _atom_site_type_symbol
 _atom_site_label
 _atom_site_symmetry_multiplicity
 _atom_site_fract_x
 _atom_site_fract_y
 _atom_site_fract_z
 _atom_site_occupancy
  Si  Si0  1  0.250000  0.799760  0.107897  1
  Si  Si1  1  0.250000  0.299760  0.392103  1
  Si  Si2  1  0.750000  0.200240  0.892103  1
  Si  Si3  1  0.750000  0.700240  0.607897  1
  Tb  Tb4  1  0.750000  0.501753  0.186068  1
  Tb  Tb5  1  0.250000  0.998247  0.686068  1
  Tb  Tb6  1  0.750000  0.001753  0.313932  1
  Tb  Tb7  1  0.250000  0.498247  0.813932  1
  Ir  Ir8  1  0.250000  0.655955  0.429905  1
  Ir  Ir9  1  0.250000  0.155955  0.070095  1
  Ir  Ir10  1  0.750000  0.844045  0.929905  1
  Ir  Ir11  1  0.750000  0.344045  0.570095  1
