# generated using pymatgen
data_Li3NiPCO7
_symmetry_space_group_name_H-M   'P 1'
_cell_length_a   4.97542349
_cell_length_b   6.41532976
_cell_length_c   8.39651397
_cell_angle_alpha   90.00000000
_cell_angle_beta   84.32358869
_cell_angle_gamma   90.00000000
_symmetry_Int_Tables_number   1
_chemical_formula_structural   Li3NiPCO7
_chemical_formula_sum   'Li6 Ni2 P2 C2 O14'
_cell_volume   266.69397036
_cell_formula_units_Z   2
loop_
 _symmetry_equiv_pos_site_id
 _symmetry_equiv_pos_as_xyz
  1  'x, y, z'
loop_
 _atom_site_type_symbol
 _atom_site_label
 _atom_site_symmetry_multiplicity
 _atom_site_fract_x
 _atom_site_fract_y
 _atom_site_fract_z
 _atom_site_occupancy
  Li  Li0  1  0.735913  0.984560  0.724039  1
  Li  Li1  1  0.264087  0.015440  0.275961  1
  Li  Li2  1  0.787966  0.250000  0.104490  1
  Li  Li3  1  0.212034  0.750000  0.895510  1
  Li  Li4  1  0.264087  0.484560  0.275961  1
  Li  Li5  1  0.735913  0.515440  0.724039  1
  C  C6  1  0.684776  0.750000  0.041198  1
  C  C7  1  0.315224  0.250000  0.958802  1
  O  O8  1  0.499369  0.250000  0.836184  1
  O  O9  1  0.934790  0.750000  0.071814  1
  O  O10  1  0.163342  0.750000  0.420937  1
  O  O11  1  0.500631  0.750000  0.163816  1
  O  O12  1  0.166565  0.562263  0.692955  1
  O  O13  1  0.836658  0.250000  0.579063  1
  O  O14  1  0.166565  0.937737  0.692955  1
  O  O15  1  0.833435  0.437737  0.307045  1
  O  O16  1  0.833435  0.062263  0.307045  1
  O  O17  1  0.413726  0.250000  0.437500  1
  O  O18  1  0.616061  0.750000  0.896461  1
  O  O19  1  0.383939  0.250000  0.103539  1
  O  O20  1  0.586274  0.750000  0.562500  1
  O  O21  1  0.065210  0.250000  0.928186  1
  P  P22  1  0.729396  0.250000  0.413343  1
  P  P23  1  0.270604  0.750000  0.586657  1
  Ni  Ni24  1  0.792002  0.750000  0.331722  1
  Ni  Ni25  1  0.207998  0.250000  0.668278  1
