# generated using pymatgen
data_BCl2
_symmetry_space_group_name_H-M   'P 1'
_cell_length_a   6.71018110
_cell_length_b   8.45573206
_cell_length_c   12.77983828
_cell_angle_alpha   90.00000000
_cell_angle_beta   90.00000000
_cell_angle_gamma   90.00000000
_symmetry_Int_Tables_number   1
_chemical_formula_structural   BCl2
_chemical_formula_sum   'B8 Cl16'
_cell_volume   725.12155045
_cell_formula_units_Z   8
loop_
 _symmetry_equiv_pos_site_id
 _symmetry_equiv_pos_as_xyz
  1  'x, y, z'
loop_
 _atom_site_type_symbol
 _atom_site_label
 _atom_site_symmetry_multiplicity
 _atom_site_fract_x
 _atom_site_fract_y
 _atom_site_fract_z
 _atom_site_occupancy
  B  B0  1  0.394158  0.053274  0.513902  1
  B  B1  1  0.894158  0.446726  0.486098  1
  B  B2  1  0.605842  0.553274  0.986098  1
  B  B3  1  0.105842  0.946726  0.013902  1
  B  B4  1  0.605842  0.946726  0.486098  1
  B  B5  1  0.105842  0.553274  0.513902  1
  B  B6  1  0.394158  0.446726  0.013902  1
  B  B7  1  0.894158  0.053274  0.986098  1
  Cl  Cl8  1  0.787491  0.049470  0.861605  1
  Cl  Cl9  1  0.287491  0.450530  0.138395  1
  Cl  Cl10  1  0.212509  0.549470  0.638395  1
  Cl  Cl11  1  0.712509  0.950530  0.361605  1
  Cl  Cl12  1  0.212509  0.950530  0.138395  1
  Cl  Cl13  1  0.712509  0.549470  0.861605  1
  Cl  Cl14  1  0.787491  0.450530  0.361605  1
  Cl  Cl15  1  0.287491  0.049470  0.638395  1
  Cl  Cl16  1  0.279518  0.167726  0.416599  1
  Cl  Cl17  1  0.779518  0.332274  0.583401  1
  Cl  Cl18  1  0.720482  0.667726  0.083401  1
  Cl  Cl19  1  0.220482  0.832274  0.916599  1
  Cl  Cl20  1  0.720482  0.832274  0.583401  1
  Cl  Cl21  1  0.220482  0.667726  0.416599  1
  Cl  Cl22  1  0.279518  0.332274  0.916599  1
  Cl  Cl23  1  0.779518  0.167726  0.083401  1
