# generated using pymatgen
data_Rb2NiH12(SeO7)2
_symmetry_space_group_name_H-M   'P 1'
_cell_length_a   6.44359293
_cell_length_b   9.35999634
_cell_length_c   12.73553511
_cell_angle_alpha   90.00000000
_cell_angle_beta   90.00000000
_cell_angle_gamma   104.72862236
_symmetry_Int_Tables_number   1
_chemical_formula_structural   Rb2NiH12(SeO7)2
_chemical_formula_sum   'Rb4 Ni2 H24 Se4 O28'
_cell_volume   742.86638522
_cell_formula_units_Z   2
loop_
 _symmetry_equiv_pos_site_id
 _symmetry_equiv_pos_as_xyz
  1  'x, y, z'
loop_
 _atom_site_type_symbol
 _atom_site_label
 _atom_site_symmetry_multiplicity
 _atom_site_fract_x
 _atom_site_fract_y
 _atom_site_fract_z
 _atom_site_occupancy
  H  H0  1  0.680029  0.472098  0.363469  1
  H  H1  1  0.072206  0.766999  0.593800  1
  H  H2  1  0.927794  0.733001  0.093800  1
  H  H3  1  0.927794  0.233001  0.406200  1
  H  H4  1  0.072206  0.266999  0.906200  1
  H  H5  1  0.000366  0.643668  0.681477  1
  H  H6  1  0.999634  0.856332  0.181477  1
  H  H7  1  0.999634  0.356332  0.318523  1
  H  H8  1  0.000366  0.143668  0.818523  1
  H  H9  1  0.687131  0.296247  0.590305  1
  H  H10  1  0.312869  0.203753  0.090305  1
  H  H11  1  0.312869  0.703753  0.409695  1
  H  H12  1  0.687131  0.796247  0.909695  1
  H  H13  1  0.908390  0.261838  0.627547  1
  H  H14  1  0.319971  0.027902  0.863469  1
  H  H15  1  0.091610  0.238162  0.127547  1
  H  H16  1  0.680029  0.972098  0.136531  1
  H  H17  1  0.319971  0.527902  0.636531  1
  H  H18  1  0.329833  0.901898  0.944578  1
  H  H19  1  0.670167  0.598102  0.444578  1
  H  H20  1  0.670167  0.098102  0.055422  1
  H  H21  1  0.329833  0.401898  0.555422  1
  H  H22  1  0.091610  0.738162  0.372453  1
  H  H23  1  0.908390  0.761838  0.872453  1
  O  O24  1  0.162252  0.157820  0.111912  1
  O  O25  1  0.837748  0.342180  0.611912  1
  O  O26  1  0.162252  0.657820  0.388088  1
  O  O27  1  0.837748  0.842180  0.888088  1
  O  O28  1  0.422790  0.583883  0.755807  1
  O  O29  1  0.289098  0.497195  0.561900  1
  O  O30  1  0.710902  0.002805  0.061900  1
  O  O31  1  0.710902  0.502805  0.438100  1
  O  O32  1  0.289098  0.997195  0.938100  1
  O  O33  1  0.422790  0.083883  0.744193  1
  O  O34  1  0.973589  0.167587  0.892766  1
  O  O35  1  0.026411  0.332413  0.392766  1
  O  O36  1  0.026411  0.832413  0.107234  1
  O  O37  1  0.973589  0.667587  0.607234  1
  O  O38  1  0.577210  0.416117  0.244193  1
  O  O39  1  0.597775  0.763248  0.435033  1
  O  O40  1  0.402225  0.736752  0.935033  1
  O  O41  1  0.402225  0.236752  0.564967  1
  O  O42  1  0.597775  0.263248  0.064967  1
  O  O43  1  0.965350  0.872666  0.317358  1
  O  O44  1  0.034650  0.627334  0.817358  1
  O  O45  1  0.034650  0.127334  0.682642  1
  O  O46  1  0.965350  0.372666  0.182642  1
  O  O47  1  0.223214  0.441717  0.930824  1
  O  O48  1  0.223214  0.941717  0.569176  1
  O  O49  1  0.776786  0.558283  0.069176  1
  O  O50  1  0.577210  0.916117  0.255807  1
  O  O51  1  0.776786  0.058283  0.430824  1
  Ni  Ni52  1  0.000000  0.000000  0.000000  1
  Ni  Ni53  1  0.000000  0.500000  0.500000  1
  Se  Se54  1  0.732440  0.403737  0.140572  1
  Se  Se55  1  0.732440  0.903737  0.359428  1
  Se  Se56  1  0.267560  0.096263  0.640572  1
  Se  Se57  1  0.267560  0.596263  0.859428  1
  Rb  Rb58  1  0.341502  0.633642  0.154014  1
  Rb  Rb59  1  0.658498  0.866358  0.654014  1
  Rb  Rb60  1  0.658498  0.366358  0.845986  1
  Rb  Rb61  1  0.341502  0.133642  0.345986  1
