# generated using pymatgen
data_UGa3Pd2
_symmetry_space_group_name_H-M   'P 1'
_cell_length_a   5.35985611
_cell_length_b   5.35985611
_cell_length_c   8.62158508
_cell_angle_alpha   90.00000000
_cell_angle_beta   90.00000000
_cell_angle_gamma   120.00000006
_symmetry_Int_Tables_number   1
_chemical_formula_structural   UGa3Pd2
_chemical_formula_sum   'U2 Ga6 Pd4'
_cell_volume   214.49837751
_cell_formula_units_Z   2
loop_
 _symmetry_equiv_pos_site_id
 _symmetry_equiv_pos_as_xyz
  1  'x, y, z'
loop_
 _atom_site_type_symbol
 _atom_site_label
 _atom_site_symmetry_multiplicity
 _atom_site_fract_x
 _atom_site_fract_y
 _atom_site_fract_z
 _atom_site_occupancy
  Ga  Ga0  1  0.499940  0.999880  0.750000  1
  Ga  Ga1  1  0.500060  0.499940  0.250000  1
  Ga  Ga2  1  0.999880  0.499940  0.250000  1
  Ga  Ga3  1  0.000120  0.500060  0.750000  1
  Ga  Ga4  1  0.500060  0.000120  0.250000  1
  Ga  Ga5  1  0.499940  0.500060  0.750000  1
  Pd  Pd6  1  0.333333  0.666667  0.000186  1
  Pd  Pd7  1  0.666667  0.333333  0.999814  1
  Pd  Pd8  1  0.666667  0.333333  0.500186  1
  Pd  Pd9  1  0.333333  0.666667  0.499814  1
  U  U10  1  0.000000  0.000000  0.500000  1
  U  U11  1  0.000000  0.000000  0.000000  1
