# generated using pymatgen
data_Ba2CoWO6
_symmetry_space_group_name_H-M   'P 1'
_cell_length_a   5.84730568
_cell_length_b   5.81978979
_cell_length_c   5.82035315
_cell_angle_alpha   60.18081632
_cell_angle_beta   59.84034072
_cell_angle_gamma   59.84983811
_symmetry_Int_Tables_number   1
_chemical_formula_structural   Ba2CoWO6
_chemical_formula_sum   'Ba2 Co1 W1 O6'
_cell_volume   139.91481861
_cell_formula_units_Z   1
loop_
 _symmetry_equiv_pos_site_id
 _symmetry_equiv_pos_as_xyz
  1  'x, y, z'
loop_
 _atom_site_type_symbol
 _atom_site_label
 _atom_site_symmetry_multiplicity
 _atom_site_fract_x
 _atom_site_fract_y
 _atom_site_fract_z
 _atom_site_occupancy
  Ba  Ba0  1  0.750467  0.749533  0.749533  1
  Ba  Ba1  1  0.249533  0.250467  0.250467  1
  Co  Co2  1  0.000000  0.000000  0.000000  1
  W  W3  1  0.500000  0.500000  0.500000  1
  O  O4  1  0.260296  0.739704  0.739704  1
  O  O5  1  0.262215  0.262443  0.737557  1
  O  O6  1  0.737729  0.262478  0.737522  1
  O  O7  1  0.262271  0.737522  0.262478  1
  O  O8  1  0.737785  0.737557  0.262443  1
  O  O9  1  0.739704  0.260296  0.260296  1
