# generated using pymatgen
data_FePSe3
_symmetry_space_group_name_H-M   'P 1'
_cell_length_a   8.22451650
_cell_length_b   8.22451651
_cell_length_c   8.22451651
_cell_angle_alpha   44.84380425
_cell_angle_beta   44.84380424
_cell_angle_gamma   44.84380426
_symmetry_Int_Tables_number   1
_chemical_formula_structural   FePSe3
_chemical_formula_sum   'Fe2 P2 Se6'
_cell_volume   251.71581085
_cell_formula_units_Z   2
loop_
 _symmetry_equiv_pos_site_id
 _symmetry_equiv_pos_as_xyz
  1  'x, y, z'
loop_
 _atom_site_type_symbol
 _atom_site_label
 _atom_site_symmetry_multiplicity
 _atom_site_fract_x
 _atom_site_fract_y
 _atom_site_fract_z
 _atom_site_occupancy
  P  P0  1  0.548331  0.548331  0.548331  1
  P  P1  1  0.447961  0.447961  0.447961  1
  Fe  Fe2  1  0.831510  0.831510  0.831510  1
  Fe  Fe3  1  0.164786  0.164786  0.164786  1
  Se  Se4  1  0.424025  0.768451  0.079077  1
  Se  Se5  1  0.079077  0.424025  0.768451  1
  Se  Se6  1  0.768451  0.079077  0.424025  1
  Se  Se7  1  0.572437  0.227740  0.917182  1
  Se  Se8  1  0.917182  0.572437  0.227740  1
  Se  Se9  1  0.227740  0.917182  0.572437  1
