# generated using pymatgen
data_Si3PH9
_symmetry_space_group_name_H-M   'P 1'
_cell_length_a   6.36030547
_cell_length_b   10.15415579
_cell_length_c   13.15729183
_cell_angle_alpha   90.00000000
_cell_angle_beta   90.00000000
_cell_angle_gamma   95.12295264
_symmetry_Int_Tables_number   1
_chemical_formula_structural   Si3PH9
_chemical_formula_sum   'Si12 P4 H36'
_cell_volume   846.34997511
_cell_formula_units_Z   4
loop_
 _symmetry_equiv_pos_site_id
 _symmetry_equiv_pos_as_xyz
  1  'x, y, z'
loop_
 _atom_site_type_symbol
 _atom_site_label
 _atom_site_symmetry_multiplicity
 _atom_site_fract_x
 _atom_site_fract_y
 _atom_site_fract_z
 _atom_site_occupancy
  H  H0  1  0.170365  0.417736  0.975439  1
  H  H1  1  0.829635  0.082264  0.475439  1
  H  H2  1  0.829635  0.582264  0.024561  1
  H  H3  1  0.170365  0.917736  0.524561  1
  H  H4  1  0.170875  0.399825  0.790845  1
  H  H5  1  0.829125  0.100175  0.290845  1
  H  H6  1  0.829125  0.600175  0.209155  1
  H  H7  1  0.170875  0.899825  0.709155  1
  H  H8  1  0.196825  0.203929  0.895139  1
  H  H9  1  0.803175  0.296071  0.395139  1
  H  H10  1  0.803175  0.796071  0.104861  1
  H  H11  1  0.196825  0.703929  0.604861  1
  H  H12  1  0.795376  0.165757  0.682695  1
  H  H13  1  0.204624  0.334243  0.182695  1
  H  H14  1  0.204624  0.834243  0.317305  1
  H  H15  1  0.795376  0.665757  0.817305  1
  H  H16  1  0.849054  0.591435  0.450932  1
  H  H17  1  0.150946  0.908565  0.950932  1
  H  H18  1  0.150946  0.408565  0.549068  1
  H  H19  1  0.849054  0.091435  0.049068  1
  H  H20  1  0.755653  0.799962  0.380356  1
  H  H21  1  0.244347  0.700038  0.880356  1
  H  H22  1  0.244347  0.200038  0.619644  1
  H  H23  1  0.755653  0.299962  0.119644  1
  H  H24  1  0.483162  0.643912  0.451326  1
  H  H25  1  0.516838  0.856088  0.951326  1
  H  H26  1  0.516838  0.356088  0.548674  1
  H  H27  1  0.483162  0.143912  0.048674  1
  H  H28  1  0.838205  0.516143  0.675520  1
  H  H29  1  0.161795  0.983857  0.175520  1
  H  H30  1  0.161795  0.483857  0.324480  1
  H  H31  1  0.838205  0.016143  0.824480  1
  H  H32  1  0.487378  0.574709  0.722383  1
  H  H33  1  0.512622  0.925291  0.222383  1
  H  H34  1  0.512622  0.425291  0.277617  1
  H  H35  1  0.487378  0.074709  0.777617  1
  Si  Si36  1  0.099729  0.332295  0.887240  1
  Si  Si37  1  0.900271  0.167705  0.387240  1
  Si  Si38  1  0.900271  0.667705  0.112760  1
  Si  Si39  1  0.099729  0.832295  0.612760  1
  Si  Si40  1  0.714907  0.124074  0.785435  1
  Si  Si41  1  0.285093  0.375926  0.285435  1
  Si  Si42  1  0.285093  0.875926  0.214565  1
  Si  Si43  1  0.714907  0.624074  0.714565  1
  Si  Si44  1  0.707084  0.200202  0.037628  1
  Si  Si45  1  0.292916  0.299798  0.537628  1
  Si  Si46  1  0.292916  0.799798  0.962372  1
  Si  Si47  1  0.707084  0.700202  0.462372  1
  P  P48  1  0.742634  0.305417  0.886432  1
  P  P49  1  0.257366  0.194583  0.386432  1
  P  P50  1  0.257366  0.694583  0.113568  1
  P  P51  1  0.742634  0.805417  0.613568  1
