# generated using pymatgen
data_Ca3(AlAs2)2
_symmetry_space_group_name_H-M   'P 1'
_cell_length_a   8.28372220
_cell_length_b   7.89007891
_cell_length_c   7.89007891
_cell_angle_alpha   62.13302542
_cell_angle_beta   87.08090675
_cell_angle_gamma   87.08090680
_symmetry_Int_Tables_number   1
_chemical_formula_structural   Ca3(AlAs2)2
_chemical_formula_sum   'Ca6 Al4 As8'
_cell_volume   455.08117556
_cell_formula_units_Z   2
loop_
 _symmetry_equiv_pos_site_id
 _symmetry_equiv_pos_as_xyz
  1  'x, y, z'
loop_
 _atom_site_type_symbol
 _atom_site_label
 _atom_site_symmetry_multiplicity
 _atom_site_fract_x
 _atom_site_fract_y
 _atom_site_fract_z
 _atom_site_occupancy
  Al  Al0  1  0.457349  0.808552  0.582326  1
  Al  Al1  1  0.042651  0.417674  0.191448  1
  Al  Al2  1  0.542651  0.191448  0.417674  1
  Al  Al3  1  0.957349  0.582326  0.808552  1
  Ca  Ca4  1  0.750000  0.152235  0.847765  1
  Ca  Ca5  1  0.861851  0.914324  0.365762  1
  Ca  Ca6  1  0.138149  0.085676  0.634238  1
  Ca  Ca7  1  0.361851  0.365762  0.914324  1
  Ca  Ca8  1  0.250000  0.847765  0.152235  1
  Ca  Ca9  1  0.638149  0.634238  0.085676  1
  As  As10  1  0.670994  0.557684  0.735192  1
  As  As11  1  0.829006  0.264808  0.442316  1
  As  As12  1  0.170994  0.735192  0.557684  1
  As  As13  1  0.329006  0.442316  0.264808  1
  As  As14  1  0.963292  0.771115  0.999520  1
  As  As15  1  0.536708  0.000480  0.228885  1
  As  As16  1  0.036708  0.228885  0.000480  1
  As  As17  1  0.463292  0.999520  0.771115  1
