# generated using pymatgen
data_DyMnSi
_symmetry_space_group_name_H-M   'P 1'
_cell_length_a   4.11371715
_cell_length_b   7.00170796
_cell_length_c   7.55423661
_cell_angle_alpha   90.00000000
_cell_angle_beta   90.00000000
_cell_angle_gamma   90.00000000
_symmetry_Int_Tables_number   1
_chemical_formula_structural   DyMnSi
_chemical_formula_sum   'Dy4 Mn4 Si4'
_cell_volume   217.58502544
_cell_formula_units_Z   4
loop_
 _symmetry_equiv_pos_site_id
 _symmetry_equiv_pos_as_xyz
  1  'x, y, z'
loop_
 _atom_site_type_symbol
 _atom_site_label
 _atom_site_symmetry_multiplicity
 _atom_site_fract_x
 _atom_site_fract_y
 _atom_site_fract_z
 _atom_site_occupancy
  Si  Si0  1  0.250000  0.288997  0.890026  1
  Si  Si1  1  0.750000  0.711003  0.109974  1
  Si  Si2  1  0.250000  0.788997  0.609974  1
  Si  Si3  1  0.750000  0.211003  0.390026  1
  Mn  Mn4  1  0.750000  0.862126  0.441536  1
  Mn  Mn5  1  0.250000  0.137874  0.558464  1
  Mn  Mn6  1  0.750000  0.362126  0.058464  1
  Mn  Mn7  1  0.250000  0.637874  0.941536  1
  Dy  Dy8  1  0.250000  0.007670  0.185817  1
  Dy  Dy9  1  0.750000  0.992330  0.814183  1
  Dy  Dy10  1  0.250000  0.507670  0.314183  1
  Dy  Dy11  1  0.750000  0.492330  0.685817  1
