# generated using pymatgen
data_Cu2Cl2O
_symmetry_space_group_name_H-M   'P 1'
_cell_length_a   6.19251978
_cell_length_b   6.19251978
_cell_length_c   6.40079338
_cell_angle_alpha   114.10711103
_cell_angle_beta   114.10711107
_cell_angle_gamma   98.95380272
_symmetry_Int_Tables_number   1
_chemical_formula_structural   Cu2Cl2O
_chemical_formula_sum   'Cu4 Cl4 O2'
_cell_volume   188.56732391
_cell_formula_units_Z   2
loop_
 _symmetry_equiv_pos_site_id
 _symmetry_equiv_pos_as_xyz
  1  'x, y, z'
loop_
 _atom_site_type_symbol
 _atom_site_label
 _atom_site_symmetry_multiplicity
 _atom_site_fract_x
 _atom_site_fract_y
 _atom_site_fract_z
 _atom_site_occupancy
  O  O0  1  0.375000  0.625000  0.250000  1
  O  O1  1  0.625000  0.375000  0.750000  1
  Cl  Cl2  1  0.663148  0.913148  0.826297  1
  Cl  Cl3  1  0.086852  0.336852  0.673703  1
  Cl  Cl4  1  0.913148  0.663148  0.326297  1
  Cl  Cl5  1  0.336852  0.086852  0.173703  1
  Cu  Cu6  1  0.000000  0.500000  0.000000  1
  Cu  Cu7  1  0.500000  0.500000  0.500000  1
  Cu  Cu8  1  0.500000  0.000000  0.500000  1
  Cu  Cu9  1  0.500000  0.500000  0.000000  1
