# generated using pymatgen
data_Na4Al3Si3ClO12
_symmetry_space_group_name_H-M   'P 1'
_cell_length_a   8.99965998
_cell_length_b   8.99965998
_cell_length_c   8.99965998
_cell_angle_alpha   90.00000000
_cell_angle_beta   90.00000000
_cell_angle_gamma   90.00000000
_symmetry_Int_Tables_number   1
_chemical_formula_structural   Na4Al3Si3ClO12
_chemical_formula_sum   'Na8 Al6 Si6 Cl2 O24'
_cell_volume   728.91737826
_cell_formula_units_Z   2
loop_
 _symmetry_equiv_pos_site_id
 _symmetry_equiv_pos_as_xyz
  1  'x, y, z'
loop_
 _atom_site_type_symbol
 _atom_site_label
 _atom_site_symmetry_multiplicity
 _atom_site_fract_x
 _atom_site_fract_y
 _atom_site_fract_z
 _atom_site_occupancy
  Na  Na0  1  0.178303  0.178303  0.178303  1
  Na  Na1  1  0.178303  0.821697  0.821697  1
  Na  Na2  1  0.320932  0.320932  0.679068  1
  Na  Na3  1  0.320932  0.679068  0.320932  1
  Na  Na4  1  0.679068  0.320932  0.320932  1
  Na  Na5  1  0.679068  0.679068  0.679068  1
  Na  Na6  1  0.821697  0.178303  0.821697  1
  Na  Na7  1  0.821697  0.821697  0.178303  1
  Al  Al8  1  0.250388  0.500000  0.000000  1
  Al  Al9  1  0.500000  0.000000  0.749612  1
  Al  Al10  1  0.500000  0.000000  0.250388  1
  Al  Al11  1  0.749612  0.500000  0.000000  1
  Al  Al12  1  0.000000  0.250388  0.500000  1
  Al  Al13  1  0.000000  0.749612  0.500000  1
  Si  Si14  1  0.250059  0.000000  0.500000  1
  Si  Si15  1  0.500000  0.749941  0.000000  1
  Si  Si16  1  0.500000  0.250059  0.000000  1
  Si  Si17  1  0.749941  0.000000  0.500000  1
  Si  Si18  1  0.000000  0.500000  0.749941  1
  Si  Si19  1  0.000000  0.500000  0.250059  1
  Cl  Cl20  1  0.000000  0.000000  0.000000  1
  Cl  Cl21  1  0.500000  0.500000  0.500000  1
  O  O22  1  0.060225  0.360097  0.649953  1
  O  O23  1  0.060225  0.639903  0.350047  1
  O  O24  1  0.149571  0.140101  0.440543  1
  O  O25  1  0.140101  0.440543  0.149571  1
  O  O26  1  0.140101  0.559457  0.850429  1
  O  O27  1  0.149571  0.859899  0.559457  1
  O  O28  1  0.350047  0.060225  0.639903  1
  O  O29  1  0.360097  0.350047  0.939775  1
  O  O30  1  0.360097  0.649953  0.060225  1
  O  O31  1  0.350047  0.939775  0.360097  1
  O  O32  1  0.440543  0.149571  0.140101  1
  O  O33  1  0.440543  0.850429  0.859899  1
  O  O34  1  0.559457  0.149571  0.859899  1
  O  O35  1  0.559457  0.850429  0.140101  1
  O  O36  1  0.649953  0.060225  0.360097  1
  O  O37  1  0.639903  0.350047  0.060225  1
  O  O38  1  0.639903  0.649953  0.939775  1
  O  O39  1  0.649953  0.939775  0.639903  1
  O  O40  1  0.850429  0.140101  0.559457  1
  O  O41  1  0.859899  0.559457  0.149571  1
  O  O42  1  0.859899  0.440543  0.850429  1
  O  O43  1  0.850429  0.859899  0.440543  1
  O  O44  1  0.939775  0.360097  0.350047  1
  O  O45  1  0.939775  0.639903  0.649953  1
