# generated using pymatgen
data_Na2FeCu(CN)6
_symmetry_space_group_name_H-M   'P 1'
_cell_length_a   7.24571849
_cell_length_b   7.24571848
_cell_length_c   7.24571849
_cell_angle_alpha   60.00000002
_cell_angle_beta   60.00000003
_cell_angle_gamma   60.00000001
_symmetry_Int_Tables_number   1
_chemical_formula_structural   Na2FeCu(CN)6
_chemical_formula_sum   'Na2 Fe1 Cu1 C6 N6'
_cell_volume   268.98581152
_cell_formula_units_Z   1
loop_
 _symmetry_equiv_pos_site_id
 _symmetry_equiv_pos_as_xyz
  1  'x, y, z'
loop_
 _atom_site_type_symbol
 _atom_site_label
 _atom_site_symmetry_multiplicity
 _atom_site_fract_x
 _atom_site_fract_y
 _atom_site_fract_z
 _atom_site_occupancy
  C  C0  1  0.182268  0.817732  0.182268  1
  C  C1  1  0.817732  0.182268  0.817732  1
  C  C2  1  0.182268  0.817732  0.817732  1
  C  C3  1  0.817732  0.817732  0.182268  1
  C  C4  1  0.817732  0.182268  0.182268  1
  C  C5  1  0.182268  0.182268  0.817732  1
  N  N6  1  0.702570  0.702570  0.297430  1
  N  N7  1  0.297430  0.702570  0.702570  1
  N  N8  1  0.702570  0.297430  0.702570  1
  N  N9  1  0.297430  0.702570  0.297430  1
  N  N10  1  0.702570  0.297430  0.297430  1
  N  N11  1  0.297430  0.297430  0.702570  1
  Na  Na12  1  0.250000  0.250000  0.250000  1
  Na  Na13  1  0.750000  0.750000  0.750000  1
  Fe  Fe14  1  0.000000  0.000000  0.000000  1
  Cu  Cu15  1  0.500000  0.500000  0.500000  1
