# generated using pymatgen
data_Pb(ClO3)2
_symmetry_space_group_name_H-M   'P 1'
_cell_length_a   7.09291900
_cell_length_b   7.09291900
_cell_length_c   7.45430725
_cell_angle_alpha   106.54391394
_cell_angle_beta   106.54391400
_cell_angle_gamma   113.67094277
_symmetry_Int_Tables_number   1
_chemical_formula_structural   Pb(ClO3)2
_chemical_formula_sum   'Pb2 Cl4 O12'
_cell_volume   293.27120857
_cell_formula_units_Z   2
loop_
 _symmetry_equiv_pos_site_id
 _symmetry_equiv_pos_as_xyz
  1  'x, y, z'
loop_
 _atom_site_type_symbol
 _atom_site_label
 _atom_site_symmetry_multiplicity
 _atom_site_fract_x
 _atom_site_fract_y
 _atom_site_fract_z
 _atom_site_occupancy
  O  O0  1  0.205728  0.449138  0.584965  1
  O  O1  1  0.864174  0.620764  0.415035  1
  O  O2  1  0.199138  0.455728  0.084965  1
  O  O3  1  0.370764  0.114174  0.915035  1
  O  O4  1  0.343294  0.865336  0.244258  1
  O  O5  1  0.621078  0.099036  0.755742  1
  O  O6  1  0.729973  0.144971  0.107335  1
  O  O7  1  0.037635  0.622637  0.892665  1
  O  O8  1  0.894971  0.979973  0.607335  1
  O  O9  1  0.372637  0.287635  0.392665  1
  O  O10  1  0.849036  0.871078  0.255742  1
  O  O11  1  0.615336  0.593294  0.744258  1
  Cl  Cl12  1  0.409644  0.513552  0.543726  1
  Cl  Cl13  1  0.969827  0.865919  0.456274  1
  Cl  Cl14  1  0.263552  0.659644  0.043726  1
  Cl  Cl15  1  0.615919  0.219827  0.956274  1
  Pb  Pb16  1  0.745847  0.245847  0.500000  1
  Pb  Pb17  1  0.995847  0.995847  0.000000  1
