# generated using pymatgen
data_Nb6I11
_symmetry_space_group_name_H-M   'P 1'
_cell_length_a   11.63826929
_cell_length_b   13.79342403
_cell_length_c   16.24922190
_cell_angle_alpha   90.00000000
_cell_angle_beta   90.00000000
_cell_angle_gamma   90.00000000
_symmetry_Int_Tables_number   1
_chemical_formula_structural   Nb6I11
_chemical_formula_sum   'Nb24 I44'
_cell_volume   2608.51331887
_cell_formula_units_Z   4
loop_
 _symmetry_equiv_pos_site_id
 _symmetry_equiv_pos_as_xyz
  1  'x, y, z'
loop_
 _atom_site_type_symbol
 _atom_site_label
 _atom_site_symmetry_multiplicity
 _atom_site_fract_x
 _atom_site_fract_y
 _atom_site_fract_z
 _atom_site_occupancy
  Nb  Nb0  1  0.095680  0.770011  0.103340  1
  Nb  Nb1  1  0.595680  0.229989  0.896660  1
  Nb  Nb2  1  0.595680  0.729989  0.603340  1
  Nb  Nb3  1  0.095680  0.270011  0.396660  1
  Nb  Nb4  1  0.903891  0.729764  0.898530  1
  Nb  Nb5  1  0.403891  0.270236  0.101470  1
  Nb  Nb6  1  0.403891  0.770236  0.398530  1
  Nb  Nb7  1  0.903891  0.229764  0.601470  1
  Nb  Nb8  1  0.126591  0.667202  0.953193  1
  Nb  Nb9  1  0.626591  0.332798  0.046807  1
  Nb  Nb10  1  0.626591  0.832798  0.453193  1
  Nb  Nb11  1  0.126591  0.167202  0.546807  1
  Nb  Nb12  1  0.873219  0.832692  0.048504  1
  Nb  Nb13  1  0.373219  0.167308  0.951496  1
  Nb  Nb14  1  0.373219  0.667308  0.548504  1
  Nb  Nb15  1  0.873219  0.332692  0.451496  1
  Nb  Nb16  1  0.927194  0.630795  0.050272  1
  Nb  Nb17  1  0.427194  0.369205  0.949728  1
  Nb  Nb18  1  0.427194  0.869205  0.550272  1
  Nb  Nb19  1  0.927194  0.130795  0.449728  1
  Nb  Nb20  1  0.072663  0.868879  0.951412  1
  Nb  Nb21  1  0.572663  0.131121  0.048588  1
  Nb  Nb22  1  0.572663  0.631121  0.451412  1
  Nb  Nb23  1  0.072663  0.368879  0.548588  1
  I  I24  1  0.148428  0.565854  0.109810  1
  I  I25  1  0.648428  0.434146  0.890190  1
  I  I26  1  0.648428  0.934146  0.609810  1
  I  I27  1  0.148428  0.065854  0.390190  1
  I  I28  1  0.851478  0.933909  0.891928  1
  I  I29  1  0.351478  0.066091  0.108072  1
  I  I30  1  0.351478  0.566091  0.391928  1
  I  I31  1  0.851478  0.433909  0.608072  1
  I  I32  1  0.036335  0.975113  0.104335  1
  I  I33  1  0.536335  0.024887  0.895665  1
  I  I34  1  0.536335  0.524887  0.604335  1
  I  I35  1  0.036335  0.475113  0.395665  1
  I  I36  1  0.963721  0.524845  0.897147  1
  I  I37  1  0.463721  0.475155  0.102853  1
  I  I38  1  0.463721  0.975155  0.397147  1
  I  I39  1  0.963721  0.024845  0.602853  1
  I  I40  1  0.899225  0.732196  0.205631  1
  I  I41  1  0.399225  0.267804  0.794369  1
  I  I42  1  0.399225  0.767804  0.705631  1
  I  I43  1  0.899225  0.232196  0.294369  1
  I  I44  1  0.100044  0.767556  0.796001  1
  I  I45  1  0.600044  0.232444  0.203999  1
  I  I46  1  0.600044  0.732444  0.296001  1
  I  I47  1  0.100044  0.267556  0.703999  1
  I  I48  1  0.299056  0.805743  0.003812  1
  I  I49  1  0.799056  0.194257  0.996188  1
  I  I50  1  0.799056  0.694257  0.503812  1
  I  I51  1  0.299056  0.305743  0.496188  1
  I  I52  1  0.700766  0.693901  -0.001585  1
  I  I53  1  0.200766  0.306099  1.001585  1
  I  I54  1  0.200766  0.806099  0.498415  1
  I  I55  1  0.700766  0.193901  0.501585  1
  I  I56  1  0.818238  0.451957  0.119617  1
  I  I57  1  0.318238  0.548043  0.880383  1
  I  I58  1  0.318238  0.048043  0.619617  1
  I  I59  1  0.818238  0.951957  0.380383  1
  I  I60  1  0.181806  0.046793  0.880286  1
  I  I61  1  0.681806  0.953207  0.119714  1
  I  I62  1  0.681806  0.453207  0.380286  1
  I  I63  1  0.181806  0.546793  0.619714  1
  I  I64  1  0.248365  0.809638  0.251641  1
  I  I65  1  0.748365  0.190362  0.748359  1
  I  I66  1  0.748365  0.690362  0.751641  1
  I  I67  1  0.248365  0.309638  0.248359  1
