# generated using pymatgen
data_Ba2In2S5
_symmetry_space_group_name_H-M   'P 1'
_cell_length_a   11.99404864
_cell_length_b   12.92485981
_cell_length_c   13.39899319
_cell_angle_alpha   90.00000000
_cell_angle_beta   90.00000000
_cell_angle_gamma   90.00000000
_symmetry_Int_Tables_number   1
_chemical_formula_structural   Ba2In2S5
_chemical_formula_sum   'Ba16 In16 S40'
_cell_volume   2077.13064574
_cell_formula_units_Z   8
loop_
 _symmetry_equiv_pos_site_id
 _symmetry_equiv_pos_as_xyz
  1  'x, y, z'
loop_
 _atom_site_type_symbol
 _atom_site_label
 _atom_site_symmetry_multiplicity
 _atom_site_fract_x
 _atom_site_fract_y
 _atom_site_fract_z
 _atom_site_occupancy
  S  S0  1  0.757157  0.356410  0.540410  1
  S  S1  1  0.257157  0.643590  0.959590  1
  S  S2  1  0.742843  0.856410  0.459590  1
  S  S3  1  0.242843  0.143590  0.040410  1
  S  S4  1  0.242843  0.643590  0.459590  1
  S  S5  1  0.742843  0.356410  0.040410  1
  S  S6  1  0.257157  0.143590  0.540410  1
  S  S7  1  0.757157  0.856410  0.959590  1
  S  S8  1  0.241601  0.487811  0.208949  1
  S  S9  1  0.741601  0.512189  0.291051  1
  S  S10  1  0.258399  0.987811  0.791051  1
  S  S11  1  0.758399  0.012189  0.708949  1
  S  S12  1  0.758399  0.512189  0.791051  1
  S  S13  1  0.258399  0.487811  0.708949  1
  S  S14  1  0.741601  0.012189  0.208949  1
  S  S15  1  0.241601  0.987811  0.291051  1
  S  S16  1  0.430885  0.388942  0.430022  1
  S  S17  1  1.001987  0.221861  0.723497  1
  S  S18  1  0.930885  0.611058  0.069978  1
  S  S19  1  0.569115  0.111058  0.930022  1
  S  S20  1  0.569115  0.611058  0.569978  1
  S  S21  1  0.069115  0.388942  0.930022  1
  S  S22  1  0.930885  0.111058  0.430022  1
  S  S23  1  0.430885  0.888942  0.069978  1
  S  S24  1  0.905955  0.121494  0.974789  1
  S  S25  1  0.405955  0.878506  0.525211  1
  S  S26  1  0.594045  0.621494  0.025211  1
  S  S27  1  0.094045  0.378506  0.474789  1
  S  S28  1  0.094045  0.878506  0.025211  1
  S  S29  1  0.594045  0.121494  0.474789  1
  S  S30  1  0.405955  0.378506  0.974789  1
  S  S31  1  0.905955  0.621494  0.525211  1
  S  S32  1  1.001987  0.721861  0.776503  1
  S  S33  1  0.501987  0.278139  0.723497  1
  S  S34  1  0.498013  0.221861  0.223497  1
  S  S35  1  -0.001987  0.778139  0.276503  1
  S  S36  1  -0.001987  0.278139  0.223497  1
  S  S37  1  0.498013  0.721861  0.276503  1
  S  S38  1  0.501987  0.778139  0.776503  1
  S  S39  1  0.069115  0.888942  0.569978  1
  In  In40  1  0.557434  0.299114  0.550042  1
  In  In41  1  0.057434  0.700886  0.949958  1
  In  In42  1  0.942566  0.799114  0.449958  1
  In  In43  1  0.442566  0.200886  0.050042  1
  In  In44  1  0.442566  0.700886  0.449958  1
  In  In45  1  0.942566  0.299114  0.050042  1
  In  In46  1  0.057434  0.200886  0.550042  1
  In  In47  1  0.557434  0.799114  0.949958  1
  In  In48  1  0.774695  0.534659  0.972269  1
  In  In49  1  0.274695  0.465341  0.527731  1
  In  In50  1  0.725305  0.034659  0.027731  1
  In  In51  1  0.225305  0.965341  0.472269  1
  In  In52  1  0.225305  0.465341  0.027731  1
  In  In53  1  0.725305  0.534659  0.472269  1
  In  In54  1  0.274695  0.965341  0.972269  1
  In  In55  1  0.774695  0.034659  0.527731  1
  Ba  Ba56  1  0.751553  0.253730  0.308845  1
  Ba  Ba57  1  0.251553  0.746270  0.191155  1
  Ba  Ba58  1  0.748447  0.753730  0.691155  1
  Ba  Ba59  1  0.248447  0.246270  0.808845  1
  Ba  Ba60  1  0.248447  0.746270  0.691155  1
  Ba  Ba61  1  0.748447  0.253730  0.808845  1
  Ba  Ba62  1  0.251553  0.246270  0.308845  1
  Ba  Ba63  1  0.751553  0.753730  0.191155  1
  Ba  Ba64  1  0.505251  0.474398  0.194021  1
  Ba  Ba65  1  0.005251  0.525602  0.305979  1
  Ba  Ba66  1  0.994749  0.974398  0.805979  1
  Ba  Ba67  1  0.494749  0.025602  0.694021  1
  Ba  Ba68  1  0.494749  0.525602  0.805979  1
  Ba  Ba69  1  0.994749  0.474398  0.694021  1
  Ba  Ba70  1  0.005251  0.025602  0.194021  1
  Ba  Ba71  1  0.505251  0.974398  0.305979  1
