# generated using pymatgen
data_MoH8S2(NO)2
_symmetry_space_group_name_H-M   'P 1'
_cell_length_a   6.85886922
_cell_length_b   6.85886921
_cell_length_c   9.42672157
_cell_angle_alpha   93.37695620
_cell_angle_beta   110.60528257
_cell_angle_gamma   115.80806563
_symmetry_Int_Tables_number   1
_chemical_formula_structural   MoH8S2(NO)2
_chemical_formula_sum   'Mo2 H16 S4 N4 O4'
_cell_volume   361.66462709
_cell_formula_units_Z   2
loop_
 _symmetry_equiv_pos_site_id
 _symmetry_equiv_pos_as_xyz
  1  'x, y, z'
loop_
 _atom_site_type_symbol
 _atom_site_label
 _atom_site_symmetry_multiplicity
 _atom_site_fract_x
 _atom_site_fract_y
 _atom_site_fract_z
 _atom_site_occupancy
  H  H0  1  0.202626  0.149472  0.811988  1
  H  H1  1  0.337484  0.890638  0.688012  1
  H  H2  1  0.797374  0.850528  0.188012  1
  H  H3  1  0.662516  0.109362  0.311988  1
  H  H4  1  0.850459  0.787634  0.034206  1
  H  H5  1  0.753428  0.316253  0.465794  1
  H  H6  1  0.149541  0.212366  0.965794  1
  H  H7  1  0.246572  0.683747  0.534206  1
  H  H8  1  0.848601  0.380217  0.321911  1
  H  H9  1  0.058306  0.026690  0.178089  1
  H  H10  1  0.151399  0.619783  0.678089  1
  H  H11  1  0.941694  0.973310  0.821911  1
  H  H12  1  0.445017  0.710392  0.716078  1
  H  H13  1  0.994314  0.228939  0.783922  1
  H  H14  1  0.005686  0.771061  0.216078  1
  H  H15  1  0.554983  0.289608  0.283922  1
  N  N16  1  0.071305  0.140265  0.845382  1
  N  N17  1  0.294883  0.725922  0.654618  1
  N  N18  1  0.928695  0.859735  0.154618  1
  N  N19  1  0.705117  0.274078  0.345382  1
  O  O20  1  0.876743  0.406300  0.679817  1
  O  O21  1  0.726483  0.696926  0.820183  1
  O  O22  1  0.123257  0.593700  0.320183  1
  O  O23  1  0.273517  0.303074  0.179817  1
  S  S24  1  0.666171  0.243241  0.940342  1
  S  S25  1  0.302899  0.225829  0.559658  1
  S  S26  1  0.333829  0.756759  0.059658  1
  S  S27  1  0.697101  0.774171  0.440342  1
  Mo  Mo28  1  0.665534  0.415534  0.750000  1
  Mo  Mo29  1  0.334466  0.584466  0.250000  1
