# generated using pymatgen
data_AgH5S2O9
_symmetry_space_group_name_H-M   'P 1'
_cell_length_a   7.41014569
_cell_length_b   8.28320654
_cell_length_c   13.30717479
_cell_angle_alpha   90.00000000
_cell_angle_beta   90.00000000
_cell_angle_gamma   107.72294623
_symmetry_Int_Tables_number   1
_chemical_formula_structural   AgH5S2O9
_chemical_formula_sum   'Ag4 H20 S8 O36'
_cell_volume   778.02608514
_cell_formula_units_Z   4
loop_
 _symmetry_equiv_pos_site_id
 _symmetry_equiv_pos_as_xyz
  1  'x, y, z'
loop_
 _atom_site_type_symbol
 _atom_site_label
 _atom_site_symmetry_multiplicity
 _atom_site_fract_x
 _atom_site_fract_y
 _atom_site_fract_z
 _atom_site_occupancy
  H  H0  1  0.687480  0.454848  0.772494  1
  H  H1  1  0.312520  0.045152  0.272494  1
  H  H2  1  0.312520  0.545152  0.227506  1
  H  H3  1  0.687480  0.954848  0.727506  1
  H  H4  1  0.545647  0.295455  0.701382  1
  H  H5  1  0.454353  0.204545  0.201382  1
  H  H6  1  0.454353  0.704545  0.298618  1
  H  H7  1  0.545647  0.795455  0.798618  1
  H  H8  1  0.533810  0.282901  0.828618  1
  H  H9  1  0.466190  0.217099  0.328618  1
  H  H10  1  0.466190  0.717099  0.171382  1
  H  H11  1  0.533810  0.782901  0.671382  1
  H  H12  1  0.140963  0.454331  0.778821  1
  H  H13  1  0.859037  0.045669  0.278821  1
  H  H14  1  0.859037  0.545669  0.221179  1
  H  H15  1  0.140963  0.954331  0.721179  1
  H  H16  1  0.635227  0.022911  0.067950  1
  H  H17  1  0.364773  0.477089  0.567950  1
  H  H18  1  0.364773  0.977089  0.932050  1
  H  H19  1  0.635227  0.522911  0.432050  1
  O  O20  1  0.558196  0.360791  0.767698  1
  O  O21  1  0.441804  0.139209  0.267698  1
  O  O22  1  0.441804  0.639209  0.232302  1
  O  O23  1  0.558196  0.860791  0.732302  1
  O  O24  1  0.180547  0.568011  0.741815  1
  O  O25  1  0.819453  0.931989  0.241815  1
  O  O26  1  0.819453  0.431989  0.258185  1
  O  O27  1  0.180547  0.068011  0.758185  1
  O  O28  1  0.867839  0.603219  0.777087  1
  O  O29  1  0.132161  0.896781  0.277087  1
  O  O30  1  0.132161  0.396781  0.222913  1
  O  O31  1  0.867839  0.103219  0.722913  1
  O  O32  1  0.924218  0.492505  0.614047  1
  O  O33  1  0.075782  0.007495  0.114047  1
  O  O34  1  0.075782  0.507495  0.385953  1
  O  O35  1  0.924218  0.992505  0.885953  1
  O  O36  1  0.089567  0.785648  0.656385  1
  O  O37  1  0.910433  0.714352  0.156385  1
  O  O38  1  0.910433  0.214352  0.343615  1
  O  O39  1  0.089567  0.285648  0.843615  1
  O  O40  1  0.714660  0.147074  0.066457  1
  O  O41  1  0.285340  0.352926  0.566457  1
  O  O42  1  0.285340  0.852926  0.933543  1
  O  O43  1  0.714660  0.647074  0.433543  1
  O  O44  1  0.468299  0.286588  0.095596  1
  O  O45  1  0.531701  0.213412  0.595596  1
  O  O46  1  0.531701  0.713412  0.904404  1
  O  O47  1  0.468299  0.786588  0.404404  1
  O  O48  1  0.499982  0.173422  0.929636  1
  O  O49  1  0.500018  0.326578  0.429636  1
  O  O50  1  0.500018  0.826578  0.070364  1
  O  O51  1  0.499982  0.673422  0.570364  1
  O  O52  1  0.750881  0.418471  0.992234  1
  O  O53  1  0.249119  0.081529  0.492234  1
  O  O54  1  0.249119  0.581529  0.007766  1
  O  O55  1  0.750881  0.918471  0.507766  1
  S  S56  1  0.006346  0.611579  0.694614  1
  S  S57  1  0.993654  0.888421  0.194614  1
  S  S58  1  0.993654  0.388421  0.305386  1
  S  S59  1  0.006346  0.111579  0.805386  1
  S  S60  1  0.603729  0.265085  0.019570  1
  S  S61  1  0.396271  0.234915  0.519570  1
  S  S62  1  0.396271  0.734915  0.980430  1
  S  S63  1  0.603729  0.765085  0.480430  1
  Ag  Ag64  1  0.103373  0.278475  0.038429  1
  Ag  Ag65  1  0.896627  0.221525  0.538429  1
  Ag  Ag66  1  0.896627  0.721525  0.961571  1
  Ag  Ag67  1  0.103373  0.778475  0.461571  1
