# generated using pymatgen
data_Cs2In2Sb3
_symmetry_space_group_name_H-M   'P 1'
_cell_length_a   7.79396320
_cell_length_b   16.15168318
_cell_length_c   18.43578028
_cell_angle_alpha   90.55297788
_cell_angle_beta   90.00000000
_cell_angle_gamma   90.00000000
_symmetry_Int_Tables_number   1
_chemical_formula_structural   Cs2In2Sb3
_chemical_formula_sum   'Cs16 In16 Sb24'
_cell_volume   2320.69162332
_cell_formula_units_Z   8
loop_
 _symmetry_equiv_pos_site_id
 _symmetry_equiv_pos_as_xyz
  1  'x, y, z'
loop_
 _atom_site_type_symbol
 _atom_site_label
 _atom_site_symmetry_multiplicity
 _atom_site_fract_x
 _atom_site_fract_y
 _atom_site_fract_z
 _atom_site_occupancy
  In  In0  1  0.758494  0.594130  0.759342  1
  In  In1  1  0.741506  0.594130  0.259342  1
  In  In2  1  0.241506  0.405870  0.240658  1
  In  In3  1  0.258494  0.405870  0.740658  1
  In  In4  1  0.735667  0.818843  0.318195  1
  In  In5  1  0.235667  0.181157  0.181805  1
  In  In6  1  0.264333  0.181157  0.681805  1
  In  In7  1  0.764333  0.818843  0.818195  1
  In  In8  1  0.708371  0.092775  0.231774  1
  In  In9  1  0.208371  0.907225  0.268226  1
  In  In10  1  0.291629  0.907225  0.768226  1
  In  In11  1  0.791629  0.092775  0.731774  1
  In  In12  1  0.278126  0.684622  0.824599  1
  In  In13  1  0.721874  0.315378  0.175401  1
  In  In14  1  0.778126  0.315378  0.675401  1
  In  In15  1  0.221874  0.684622  0.324599  1
  Sb  Sb16  1  0.565183  0.673904  0.381510  1
  Sb  Sb17  1  0.434817  0.326096  0.618491  1
  Sb  Sb18  1  0.065183  0.326096  0.118490  1
  Sb  Sb19  1  0.934817  0.673904  0.881509  1
  Sb  Sb20  1  0.832312  0.746734  0.177414  1
  Sb  Sb21  1  0.332312  0.253267  0.322586  1
  Sb  Sb22  1  0.167688  0.253267  0.822586  1
  Sb  Sb23  1  0.667688  0.746734  0.677414  1
  Sb  Sb24  1  0.455721  0.525158  0.832392  1
  Sb  Sb25  1  0.955721  0.474842  0.667608  1
  Sb  Sb26  1  0.544279  0.474842  0.167608  1
  Sb  Sb27  1  0.044279  0.525158  0.332392  1
  Sb  Sb28  1  0.297621  0.754920  0.680467  1
  Sb  Sb29  1  0.202379  0.754920  0.180467  1
  Sb  Sb30  1  0.702379  0.245080  0.319533  1
  Sb  Sb31  1  0.797621  0.245080  0.819533  1
  Sb  Sb32  1  0.964178  0.971660  0.823354  1
  Sb  Sb33  1  0.464178  0.028340  0.676646  1
  Sb  Sb34  1  0.035822  0.028340  0.176646  1
  Sb  Sb35  1  0.535822  0.971660  0.323354  1
  Sb  Sb36  1  0.444819  0.833393  0.896429  1
  Sb  Sb37  1  0.944819  0.166607  0.603571  1
  Sb  Sb38  1  0.555181  0.166607  0.103571  1
  Sb  Sb39  1  0.055181  0.833393  0.396429  1
  Cs  Cs40  1  0.550839  0.445265  0.397333  1
  Cs  Cs41  1  0.050839  0.554735  0.102667  1
  Cs  Cs42  1  0.449161  0.554735  0.602667  1
  Cs  Cs43  1  0.949161  0.445265  0.897333  1
  Cs  Cs44  1  0.970519  0.924948  0.609696  1
  Cs  Cs45  1  0.470519  0.075052  0.890304  1
  Cs  Cs46  1  0.029481  0.075052  0.390304  1
  Cs  Cs47  1  0.529481  0.924948  0.109696  1
  Cs  Cs48  1  0.959514  0.652825  0.518341  1
  Cs  Cs49  1  0.459514  0.347174  0.981659  1
  Cs  Cs50  1  0.040486  0.347174  0.481659  1
  Cs  Cs51  1  0.540486  0.652825  0.018341  1
  Cs  Cs52  1  0.523223  0.142621  0.494689  1
  Cs  Cs53  1  0.023223  0.857379  0.005311  1
  Cs  Cs54  1  0.476777  0.857379  0.505311  1
  Cs  Cs55  1  0.976777  0.142621  0.994689  1
