# generated using pymatgen
data_VH12(ClO2)3
_symmetry_space_group_name_H-M   'P 1'
_cell_length_a   6.42495457
_cell_length_b   6.55037300
_cell_length_c   11.99774636
_cell_angle_alpha   98.79343448
_cell_angle_beta   90.00000000
_cell_angle_gamma   90.00000000
_symmetry_Int_Tables_number   1
_chemical_formula_structural   VH12(ClO2)3
_chemical_formula_sum   'V2 H24 Cl6 O12'
_cell_volume   499.00028372
_cell_formula_units_Z   2
loop_
 _symmetry_equiv_pos_site_id
 _symmetry_equiv_pos_as_xyz
  1  'x, y, z'
loop_
 _atom_site_type_symbol
 _atom_site_label
 _atom_site_symmetry_multiplicity
 _atom_site_fract_x
 _atom_site_fract_y
 _atom_site_fract_z
 _atom_site_occupancy
  H  H0  1  0.344561  0.784527  0.046906  1
  H  H1  1  0.844561  0.215473  0.453094  1
  H  H2  1  0.655439  0.215473  0.953094  1
  H  H3  1  0.155439  0.784527  0.546906  1
  H  H4  1  0.366221  0.019067  0.118593  1
  H  H5  1  0.866221  0.980933  0.381407  1
  H  H6  1  0.633779  0.980933  0.881407  1
  H  H7  1  0.133779  0.019067  0.618593  1
  H  H8  1  0.903722  0.790120  0.169333  1
  H  H9  1  0.403722  0.209880  0.330667  1
  H  H10  1  0.096278  0.209880  0.830667  1
  H  H11  1  0.596278  0.790120  0.669333  1
  H  H12  1  0.763212  0.688219  0.060644  1
  H  H13  1  0.263212  0.311781  0.439356  1
  H  H14  1  0.236788  0.311781  0.939356  1
  H  H15  1  0.736788  0.688219  0.560644  1
  H  H16  1  0.950095  0.663128  0.328446  1
  H  H17  1  0.450095  0.336872  0.171554  1
  H  H18  1  0.049905  0.336872  0.671554  1
  H  H19  1  0.549905  0.663128  0.828446  1
  H  H20  1  0.145898  0.789197  0.305257  1
  H  H21  1  0.645898  0.210803  0.194743  1
  H  H22  1  0.854102  0.210803  0.694743  1
  H  H23  1  0.354102  0.789197  0.805257  1
  O  O24  1  0.852343  0.806747  0.091831  1
  O  O25  1  0.508673  0.788740  0.798426  1
  O  O26  1  0.008673  0.211260  0.701574  1
  O  O27  1  0.491327  0.211260  0.201574  1
  O  O28  1  0.991327  0.788740  0.298426  1
  O  O29  1  0.647657  0.806747  0.591831  1
  O  O30  1  0.276652  0.921554  0.066288  1
  O  O31  1  0.776652  0.078446  0.433712  1
  O  O32  1  0.723348  0.078446  0.933712  1
  O  O33  1  0.223348  0.921554  0.566288  1
  O  O34  1  0.352343  0.193253  0.408169  1
  O  O35  1  0.147657  0.193253  0.908169  1
  Cl  Cl36  1  0.966111  0.272182  0.157761  1
  Cl  Cl37  1  0.000000  0.500000  0.500000  1
  Cl  Cl38  1  0.500000  0.500000  0.000000  1
  Cl  Cl39  1  0.533889  0.272182  0.657761  1
  Cl  Cl40  1  0.033889  0.727818  0.842239  1
  Cl  Cl41  1  0.466111  0.727818  0.342239  1
  V  V42  1  0.000000  0.000000  0.000000  1
  V  V43  1  0.500000  0.000000  0.500000  1
