# generated using pymatgen
data_Pr2Br5
_symmetry_space_group_name_H-M   'P 1'
_cell_length_a   4.17036927
_cell_length_b   8.53216092
_cell_length_c   13.81863518
_cell_angle_alpha   86.81459761
_cell_angle_beta   90.00000000
_cell_angle_gamma   90.00000000
_symmetry_Int_Tables_number   1
_chemical_formula_structural   Pr2Br5
_chemical_formula_sum   'Pr4 Br10'
_cell_volume   490.93859697
_cell_formula_units_Z   2
loop_
 _symmetry_equiv_pos_site_id
 _symmetry_equiv_pos_as_xyz
  1  'x, y, z'
loop_
 _atom_site_type_symbol
 _atom_site_label
 _atom_site_symmetry_multiplicity
 _atom_site_fract_x
 _atom_site_fract_y
 _atom_site_fract_z
 _atom_site_occupancy
  Br  Br0  1  0.250000  0.363848  0.281779  1
  Br  Br1  1  0.750000  0.636152  0.718221  1
  Br  Br2  1  0.250000  0.864164  0.929292  1
  Br  Br3  1  0.750000  0.135836  0.070708  1
  Br  Br4  1  0.750000  0.317798  0.513468  1
  Br  Br5  1  0.250000  0.682202  0.486532  1
  Br  Br6  1  0.750000  0.942040  0.310442  1
  Br  Br7  1  0.250000  0.057960  0.689558  1
  Br  Br8  1  0.750000  0.657720  0.124347  1
  Br  Br9  1  0.250000  0.342280  0.875653  1
  Pr  Pr10  1  0.250000  0.906157  0.153630  1
  Pr  Pr11  1  0.750000  0.093843  0.846370  1
  Pr  Pr12  1  0.250000  0.416793  0.656574  1
  Pr  Pr13  1  0.750000  0.583207  0.343426  1
