# generated using pymatgen
data_Ba7Ga4Sb9
_symmetry_space_group_name_H-M   'P 1'
_cell_length_a   7.22471466
_cell_length_b   10.98757169
_cell_length_c   18.38533743
_cell_angle_alpha   90.00000000
_cell_angle_beta   90.00000000
_cell_angle_gamma   90.00000000
_symmetry_Int_Tables_number   1
_chemical_formula_structural   Ba7Ga4Sb9
_chemical_formula_sum   'Ba14 Ga8 Sb18'
_cell_volume   1459.46614774
_cell_formula_units_Z   2
loop_
 _symmetry_equiv_pos_site_id
 _symmetry_equiv_pos_as_xyz
  1  'x, y, z'
loop_
 _atom_site_type_symbol
 _atom_site_label
 _atom_site_symmetry_multiplicity
 _atom_site_fract_x
 _atom_site_fract_y
 _atom_site_fract_z
 _atom_site_occupancy
  Ga  Ga0  1  0.057778  0.430563  0.250000  1
  Ga  Ga1  1  0.057778  0.069437  0.250000  1
  Ga  Ga2  1  0.942222  0.569437  0.750000  1
  Ga  Ga3  1  0.942222  0.930563  0.750000  1
  Ga  Ga4  1  0.741200  0.250000  0.622539  1
  Ga  Ga5  1  0.741200  0.250000  0.877461  1
  Ga  Ga6  1  0.258800  0.750000  0.377461  1
  Ga  Ga7  1  0.258800  0.750000  0.122539  1
  Sb  Sb8  1  0.479367  0.750000  0.007069  1
  Sb  Sb9  1  0.479367  0.750000  0.492931  1
  Sb  Sb10  1  0.954538  0.039792  0.617783  1
  Sb  Sb11  1  0.954538  0.460208  0.882217  1
  Sb  Sb12  1  0.045462  0.539792  0.382217  1
  Sb  Sb13  1  0.045462  0.960208  0.117783  1
  Sb  Sb14  1  0.520633  0.250000  0.507069  1
  Sb  Sb15  1  0.520633  0.250000  0.992931  1
  Sb  Sb16  1  0.211729  0.750000  0.750000  1
  Sb  Sb17  1  0.788271  0.250000  0.250000  1
  Sb  Sb18  1  0.669596  0.750000  0.750000  1
  Sb  Sb19  1  0.330404  0.250000  0.250000  1
  Sb  Sb20  1  0.456188  0.750000  0.250000  1
  Sb  Sb21  1  0.543812  0.250000  0.750000  1
  Sb  Sb22  1  0.954538  0.039792  0.882217  1
  Sb  Sb23  1  0.954538  0.460208  0.617783  1
  Sb  Sb24  1  0.045462  0.539792  0.117783  1
  Sb  Sb25  1  0.045462  0.960208  0.382217  1
  Ba  Ba26  1  0.923645  0.750000  0.250000  1
  Ba  Ba27  1  0.076355  0.250000  0.750000  1
  Ba  Ba28  1  0.457519  0.520983  0.625531  1
  Ba  Ba29  1  0.457519  0.979017  0.874469  1
  Ba  Ba30  1  0.542481  0.020983  0.374469  1
  Ba  Ba31  1  0.542481  0.479017  0.125531  1
  Ba  Ba32  1  0.542481  0.479017  0.374469  1
  Ba  Ba33  1  0.542481  0.020983  0.125531  1
  Ba  Ba34  1  0.457519  0.979017  0.625531  1
  Ba  Ba35  1  0.457519  0.520983  0.874469  1
  Ba  Ba36  1  0.040957  0.250000  0.463995  1
  Ba  Ba37  1  0.040957  0.250000  0.036005  1
  Ba  Ba38  1  0.959043  0.750000  0.536005  1
  Ba  Ba39  1  0.959043  0.750000  0.963995  1
