# generated using pymatgen
data_BaVPO6
_symmetry_space_group_name_H-M   'P 1'
_cell_length_a   5.80774809
_cell_length_b   8.80692022
_cell_length_c   10.15178091
_cell_angle_alpha   90.00000000
_cell_angle_beta   90.00000000
_cell_angle_gamma   90.86746157
_symmetry_Int_Tables_number   1
_chemical_formula_structural   BaVPO6
_chemical_formula_sum   'Ba4 V4 P4 O24'
_cell_volume   519.18757765
_cell_formula_units_Z   4
loop_
 _symmetry_equiv_pos_site_id
 _symmetry_equiv_pos_as_xyz
  1  'x, y, z'
loop_
 _atom_site_type_symbol
 _atom_site_label
 _atom_site_symmetry_multiplicity
 _atom_site_fract_x
 _atom_site_fract_y
 _atom_site_fract_z
 _atom_site_occupancy
  O  O0  1  0.866966  0.376167  0.915188  1
  O  O1  1  0.133035  0.123834  0.415188  1
  O  O2  1  0.133033  0.623834  0.084812  1
  O  O3  1  0.866966  0.876166  0.584811  1
  O  O4  1  0.683583  0.983735  0.070250  1
  O  O5  1  0.316417  0.516265  0.570251  1
  O  O6  1  0.316418  0.016265  0.929749  1
  O  O7  1  0.683583  0.483735  0.429749  1
  O  O8  1  0.100681  0.160686  0.130828  1
  O  O9  1  0.899319  0.339314  0.630828  1
  O  O10  1  0.899319  0.839314  0.869172  1
  O  O11  1  0.100681  0.660686  0.369172  1
  O  O12  1  0.280425  0.382315  0.333019  1
  O  O13  1  0.719574  0.117686  0.833018  1
  O  O14  1  0.719574  0.617685  0.666981  1
  O  O15  1  0.280426  0.882314  0.166981  1
  O  O16  1  0.514634  0.766692  0.481856  1
  O  O17  1  0.485366  0.733308  0.981856  1
  O  O18  1  0.506016  0.148642  0.277095  1
  O  O19  1  0.514634  0.266692  0.018144  1
  O  O20  1  0.506016  0.648642  0.222904  1
  O  O21  1  0.493985  0.851358  0.722905  1
  O  O22  1  0.493985  0.351358  0.777096  1
  O  O23  1  0.485368  0.233308  0.518143  1
  P  P24  1  0.652809  0.280469  0.884494  1
  P  P25  1  0.347190  0.219532  0.384494  1
  P  P26  1  0.347190  0.719531  0.115506  1
  P  P27  1  0.652810  0.780469  0.615506  1
  V  V28  1  0.349842  0.084255  0.088308  1
  V  V29  1  0.650158  0.415744  0.588308  1
  V  V30  1  0.349842  0.584256  0.411692  1
  V  V31  1  0.650158  0.915745  0.911692  1
  Ba  Ba32  1  0.854939  0.414456  0.189845  1
  Ba  Ba33  1  0.145061  0.085544  0.689844  1
  Ba  Ba34  1  0.145061  0.585544  0.810156  1
  Ba  Ba35  1  0.854939  0.914456  0.310156  1
