# generated using pymatgen
data_Na2ZrF6
_symmetry_space_group_name_H-M   'P 1'
_cell_length_a   5.50083743
_cell_length_b   5.65683133
_cell_length_c   16.36556093
_cell_angle_alpha   95.97057420
_cell_angle_beta   90.00000000
_cell_angle_gamma   90.00000000
_symmetry_Int_Tables_number   1
_chemical_formula_structural   Na2ZrF6
_chemical_formula_sum   'Na8 Zr4 F24'
_cell_volume   506.48975955
_cell_formula_units_Z   4
loop_
 _symmetry_equiv_pos_site_id
 _symmetry_equiv_pos_as_xyz
  1  'x, y, z'
loop_
 _atom_site_type_symbol
 _atom_site_label
 _atom_site_symmetry_multiplicity
 _atom_site_fract_x
 _atom_site_fract_y
 _atom_site_fract_z
 _atom_site_occupancy
  F  F0  1  0.828603  0.130367  0.488391  1
  F  F1  1  0.328603  0.869633  0.011609  1
  F  F2  1  0.171397  0.869633  0.511609  1
  F  F3  1  0.671397  0.130367  0.988391  1
  F  F4  1  0.781675  0.569757  0.316936  1
  F  F5  1  0.281675  0.430243  0.183064  1
  F  F6  1  0.218325  0.430243  0.683064  1
  F  F7  1  0.718325  0.569757  0.816936  1
  F  F8  1  0.729256  0.397790  0.135492  1
  F  F9  1  0.229256  0.602210  0.364508  1
  F  F10  1  0.270744  0.602210  0.864508  1
  F  F11  1  0.770744  0.397790  0.635492  1
  F  F12  1  0.289553  0.980576  0.664907  1
  F  F13  1  0.789553  0.019424  0.835093  1
  F  F14  1  0.710447  0.019424  0.335093  1
  F  F15  1  0.210447  0.980576  0.164907  1
  F  F16  1  0.819263  0.941996  0.649929  1
  F  F17  1  0.319263  0.058004  0.850071  1
  F  F18  1  0.180737  0.058004  0.350071  1
  F  F19  1  0.680737  0.941996  0.149929  1
  F  F20  1  0.775444  0.654196  0.975391  1
  F  F21  1  0.275444  0.345804  0.524609  1
  F  F22  1  0.224556  0.345804  0.024609  1
  F  F23  1  0.724556  0.654196  0.475391  1
  Na  Na24  1  0.501761  0.673414  0.591959  1
  Na  Na25  1  0.001761  0.326586  0.908041  1
  Na  Na26  1  0.498239  0.326586  0.408041  1
  Na  Na27  1  0.998239  0.673414  0.091959  1
  Na  Na28  1  0.462396  0.756346  0.252823  1
  Na  Na29  1  0.962396  0.243654  0.247177  1
  Na  Na30  1  0.537604  0.243654  0.747177  1
  Na  Na31  1  0.037604  0.756346  0.752823  1
  Zr  Zr32  1  0.551737  0.824028  0.901091  1
  Zr  Zr33  1  0.051737  0.175972  0.598909  1
  Zr  Zr34  1  0.448263  0.175972  0.098909  1
  Zr  Zr35  1  0.948263  0.824028  0.401091  1
