# generated using pymatgen
data_GeBi2O5
_symmetry_space_group_name_H-M   'P 1'
_cell_length_a   3.97158727
_cell_length_b   11.23046213
_cell_length_c   11.05521651
_cell_angle_alpha   90.00000000
_cell_angle_beta   90.00000000
_cell_angle_gamma   90.00000000
_symmetry_Int_Tables_number   1
_chemical_formula_structural   GeBi2O5
_chemical_formula_sum   'Ge4 Bi8 O20'
_cell_volume   493.09317352
_cell_formula_units_Z   4
loop_
 _symmetry_equiv_pos_site_id
 _symmetry_equiv_pos_as_xyz
  1  'x, y, z'
loop_
 _atom_site_type_symbol
 _atom_site_label
 _atom_site_symmetry_multiplicity
 _atom_site_fract_x
 _atom_site_fract_y
 _atom_site_fract_z
 _atom_site_occupancy
  Ge  Ge0  1  0.750000  0.866192  0.800235  1
  Ge  Ge1  1  0.250000  0.366192  0.699765  1
  Ge  Ge2  1  0.250000  0.133808  0.199765  1
  Ge  Ge3  1  0.750000  0.633808  0.300235  1
  Bi  Bi4  1  0.250000  0.719795  0.583354  1
  Bi  Bi5  1  0.250000  0.780205  0.083354  1
  Bi  Bi6  1  0.750000  0.280205  0.416646  1
  Bi  Bi7  1  0.750000  0.219795  0.916646  1
  Bi  Bi8  1  0.250000  0.451745  0.141537  1
  Bi  Bi9  1  0.750000  0.951745  0.358463  1
  Bi  Bi10  1  0.750000  0.548255  0.858463  1
  Bi  Bi11  1  0.250000  0.048255  0.641537  1
  O  O12  1  0.250000  0.260885  0.301308  1
  O  O13  1  0.750000  0.021483  0.753590  1
  O  O14  1  0.250000  0.175026  0.046684  1
  O  O15  1  0.250000  0.625282  0.262537  1
  O  O16  1  0.750000  0.675026  0.453316  1
  O  O17  1  0.750000  0.125282  0.237463  1
  O  O18  1  0.250000  0.239115  0.801308  1
  O  O19  1  0.750000  0.374718  0.737463  1
  O  O20  1  0.250000  0.324974  0.546684  1
  O  O21  1  0.750000  0.101189  0.495438  1
  O  O22  1  0.250000  0.874718  0.762537  1
  O  O23  1  0.250000  0.898811  0.504562  1
  O  O24  1  0.250000  0.521483  0.746410  1
  O  O25  1  0.250000  0.601189  0.004562  1
  O  O26  1  0.750000  0.478517  0.253590  1
  O  O27  1  0.750000  0.824974  0.953316  1
  O  O28  1  0.750000  0.398811  0.995438  1
  O  O29  1  0.250000  0.978517  0.246410  1
  O  O30  1  0.750000  0.739115  0.698692  1
  O  O31  1  0.750000  0.760885  0.198692  1
