# generated using pymatgen
data_BaMo2(P2O7)2
_symmetry_space_group_name_H-M   'P 1'
_cell_length_a   7.75348785
_cell_length_b   7.75348786
_cell_length_c   10.08673641
_cell_angle_alpha   80.12039612
_cell_angle_beta   80.12039608
_cell_angle_gamma   89.32204251
_symmetry_Int_Tables_number   1
_chemical_formula_structural   BaMo2(P2O7)2
_chemical_formula_sum   'Ba2 Mo4 P8 O28'
_cell_volume   588.43187402
_cell_formula_units_Z   2
loop_
 _symmetry_equiv_pos_site_id
 _symmetry_equiv_pos_as_xyz
  1  'x, y, z'
loop_
 _atom_site_type_symbol
 _atom_site_label
 _atom_site_symmetry_multiplicity
 _atom_site_fract_x
 _atom_site_fract_y
 _atom_site_fract_z
 _atom_site_occupancy
  O  O0  1  0.946335  0.776409  0.163578  1
  O  O1  1  0.223591  0.053666  0.336421  1
  O  O2  1  0.053666  0.223591  0.836422  1
  O  O3  1  0.776408  0.946334  0.663578  1
  O  O4  1  0.625711  0.741235  0.289852  1
  O  O5  1  0.258764  0.374289  0.210149  1
  O  O6  1  0.374289  0.258764  0.710148  1
  O  O7  1  0.741236  0.625711  0.789852  1
  O  O8  1  0.851611  0.834766  0.409531  1
  O  O9  1  0.165235  0.148388  0.090468  1
  O  O10  1  0.148388  0.165235  0.590468  1
  O  O11  1  0.834765  0.851612  0.909531  1
  O  O12  1  0.864152  0.525522  0.343915  1
  O  O13  1  0.474478  0.135848  0.156086  1
  O  O14  1  0.387982  0.739785  0.091287  1
  O  O15  1  0.260215  0.612019  0.408713  1
  O  O16  1  0.612019  0.260215  0.908713  1
  O  O17  1  0.739784  0.387982  0.591287  1
  O  O18  1  0.362256  0.565682  0.900985  1
  O  O19  1  0.434318  0.637743  0.599014  1
  O  O20  1  0.637743  0.434318  0.099014  1
  O  O21  1  0.135848  0.474478  0.656086  1
  O  O22  1  0.200510  0.841928  0.911486  1
  O  O23  1  0.158072  0.799490  0.588514  1
  O  O24  1  0.799489  0.158071  0.088514  1
  O  O25  1  0.841928  0.200511  0.411485  1
  O  O26  1  0.525522  0.864152  0.843914  1
  O  O27  1  0.565682  0.362257  0.400985  1
  P  P28  1  0.820614  0.731864  0.300098  1
  P  P29  1  0.268137  0.179387  0.199903  1
  P  P30  1  0.179387  0.268136  0.699903  1
  P  P31  1  0.731864  0.820613  0.800098  1
  P  P32  1  0.747756  0.366977  0.443823  1
  P  P33  1  0.633023  0.252245  0.056177  1
  P  P34  1  0.252245  0.633023  0.556177  1
  P  P35  1  0.366976  0.747756  0.943823  1
  Mo  Mo36  1  1.000000  0.999999  0.500000  1
  Mo  Mo37  1  0.000000  0.000000  0.000000  1
  Mo  Mo38  1  0.454799  0.545202  0.250000  1
  Mo  Mo39  1  0.545202  0.454799  0.750000  1
  Ba  Ba40  1  0.000000  0.499999  0.000000  1
  Ba  Ba41  1  0.500000  1.000000  0.500001  1
