# generated using pymatgen
data_PrLuO3
_symmetry_space_group_name_H-M   'P 1'
_cell_length_a   5.77284896
_cell_length_b   6.01470882
_cell_length_c   8.36111049
_cell_angle_alpha   90.00000000
_cell_angle_beta   90.00000000
_cell_angle_gamma   90.00000000
_symmetry_Int_Tables_number   1
_chemical_formula_structural   PrLuO3
_chemical_formula_sum   'Pr4 Lu4 O12'
_cell_volume   290.31452489
_cell_formula_units_Z   4
loop_
 _symmetry_equiv_pos_site_id
 _symmetry_equiv_pos_as_xyz
  1  'x, y, z'
loop_
 _atom_site_type_symbol
 _atom_site_label
 _atom_site_symmetry_multiplicity
 _atom_site_fract_x
 _atom_site_fract_y
 _atom_site_fract_z
 _atom_site_occupancy
  Pr  Pr0  1  0.014459  0.946587  0.750000  1
  Pr  Pr1  1  0.985541  0.053413  0.250000  1
  Pr  Pr2  1  0.514459  0.553413  0.250000  1
  Pr  Pr3  1  0.485541  0.446587  0.750000  1
  Lu  Lu4  1  0.500000  0.000000  0.500000  1
  Lu  Lu5  1  0.500000  0.000000  0.000000  1
  Lu  Lu6  1  0.000000  0.500000  0.000000  1
  Lu  Lu7  1  0.000000  0.500000  0.500000  1
  O  O8  1  0.690341  0.307118  0.063788  1
  O  O9  1  0.121876  0.445031  0.250000  1
  O  O10  1  0.378124  0.945031  0.250000  1
  O  O11  1  0.309659  0.692882  0.936212  1
  O  O12  1  0.309659  0.692882  0.563788  1
  O  O13  1  0.809659  0.807118  0.436212  1
  O  O14  1  0.190341  0.192882  0.563788  1
  O  O15  1  0.690341  0.307118  0.436212  1
  O  O16  1  0.621876  0.054969  0.750000  1
  O  O17  1  0.809659  0.807118  0.063788  1
  O  O18  1  0.878124  0.554969  0.750000  1
  O  O19  1  0.190341  0.192882  0.936212  1
