# generated using pymatgen
data_VBiO4
_symmetry_space_group_name_H-M   'P 1'
_cell_length_a   5.18798432
_cell_length_b   5.18798432
_cell_length_c   6.92317715
_cell_angle_alpha   112.00468035
_cell_angle_beta   112.00468046
_cell_angle_gamma   90.00000002
_symmetry_Int_Tables_number   1
_chemical_formula_structural   VBiO4
_chemical_formula_sum   'V2 Bi2 O8'
_cell_volume   158.02854193
_cell_formula_units_Z   2
loop_
 _symmetry_equiv_pos_site_id
 _symmetry_equiv_pos_as_xyz
  1  'x, y, z'
loop_
 _atom_site_type_symbol
 _atom_site_label
 _atom_site_symmetry_multiplicity
 _atom_site_fract_x
 _atom_site_fract_y
 _atom_site_fract_z
 _atom_site_occupancy
  O  O0  1  0.937782  0.295020  0.592018  1
  O  O1  1  0.296998  0.437782  0.092018  1
  O  O2  1  0.795020  0.154236  0.092018  1
  O  O3  1  0.654236  0.796998  0.592018  1
  O  O4  1  0.345764  0.203002  0.407982  1
  O  O5  1  0.204980  0.845764  0.907982  1
  O  O6  1  0.703002  0.562218  0.907982  1
  O  O7  1  0.062218  0.704980  0.407982  1
  V  V8  1  0.875000  0.625000  0.750000  1
  V  V9  1  0.125000  0.375000  0.250000  1
  Bi  Bi10  1  0.375000  0.125000  0.750000  1
  Bi  Bi11  1  0.625000  0.875000  0.250000  1
