# generated using pymatgen
data_BaH3C3O7
_symmetry_space_group_name_H-M   'P 1'
_cell_length_a   5.75285531
_cell_length_b   6.75944535
_cell_length_c   18.36350535
_cell_angle_alpha   90.00000000
_cell_angle_beta   90.00000000
_cell_angle_gamma   98.10147018
_symmetry_Int_Tables_number   1
_chemical_formula_structural   BaH3C3O7
_chemical_formula_sum   'Ba4 H12 C12 O28'
_cell_volume   706.95876702
_cell_formula_units_Z   4
loop_
 _symmetry_equiv_pos_site_id
 _symmetry_equiv_pos_as_xyz
  1  'x, y, z'
loop_
 _atom_site_type_symbol
 _atom_site_label
 _atom_site_symmetry_multiplicity
 _atom_site_fract_x
 _atom_site_fract_y
 _atom_site_fract_z
 _atom_site_occupancy
  Ba  Ba0  1  0.768754  0.622137  0.915482  1
  Ba  Ba1  1  0.231246  0.377863  0.084518  1
  Ba  Ba2  1  0.268754  0.122137  0.584518  1
  Ba  Ba3  1  0.731246  0.877863  0.415482  1
  H  H4  1  0.475463  0.714009  0.565267  1
  H  H5  1  0.989479  0.648442  0.250048  1
  H  H6  1  0.198516  0.347249  0.896691  1
  H  H7  1  0.801484  0.652751  0.103309  1
  H  H8  1  0.698516  0.847249  0.603309  1
  H  H9  1  0.489479  0.148442  0.249952  1
  H  H10  1  0.975463  0.214009  0.934733  1
  H  H11  1  0.301484  0.152751  0.396691  1
  H  H12  1  0.024537  0.785991  0.065267  1
  H  H13  1  0.010521  0.351558  0.749952  1
  H  H14  1  0.510521  0.851558  0.750048  1
  H  H15  1  0.524537  0.285991  0.434733  1
  C  C16  1  0.901832  0.418176  0.484564  1
  C  C17  1  0.427453  0.352402  0.764735  1
  C  C18  1  0.572547  0.647598  0.235265  1
  C  C19  1  0.401832  0.918176  0.015436  1
  C  C20  1  0.331354  0.664152  0.272404  1
  C  C21  1  0.831354  0.164152  0.227596  1
  C  C22  1  0.168646  0.835848  0.772404  1
  C  C23  1  0.072547  0.147598  0.264735  1
  C  C24  1  0.668646  0.335848  0.727596  1
  C  C25  1  0.098168  0.581824  0.515436  1
  C  C26  1  0.927453  0.852402  0.735265  1
  C  C27  1  0.598168  0.081824  0.984564  1
  O  O28  1  0.236484  0.980308  0.050756  1
  O  O29  1  0.427691  0.392718  0.831518  1
  O  O30  1  0.918339  0.654445  0.063621  1
  O  O31  1  0.848058  0.373433  0.772775  1
  O  O32  1  0.249830  0.320198  0.722719  1
  O  O33  1  0.250170  0.179802  0.222719  1
  O  O34  1  0.763516  0.019692  0.949244  1
  O  O35  1  0.572309  0.607282  0.168482  1
  O  O36  1  0.151942  0.626567  0.227225  1
  O  O37  1  0.418339  0.154445  0.436379  1
  O  O38  1  0.736484  0.480308  0.449244  1
  O  O39  1  0.072309  0.107282  0.331518  1
  O  O40  1  0.581661  0.845555  0.563621  1
  O  O41  1  0.348058  0.873433  0.727225  1
  O  O42  1  0.579920  0.263506  0.997023  1
  O  O43  1  0.750170  0.679802  0.277281  1
  O  O44  1  0.651942  0.126567  0.272775  1
  O  O45  1  0.263516  0.519692  0.550756  1
  O  O46  1  0.318066  0.710421  0.337032  1
  O  O47  1  0.818066  0.210421  0.162968  1
  O  O48  1  0.081661  0.345555  0.936379  1
  O  O49  1  0.749830  0.820198  0.777281  1
  O  O50  1  0.681934  0.289579  0.662968  1
  O  O51  1  0.927691  0.892718  0.668482  1
  O  O52  1  0.420080  0.736494  0.002977  1
  O  O53  1  0.920080  0.236494  0.497023  1
  O  O54  1  0.181934  0.789579  0.837032  1
  O  O55  1  0.079920  0.763506  0.502977  1
