# generated using pymatgen
data_As2SO6
_symmetry_space_group_name_H-M   'P 1'
_cell_length_a   4.82440522
_cell_length_b   4.99315659
_cell_length_c   11.70341311
_cell_angle_alpha   90.00000000
_cell_angle_beta   90.00000000
_cell_angle_gamma   90.00000000
_symmetry_Int_Tables_number   1
_chemical_formula_structural   As2SO6
_chemical_formula_sum   'As4 S2 O12'
_cell_volume   281.92364383
_cell_formula_units_Z   2
loop_
 _symmetry_equiv_pos_site_id
 _symmetry_equiv_pos_as_xyz
  1  'x, y, z'
loop_
 _atom_site_type_symbol
 _atom_site_label
 _atom_site_symmetry_multiplicity
 _atom_site_fract_x
 _atom_site_fract_y
 _atom_site_fract_z
 _atom_site_occupancy
  As  As0  1  0.256070  0.826656  0.192190  1
  As  As1  1  0.243930  0.173344  0.692190  1
  As  As2  1  0.756070  0.173344  0.307810  1
  As  As3  1  0.743930  0.826656  0.807810  1
  S  S4  1  0.000000  0.200531  0.000000  1
  S  S5  1  0.500000  0.799469  0.500000  1
  O  O6  1  0.907010  0.875782  0.240719  1
  O  O7  1  0.092990  0.875782  0.759281  1
  O  O8  1  0.620891  0.643684  0.592352  1
  O  O9  1  0.773672  0.008953  0.954256  1
  O  O10  1  0.226328  0.008953  0.045744  1
  O  O11  1  0.592990  0.124218  0.740719  1
  O  O12  1  0.879109  0.356316  0.092352  1
  O  O13  1  0.726328  0.991047  0.454256  1
  O  O14  1  0.379109  0.643684  0.407648  1
  O  O15  1  0.407010  0.124218  0.259281  1
  O  O16  1  0.120891  0.356316  0.907648  1
  O  O17  1  0.273672  0.991047  0.545744  1
