# generated using pymatgen
data_MgH2SO5
_symmetry_space_group_name_H-M   'P 1'
_cell_length_a   5.20429232
_cell_length_b   5.20429232
_cell_length_c   7.65709130
_cell_angle_alpha   106.49579926
_cell_angle_beta   106.49579928
_cell_angle_gamma   97.85182589
_symmetry_Int_Tables_number   1
_chemical_formula_structural   MgH2SO5
_chemical_formula_sum   'Mg2 H4 S2 O10'
_cell_volume   185.26983556
_cell_formula_units_Z   2
loop_
 _symmetry_equiv_pos_site_id
 _symmetry_equiv_pos_as_xyz
  1  'x, y, z'
loop_
 _atom_site_type_symbol
 _atom_site_label
 _atom_site_symmetry_multiplicity
 _atom_site_fract_x
 _atom_site_fract_y
 _atom_site_fract_z
 _atom_site_occupancy
  H  H0  1  0.633467  0.047389  0.207925  1
  H  H1  1  0.452611  0.866533  0.292075  1
  H  H2  1  0.366533  0.952611  0.792075  1
  H  H3  1  0.547389  0.133467  0.707925  1
  O  O4  1  0.832176  0.726702  0.605271  1
  O  O5  1  0.773298  0.667824  0.894729  1
  O  O6  1  0.167824  0.273298  0.394729  1
  O  O7  1  0.226702  0.332176  0.105271  1
  O  O8  1  0.217915  0.674379  0.846400  1
  O  O9  1  0.825621  0.282085  0.653600  1
  O  O10  1  0.782085  0.325621  0.153600  1
  O  O11  1  0.174379  0.717915  0.346400  1
  O  O12  1  0.382258  0.117742  0.750000  1
  O  O13  1  0.617742  0.882258  0.250000  1
  Mg  Mg14  1  0.500000  0.500000  0.000000  1
  Mg  Mg15  1  0.000000  0.000000  0.500000  1
  S  S16  1  0.910427  0.589573  0.750000  1
  S  S17  1  0.089573  0.410427  0.250000  1
