# generated using pymatgen
data_CsCu2Cl3
_symmetry_space_group_name_H-M   'P 1'
_cell_length_a   5.34507717
_cell_length_b   7.92486228
_cell_length_c   7.92486228
_cell_angle_alpha   104.19660664
_cell_angle_beta   90.00000000
_cell_angle_gamma   90.00000000
_symmetry_Int_Tables_number   1
_chemical_formula_structural   CsCu2Cl3
_chemical_formula_sum   'Cs2 Cu4 Cl6'
_cell_volume   325.43725364
_cell_formula_units_Z   2
loop_
 _symmetry_equiv_pos_site_id
 _symmetry_equiv_pos_as_xyz
  1  'x, y, z'
loop_
 _atom_site_type_symbol
 _atom_site_label
 _atom_site_symmetry_multiplicity
 _atom_site_fract_x
 _atom_site_fract_y
 _atom_site_fract_z
 _atom_site_occupancy
  Cl  Cl0  1  0.250000  0.892570  0.107430  1
  Cl  Cl1  1  0.750000  0.107430  0.892570  1
  Cl  Cl2  1  0.250000  0.839294  0.601289  1
  Cl  Cl3  1  0.750000  0.160706  0.398711  1
  Cl  Cl4  1  0.250000  0.398711  0.160706  1
  Cl  Cl5  1  0.750000  0.601289  0.839294  1
  Cu  Cu6  1  0.000000  0.833694  0.833694  1
  Cu  Cu7  1  0.000000  0.166306  0.166306  1
  Cu  Cu8  1  0.500000  0.166306  0.166306  1
  Cu  Cu9  1  0.500000  0.833694  0.833694  1
  Cs  Cs10  1  0.250000  0.312409  0.687591  1
  Cs  Cs11  1  0.750000  0.687591  0.312409  1
