# generated using pymatgen
data_Nd2InGe2
_symmetry_space_group_name_H-M   'P 1'
_cell_length_a   4.36167880
_cell_length_b   7.59632710
_cell_length_c   7.59632710
_cell_angle_alpha   90.00000000
_cell_angle_beta   90.00000000
_cell_angle_gamma   90.00000000
_symmetry_Int_Tables_number   1
_chemical_formula_structural   Nd2InGe2
_chemical_formula_sum   'Nd4 In2 Ge4'
_cell_volume   251.68712217
_cell_formula_units_Z   2
loop_
 _symmetry_equiv_pos_site_id
 _symmetry_equiv_pos_as_xyz
  1  'x, y, z'
loop_
 _atom_site_type_symbol
 _atom_site_label
 _atom_site_symmetry_multiplicity
 _atom_site_fract_x
 _atom_site_fract_y
 _atom_site_fract_z
 _atom_site_occupancy
  Ge  Ge0  1  0.000000  0.119119  0.380881  1
  Ge  Ge1  1  0.000000  0.380881  0.880881  1
  Ge  Ge2  1  0.000000  0.619119  0.119119  1
  Ge  Ge3  1  0.000000  0.880881  0.619119  1
  In  In4  1  0.000000  0.000000  0.000000  1
  In  In5  1  0.000000  0.500000  0.500000  1
  Nd  Nd6  1  0.500000  0.820553  0.320553  1
  Nd  Nd7  1  0.500000  0.679447  0.820553  1
  Nd  Nd8  1  0.500000  0.320553  0.179447  1
  Nd  Nd9  1  0.500000  0.179447  0.679447  1
