# generated using pymatgen
data_CeNiGe
_symmetry_space_group_name_H-M   'P 1'
_cell_length_a   4.30563926
_cell_length_b   7.20830517
_cell_length_c   7.20207040
_cell_angle_alpha   90.00000000
_cell_angle_beta   90.00000000
_cell_angle_gamma   90.00000000
_symmetry_Int_Tables_number   1
_chemical_formula_structural   CeNiGe
_chemical_formula_sum   'Ce4 Ni4 Ge4'
_cell_volume   223.52606220
_cell_formula_units_Z   4
loop_
 _symmetry_equiv_pos_site_id
 _symmetry_equiv_pos_as_xyz
  1  'x, y, z'
loop_
 _atom_site_type_symbol
 _atom_site_label
 _atom_site_symmetry_multiplicity
 _atom_site_fract_x
 _atom_site_fract_y
 _atom_site_fract_z
 _atom_site_occupancy
  Ni  Ni0  1  0.750000  0.079535  0.298044  1
  Ni  Ni1  1  0.750000  0.420465  0.798044  1
  Ni  Ni2  1  0.250000  0.579535  0.201956  1
  Ni  Ni3  1  0.250000  0.920465  0.701956  1
  Ge  Ge4  1  0.750000  0.409748  0.197721  1
  Ge  Ge5  1  0.750000  0.090252  0.697721  1
  Ge  Ge6  1  0.250000  0.909748  0.302279  1
  Ge  Ge7  1  0.250000  0.590252  0.802279  1
  Ce  Ce8  1  0.250000  0.290561  0.488195  1
  Ce  Ce9  1  0.750000  0.709439  0.511805  1
  Ce  Ce10  1  0.750000  0.790561  0.011805  1
  Ce  Ce11  1  0.250000  0.209439  0.988195  1
