# generated using pymatgen
data_UCl4
_symmetry_space_group_name_H-M   'P 1'
_cell_length_a   7.08209586
_cell_length_b   7.08209586
_cell_length_c   7.08209587
_cell_angle_alpha   107.58358755
_cell_angle_beta   107.58358753
_cell_angle_gamma   113.31627226
_symmetry_Int_Tables_number   1
_chemical_formula_structural   UCl4
_chemical_formula_sum   'U2 Cl8'
_cell_volume   272.51075942
_cell_formula_units_Z   2
loop_
 _symmetry_equiv_pos_site_id
 _symmetry_equiv_pos_as_xyz
  1  'x, y, z'
loop_
 _atom_site_type_symbol
 _atom_site_label
 _atom_site_symmetry_multiplicity
 _atom_site_fract_x
 _atom_site_fract_y
 _atom_site_fract_z
 _atom_site_occupancy
  Cl  Cl0  1  0.191179  0.251896  0.560718  1
  Cl  Cl1  1  0.630461  0.191179  0.439282  1
  Cl  Cl2  1  0.369539  0.808821  0.560718  1
  Cl  Cl3  1  0.808821  0.748104  0.439282  1
  Cl  Cl4  1  0.808821  0.369539  0.060718  1
  Cl  Cl5  1  0.748104  0.808821  0.939282  1
  Cl  Cl6  1  0.191179  0.630461  0.939282  1
  Cl  Cl7  1  0.251896  0.191179  0.060718  1
  U  U8  1  0.875000  0.125000  0.750000  1
  U  U9  1  0.125000  0.875000  0.250000  1
