# generated using pymatgen
data_SbCl3F2
_symmetry_space_group_name_H-M   'P 1'
_cell_length_a   7.52228606
_cell_length_b   10.04647500
_cell_length_c   10.04647457
_cell_angle_alpha   81.94311567
_cell_angle_beta   68.01434796
_cell_angle_gamma   68.01434493
_symmetry_Int_Tables_number   1
_chemical_formula_structural   SbCl3F2
_chemical_formula_sum   'Sb4 Cl12 F8'
_cell_volume   652.82503813
_cell_formula_units_Z   4
loop_
 _symmetry_equiv_pos_site_id
 _symmetry_equiv_pos_as_xyz
  1  'x, y, z'
loop_
 _atom_site_type_symbol
 _atom_site_label
 _atom_site_symmetry_multiplicity
 _atom_site_fract_x
 _atom_site_fract_y
 _atom_site_fract_z
 _atom_site_occupancy
  Sb  Sb0  1  0.468083  0.826416  0.268467  1
  Sb  Sb1  1  0.263450  0.268467  0.173584  1
  Sb  Sb2  1  0.705501  0.731533  0.826416  1
  Sb  Sb3  1  0.562966  0.173584  0.731533  1
  Cl  Cl4  1  0.299032  0.901269  0.505401  1
  Cl  Cl5  1  0.195567  0.505401  0.098731  1
  Cl  Cl6  1  0.799699  0.494599  0.901269  1
  Cl  Cl7  1  0.705701  0.098731  0.494599  1
  Cl  Cl8  1  0.570916  0.579640  0.303498  1
  Cl  Cl9  1  0.125586  0.303498  0.420360  1
  Cl  Cl10  1  0.849444  0.696502  0.579640  1
  Cl  Cl11  1  0.454054  0.420360  0.696502  1
  Cl  Cl12  1  0.776373  0.854983  0.229225  1
  Cl  Cl13  1  0.994402  0.229225  0.145017  1
  Cl  Cl14  1  0.368643  0.770775  0.854983  1
  Cl  Cl15  1  0.860581  0.145017  0.770775  1
  F  F16  1  0.583242  0.798358  0.043241  1
  F  F17  1  0.373516  0.043241  0.201642  1
  F  F18  1  0.618399  0.956759  0.798358  1
  F  F19  1  0.424842  0.201642  0.956759  1
  F  F20  1  0.224586  0.836626  0.242855  1
  F  F21  1  0.532559  0.242855  0.163374  1
  F  F22  1  0.938788  0.757145  0.836626  1
  F  F23  1  0.304067  0.163374  0.757145  1
