# generated using pymatgen
data_KBa4Bi3O
_symmetry_space_group_name_H-M   'P 1'
_cell_length_a   9.12931295
_cell_length_b   9.12931296
_cell_length_c   10.68837549
_cell_angle_alpha   115.28159186
_cell_angle_beta   115.28159190
_cell_angle_gamma   90.00000000
_symmetry_Int_Tables_number   1
_chemical_formula_structural   KBa4Bi3O
_chemical_formula_sum   'K2 Ba8 Bi6 O2'
_cell_volume   709.99017289
_cell_formula_units_Z   2
loop_
 _symmetry_equiv_pos_site_id
 _symmetry_equiv_pos_as_xyz
  1  'x, y, z'
loop_
 _atom_site_type_symbol
 _atom_site_label
 _atom_site_symmetry_multiplicity
 _atom_site_fract_x
 _atom_site_fract_y
 _atom_site_fract_z
 _atom_site_occupancy
  O  O0  1  0.750000  0.250000  0.500000  1
  O  O1  1  0.250000  0.750000  0.500000  1
  K  K2  1  0.000000  0.000000  0.000000  1
  K  K3  1  0.500000  0.500000  0.000000  1
  Ba  Ba4  1  0.999874  0.499874  0.689762  1
  Ba  Ba5  1  0.189888  0.999874  0.689762  1
  Ba  Ba6  1  0.689888  0.189888  0.689762  1
  Ba  Ba7  1  0.000126  0.500126  0.310238  1
  Ba  Ba8  1  0.499874  0.689888  0.689762  1
  Ba  Ba9  1  0.310112  0.810112  0.310238  1
  Ba  Ba10  1  0.500126  0.310112  0.310238  1
  Ba  Ba11  1  0.810112  0.000126  0.310238  1
  Bi  Bi12  1  0.120443  0.379557  0.000000  1
  Bi  Bi13  1  0.379557  0.879557  0.000000  1
  Bi  Bi14  1  0.250000  0.250000  0.500000  1
  Bi  Bi15  1  0.750000  0.750000  0.500000  1
  Bi  Bi16  1  0.620443  0.120443  0.000000  1
  Bi  Bi17  1  0.879557  0.620443  0.000000  1
