# generated using pymatgen
data_Y6Te2Rh
_symmetry_space_group_name_H-M   'P 1'
_cell_length_a   4.02410857
_cell_length_b   11.54528426
_cell_length_c   21.88124857
_cell_angle_alpha   90.00000000
_cell_angle_beta   90.00000000
_cell_angle_gamma   90.00000000
_symmetry_Int_Tables_number   1
_chemical_formula_structural   Y6Te2Rh
_chemical_formula_sum   'Y24 Te8 Rh4'
_cell_volume   1016.59137197
_cell_formula_units_Z   4
loop_
 _symmetry_equiv_pos_site_id
 _symmetry_equiv_pos_as_xyz
  1  'x, y, z'
loop_
 _atom_site_type_symbol
 _atom_site_label
 _atom_site_symmetry_multiplicity
 _atom_site_fract_x
 _atom_site_fract_y
 _atom_site_fract_z
 _atom_site_occupancy
  Y  Y0  1  0.250000  0.316574  0.109609  1
  Y  Y1  1  0.750000  0.683426  0.890391  1
  Y  Y2  1  0.750000  0.816574  0.390391  1
  Y  Y3  1  0.250000  0.183426  0.609609  1
  Y  Y4  1  0.250000  0.036817  0.150923  1
  Y  Y5  1  0.750000  0.963183  0.849077  1
  Y  Y6  1  0.750000  0.536817  0.349077  1
  Y  Y7  1  0.250000  0.463183  0.650923  1
  Y  Y8  1  0.250000  0.746168  0.265564  1
  Y  Y9  1  0.750000  0.253832  0.734436  1
  Y  Y10  1  0.750000  0.246168  0.234436  1
  Y  Y11  1  0.250000  0.753832  0.765564  1
  Y  Y12  1  0.250000  0.380117  0.477470  1
  Y  Y13  1  0.750000  0.619883  0.522530  1
  Y  Y14  1  0.750000  0.880117  0.022530  1
  Y  Y15  1  0.250000  0.119883  0.977470  1
  Y  Y16  1  0.250000  0.069338  0.355179  1
  Y  Y17  1  0.750000  0.930662  0.644821  1
  Y  Y18  1  0.750000  0.569338  0.144821  1
  Y  Y19  1  0.250000  0.430662  0.855179  1
  Y  Y20  1  0.250000  0.617454  0.008602  1
  Y  Y21  1  0.750000  0.382546  0.991398  1
  Y  Y22  1  0.750000  0.117454  0.491398  1
  Y  Y23  1  0.250000  0.882546  0.508602  1
  Rh  Rh24  1  0.250000  0.646985  0.427676  1
  Rh  Rh25  1  0.750000  0.353015  0.572324  1
  Rh  Rh26  1  0.750000  0.146985  0.072324  1
  Rh  Rh27  1  0.250000  0.853015  0.927676  1
  Te  Te28  1  0.250000  0.463470  0.239674  1
  Te  Te29  1  0.750000  0.536530  0.760326  1
  Te  Te30  1  0.750000  0.963470  0.260326  1
  Te  Te31  1  0.250000  0.036530  0.739674  1
  Te  Te32  1  0.250000  0.772283  0.126177  1
  Te  Te33  1  0.750000  0.227717  0.873823  1
  Te  Te34  1  0.750000  0.272283  0.373823  1
  Te  Te35  1  0.250000  0.727717  0.626177  1
