# generated using pymatgen
data_LiHSeO3
_symmetry_space_group_name_H-M   'P 1'
_cell_length_a   5.15510233
_cell_length_b   5.37071933
_cell_length_c   11.39260763
_cell_angle_alpha   90.00000000
_cell_angle_beta   90.00000000
_cell_angle_gamma   90.00000000
_symmetry_Int_Tables_number   1
_chemical_formula_structural   LiHSeO3
_chemical_formula_sum   'Li4 H4 Se4 O12'
_cell_volume   315.42265849
_cell_formula_units_Z   4
loop_
 _symmetry_equiv_pos_site_id
 _symmetry_equiv_pos_as_xyz
  1  'x, y, z'
loop_
 _atom_site_type_symbol
 _atom_site_label
 _atom_site_symmetry_multiplicity
 _atom_site_fract_x
 _atom_site_fract_y
 _atom_site_fract_z
 _atom_site_occupancy
  H  H0  1  0.231317  0.178672  0.333805  1
  H  H1  1  0.731317  0.821328  0.166195  1
  H  H2  1  0.268683  0.678672  0.666195  1
  H  H3  1  0.768683  0.321328  0.833805  1
  Li  Li4  1  0.243930  0.188190  0.918027  1
  Li  Li5  1  0.743930  0.811810  0.581973  1
  Li  Li6  1  0.256070  0.688190  0.081973  1
  Li  Li7  1  0.756070  0.311810  0.418027  1
  O  O8  1  0.003219  0.715359  0.212913  1
  O  O9  1  0.110373  0.842747  0.940951  1
  O  O10  1  0.389627  0.342747  0.059049  1
  O  O11  1  0.889627  0.657253  0.440951  1
  O  O12  1  0.931895  0.400308  0.869174  1
  O  O13  1  0.431895  0.599692  0.630826  1
  O  O14  1  0.568105  0.900308  0.130826  1
  O  O15  1  0.068105  0.099692  0.369174  1
  O  O16  1  0.496781  0.215359  0.787087  1
  O  O17  1  0.996781  0.784641  0.712913  1
  O  O18  1  0.610373  0.157253  0.559049  1
  O  O19  1  0.503219  0.284641  0.287087  1
  Se  Se20  1  0.124106  0.762827  0.350143  1
  Se  Se21  1  0.624106  0.237173  0.149857  1
  Se  Se22  1  0.375894  0.262827  0.649857  1
  Se  Se23  1  0.875894  0.737173  0.850143  1
