# generated using pymatgen
data_Mn2GeO4
_symmetry_space_group_name_H-M   'P 1'
_cell_length_a   6.11378932
_cell_length_b   8.17737201
_cell_length_c   8.17737201
_cell_angle_alpha   65.81920329
_cell_angle_beta   68.04837712
_cell_angle_gamma   68.04837709
_symmetry_Int_Tables_number   1
_chemical_formula_structural   Mn2GeO4
_chemical_formula_sum   'Mn8 Ge4 O16'
_cell_volume   333.94029363
_cell_formula_units_Z   4
loop_
 _symmetry_equiv_pos_site_id
 _symmetry_equiv_pos_as_xyz
  1  'x, y, z'
loop_
 _atom_site_type_symbol
 _atom_site_label
 _atom_site_symmetry_multiplicity
 _atom_site_fract_x
 _atom_site_fract_y
 _atom_site_fract_z
 _atom_site_occupancy
  O  O0  1  0.634667  0.618472  0.627632  1
  O  O1  1  0.880771  0.381528  0.372368  1
  O  O2  1  0.865333  0.872368  0.881528  1
  O  O3  1  0.619229  0.127632  0.118472  1
  O  O4  1  0.365333  0.381528  0.372368  1
  O  O5  1  0.119229  0.618472  0.627632  1
  O  O6  1  0.134667  0.127632  0.118472  1
  O  O7  1  0.380771  0.872368  0.881528  1
  O  O8  1  0.492071  0.253825  0.762033  1
  O  O9  1  0.507929  0.746175  0.237967  1
  O  O10  1  0.007929  0.737967  0.246175  1
  O  O11  1  0.992071  0.262033  0.753825  1
  O  O12  1  0.250000  0.963987  0.536013  1
  O  O13  1  0.750000  0.036013  0.463987  1
  O  O14  1  0.250000  0.469542  0.030458  1
  O  O15  1  0.750000  0.530458  0.969542  1
  Mn  Mn16  1  0.000000  0.000000  0.000000  1
  Mn  Mn17  1  0.500000  0.500000  0.500000  1
  Mn  Mn18  1  0.250000  0.717953  0.782047  1
  Mn  Mn19  1  0.750000  0.282047  0.217953  1
  Mn  Mn20  1  0.877067  0.122933  0.622933  1
  Mn  Mn21  1  0.622933  0.877067  0.377067  1
  Mn  Mn22  1  0.122933  0.877067  0.377067  1
  Mn  Mn23  1  0.377067  0.122933  0.622933  1
  Ge  Ge24  1  0.118928  0.497171  0.264972  1
  Ge  Ge25  1  0.881072  0.502829  0.735028  1
  Ge  Ge26  1  0.381072  0.235028  0.002829  1
  Ge  Ge27  1  0.618928  0.764972  0.997171  1
