# generated using pymatgen
data_BeH8SO8
_symmetry_space_group_name_H-M   'P 1'
_cell_length_a   7.90431505
_cell_length_b   7.90431504
_cell_length_c   7.90431504
_cell_angle_alpha   91.55142806
_cell_angle_beta   119.10836154
_cell_angle_gamma   119.10836153
_symmetry_Int_Tables_number   1
_chemical_formula_structural   BeH8SO8
_chemical_formula_sum   'Be2 H16 S2 O16'
_cell_volume   353.76870410
_cell_formula_units_Z   2
loop_
 _symmetry_equiv_pos_site_id
 _symmetry_equiv_pos_as_xyz
  1  'x, y, z'
loop_
 _atom_site_type_symbol
 _atom_site_label
 _atom_site_symmetry_multiplicity
 _atom_site_fract_x
 _atom_site_fract_y
 _atom_site_fract_z
 _atom_site_occupancy
  H  H0  1  0.158249  0.919356  0.510637  1
  H  H1  1  0.691110  0.592306  0.362592  1
  H  H2  1  0.841751  0.352388  0.761107  1
  H  H3  1  0.408719  0.489363  0.647612  1
  H  H4  1  0.591281  0.238893  0.080644  1
  H  H5  1  0.591281  0.852388  0.010637  1
  H  H6  1  0.841751  0.989363  0.580644  1
  H  H7  1  0.158249  0.738893  0.147612  1
  H  H8  1  0.408719  0.419356  0.261107  1
  H  H9  1  0.229713  0.092306  0.401195  1
  H  H10  1  0.770287  0.171482  0.862592  1
  H  H11  1  0.691110  0.598805  0.828518  1
  H  H12  1  0.308890  0.137408  0.907694  1
  H  H13  1  0.308890  0.671482  0.901195  1
  H  H14  1  0.770287  0.098805  0.407694  1
  H  H15  1  0.229713  0.637408  0.328518  1
  Be  Be16  1  0.500000  0.750000  0.250000  1
  Be  Be17  1  0.500000  0.250000  0.750000  1
  O  O18  1  0.212928  0.552022  0.507822  1
  O  O19  1  0.258646  0.068879  0.534506  1
  O  O20  1  0.465627  0.189767  0.931121  1
  O  O21  1  0.465627  0.775859  0.034506  1
  O  O22  1  0.741354  0.965494  0.431121  1
  O  O23  1  0.258646  0.689767  0.224141  1
  O  O24  1  0.534373  0.568879  0.310233  1
  O  O25  1  0.955801  0.660906  0.447978  1
  O  O26  1  0.044199  0.492178  0.705105  1
  O  O27  1  0.741354  0.275859  0.810233  1
  O  O28  1  0.787072  0.294895  0.339094  1
  O  O29  1  0.787072  0.992178  0.947978  1
  O  O30  1  0.044199  0.052022  0.839094  1
  O  O31  1  0.955801  0.794895  0.007822  1
  O  O32  1  0.212928  0.160906  0.205105  1
  O  O33  1  0.534373  0.465494  0.724141  1
  S  S34  1  0.000000  0.000000  0.000000  1
  S  S35  1  0.000000  0.500000  0.500000  1
