# generated using pymatgen
data_In4Ag9
_symmetry_space_group_name_H-M   'P 1'
_cell_length_a   10.06540003
_cell_length_b   10.06540003
_cell_length_c   10.06540003
_cell_angle_alpha   90.00000000
_cell_angle_beta   90.00000000
_cell_angle_gamma   90.00000000
_symmetry_Int_Tables_number   1
_chemical_formula_structural   In4Ag9
_chemical_formula_sum   'In16 Ag36'
_cell_volume   1019.74860364
_cell_formula_units_Z   4
loop_
 _symmetry_equiv_pos_site_id
 _symmetry_equiv_pos_as_xyz
  1  'x, y, z'
loop_
 _atom_site_type_symbol
 _atom_site_label
 _atom_site_symmetry_multiplicity
 _atom_site_fract_x
 _atom_site_fract_y
 _atom_site_fract_z
 _atom_site_occupancy
  Ag  Ag0  1  0.681913  0.681913  0.027960  1
  Ag  Ag1  1  0.318087  0.972040  0.681913  1
  Ag  Ag2  1  0.972040  0.318087  0.681913  1
  Ag  Ag3  1  0.318087  0.027960  0.318087  1
  Ag  Ag4  1  0.027960  0.318087  0.318087  1
  Ag  Ag5  1  0.681913  0.318087  0.972040  1
  Ag  Ag6  1  0.318087  0.681913  0.972040  1
  Ag  Ag7  1  0.027960  0.681913  0.681913  1
  Ag  Ag8  1  0.972040  0.681913  0.318087  1
  Ag  Ag9  1  0.681913  0.972040  0.318087  1
  Ag  Ag10  1  0.681913  0.027960  0.681913  1
  Ag  Ag11  1  0.318087  0.318087  0.027960  1
  Ag  Ag12  1  0.500000  0.500000  0.144127  1
  Ag  Ag13  1  0.855873  0.500000  0.500000  1
  Ag  Ag14  1  0.144127  0.500000  0.500000  1
  Ag  Ag15  1  0.500000  0.144127  0.500000  1
  Ag  Ag16  1  0.604732  0.604732  0.604732  1
  Ag  Ag17  1  0.395268  0.604732  0.395268  1
  Ag  Ag18  1  0.395268  0.395268  0.604732  1
  Ag  Ag19  1  0.604732  0.395268  0.395268  1
  Ag  Ag20  1  0.831168  0.831168  0.831168  1
  Ag  Ag21  1  0.168832  0.831168  0.168832  1
  Ag  Ag22  1  0.168832  0.168832  0.831168  1
  Ag  Ag23  1  0.831168  0.168832  0.168832  1
  Ag  Ag24  1  0.325042  0.325042  0.325042  1
  Ag  Ag25  1  0.674958  0.325042  0.674958  1
  Ag  Ag26  1  0.674958  0.674958  0.325042  1
  Ag  Ag27  1  0.325042  0.674958  0.674958  1
  Ag  Ag28  1  0.000000  0.000000  0.356770  1
  Ag  Ag29  1  0.000000  0.356770  0.000000  1
  Ag  Ag30  1  0.000000  0.643230  0.000000  1
  Ag  Ag31  1  0.643230  0.000000  0.000000  1
  Ag  Ag32  1  0.356770  0.000000  0.000000  1
  Ag  Ag33  1  0.000000  0.000000  0.643230  1
  Ag  Ag34  1  0.500000  0.500000  0.855873  1
  Ag  Ag35  1  0.500000  0.855873  0.500000  1
  In  In36  1  0.189745  0.189745  0.533683  1
  In  In37  1  0.810255  0.466317  0.189745  1
  In  In38  1  0.466317  0.810255  0.189745  1
  In  In39  1  0.810255  0.533683  0.810255  1
  In  In40  1  0.533683  0.810255  0.810255  1
  In  In41  1  0.189745  0.810255  0.466317  1
  In  In42  1  0.810255  0.189745  0.466317  1
  In  In43  1  0.533683  0.189745  0.189745  1
  In  In44  1  0.466317  0.189745  0.810255  1
  In  In45  1  0.189745  0.466317  0.810255  1
  In  In46  1  0.189745  0.533683  0.189745  1
  In  In47  1  0.810255  0.810255  0.533683  1
  In  In48  1  0.123485  0.876515  0.876515  1
  In  In49  1  0.876515  0.876515  0.123485  1
  In  In50  1  0.876515  0.123485  0.876515  1
  In  In51  1  0.123485  0.123485  0.123485  1
