# generated using pymatgen
data_K2CuH12(SO7)2
_symmetry_space_group_name_H-M   'P 1'
_cell_length_a   6.18425460
_cell_length_b   9.13744781
_cell_length_c   12.32451727
_cell_angle_alpha   90.00000000
_cell_angle_beta   90.00000000
_cell_angle_gamma   104.19424462
_symmetry_Int_Tables_number   1
_chemical_formula_structural   K2CuH12(SO7)2
_chemical_formula_sum   'K4 Cu2 H24 S4 O28'
_cell_volume   675.17531520
_cell_formula_units_Z   2
loop_
 _symmetry_equiv_pos_site_id
 _symmetry_equiv_pos_as_xyz
  1  'x, y, z'
loop_
 _atom_site_type_symbol
 _atom_site_label
 _atom_site_symmetry_multiplicity
 _atom_site_fract_x
 _atom_site_fract_y
 _atom_site_fract_z
 _atom_site_occupancy
  K  K0  1  0.654153  0.375579  0.849699  1
  K  K1  1  0.654153  0.875579  0.650301  1
  K  K2  1  0.345847  0.124421  0.349699  1
  K  K3  1  0.345847  0.624421  0.150301  1
  Cu  Cu4  1  0.000000  0.000000  0.000000  1
  Cu  Cu5  1  0.000000  0.500000  0.500000  1
  H  H6  1  0.326400  0.398622  0.560784  1
  H  H7  1  0.074519  0.789600  0.606678  1
  H  H8  1  0.004522  0.336436  0.304600  1
  H  H9  1  0.673600  0.601378  0.439216  1
  H  H10  1  0.315152  0.034236  0.858237  1
  H  H11  1  0.318308  0.703431  0.410659  1
  H  H12  1  0.925481  0.710400  0.106678  1
  H  H13  1  0.318308  0.203431  0.089341  1
  H  H14  1  0.915417  0.261057  0.623903  1
  H  H15  1  0.326400  0.898622  0.939216  1
  H  H16  1  0.084583  0.238943  0.123903  1
  H  H17  1  0.915417  0.761057  0.876097  1
  H  H18  1  0.315152  0.534236  0.641763  1
  H  H19  1  0.995478  0.163564  0.804600  1
  H  H20  1  0.084583  0.738943  0.376097  1
  H  H21  1  0.684848  0.465764  0.358237  1
  H  H22  1  0.995478  0.663564  0.695400  1
  H  H23  1  0.684848  0.965764  0.141763  1
  H  H24  1  0.074519  0.289600  0.893322  1
  H  H25  1  0.673600  0.101378  0.060784  1
  H  H26  1  0.925481  0.210400  0.393322  1
  H  H27  1  0.681692  0.296569  0.589341  1
  H  H28  1  0.004522  0.836436  0.195400  1
  H  H29  1  0.681692  0.796569  0.910659  1
  S  S30  1  0.276596  0.602776  0.861790  1
  S  S31  1  0.723404  0.397224  0.138210  1
  S  S32  1  0.723404  0.897224  0.361790  1
  S  S33  1  0.276596  0.102776  0.638210  1
  O  O34  1  0.049101  0.120994  0.667064  1
  O  O35  1  0.259440  0.460250  0.922601  1
  O  O36  1  0.950899  0.379006  0.167064  1
  O  O37  1  0.289478  0.499294  0.564581  1
  O  O38  1  0.411867  0.103729  0.738980  1
  O  O39  1  0.605459  0.267646  0.067787  1
  O  O40  1  0.710522  0.500706  0.435419  1
  O  O41  1  0.605459  0.767646  0.432213  1
  O  O42  1  0.161639  0.156412  0.112363  1
  O  O43  1  0.289478  -0.000706  0.935419  1
  O  O44  1  0.838360  0.343588  0.612363  1
  O  O45  1  0.394541  0.232354  0.567787  1
  O  O46  1  0.161639  0.656412  0.387637  1
  O  O47  1  0.588133  0.396271  0.238980  1
  O  O48  1  0.710522  1.000706  0.064581  1
  O  O49  1  0.740560  0.039750  0.422601  1
  O  O50  1  0.041283  0.304526  0.377644  1
  O  O51  1  0.588133  0.896271  0.261020  1
  O  O52  1  0.259440  0.960250  0.577399  1
  O  O53  1  0.958717  0.695474  0.622356  1
  O  O54  1  0.838360  0.843588  0.887637  1
  O  O55  1  0.950899  0.879006  0.332936  1
  O  O56  1  0.411867  0.603729  0.761020  1
  O  O57  1  0.958717  0.195474  0.877644  1
  O  O58  1  0.394541  0.732354  0.932213  1
  O  O59  1  0.041283  0.804526  0.122356  1
  O  O60  1  0.049101  0.620994  0.832936  1
  O  O61  1  0.740560  0.539750  0.077399  1
