# generated using pymatgen
data_AsBr5F6
_symmetry_space_group_name_H-M   'P 1'
_cell_length_a   7.34926860
_cell_length_b   7.34632959
_cell_length_c   13.23698869
_cell_angle_alpha   95.47310158
_cell_angle_beta   109.97127231
_cell_angle_gamma   102.26209589
_symmetry_Int_Tables_number   1
_chemical_formula_structural   AsBr5F6
_chemical_formula_sum   'As2 Br10 F12'
_cell_volume   645.30231342
_cell_formula_units_Z   2
loop_
 _symmetry_equiv_pos_site_id
 _symmetry_equiv_pos_as_xyz
  1  'x, y, z'
loop_
 _atom_site_type_symbol
 _atom_site_label
 _atom_site_symmetry_multiplicity
 _atom_site_fract_x
 _atom_site_fract_y
 _atom_site_fract_z
 _atom_site_occupancy
  As  As0  1  0.384542  0.634523  0.750056  1
  As  As1  1  0.615458  0.365477  0.249944  1
  Br  Br2  1  0.735238  0.313448  0.823839  1
  Br  Br3  1  0.879299  0.138756  0.581052  1
  Br  Br4  1  0.989564  0.911532  0.676273  1
  Br  Br5  1  0.942338  0.701488  0.080956  1
  Br  Br6  1  0.500000  0.000000  0.500000  1
  Br  Br7  1  0.057662  0.298512  0.919044  1
  Br  Br8  1  0.120701  0.861244  0.418948  1
  Br  Br9  1  0.264762  0.686552  0.176161  1
  Br  Br10  1  0.000000  0.000000  0.000000  1
  Br  Br11  1  0.010436  0.088468  0.323727  1
  F  F12  1  0.572784  0.116909  0.227330  1
  F  F13  1  0.657919  0.618764  0.270222  1
  F  F14  1  0.151561  0.612407  0.770387  1
  F  F15  1  0.389814  0.345357  0.272702  1
  F  F16  1  0.250026  0.616897  0.607929  1
  F  F17  1  0.749974  0.383103  0.392071  1
  F  F18  1  0.610186  0.654643  0.727298  1
  F  F19  1  0.491015  0.357618  0.107896  1
  F  F20  1  0.427216  0.883091  0.772670  1
  F  F21  1  0.342081  0.381236  0.729778  1
  F  F22  1  0.508985  0.642382  0.892104  1
  F  F23  1  0.848439  0.387593  0.229613  1
