# generated using pymatgen
data_Li2CrPCO7
_symmetry_space_group_name_H-M   'P 1'
_cell_length_a   5.02315887
_cell_length_b   6.39042739
_cell_length_c   8.47905883
_cell_angle_alpha   90.00000000
_cell_angle_beta   86.37160191
_cell_angle_gamma   90.00000000
_symmetry_Int_Tables_number   1
_chemical_formula_structural   Li2CrPCO7
_chemical_formula_sum   'Li4 Cr2 P2 C2 O14'
_cell_volume   271.63332108
_cell_formula_units_Z   2
loop_
 _symmetry_equiv_pos_site_id
 _symmetry_equiv_pos_as_xyz
  1  'x, y, z'
loop_
 _atom_site_type_symbol
 _atom_site_label
 _atom_site_symmetry_multiplicity
 _atom_site_fract_x
 _atom_site_fract_y
 _atom_site_fract_z
 _atom_site_occupancy
  Li  Li0  1  0.774772  0.001453  0.774132  1
  Li  Li1  1  0.225229  0.998547  0.225869  1
  Li  Li2  1  0.225229  0.501453  0.225869  1
  Li  Li3  1  0.774772  0.498547  0.774132  1
  C  C4  1  0.726996  0.750000  0.058494  1
  C  C5  1  0.273003  0.250000  0.941506  1
  O  O6  1  0.174749  0.941925  0.676238  1
  O  O7  1  0.961805  0.750000  0.119583  1
  O  O8  1  0.473906  0.250000  0.832136  1
  O  O9  1  0.526094  0.750000  0.167864  1
  O  O10  1  0.174749  0.558074  0.676238  1
  O  O11  1  0.167329  0.750000  0.412847  1
  O  O12  1  0.038194  0.250000  0.880417  1
  O  O13  1  0.825250  0.441925  0.323762  1
  O  O14  1  0.825250  0.058075  0.323762  1
  O  O15  1  0.411840  0.250000  0.441812  1
  O  O16  1  0.696080  0.750000  0.912358  1
  O  O17  1  0.303919  0.250000  0.087642  1
  O  O18  1  0.588159  0.750000  0.558188  1
  O  O19  1  0.832672  0.250000  0.587153  1
  P  P20  1  0.722437  0.250000  0.419301  1
  P  P21  1  0.277562  0.750000  0.580699  1
  Cr  Cr22  1  0.790670  0.750000  0.343622  1
  Cr  Cr23  1  0.209331  0.250000  0.656378  1
