# generated using pymatgen
data_Na8Si7O18
_symmetry_space_group_name_H-M   'P 1'
_cell_length_a   7.25900774
_cell_length_b   7.25900773
_cell_length_c   7.25900773
_cell_angle_alpha   87.18636540
_cell_angle_beta   87.18636533
_cell_angle_gamma   87.18636533
_symmetry_Int_Tables_number   1
_chemical_formula_structural   Na8Si7O18
_chemical_formula_sum   'Na8 Si7 O18'
_cell_volume   381.16069749
_cell_formula_units_Z   1
loop_
 _symmetry_equiv_pos_site_id
 _symmetry_equiv_pos_as_xyz
  1  'x, y, z'
loop_
 _atom_site_type_symbol
 _atom_site_label
 _atom_site_symmetry_multiplicity
 _atom_site_fract_x
 _atom_site_fract_y
 _atom_site_fract_z
 _atom_site_occupancy
  O  O0  1  0.500088  0.765577  0.234413  1
  O  O1  1  0.765577  0.234413  0.500088  1
  O  O2  1  0.234413  0.500088  0.765577  1
  O  O3  1  0.499912  0.234423  0.765587  1
  O  O4  1  0.234423  0.765587  0.499912  1
  O  O5  1  0.765587  0.499912  0.234423  1
  O  O6  1  0.830957  0.830893  0.081265  1
  O  O7  1  0.830893  0.081265  0.830957  1
  O  O8  1  0.081265  0.830957  0.830893  1
  O  O9  1  0.169043  0.169107  0.918735  1
  O  O10  1  0.169107  0.918735  0.169043  1
  O  O11  1  0.918735  0.169043  0.169107  1
  O  O12  1  0.787531  0.787292  0.455807  1
  O  O13  1  0.787292  0.455807  0.787531  1
  O  O14  1  0.455807  0.787531  0.787292  1
  O  O15  1  0.544193  0.212469  0.212708  1
  O  O16  1  0.212708  0.544193  0.212469  1
  O  O17  1  0.212469  0.212708  0.544193  1
  Na  Na18  1  0.236195  0.236195  0.236195  1
  Na  Na19  1  0.763805  0.763805  0.763805  1
  Na  Na20  1  0.500000  0.500000  0.000000  1
  Na  Na21  1  0.000000  0.500000  0.500000  1
  Na  Na22  1  0.500000  0.000000  0.500000  1
  Na  Na23  1  0.000000  0.000000  0.500000  1
  Na  Na24  1  0.500000  0.000000  0.000000  1
  Na  Na25  1  0.000000  0.500000  0.000000  1
  Si  Si26  1  0.000000  0.000000  0.000000  1
  Si  Si27  1  0.739110  0.272033  0.272115  1
  Si  Si28  1  0.272115  0.739110  0.272033  1
  Si  Si29  1  0.272033  0.272115  0.739110  1
  Si  Si30  1  0.260890  0.727967  0.727885  1
  Si  Si31  1  0.727885  0.260890  0.727967  1
  Si  Si32  1  0.727967  0.727885  0.260890  1
