# generated using pymatgen
data_RbMoP2O7
_symmetry_space_group_name_H-M   'P 1'
_cell_length_a   7.69719979
_cell_length_b   8.59978396
_cell_length_c   10.61996229
_cell_angle_alpha   90.00000000
_cell_angle_beta   90.00000000
_cell_angle_gamma   106.16381089
_symmetry_Int_Tables_number   1
_chemical_formula_structural   RbMoP2O7
_chemical_formula_sum   'Rb4 Mo4 P8 O28'
_cell_volume   675.19147269
_cell_formula_units_Z   4
loop_
 _symmetry_equiv_pos_site_id
 _symmetry_equiv_pos_as_xyz
  1  'x, y, z'
loop_
 _atom_site_type_symbol
 _atom_site_label
 _atom_site_symmetry_multiplicity
 _atom_site_fract_x
 _atom_site_fract_y
 _atom_site_fract_z
 _atom_site_occupancy
  O  O0  1  0.549614  0.264085  0.274679  1
  O  O1  1  0.450386  0.235915  0.774679  1
  O  O2  1  0.450386  0.735915  0.725321  1
  O  O3  1  0.549614  0.764085  0.225321  1
  O  O4  1  0.000938  0.278586  0.002637  1
  O  O5  1  0.999062  0.221414  0.502637  1
  O  O6  1  0.999062  0.721414  0.997363  1
  O  O7  1  0.000938  0.778586  0.497363  1
  O  O8  1  0.676306  0.480950  0.104190  1
  O  O9  1  0.323694  0.019050  0.604190  1
  O  O10  1  0.323694  0.519050  0.895810  1
  O  O11  1  0.676306  0.980950  0.395810  1
  O  O12  1  0.862009  0.997697  0.093946  1
  O  O13  1  0.137991  0.502303  0.593946  1
  O  O14  1  0.137991  0.002303  0.906054  1
  O  O15  1  0.862009  0.497697  0.406054  1
  O  O16  1  0.671986  0.691851  0.434920  1
  O  O17  1  0.328014  0.808149  0.934920  1
  O  O18  1  0.328014  0.308149  0.565080  1
  O  O19  1  0.671986  0.191851  0.065080  1
  O  O20  1  0.923000  0.748379  0.268052  1
  O  O21  1  0.077000  0.751621  0.768052  1
  O  O22  1  0.077000  0.251621  0.731948  1
  O  O23  1  0.923000  0.248379  0.231948  1
  O  O24  1  0.375586  0.761067  0.423252  1
  O  O25  1  0.624414  0.738933  0.923252  1
  O  O26  1  0.624414  0.238933  0.576748  1
  O  O27  1  0.375586  0.261067  0.076748  1
  P  P28  1  0.871943  0.674900  0.399986  1
  P  P29  1  0.128057  0.825100  0.899986  1
  P  P30  1  0.128057  0.325100  0.600014  1
  P  P31  1  0.871943  0.174900  0.100014  1
  P  P32  1  0.565169  0.308893  0.134023  1
  P  P33  1  0.434831  0.191107  0.634023  1
  P  P34  1  0.434831  0.691107  0.865977  1
  P  P35  1  0.565169  0.808893  0.365977  1
  Rb  Rb36  1  0.814247  0.441184  0.819813  1
  Rb  Rb37  1  0.185753  0.058816  0.319813  1
  Rb  Rb38  1  0.185753  0.558816  0.180187  1
  Rb  Rb39  1  0.814247  0.941184  0.680187  1
  Mo  Mo40  1  0.763388  0.742090  0.101062  1
  Mo  Mo41  1  0.236612  0.757910  0.601062  1
  Mo  Mo42  1  0.236612  0.257910  0.898938  1
  Mo  Mo43  1  0.763388  0.242090  0.398938  1
