# generated using pymatgen
data_Cs6InAs3
_symmetry_space_group_name_H-M   'P 1'
_cell_length_a   6.46633181
_cell_length_b   10.78845588
_cell_length_c   12.44351538
_cell_angle_alpha   101.71567072
_cell_angle_beta   90.00000000
_cell_angle_gamma   90.00000000
_symmetry_Int_Tables_number   1
_chemical_formula_structural   Cs6InAs3
_chemical_formula_sum   'Cs12 In2 As6'
_cell_volume   849.99676120
_cell_formula_units_Z   2
loop_
 _symmetry_equiv_pos_site_id
 _symmetry_equiv_pos_as_xyz
  1  'x, y, z'
loop_
 _atom_site_type_symbol
 _atom_site_label
 _atom_site_symmetry_multiplicity
 _atom_site_fract_x
 _atom_site_fract_y
 _atom_site_fract_z
 _atom_site_occupancy
  As  As0  1  0.250000  0.812413  0.121824  1
  As  As1  1  0.750000  0.187587  0.878176  1
  As  As2  1  0.250000  0.789285  0.489393  1
  As  As3  1  0.750000  0.210715  0.510607  1
  As  As4  1  0.250000  0.422228  0.227103  1
  As  As5  1  0.750000  0.577772  0.772897  1
  In  In6  1  0.250000  0.671609  0.278783  1
  In  In7  1  0.750000  0.328391  0.721217  1
  Cs  Cs8  1  0.750000  0.534666  0.073140  1
  Cs  Cs9  1  0.250000  0.465334  0.926860  1
  Cs  Cs10  1  0.750000  0.256525  0.224141  1
  Cs  Cs11  1  0.250000  0.743475  0.775859  1
  Cs  Cs12  1  0.250000  0.437238  0.536304  1
  Cs  Cs13  1  0.750000  0.562762  0.463696  1
  Cs  Cs14  1  0.250000  0.134745  0.016992  1
  Cs  Cs15  1  0.750000  0.865255  0.983008  1
  Cs  Cs16  1  0.250000  0.119962  0.675677  1
  Cs  Cs17  1  0.750000  0.880038  0.324323  1
  Cs  Cs18  1  0.250000  0.082875  0.363129  1
  Cs  Cs19  1  0.750000  0.917125  0.636871  1
