# generated using pymatgen
data_Dy2GeO5
_symmetry_space_group_name_H-M   'P 1'
_cell_length_a   6.90263495
_cell_length_b   8.24861055
_cell_length_c   9.80097009
_cell_angle_alpha   70.99138980
_cell_angle_beta   69.38171279
_cell_angle_gamma   65.26563031
_symmetry_Int_Tables_number   1
_chemical_formula_structural   Dy2GeO5
_chemical_formula_sum   'Dy8 Ge4 O20'
_cell_volume   463.81811084
_cell_formula_units_Z   4
loop_
 _symmetry_equiv_pos_site_id
 _symmetry_equiv_pos_as_xyz
  1  'x, y, z'
loop_
 _atom_site_type_symbol
 _atom_site_label
 _atom_site_symmetry_multiplicity
 _atom_site_fract_x
 _atom_site_fract_y
 _atom_site_fract_z
 _atom_site_occupancy
  O  O0  1  0.371592  0.464517  0.944804  1
  O  O1  1  0.780913  0.035483  0.555196  1
  O  O2  1  0.628408  0.535483  0.055196  1
  O  O3  1  0.219087  0.964517  0.444804  1
  O  O4  1  0.409124  0.535309  0.632509  1
  O  O5  1  0.576941  0.964691  0.867491  1
  O  O6  1  0.590876  0.464691  0.367491  1
  O  O7  1  0.423059  0.035309  0.132509  1
  O  O8  1  0.350185  0.284311  0.324320  1
  O  O9  1  0.958815  0.215689  0.175680  1
  O  O10  1  0.649815  0.715689  0.675680  1
  O  O11  1  0.041185  0.784311  0.824320  1
  O  O12  1  0.919332  0.364032  0.603261  1
  O  O13  1  0.886625  0.135968  0.896739  1
  O  O14  1  0.080668  0.635968  0.396739  1
  O  O15  1  0.113375  0.864032  0.103261  1
  O  O16  1  0.319841  0.090321  0.675429  1
  O  O17  1  0.085591  0.409679  0.824571  1
  O  O18  1  0.680159  0.909679  0.324571  1
  O  O19  1  0.914409  0.590321  0.175429  1
  Ge  Ge20  1  0.409347  0.061717  0.308060  1
  Ge  Ge21  1  0.779124  0.438283  0.191940  1
  Ge  Ge22  1  0.590653  0.938283  0.691940  1
  Ge  Ge23  1  0.220876  0.561717  0.808060  1
  Dy  Dy24  1  0.793543  0.895518  0.033881  1
  Dy  Dy25  1  0.722942  0.604482  0.466119  1
  Dy  Dy26  1  0.206457  0.104482  0.966119  1
  Dy  Dy27  1  0.277058  0.395518  0.533881  1
  Dy  Dy28  1  0.263842  0.562227  0.162072  1
  Dy  Dy29  1  0.988141  0.937773  0.337928  1
  Dy  Dy30  1  0.736158  0.437773  0.837928  1
  Dy  Dy31  1  0.011859  0.062227  0.662072  1
