# generated using pymatgen
data_YH5(SeO4)2
_symmetry_space_group_name_H-M   'P 1'
_cell_length_a   6.68413159
_cell_length_b   7.02897113
_cell_length_c   16.31565524
_cell_angle_alpha   90.00000000
_cell_angle_beta   90.00000000
_cell_angle_gamma   90.00000000
_symmetry_Int_Tables_number   1
_chemical_formula_structural   YH5(SeO4)2
_chemical_formula_sum   'Y4 H20 Se8 O32'
_cell_volume   766.55138137
_cell_formula_units_Z   4
loop_
 _symmetry_equiv_pos_site_id
 _symmetry_equiv_pos_as_xyz
  1  'x, y, z'
loop_
 _atom_site_type_symbol
 _atom_site_label
 _atom_site_symmetry_multiplicity
 _atom_site_fract_x
 _atom_site_fract_y
 _atom_site_fract_z
 _atom_site_occupancy
  H  H0  1  0.190852  0.404321  0.081391  1
  H  H1  1  0.690852  0.095679  0.918609  1
  H  H2  1  0.809148  0.904321  0.418609  1
  H  H3  1  0.309148  0.595679  0.581391  1
  H  H4  1  0.055297  0.229449  0.101390  1
  H  H5  1  0.555297  0.270551  0.898610  1
  H  H6  1  0.944703  0.729449  0.398610  1
  H  H7  1  0.444703  0.770551  0.601390  1
  H  H8  1  0.888603  0.740227  0.540655  1
  H  H9  1  0.388603  0.759773  0.459345  1
  H  H10  1  0.027224  0.081492  0.896100  1
  H  H11  1  0.527224  0.418508  0.103900  1
  H  H12  1  0.972776  0.581492  0.603900  1
  H  H13  1  0.472776  0.918508  0.396100  1
  H  H14  1  0.800054  0.830360  0.046416  1
  H  H15  1  0.300054  0.669640  0.953584  1
  H  H16  1  0.199946  0.330360  0.453584  1
  H  H17  1  0.699946  0.169640  0.546416  1
  H  H18  1  0.111397  0.240227  0.959345  1
  H  H19  1  0.611397  0.259773  0.040655  1
  O  O20  1  0.032140  0.609516  0.300367  1
  O  O21  1  0.532140  0.890484  0.699633  1
  O  O22  1  0.967860  0.109516  0.199633  1
  O  O23  1  0.467860  0.390484  0.800367  1
  O  O24  1  0.399951  0.402552  0.401325  1
  O  O25  1  0.814853  0.569118  0.762537  1
  O  O26  1  0.600049  0.902552  0.098675  1
  O  O27  1  0.100049  0.597448  0.901325  1
  O  O28  1  0.638281  0.105911  0.362478  1
  O  O29  1  0.138281  0.394089  0.637522  1
  O  O30  1  0.361719  0.605911  0.137522  1
  O  O31  1  0.861719  0.894089  0.862478  1
  O  O32  1  0.314853  0.930882  0.237463  1
  O  O33  1  0.070354  0.294654  0.482187  1
  O  O34  1  0.429646  0.705346  0.982187  1
  O  O35  1  0.929646  0.794654  0.017813  1
  O  O36  1  0.185147  0.069118  0.737463  1
  O  O37  1  0.685147  0.430882  0.262537  1
  O  O38  1  0.811768  0.210954  0.763769  1
  O  O39  1  0.311768  0.289046  0.236231  1
  O  O40  1  0.387986  0.803304  0.400571  1
  O  O41  1  0.887986  0.696696  0.599429  1
  O  O42  1  0.612014  0.303304  0.099429  1
  O  O43  1  0.112014  0.196696  0.900571  1
  O  O44  1  0.188232  0.710954  0.736231  1
  O  O45  1  0.688232  0.789046  0.263769  1
  O  O46  1  0.395866  0.691348  0.555845  1
  O  O47  1  0.895866  0.808652  0.444155  1
  O  O48  1  0.604134  0.191348  0.944155  1
  O  O49  1  0.104134  0.308652  0.055845  1
  O  O50  1  0.899951  0.097448  0.598675  1
  O  O51  1  0.570354  0.205346  0.517813  1
  Se  Se52  1  0.867355  0.688362  0.920965  1
  Se  Se53  1  0.367356  0.811638  0.079035  1
  Se  Se54  1  0.132644  0.188362  0.579035  1
  Se  Se55  1  0.632645  0.311638  0.420965  1
  Se  Se56  1  0.654958  0.388834  0.728159  1
  Se  Se57  1  0.154958  0.111166  0.271841  1
  Se  Se58  1  0.845042  0.611166  0.228159  1
  Se  Se59  1  0.345042  0.888834  0.771841  1
  Y  Y60  1  0.125083  0.391539  0.784006  1
  Y  Y61  1  0.625083  0.108461  0.215994  1
  Y  Y62  1  0.874917  0.891539  0.715994  1
  Y  Y63  1  0.374917  0.608461  0.284006  1
