# generated using pymatgen
data_LiIO3
_symmetry_space_group_name_H-M   'P 1'
_cell_length_a   6.23092444
_cell_length_b   9.96540343
_cell_length_c   9.96540343
_cell_angle_alpha   90.00000000
_cell_angle_beta   90.00000000
_cell_angle_gamma   90.00000000
_symmetry_Int_Tables_number   1
_chemical_formula_structural   LiIO3
_chemical_formula_sum   'Li8 I8 O24'
_cell_volume   618.78852966
_cell_formula_units_Z   8
loop_
 _symmetry_equiv_pos_site_id
 _symmetry_equiv_pos_as_xyz
  1  'x, y, z'
loop_
 _atom_site_type_symbol
 _atom_site_label
 _atom_site_symmetry_multiplicity
 _atom_site_fract_x
 _atom_site_fract_y
 _atom_site_fract_z
 _atom_site_occupancy
  Li  Li0  1  0.402100  0.431078  0.228595  1
  Li  Li1  1  0.902100  0.728595  0.568922  1
  Li  Li2  1  0.597900  0.931078  0.728595  1
  Li  Li3  1  0.097900  0.271405  0.431078  1
  Li  Li4  1  0.902100  0.771405  0.931078  1
  Li  Li5  1  0.597900  0.568922  0.771405  1
  Li  Li6  1  0.097900  0.228595  0.068922  1
  Li  Li7  1  0.402100  0.068922  0.271405  1
  I  I8  1  0.115627  0.032630  0.759909  1
  I  I9  1  0.884373  0.532630  0.259909  1
  I  I10  1  0.615627  0.259909  0.967370  1
  I  I11  1  0.384373  0.759909  0.467370  1
  I  I12  1  0.384373  0.740091  0.032630  1
  I  I13  1  0.615627  0.240091  0.532630  1
  I  I14  1  0.884373  0.967370  0.240091  1
  I  I15  1  0.115627  0.467370  0.740091  1
  O  O16  1  0.605573  0.795583  0.583209  1
  O  O17  1  0.055149  0.165413  0.880519  1
  O  O18  1  0.944851  0.834587  0.119481  1
  O  O19  1  0.105573  0.083209  0.204417  1
  O  O20  1  0.835057  0.345933  0.053900  1
  O  O21  1  0.605573  0.704417  0.916791  1
  O  O22  1  0.394427  0.295583  0.083209  1
  O  O23  1  0.335057  0.946100  0.845933  1
  O  O24  1  0.894427  0.583209  0.704417  1
  O  O25  1  0.164943  0.845933  0.553900  1
  O  O26  1  0.835057  0.154067  0.446100  1
  O  O27  1  0.335057  0.553900  0.654067  1
  O  O28  1  0.164943  0.654067  0.946100  1
  O  O29  1  0.944851  0.665413  0.380519  1
  O  O30  1  0.555149  0.119481  0.665413  1
  O  O31  1  0.555149  0.380519  0.834587  1
  O  O32  1  0.444851  0.880519  0.334587  1
  O  O33  1  0.894427  0.916791  0.795583  1
  O  O34  1  0.055149  0.334587  0.619481  1
  O  O35  1  0.664943  0.053900  0.154067  1
  O  O36  1  0.664943  0.446100  0.345933  1
  O  O37  1  0.444851  0.619481  0.165413  1
  O  O38  1  0.105573  0.416791  0.295583  1
  O  O39  1  0.394427  0.204417  0.416791  1
