# generated using pymatgen
data_La3C2Br3
_symmetry_space_group_name_H-M   'P 1'
_cell_length_a   10.45406569
_cell_length_b   10.45406569
_cell_length_c   17.30637084
_cell_angle_alpha   90.00000000
_cell_angle_beta   90.00000000
_cell_angle_gamma   112.09265422
_symmetry_Int_Tables_number   1
_chemical_formula_structural   La3C2Br3
_chemical_formula_sum   'La24 C16 Br24'
_cell_volume   1752.49950647
_cell_formula_units_Z   8
loop_
 _symmetry_equiv_pos_site_id
 _symmetry_equiv_pos_as_xyz
  1  'x, y, z'
loop_
 _atom_site_type_symbol
 _atom_site_label
 _atom_site_symmetry_multiplicity
 _atom_site_fract_x
 _atom_site_fract_y
 _atom_site_fract_z
 _atom_site_occupancy
  C  C0  1  0.859583  0.663149  0.023836  1
  C  C1  1  0.140417  0.336851  0.523836  1
  C  C2  1  0.663149  0.859583  0.976164  1
  C  C3  1  0.336851  0.140417  0.476164  1
  C  C4  1  0.913400  0.599715  0.968250  1
  C  C5  1  0.086600  0.400285  0.468250  1
  C  C6  1  0.599715  0.913400  0.031750  1
  C  C7  1  0.400285  0.086600  0.531750  1
  C  C8  1  0.713019  0.273088  0.650255  1
  C  C9  1  0.286981  0.726912  0.150255  1
  C  C10  1  0.273088  0.713019  0.349745  1
  C  C11  1  0.726912  0.286981  0.849745  1
  C  C12  1  0.783913  0.226339  0.905136  1
  C  C13  1  0.216087  0.773660  0.405136  1
  C  C14  1  0.226339  0.783913  0.094864  1
  C  C15  1  0.773660  0.216087  0.594864  1
  Br  Br16  1  0.244525  0.731689  0.629289  1
  Br  Br17  1  0.755475  0.268311  0.129289  1
  Br  Br18  1  0.731689  0.244525  0.370711  1
  Br  Br19  1  0.268311  0.755475  0.870711  1
  Br  Br20  1  0.857387  0.616665  0.502892  1
  Br  Br21  1  0.142613  0.383335  0.002892  1
  Br  Br22  1  0.616665  0.857387  0.497108  1
  Br  Br23  1  0.383335  0.142613  0.997108  1
  Br  Br24  1  0.134563  0.369287  0.740754  1
  Br  Br25  1  0.865437  0.630713  0.240754  1
  Br  Br26  1  0.369287  0.134563  0.259246  1
  Br  Br27  1  0.630713  0.865437  0.759246  1
  Br  Br28  1  0.505744  0.494276  0.383928  1
  Br  Br29  1  0.494256  0.505724  0.883928  1
  Br  Br30  1  0.494276  0.505744  0.616072  1
  Br  Br31  1  0.505724  0.494256  0.116072  1
  Br  Br32  1  0.897638  0.632311  0.742358  1
  Br  Br33  1  0.102362  0.367689  0.242358  1
  Br  Br34  1  0.632311  0.897638  0.257642  1
  Br  Br35  1  0.367689  0.102362  0.757642  1
  Br  Br36  1  0.024686  0.013530  0.131030  1
  Br  Br37  1  0.975314  0.986470  0.631030  1
  Br  Br38  1  0.013530  0.024686  0.868970  1
  Br  Br39  1  0.986470  0.975314  0.368970  1
  La  La40  1  0.165146  0.834854  0.250000  1
  La  La41  1  0.834854  0.165146  0.750000  1
  La  La42  1  0.983970  0.449448  0.603683  1
  La  La43  1  0.016030  0.550552  0.103683  1
  La  La44  1  0.449448  0.983970  0.396317  1
  La  La45  1  0.550552  0.016030  0.896317  1
  La  La46  1  0.225008  0.252434  0.395227  1
  La  La47  1  0.774992  0.747566  0.895227  1
  La  La48  1  0.252434  0.225008  0.604773  1
  La  La49  1  0.747566  0.774992  0.104773  1
  La  La50  1  0.608757  0.322316  0.517109  1
  La  La51  1  0.391243  0.677684  0.017109  1
  La  La52  1  0.322316  0.608757  0.482891  1
  La  La53  1  0.677684  0.391243  0.982891  1
  La  La54  1  0.884435  0.141119  0.497402  1
  La  La55  1  0.115565  0.858881  0.997402  1
  La  La56  1  0.141119  0.884435  0.502598  1
  La  La57  1  0.858881  0.115565  0.002598  1
  La  La58  1  0.375257  0.624743  0.250000  1
  La  La59  1  0.624743  0.375257  0.750000  1
  La  La60  1  0.987647  0.479936  0.875649  1
  La  La61  1  0.012353  0.520064  0.375649  1
  La  La62  1  0.479936  0.987647  0.124351  1
  La  La63  1  0.520064  0.012353  0.624351  1
