# generated using pymatgen
data_Ta3Br7
_symmetry_space_group_name_H-M   'P 1'
_cell_length_a   10.34020922
_cell_length_b   10.34020922
_cell_length_c   11.96051935
_cell_angle_alpha   90.00000000
_cell_angle_beta   90.00000000
_cell_angle_gamma   86.98977251
_symmetry_Int_Tables_number   1
_chemical_formula_structural   Ta3Br7
_chemical_formula_sum   'Ta12 Br28'
_cell_volume   1277.05330886
_cell_formula_units_Z   4
loop_
 _symmetry_equiv_pos_site_id
 _symmetry_equiv_pos_as_xyz
  1  'x, y, z'
loop_
 _atom_site_type_symbol
 _atom_site_label
 _atom_site_symmetry_multiplicity
 _atom_site_fract_x
 _atom_site_fract_y
 _atom_site_fract_z
 _atom_site_occupancy
  Br  Br0  1  0.127112  0.627112  0.250000  1
  Br  Br1  1  0.372888  0.872888  0.750000  1
  Br  Br2  1  0.872888  0.372888  0.750000  1
  Br  Br3  1  0.627112  0.127112  0.250000  1
  Br  Br4  1  0.165027  0.414445  0.020620  1
  Br  Br5  1  0.334973  0.085555  0.520620  1
  Br  Br6  1  0.914445  0.665027  0.479380  1
  Br  Br7  1  0.585555  0.834973  0.979380  1
  Br  Br8  1  0.834973  0.585555  0.979380  1
  Br  Br9  1  0.665027  0.914445  0.479380  1
  Br  Br10  1  0.085555  0.334973  0.520620  1
  Br  Br11  1  0.414445  0.165027  0.020620  1
  Br  Br12  1  0.379344  0.379344  0.264720  1
  Br  Br13  1  0.120656  0.120656  0.764720  1
  Br  Br14  1  0.879344  0.879344  0.235280  1
  Br  Br15  1  0.620656  0.620656  0.735280  1
  Br  Br16  1  0.755319  0.244681  0.000000  1
  Br  Br17  1  0.744681  0.255319  0.500000  1
  Br  Br18  1  0.244681  0.755319  0.000000  1
  Br  Br19  1  0.255319  0.744681  0.500000  1
  Br  Br20  1  0.715179  0.468447  0.238100  1
  Br  Br21  1  0.784821  0.031553  0.738100  1
  Br  Br22  1  0.968447  0.215179  0.261900  1
  Br  Br23  1  0.531553  0.284821  0.761900  1
  Br  Br24  1  0.284821  0.531553  0.761900  1
  Br  Br25  1  0.215179  0.968447  0.261900  1
  Br  Br26  1  0.031553  0.784821  0.738100  1
  Br  Br27  1  0.468447  0.715179  0.238100  1
  Ta  Ta28  1  0.389313  0.389313  0.920871  1
  Ta  Ta29  1  0.110687  0.110687  0.420871  1
  Ta  Ta30  1  0.889313  0.889313  0.579129  1
  Ta  Ta31  1  0.610687  0.610687  0.079129  1
  Ta  Ta32  1  0.345635  0.556004  0.108414  1
  Ta  Ta33  1  0.154365  0.943996  0.608414  1
  Ta  Ta34  1  0.056004  0.845635  0.391586  1
  Ta  Ta35  1  0.443996  0.654365  0.891586  1
  Ta  Ta36  1  0.654365  0.443996  0.891586  1
  Ta  Ta37  1  0.845635  0.056004  0.391586  1
  Ta  Ta38  1  0.943996  0.154365  0.608414  1
  Ta  Ta39  1  0.556004  0.345635  0.108414  1
