# generated using pymatgen
data_Th(TiH3)2
_symmetry_space_group_name_H-M   'P 1'
_cell_length_a   6.20866657
_cell_length_b   6.20866668
_cell_length_c   10.01917871
_cell_angle_alpha   90.00000000
_cell_angle_beta   90.00000000
_cell_angle_gamma   119.99999946
_symmetry_Int_Tables_number   1
_chemical_formula_structural   Th(TiH3)2
_chemical_formula_sum   'Th4 Ti8 H24'
_cell_volume   334.47174756
_cell_formula_units_Z   4
loop_
 _symmetry_equiv_pos_site_id
 _symmetry_equiv_pos_as_xyz
  1  'x, y, z'
loop_
 _atom_site_type_symbol
 _atom_site_label
 _atom_site_symmetry_multiplicity
 _atom_site_fract_x
 _atom_site_fract_y
 _atom_site_fract_z
 _atom_site_occupancy
  Th  Th0  1  0.333333  0.666667  0.439649  1
  Th  Th1  1  0.666667  0.333333  0.939649  1
  Th  Th2  1  0.666667  0.333333  0.560351  1
  Th  Th3  1  0.333333  0.666667  0.060351  1
  Ti  Ti4  1  0.166920  0.333841  0.750000  1
  Ti  Ti5  1  0.833080  0.166920  0.250000  1
  Ti  Ti6  1  0.333841  0.166920  0.250000  1
  Ti  Ti7  1  0.666159  0.833080  0.750000  1
  Ti  Ti8  1  0.166920  0.833080  0.750000  1
  Ti  Ti9  1  0.833080  0.666159  0.250000  1
  Ti  Ti10  1  -0.000000  -0.000000  0.500000  1
  Ti  Ti11  1  -0.000000  -0.000000  -0.000000  1
  H  H12  1  0.154239  0.845761  0.567575  1
  H  H13  1  0.154239  0.308479  0.567575  1
  H  H14  1  0.691521  0.845761  0.567575  1
  H  H15  1  0.308479  0.154239  0.067575  1
  H  H16  1  0.845761  0.691521  0.432425  1
  H  H17  1  0.845761  0.154239  0.067575  1
  H  H18  1  0.845761  0.691521  0.067575  1
  H  H19  1  0.154239  0.845761  0.932425  1
  H  H20  1  0.691521  0.845761  0.932425  1
  H  H21  1  0.308479  0.154239  0.432425  1
  H  H22  1  0.845761  0.154239  0.432425  1
  H  H23  1  0.154239  0.308479  0.932425  1
  H  H24  1  0.541895  0.083790  0.352626  1
  H  H25  1  0.458105  0.541895  0.852626  1
  H  H26  1  0.083790  0.541895  0.852626  1
  H  H27  1  0.916210  0.458105  0.352626  1
  H  H28  1  0.541895  0.458105  0.352626  1
  H  H29  1  0.458105  0.916210  0.647374  1
  H  H30  1  0.458105  0.541895  0.647374  1
  H  H31  1  0.458105  0.916210  0.852626  1
  H  H32  1  0.083790  0.541895  0.647374  1
  H  H33  1  0.916210  0.458105  0.147374  1
  H  H34  1  0.541895  0.083790  0.147374  1
  H  H35  1  0.541895  0.458105  0.147374  1
