# generated using pymatgen
data_Nb2SeF14
_symmetry_space_group_name_H-M   'P 1'
_cell_length_a   7.82361588
_cell_length_b   9.04874990
_cell_length_c   17.59701745
_cell_angle_alpha   90.00000000
_cell_angle_beta   90.00000000
_cell_angle_gamma   103.77906237
_symmetry_Int_Tables_number   1
_chemical_formula_structural   Nb2SeF14
_chemical_formula_sum   'Nb8 Se4 F56'
_cell_volume   1209.91094207
_cell_formula_units_Z   4
loop_
 _symmetry_equiv_pos_site_id
 _symmetry_equiv_pos_as_xyz
  1  'x, y, z'
loop_
 _atom_site_type_symbol
 _atom_site_label
 _atom_site_symmetry_multiplicity
 _atom_site_fract_x
 _atom_site_fract_y
 _atom_site_fract_z
 _atom_site_occupancy
  F  F0  1  0.821487  0.307633  0.667312  1
  F  F1  1  0.178513  0.192367  0.167312  1
  F  F2  1  0.178513  0.692367  0.332688  1
  F  F3  1  0.821487  0.807633  0.832688  1
  F  F4  1  0.679635  0.032440  0.700917  1
  F  F5  1  0.320365  0.467560  0.200917  1
  F  F6  1  0.320365  0.967560  0.299083  1
  F  F7  1  0.679635  0.532440  0.799083  1
  F  F8  1  0.681489  0.128213  0.566514  1
  F  F9  1  0.318511  0.371787  0.066514  1
  F  F10  1  0.318511  0.871787  0.433486  1
  F  F11  1  0.681489  0.628213  0.933486  1
  F  F12  1  0.027876  0.661571  0.757037  1
  F  F13  1  0.972124  0.838429  0.257037  1
  F  F14  1  0.972124  0.338429  0.242963  1
  F  F15  1  0.027876  0.161571  0.742963  1
  F  F16  1  0.380620  0.794777  0.600606  1
  F  F17  1  0.619380  0.705223  0.100606  1
  F  F18  1  0.619380  0.205223  0.399394  1
  F  F19  1  0.380620  0.294777  0.899394  1
  F  F20  1  0.391815  0.767330  0.758098  1
  F  F21  1  0.608185  0.732670  0.258098  1
  F  F22  1  0.608185  0.232670  0.241902  1
  F  F23  1  0.391815  0.267330  0.741902  1
  F  F24  1  0.156931  0.919271  0.678209  1
  F  F25  1  0.843069  0.580729  0.178209  1
  F  F26  1  0.843069  0.080729  0.321791  1
  F  F27  1  0.156931  0.419271  0.821791  1
  F  F28  1  0.217016  0.520676  0.662337  1
  F  F29  1  0.782984  0.979324  0.162337  1
  F  F30  1  0.782984  0.479324  0.337663  1
  F  F31  1  0.217016  0.020676  0.837663  1
  F  F32  1  0.010017  0.676222  0.600938  1
  F  F33  1  0.989983  0.823778  0.100938  1
  F  F34  1  0.989983  0.323778  0.399062  1
  F  F35  1  0.010017  0.176222  0.899062  1
  F  F36  1  0.952894  0.757681  0.456396  1
  F  F37  1  0.047106  0.742319  0.956396  1
  F  F38  1  0.047106  0.242319  0.543604  1
  F  F39  1  0.952894  0.257681  0.043604  1
  F  F40  1  0.654074  0.607475  0.627918  1
  F  F41  1  0.345926  0.892525  0.127918  1
  F  F42  1  0.345926  0.392525  0.372082  1
  F  F43  1  0.654074  0.107475  0.872082  1
  F  F44  1  0.592291  0.679638  0.476485  1
  F  F45  1  0.407709  0.820362  0.976485  1
  F  F46  1  0.407709  0.320362  0.523515  1
  F  F47  1  0.592291  0.179638  0.023515  1
  F  F48  1  0.821821  0.884336  0.575515  1
  F  F49  1  0.178179  0.615664  0.075515  1
  F  F50  1  0.178179  0.115664  0.424485  1
  F  F51  1  0.821821  0.384336  0.924485  1
  F  F52  1  0.796395  0.473179  0.512149  1
  F  F53  1  0.203605  0.026821  0.012149  1
  F  F54  1  0.203605  0.526821  0.487851  1
  F  F55  1  0.796395  0.973179  0.987851  1
  Se  Se56  1  0.835239  0.628925  0.862934  1
  Se  Se57  1  0.164761  0.871075  0.362934  1
  Se  Se58  1  0.164761  0.371075  0.137066  1
  Se  Se59  1  0.835239  0.128925  0.637066  1
  Nb  Nb60  1  0.221491  0.228434  0.818594  1
  Nb  Nb61  1  0.778509  0.271566  0.318594  1
  Nb  Nb62  1  0.778509  0.771566  0.181406  1
  Nb  Nb63  1  0.221491  0.728434  0.681406  1
  Nb  Nb64  1  0.784091  0.672155  0.538665  1
  Nb  Nb65  1  0.215909  0.827845  0.038665  1
  Nb  Nb66  1  0.215909  0.327845  0.461335  1
  Nb  Nb67  1  0.784091  0.172155  0.961335  1
