# generated using pymatgen
data_K5ThF9
_symmetry_space_group_name_H-M   'P 1'
_cell_length_a   7.61961303
_cell_length_b   7.61961276
_cell_length_c   10.91371582
_cell_angle_alpha   90.00000000
_cell_angle_beta   90.00000000
_cell_angle_gamma   117.28317425
_symmetry_Int_Tables_number   1
_chemical_formula_structural   K5ThF9
_chemical_formula_sum   'K10 Th2 F18'
_cell_volume   563.14339066
_cell_formula_units_Z   2
loop_
 _symmetry_equiv_pos_site_id
 _symmetry_equiv_pos_as_xyz
  1  'x, y, z'
loop_
 _atom_site_type_symbol
 _atom_site_label
 _atom_site_symmetry_multiplicity
 _atom_site_fract_x
 _atom_site_fract_y
 _atom_site_fract_z
 _atom_site_occupancy
  K  K0  1  0.876959  0.604797  0.447172  1
  K  K1  1  0.142669  0.354780  0.599178  1
  K  K2  1  0.395203  0.123041  0.447172  1
  K  K3  1  0.123041  0.395203  0.947172  1
  K  K4  1  0.645220  0.857331  0.599178  1
  K  K5  1  0.422559  0.577441  0.284765  1
  K  K6  1  0.604797  0.876959  0.947172  1
  K  K7  1  0.354780  0.142669  0.099178  1
  K  K8  1  0.857331  0.645220  0.099178  1
  K  K9  1  0.577441  0.422559  0.784765  1
  Th  Th10  1  0.838067  0.161933  0.250277  1
  Th  Th11  1  0.161933  0.838067  0.750277  1
  F  F12  1  0.040724  0.959276  0.593722  1
  F  F13  1  0.945979  0.504969  0.727926  1
  F  F14  1  0.244325  0.755675  0.550686  1
  F  F15  1  0.785168  0.850224  0.321742  1
  F  F16  1  0.054021  0.495031  0.227926  1
  F  F17  1  0.348316  0.651684  0.775794  1
  F  F18  1  0.504969  0.945979  0.227926  1
  F  F19  1  0.517090  0.482910  0.539711  1
  F  F20  1  0.850224  0.785168  0.821742  1
  F  F21  1  0.799765  0.200235  0.458509  1
  F  F22  1  0.149776  0.214832  0.321742  1
  F  F23  1  0.214832  0.149776  0.821742  1
  F  F24  1  0.495031  0.054021  0.727926  1
  F  F25  1  0.651684  0.348316  0.275794  1
  F  F26  1  0.959276  0.040724  0.093722  1
  F  F27  1  0.755675  0.244325  0.050686  1
  F  F28  1  0.482910  0.517090  0.039711  1
  F  F29  1  0.200235  0.799765  0.958509  1
