# generated using pymatgen
data_Ag(W3Br7)2
_symmetry_space_group_name_H-M   'P 1'
_cell_length_a   13.76100270
_cell_length_b   13.76100270
_cell_length_c   13.76100270
_cell_angle_alpha   90.00000000
_cell_angle_beta   90.00000000
_cell_angle_gamma   90.00000000
_symmetry_Int_Tables_number   1
_chemical_formula_structural   Ag(W3Br7)2
_chemical_formula_sum   'Ag4 W24 Br56'
_cell_volume   2605.85496394
_cell_formula_units_Z   4
loop_
 _symmetry_equiv_pos_site_id
 _symmetry_equiv_pos_as_xyz
  1  'x, y, z'
loop_
 _atom_site_type_symbol
 _atom_site_label
 _atom_site_symmetry_multiplicity
 _atom_site_fract_x
 _atom_site_fract_y
 _atom_site_fract_z
 _atom_site_occupancy
  Br  Br0  1  0.137368  0.137368  0.137368  1
  Br  Br1  1  0.362632  0.362632  0.137368  1
  Br  Br2  1  0.137368  0.362632  0.362632  1
  Br  Br3  1  0.362632  0.137368  0.362632  1
  Br  Br4  1  0.862632  0.862632  0.862632  1
  Br  Br5  1  0.637368  0.637368  0.862632  1
  Br  Br6  1  0.862632  0.637368  0.637368  1
  Br  Br7  1  0.637368  0.862632  0.637368  1
  Br  Br8  1  0.183283  0.074744  0.873200  1
  Br  Br9  1  0.873200  0.183283  0.074744  1
  Br  Br10  1  0.074744  0.873200  0.183283  1
  Br  Br11  1  0.425256  0.626800  0.183283  1
  Br  Br12  1  0.873200  0.316717  0.425256  1
  Br  Br13  1  0.425256  0.873200  0.316717  1
  Br  Br14  1  0.626800  0.316717  0.074744  1
  Br  Br15  1  0.626800  0.183283  0.425256  1
  Br  Br16  1  0.074744  0.626800  0.316717  1
  Br  Br17  1  0.183283  0.425256  0.626800  1
  Br  Br18  1  0.316717  0.074744  0.626800  1
  Br  Br19  1  0.316717  0.425256  0.873200  1
  Br  Br20  1  0.816717  0.925256  0.126800  1
  Br  Br21  1  0.126800  0.816717  0.925256  1
  Br  Br22  1  0.925256  0.126800  0.816717  1
  Br  Br23  1  0.574744  0.373200  0.816717  1
  Br  Br24  1  0.126800  0.683283  0.574744  1
  Br  Br25  1  0.574744  0.126800  0.683283  1
  Br  Br26  1  0.373200  0.683283  0.925256  1
  Br  Br27  1  0.373200  0.816717  0.574744  1
  Br  Br28  1  0.925256  0.373200  0.683283  1
  Br  Br29  1  0.816717  0.574744  0.373200  1
  Br  Br30  1  0.683283  0.925256  0.373200  1
  Br  Br31  1  0.683283  0.574744  0.126800  1
  Br  Br32  1  0.311897  0.942509  0.077890  1
  Br  Br33  1  0.077890  0.311897  0.942509  1
  Br  Br34  1  0.942509  0.077890  0.311897  1
  Br  Br35  1  0.557491  0.422110  0.311897  1
  Br  Br36  1  0.077890  0.188103  0.557491  1
  Br  Br37  1  0.557491  0.077890  0.188103  1
  Br  Br38  1  0.422110  0.188103  0.942509  1
  Br  Br39  1  0.422110  0.311897  0.557491  1
  Br  Br40  1  0.942509  0.422110  0.188103  1
  Br  Br41  1  0.311897  0.557491  0.422110  1
  Br  Br42  1  0.188103  0.942509  0.422110  1
  Br  Br43  1  0.188103  0.557491  0.077890  1
  Br  Br44  1  0.688103  0.057491  0.922110  1
  Br  Br45  1  0.922110  0.688103  0.057491  1
  Br  Br46  1  0.057491  0.922110  0.688103  1
  Br  Br47  1  0.442509  0.577890  0.688103  1
  Br  Br48  1  0.922110  0.811897  0.442509  1
  Br  Br49  1  0.442509  0.922110  0.811897  1
  Br  Br50  1  0.577890  0.811897  0.057491  1
  Br  Br51  1  0.577890  0.688103  0.442509  1
  Br  Br52  1  0.057491  0.577890  0.811897  1
  Br  Br53  1  0.688103  0.442509  0.577890  1
  Br  Br54  1  0.811897  0.057491  0.577890  1
  Br  Br55  1  0.811897  0.442509  0.922110  1
  Ag  Ag56  1  0.500000  0.000000  0.000000  1
  Ag  Ag57  1  0.000000  0.500000  0.000000  1
  Ag  Ag58  1  0.000000  0.000000  0.500000  1
  Ag  Ag59  1  0.500000  0.500000  0.500000  1
  W  W60  1  0.131717  0.977098  0.030838  1
  W  W61  1  0.030838  0.131717  0.977098  1
  W  W62  1  0.977098  0.030838  0.131717  1
  W  W63  1  0.522902  0.469162  0.131717  1
  W  W64  1  0.030838  0.368283  0.522902  1
  W  W65  1  0.522902  0.030838  0.368283  1
  W  W66  1  0.469162  0.368283  0.977098  1
  W  W67  1  0.469162  0.131717  0.522902  1
  W  W68  1  0.977098  0.469162  0.368283  1
  W  W69  1  0.131717  0.522902  0.469162  1
  W  W70  1  0.368283  0.977098  0.469162  1
  W  W71  1  0.368283  0.522902  0.030838  1
  W  W72  1  0.868283  0.022902  0.969162  1
  W  W73  1  0.969162  0.868283  0.022902  1
  W  W74  1  0.022902  0.969162  0.868283  1
  W  W75  1  0.477098  0.530838  0.868283  1
  W  W76  1  0.969162  0.631717  0.477098  1
  W  W77  1  0.477098  0.969162  0.631717  1
  W  W78  1  0.530838  0.631717  0.022902  1
  W  W79  1  0.530838  0.868283  0.477098  1
  W  W80  1  0.022902  0.530838  0.631717  1
  W  W81  1  0.868283  0.477098  0.530838  1
  W  W82  1  0.631717  0.022902  0.530838  1
  W  W83  1  0.631717  0.477098  0.969162  1
