# generated using pymatgen
data_BaPbO3
_symmetry_space_group_name_H-M   'P 1'
_cell_length_a   6.13386156
_cell_length_b   6.21654866
_cell_length_c   6.15581808
_cell_angle_alpha   120.32318460
_cell_angle_beta   119.88460149
_cell_angle_gamma   90.00030654
_symmetry_Int_Tables_number   1
_chemical_formula_structural   BaPbO3
_chemical_formula_sum   'Ba2 Pb2 O6'
_cell_volume   165.45383169
_cell_formula_units_Z   2
loop_
 _symmetry_equiv_pos_site_id
 _symmetry_equiv_pos_as_xyz
  1  'x, y, z'
loop_
 _atom_site_type_symbol
 _atom_site_label
 _atom_site_symmetry_multiplicity
 _atom_site_fract_x
 _atom_site_fract_y
 _atom_site_fract_z
 _atom_site_occupancy
  O  O0  1  0.709636  0.209592  0.919243  1
  O  O1  1  0.750026  0.679124  0.500084  1
  Pb  Pb2  1  -0.000222  -0.000307  -0.000289  1
  Ba  Ba3  1  0.750029  0.243053  0.499985  1
  O  O4  1  0.250027  0.320947  0.500047  1
  O  O5  1  0.209773  0.209644  0.919319  1
  O  O6  1  0.290398  0.790384  0.080758  1
  O  O7  1  0.790407  0.790408  0.080782  1
  Ba  Ba8  1  0.250061  0.756951  0.500025  1
  Pb  Pb9  1  0.499866  0.500206  1.000046  1
