# generated using pymatgen
data_HgBrO3
_symmetry_space_group_name_H-M   'P 1'
_cell_length_a   4.72800369
_cell_length_b   9.07243897
_cell_length_c   9.88205155
_cell_angle_alpha   105.69170509
_cell_angle_beta   103.84061311
_cell_angle_gamma   90.00000001
_symmetry_Int_Tables_number   1
_chemical_formula_structural   HgBrO3
_chemical_formula_sum   'Hg4 Br4 O12'
_cell_volume   395.28895021
_cell_formula_units_Z   4
loop_
 _symmetry_equiv_pos_site_id
 _symmetry_equiv_pos_as_xyz
  1  'x, y, z'
loop_
 _atom_site_type_symbol
 _atom_site_label
 _atom_site_symmetry_multiplicity
 _atom_site_fract_x
 _atom_site_fract_y
 _atom_site_fract_z
 _atom_site_occupancy
  O  O0  1  0.335472  0.198240  0.820254  1
  O  O1  1  0.515218  0.301760  0.179746  1
  O  O2  1  0.664528  0.801760  0.179746  1
  O  O3  1  0.484782  0.698240  0.820254  1
  O  O4  1  0.541298  0.326440  0.645583  1
  O  O5  1  0.895715  0.173560  0.354417  1
  O  O6  1  0.458702  0.673560  0.354417  1
  O  O7  1  0.104285  0.826440  0.645583  1
  O  O8  1  0.980022  0.541514  0.657024  1
  O  O9  1  0.322998  0.958486  0.342976  1
  O  O10  1  0.019978  0.458486  0.342976  1
  O  O11  1  0.677002  0.041514  0.657024  1
  Br  Br12  1  0.390853  0.163172  0.653446  1
  Br  Br13  1  0.737407  0.336828  0.346554  1
  Br  Br14  1  0.609147  0.836828  0.346554  1
  Br  Br15  1  0.262593  0.663172  0.653446  1
  Hg  Hg16  1  0.963189  0.512366  0.869504  1
  Hg  Hg17  1  0.093686  0.987634  0.130496  1
  Hg  Hg18  1  0.036811  0.487634  0.130496  1
  Hg  Hg19  1  0.906314  0.012366  0.869504  1
