# generated using pymatgen
data_NiWO4
_symmetry_space_group_name_H-M   'P 1'
_cell_length_a   4.66740052
_cell_length_b   5.02364949
_cell_length_c   5.73210290
_cell_angle_alpha   90.00000000
_cell_angle_beta   90.00000000
_cell_angle_gamma   90.69354030
_symmetry_Int_Tables_number   1
_chemical_formula_structural   NiWO4
_chemical_formula_sum   'Ni2 W2 O8'
_cell_volume   134.39297281
_cell_formula_units_Z   2
loop_
 _symmetry_equiv_pos_site_id
 _symmetry_equiv_pos_as_xyz
  1  'x, y, z'
loop_
 _atom_site_type_symbol
 _atom_site_label
 _atom_site_symmetry_multiplicity
 _atom_site_fract_x
 _atom_site_fract_y
 _atom_site_fract_z
 _atom_site_occupancy
  O  O0  1  0.740506  0.096845  0.377235  1
  O  O1  1  0.259494  0.403155  0.377235  1
  O  O2  1  0.259494  0.903155  0.622765  1
  O  O3  1  0.740506  0.596845  0.622765  1
  O  O4  1  0.780502  0.069729  0.890762  1
  O  O5  1  0.219498  0.430271  0.890762  1
  O  O6  1  0.219498  0.930271  0.109238  1
  O  O7  1  0.780502  0.569729  0.109238  1
  Ni  Ni8  1  0.500000  0.250000  0.655212  1
  Ni  Ni9  1  0.500000  0.750000  0.344788  1
  W  W10  1  0.000000  0.250000  0.173923  1
  W  W11  1  0.000000  0.750000  0.826077  1
