# generated using pymatgen
data_Nb3InSe12
_symmetry_space_group_name_H-M   'P 1'
_cell_length_a   9.22478602
_cell_length_b   9.22478602
_cell_length_c   19.65151255
_cell_angle_alpha   90.00000000
_cell_angle_beta   90.00000000
_cell_angle_gamma   90.00000000
_symmetry_Int_Tables_number   1
_chemical_formula_structural   Nb3InSe12
_chemical_formula_sum   'Nb12 In4 Se48'
_cell_volume   1672.27841828
_cell_formula_units_Z   4
loop_
 _symmetry_equiv_pos_site_id
 _symmetry_equiv_pos_as_xyz
  1  'x, y, z'
loop_
 _atom_site_type_symbol
 _atom_site_label
 _atom_site_symmetry_multiplicity
 _atom_site_fract_x
 _atom_site_fract_y
 _atom_site_fract_z
 _atom_site_occupancy
  Se  Se0  1  0.931195  0.276200  0.670630  1
  Se  Se1  1  0.068805  0.723800  0.670630  1
  Se  Se2  1  0.776200  0.431195  0.829370  1
  Se  Se3  1  0.276200  0.068805  0.670630  1
  Se  Se4  1  0.723800  0.931195  0.670630  1
  Se  Se5  1  0.568805  0.776200  0.829370  1
  Se  Se6  1  0.431195  0.223800  0.829370  1
  Se  Se7  1  0.223800  0.568805  0.829370  1
  Se  Se8  1  0.068805  0.723800  0.329370  1
  Se  Se9  1  0.931195  0.276200  0.329370  1
  Se  Se10  1  0.223800  0.568805  0.170630  1
  Se  Se11  1  0.723800  0.931195  0.329370  1
  Se  Se12  1  0.276200  0.068805  0.329370  1
  Se  Se13  1  0.431195  0.223800  0.170630  1
  Se  Se14  1  0.568805  0.776200  0.170630  1
  Se  Se15  1  0.194975  0.618154  0.500000  1
  Se  Se16  1  0.776200  0.431195  0.170630  1
  Se  Se17  1  0.705974  0.118751  0.165998  1
  Se  Se18  1  0.294026  0.881249  0.165998  1
  Se  Se19  1  0.618751  0.205974  0.334002  1
  Se  Se20  1  0.381249  0.794026  0.334002  1
  Se  Se21  1  0.881249  0.705974  0.165998  1
  Se  Se22  1  0.794026  0.618751  0.334002  1
  Se  Se23  1  0.205974  0.381249  0.334002  1
  Se  Se24  1  0.881249  0.705974  0.834002  1
  Se  Se25  1  0.294026  0.881249  0.834002  1
  Se  Se26  1  0.705974  0.118751  0.834002  1
  Se  Se27  1  0.381249  0.794026  0.665998  1
  Se  Se28  1  0.618751  0.205974  0.665998  1
  Se  Se29  1  0.118751  0.294026  0.834002  1
  Se  Se30  1  0.205974  0.381249  0.665998  1
  Se  Se31  1  0.794026  0.618751  0.665998  1
  Se  Se32  1  0.214212  0.456389  0.000000  1
  Se  Se33  1  0.543611  0.214212  0.000000  1
  Se  Se34  1  0.456389  0.785788  0.000000  1
  Se  Se35  1  0.714212  0.043611  0.500000  1
  Se  Se36  1  0.285788  0.956389  0.500000  1
  Se  Se37  1  0.785788  0.543611  0.000000  1
  Se  Se38  1  0.956389  0.714212  0.500000  1
  Se  Se39  1  0.043611  0.285788  0.500000  1
  Se  Se40  1  0.881846  0.305025  0.000000  1
  Se  Se41  1  0.694975  0.881846  0.000000  1
  Se  Se42  1  0.305025  0.118154  0.000000  1
  Se  Se43  1  0.381846  0.194975  0.500000  1
  Se  Se44  1  0.618154  0.805025  0.500000  1
  Se  Se45  1  0.118154  0.694975  0.000000  1
  Se  Se46  1  0.805025  0.381846  0.500000  1
  Se  Se47  1  0.118751  0.294026  0.165998  1
  Nb  Nb48  1  0.500000  0.000000  0.750000  1
  Nb  Nb49  1  0.000000  0.500000  0.750000  1
  Nb  Nb50  1  0.500000  0.000000  0.250000  1
  Nb  Nb51  1  0.000000  0.500000  0.250000  1
  Nb  Nb52  1  0.000000  0.500000  0.592292  1
  Nb  Nb53  1  0.500000  0.000000  0.592292  1
  Nb  Nb54  1  0.500000  0.000000  0.907708  1
  Nb  Nb55  1  0.000000  0.500000  0.907708  1
  Nb  Nb56  1  0.000000  0.500000  0.407708  1
  Nb  Nb57  1  0.500000  0.000000  0.407708  1
  Nb  Nb58  1  0.500000  0.000000  0.092292  1
  Nb  Nb59  1  0.000000  0.500000  0.092292  1
  In  In60  1  0.500000  0.500000  0.664186  1
  In  In61  1  0.000000  0.000000  0.835814  1
  In  In62  1  0.500000  0.500000  0.335814  1
  In  In63  1  0.000000  0.000000  0.164186  1
