# generated using pymatgen
data_Cs2HgI4
_symmetry_space_group_name_H-M   'P 1'
_cell_length_a   8.14143230
_cell_length_b   8.61498588
_cell_length_c   11.43250926
_cell_angle_alpha   90.00000000
_cell_angle_beta   111.95474915
_cell_angle_gamma   90.00000000
_symmetry_Int_Tables_number   1
_chemical_formula_structural   Cs2HgI4
_chemical_formula_sum   'Cs4 Hg2 I8'
_cell_volume   743.70590497
_cell_formula_units_Z   2
loop_
 _symmetry_equiv_pos_site_id
 _symmetry_equiv_pos_as_xyz
  1  'x, y, z'
loop_
 _atom_site_type_symbol
 _atom_site_label
 _atom_site_symmetry_multiplicity
 _atom_site_fract_x
 _atom_site_fract_y
 _atom_site_fract_z
 _atom_site_occupancy
  I  I0  1  0.254349  0.986331  0.214834  1
  I  I1  1  0.279905  0.750000  0.855202  1
  I  I2  1  0.190473  0.250000  0.546549  1
  I  I3  1  0.809527  0.750000  0.453451  1
  I  I4  1  0.254349  0.513669  0.214834  1
  I  I5  1  0.720095  0.250000  0.144798  1
  I  I6  1  0.745651  0.486331  0.785166  1
  I  I7  1  0.745651  0.013669  0.785166  1
  Cs  Cs8  1  0.337167  0.750000  0.534892  1
  Cs  Cs9  1  0.209489  0.250000  0.909697  1
  Cs  Cs10  1  0.662833  0.250000  0.465108  1
  Cs  Cs11  1  0.790511  0.750000  0.090303  1
  Hg  Hg12  1  0.908337  0.750000  0.723478  1
  Hg  Hg13  1  0.091663  0.250000  0.276522  1
