# generated using pymatgen
data_PrZnSn
_symmetry_space_group_name_H-M   'P 1'
_cell_length_a   4.59432460
_cell_length_b   4.59432460
_cell_length_c   16.77542859
_cell_angle_alpha   90.00000000
_cell_angle_beta   90.00000000
_cell_angle_gamma   119.99999998
_symmetry_Int_Tables_number   1
_chemical_formula_structural   PrZnSn
_chemical_formula_sum   'Pr4 Zn4 Sn4'
_cell_volume   306.65327585
_cell_formula_units_Z   4
loop_
 _symmetry_equiv_pos_site_id
 _symmetry_equiv_pos_as_xyz
  1  'x, y, z'
loop_
 _atom_site_type_symbol
 _atom_site_label
 _atom_site_symmetry_multiplicity
 _atom_site_fract_x
 _atom_site_fract_y
 _atom_site_fract_z
 _atom_site_occupancy
  Zn  Zn0  1  0.666667  0.333333  0.843725  1
  Zn  Zn1  1  0.666667  0.333333  0.656275  1
  Zn  Zn2  1  0.333333  0.666667  0.156275  1
  Zn  Zn3  1  0.333333  0.666667  0.343725  1
  Sn  Sn4  1  0.666667  0.333333  0.116374  1
  Sn  Sn5  1  0.666667  0.333333  0.383626  1
  Sn  Sn6  1  0.333333  0.666667  0.883626  1
  Sn  Sn7  1  0.333333  0.666667  0.616374  1
  Pr  Pr8  1  0.000000  0.000000  0.750000  1
  Pr  Pr9  1  0.000000  0.000000  0.250000  1
  Pr  Pr10  1  0.000000  0.000000  0.500000  1
  Pr  Pr11  1  0.000000  0.000000  0.000000  1
