# generated using pymatgen
data_K2Si2O5
_symmetry_space_group_name_H-M   'P 1'
_cell_length_a   10.10588934
_cell_length_b   10.10588934
_cell_length_c   10.10100424
_cell_angle_alpha   68.61792177
_cell_angle_beta   68.61792174
_cell_angle_gamma   68.81756335
_symmetry_Int_Tables_number   1
_chemical_formula_structural   K2Si2O5
_chemical_formula_sum   'K12 Si12 O30'
_cell_volume   862.88678630
_cell_formula_units_Z   6
loop_
 _symmetry_equiv_pos_site_id
 _symmetry_equiv_pos_as_xyz
  1  'x, y, z'
loop_
 _atom_site_type_symbol
 _atom_site_label
 _atom_site_symmetry_multiplicity
 _atom_site_fract_x
 _atom_site_fract_y
 _atom_site_fract_z
 _atom_site_occupancy
  O  O0  1  0.116444  0.525453  0.176252  1
  O  O1  1  0.969720  0.518224  0.010208  1
  O  O2  1  0.518224  0.969720  0.510208  1
  O  O3  1  0.563920  0.823137  0.782820  1
  O  O4  1  0.823137  0.563920  0.282820  1
  O  O5  1  0.061586  0.076568  0.152907  1
  O  O6  1  0.076568  0.061586  0.652907  1
  O  O7  1  0.765884  0.560379  0.757251  1
  O  O8  1  0.560379  0.765884  0.257251  1
  O  O9  1  0.070238  0.584058  0.433099  1
  O  O10  1  0.584058  0.070238  0.933099  1
  O  O11  1  0.095282  0.261694  0.753640  1
  O  O12  1  0.790521  0.127450  0.660837  1
  O  O13  1  0.127450  0.790521  0.160837  1
  O  O14  1  0.001245  0.034418  0.442252  1
  O  O15  1  0.034418  0.001245  0.942252  1
  O  O16  1  0.606347  0.567386  0.515387  1
  O  O17  1  0.567386  0.606347  0.015387  1
  O  O18  1  0.592715  0.478938  0.297400  1
  O  O19  1  0.478938  0.592715  0.797400  1
  O  O20  1  0.958635  0.840321  0.713793  1
  O  O21  1  0.840321  0.958635  0.213793  1
  O  O22  1  0.323072  0.555333  0.660831  1
  O  O23  1  0.555333  0.323072  0.160831  1
  O  O24  1  0.557920  0.335240  0.736720  1
  O  O25  1  0.335240  0.557920  0.236720  1
  O  O26  1  0.525453  0.116444  0.676252  1
  O  O27  1  0.300530  0.992119  0.766643  1
  O  O28  1  0.992119  0.300530  0.266643  1
  O  O29  1  0.261694  0.095282  0.253640  1
  Si  Si30  1  0.486000  0.513202  0.674040  1
  Si  Si31  1  0.154227  0.615106  0.263091  1
  Si  Si32  1  0.615106  0.154227  0.763091  1
  Si  Si33  1  0.006030  0.954739  0.125149  1
  Si  Si34  1  0.954739  0.006030  0.625149  1
  Si  Si35  1  0.125696  0.090176  0.778926  1
  Si  Si36  1  0.090176  0.125696  0.278926  1
  Si  Si37  1  0.973972  0.477928  0.175831  1
  Si  Si38  1  0.477928  0.973972  0.675831  1
  Si  Si39  1  0.603150  0.639264  0.832933  1
  Si  Si40  1  0.639264  0.603150  0.332933  1
  Si  Si41  1  0.513202  0.486000  0.174040  1
  K  K42  1  0.384765  0.900815  0.070082  1
  K  K43  1  0.900815  0.384765  0.570082  1
  K  K44  1  0.713773  0.165391  0.376088  1
  K  K45  1  0.165391  0.713773  0.876088  1
  K  K46  1  0.768948  0.797366  0.978793  1
  K  K47  1  0.797366  0.768948  0.478793  1
  K  K48  1  0.564871  0.038754  0.216694  1
  K  K49  1  0.038754  0.564871  0.716694  1
  K  K50  1  0.362065  0.316270  0.033561  1
  K  K51  1  0.316270  0.362065  0.533561  1
  K  K52  1  0.324003  0.855894  0.479440  1
  K  K53  1  0.855894  0.324003  0.979440  1
