# generated using pymatgen
data_Co3C
_symmetry_space_group_name_H-M   'P 1'
_cell_length_a   4.43388567
_cell_length_b   4.93872827
_cell_length_c   6.69669617
_cell_angle_alpha   90.00000000
_cell_angle_beta   90.00000000
_cell_angle_gamma   90.00000000
_symmetry_Int_Tables_number   1
_chemical_formula_structural   Co3C
_chemical_formula_sum   'Co12 C4'
_cell_volume   146.64262211
_cell_formula_units_Z   4
loop_
 _symmetry_equiv_pos_site_id
 _symmetry_equiv_pos_as_xyz
  1  'x, y, z'
loop_
 _atom_site_type_symbol
 _atom_site_label
 _atom_site_symmetry_multiplicity
 _atom_site_fract_x
 _atom_site_fract_y
 _atom_site_fract_z
 _atom_site_occupancy
  C  C0  1  0.553463  0.119457  0.750000  1
  C  C1  1  0.053463  0.380543  0.250000  1
  C  C2  1  0.946537  0.619457  0.750000  1
  C  C3  1  0.446537  0.880543  0.250000  1
  Co  Co4  1  0.670427  0.819803  0.930222  1
  Co  Co5  1  0.170427  0.680197  0.069778  1
  Co  Co6  1  0.829573  0.319803  0.569778  1
  Co  Co7  1  0.329573  0.180197  0.430222  1
  Co  Co8  1  0.843439  0.037948  0.250000  1
  Co  Co9  1  0.343439  0.462052  0.750000  1
  Co  Co10  1  0.656561  0.537948  0.250000  1
  Co  Co11  1  0.156561  0.962052  0.750000  1
  Co  Co12  1  0.670427  0.819803  0.569778  1
  Co  Co13  1  0.170427  0.680197  0.430222  1
  Co  Co14  1  0.829573  0.319803  0.930222  1
  Co  Co15  1  0.329573  0.180197  0.069778  1
