# generated using pymatgen
data_LiIn(MoO4)2
_symmetry_space_group_name_H-M   'P 1'
_cell_length_a   5.09344906
_cell_length_b   7.59105590
_cell_length_c   7.59105590
_cell_angle_alpha   100.88394357
_cell_angle_beta   91.12112933
_cell_angle_gamma   91.12112936
_symmetry_Int_Tables_number   1
_chemical_formula_structural   LiIn(MoO4)2
_chemical_formula_sum   'Li2 In2 Mo4 O16'
_cell_volume   288.08983347
_cell_formula_units_Z   2
loop_
 _symmetry_equiv_pos_site_id
 _symmetry_equiv_pos_as_xyz
  1  'x, y, z'
loop_
 _atom_site_type_symbol
 _atom_site_label
 _atom_site_symmetry_multiplicity
 _atom_site_fract_x
 _atom_site_fract_y
 _atom_site_fract_z
 _atom_site_occupancy
  Li  Li0  1  0.750000  0.584599  0.415401  1
  Li  Li1  1  0.250000  0.415401  0.584599  1
  O  O2  1  0.406596  0.435162  0.316694  1
  O  O3  1  0.093404  0.683306  0.564838  1
  O  O4  1  0.043218  0.444751  0.832051  1
  O  O5  1  0.456782  0.167949  0.555249  1
  O  O6  1  0.593404  0.564838  0.683306  1
  O  O7  1  0.906596  0.316694  0.435162  1
  O  O8  1  0.389775  0.942158  0.812736  1
  O  O9  1  0.110225  0.187264  0.057842  1
  O  O10  1  0.610225  0.057842  0.187264  1
  O  O11  1  0.889775  0.812736  0.942158  1
  O  O12  1  0.067769  0.947751  0.347490  1
  O  O13  1  0.432231  0.652510  0.052249  1
  O  O14  1  0.932231  0.052249  0.652510  1
  O  O15  1  0.567769  0.347490  0.947751  1
  O  O16  1  0.543218  0.832051  0.444751  1
  O  O17  1  0.956782  0.555249  0.167949  1
  Mo  Mo18  1  0.750006  0.572998  0.890936  1
  Mo  Mo19  1  0.749994  0.109064  0.427002  1
  Mo  Mo20  1  0.249994  0.427002  0.109064  1
  Mo  Mo21  1  0.250006  0.890936  0.572998  1
  In  In22  1  0.250000  0.908193  0.091807  1
  In  In23  1  0.750000  0.091807  0.908193  1
