# generated using pymatgen
data_RbGaBP2HO9
_symmetry_space_group_name_H-M   'P 1'
_cell_length_a   8.53571638
_cell_length_b   9.46794475
_cell_length_c   9.68863299
_cell_angle_alpha   103.26012603
_cell_angle_beta   90.00000000
_cell_angle_gamma   90.00000000
_symmetry_Int_Tables_number   1
_chemical_formula_structural   RbGaBP2HO9
_chemical_formula_sum   'Rb4 Ga4 B4 P8 H4 O36'
_cell_volume   762.11797267
_cell_formula_units_Z   4
loop_
 _symmetry_equiv_pos_site_id
 _symmetry_equiv_pos_as_xyz
  1  'x, y, z'
loop_
 _atom_site_type_symbol
 _atom_site_label
 _atom_site_symmetry_multiplicity
 _atom_site_fract_x
 _atom_site_fract_y
 _atom_site_fract_z
 _atom_site_occupancy
  H  H0  1  0.565612  0.894034  0.001571  1
  H  H1  1  0.065612  0.105966  0.498429  1
  H  H2  1  0.434388  0.105966  0.998429  1
  H  H3  1  0.934388  0.894034  0.501571  1
  B  B4  1  0.550936  0.836350  0.196991  1
  B  B5  1  0.050936  0.163650  0.303009  1
  B  B6  1  0.449064  0.163650  0.803009  1
  B  B7  1  0.949064  0.836350  0.696991  1
  O  O8  1  0.338006  0.580761  0.076680  1
  O  O9  1  0.838006  0.419239  0.423320  1
  O  O10  1  0.661994  0.419239  0.923320  1
  O  O11  1  0.161994  0.580761  0.576680  1
  O  O12  1  0.129948  0.846056  0.314415  1
  O  O13  1  0.629948  0.153944  0.185585  1
  O  O14  1  0.158633  0.600084  0.846594  1
  O  O15  1  0.870052  0.153944  0.685585  1
  O  O16  1  0.956744  0.808818  0.538585  1
  O  O17  1  0.456744  0.191182  0.961415  1
  O  O18  1  0.043256  0.191182  0.461415  1
  O  O19  1  0.543256  0.808818  0.038585  1
  O  O20  1  0.929997  0.693058  0.729498  1
  O  O21  1  0.429997  0.306942  0.770502  1
  O  O22  1  0.070003  0.306942  0.270502  1
  O  O23  1  0.570003  0.693058  0.229498  1
  O  O24  1  0.305501  0.082939  0.750854  1
  O  O25  1  0.805501  0.917061  0.749146  1
  O  O26  1  0.694499  0.917061  0.249146  1
  O  O27  1  0.194499  0.082939  0.250854  1
  O  O28  1  0.287052  0.850413  0.562607  1
  O  O29  1  0.787052  0.149587  0.937393  1
  O  O30  1  0.712948  0.149587  0.437393  1
  O  O31  1  0.212948  0.850413  0.062607  1
  O  O32  1  0.015384  0.575061  0.303804  1
  O  O33  1  0.515384  0.424939  0.196196  1
  O  O34  1  0.984616  0.424939  0.696196  1
  O  O35  1  0.484616  0.575061  0.803804  1
  O  O36  1  0.088492  0.915829  0.765301  1
  O  O37  1  0.588492  0.084171  0.734699  1
  O  O38  1  0.911508  0.084171  0.234699  1
  O  O39  1  0.411508  0.915829  0.265301  1
  O  O40  1  0.341367  0.600084  0.346594  1
  O  O41  1  0.841367  0.399916  0.153406  1
  O  O42  1  0.658633  0.399916  0.653406  1
  O  O43  1  0.370052  0.846056  0.814415  1
  P  P44  1  0.436309  0.572454  0.207413  1
  P  P45  1  0.063691  0.572454  0.707413  1
  P  P46  1  0.563691  0.427546  0.792587  1
  P  P47  1  0.936309  0.427546  0.292587  1
  P  P48  1  0.234842  0.916377  0.220839  1
  P  P49  1  0.265158  0.916377  0.720839  1
  P  P50  1  0.765158  0.083623  0.779161  1
  P  P51  1  0.734842  0.083623  0.279161  1
  Ga  Ga52  1  0.843432  0.298102  0.566533  1
  Ga  Ga53  1  0.156568  0.701898  0.433467  1
  Ga  Ga54  1  0.656568  0.298102  0.066533  1
  Ga  Ga55  1  0.343432  0.701898  0.933467  1
  Rb  Rb56  1  0.892925  0.691767  0.062742  1
  Rb  Rb57  1  0.392925  0.308233  0.437258  1
  Rb  Rb58  1  0.107075  0.308233  0.937258  1
  Rb  Rb59  1  0.607075  0.691767  0.562742  1
