# generated using pymatgen
data_RbFe(SeO4)2
_symmetry_space_group_name_H-M   'P 1'
_cell_length_a   5.24050958
_cell_length_b   5.24050958
_cell_length_c   8.81508916
_cell_angle_alpha   90.00000000
_cell_angle_beta   90.00000000
_cell_angle_gamma   120.00000003
_symmetry_Int_Tables_number   1
_chemical_formula_structural   RbFe(SeO4)2
_chemical_formula_sum   'Rb1 Fe1 Se2 O8'
_cell_volume   209.65459197
_cell_formula_units_Z   1
loop_
 _symmetry_equiv_pos_site_id
 _symmetry_equiv_pos_as_xyz
  1  'x, y, z'
loop_
 _atom_site_type_symbol
 _atom_site_label
 _atom_site_symmetry_multiplicity
 _atom_site_fract_x
 _atom_site_fract_y
 _atom_site_fract_z
 _atom_site_occupancy
  O  O0  1  0.751360  0.080760  0.648224  1
  O  O1  1  0.919242  0.670601  0.648224  1
  O  O2  1  0.329400  0.248639  0.648224  1
  O  O3  1  0.670601  0.919241  0.351776  1
  O  O4  1  0.333333  0.666666  0.104574  1
  O  O5  1  0.666667  0.333334  0.895426  1
  O  O6  1  0.248639  0.329399  0.351776  1
  O  O7  1  0.080760  0.751359  0.351776  1
  Fe  Fe8  1  0.000000  0.000000  0.500000  1
  Se  Se9  1  0.666667  0.333334  0.708936  1
  Se  Se10  1  0.333333  0.666666  0.291064  1
  Rb  Rb11  1  0.000000  0.000000  0.000000  1
