# generated using pymatgen
data_Nd(Cu2P)2
_symmetry_space_group_name_H-M   'P 1'
_cell_length_a   3.87769168
_cell_length_b   10.98665869
_cell_length_c   14.66062194
_cell_angle_alpha   90.00000000
_cell_angle_beta   90.00000000
_cell_angle_gamma   90.00000000
_symmetry_Int_Tables_number   1
_chemical_formula_structural   Nd(Cu2P)2
_chemical_formula_sum   'Nd6 Cu24 P12'
_cell_volume   624.58464383
_cell_formula_units_Z   6
loop_
 _symmetry_equiv_pos_site_id
 _symmetry_equiv_pos_as_xyz
  1  'x, y, z'
loop_
 _atom_site_type_symbol
 _atom_site_label
 _atom_site_symmetry_multiplicity
 _atom_site_fract_x
 _atom_site_fract_y
 _atom_site_fract_z
 _atom_site_occupancy
  P  P0  1  0.500000  0.865746  0.114674  1
  P  P1  1  0.500000  0.134254  0.885326  1
  P  P2  1  0.000000  0.365746  0.385326  1
  P  P3  1  0.000000  0.634254  0.614674  1
  P  P4  1  0.500000  0.707148  0.371680  1
  P  P5  1  0.500000  0.292852  0.628320  1
  P  P6  1  0.500000  0.058676  0.334372  1
  P  P7  1  0.500000  0.941324  0.665628  1
  P  P8  1  0.000000  0.558676  0.165628  1
  P  P9  1  0.000000  0.441324  0.834372  1
  P  P10  1  0.000000  0.207148  0.128320  1
  P  P11  1  0.000000  0.792852  0.871680  1
  Cu  Cu12  1  0.000000  0.068028  0.435614  1
  Cu  Cu13  1  0.500000  0.568028  0.064386  1
  Cu  Cu14  1  0.000000  0.599398  0.946791  1
  Cu  Cu15  1  0.000000  0.400602  0.053209  1
  Cu  Cu16  1  0.500000  0.099398  0.553209  1
  Cu  Cu17  1  0.500000  0.431972  0.935614  1
  Cu  Cu18  1  0.000000  0.264985  0.535157  1
  Cu  Cu19  1  0.000000  0.735015  0.464843  1
  Cu  Cu20  1  0.500000  0.764985  0.964843  1
  Cu  Cu21  1  0.500000  0.235015  0.035157  1
  Cu  Cu22  1  0.000000  0.425706  0.668155  1
  Cu  Cu23  1  0.000000  0.574294  0.331845  1
  Cu  Cu24  1  0.500000  0.925706  0.831845  1
  Cu  Cu25  1  0.500000  0.074294  0.168155  1
  Cu  Cu26  1  0.000000  0.829025  0.716040  1
  Cu  Cu27  1  0.000000  0.170975  0.283960  1
  Cu  Cu28  1  0.500000  0.329025  0.783960  1
  Cu  Cu29  1  0.500000  0.670975  0.216040  1
  Cu  Cu30  1  0.500000  0.242431  0.410845  1
  Cu  Cu31  1  0.500000  0.757569  0.589155  1
  Cu  Cu32  1  0.000000  0.742431  0.089155  1
  Cu  Cu33  1  0.000000  0.257569  0.910845  1
  Cu  Cu34  1  0.500000  0.900602  0.446791  1
  Cu  Cu35  1  0.000000  0.931972  0.564386  1
  Nd  Nd36  1  0.500000  0.376850  0.226454  1
  Nd  Nd37  1  0.500000  0.623150  0.773546  1
  Nd  Nd38  1  0.000000  0.876850  0.273546  1
  Nd  Nd39  1  0.000000  0.123150  0.726454  1
  Nd  Nd40  1  0.500000  0.500000  0.500000  1
  Nd  Nd41  1  0.000000  0.000000  0.000000  1
