# generated using pymatgen
data_HgCN2
_symmetry_space_group_name_H-M   'P 1'
_cell_length_a   6.92223782
_cell_length_b   7.26954552
_cell_length_c   10.65459448
_cell_angle_alpha   90.00000000
_cell_angle_beta   90.00000000
_cell_angle_gamma   90.00000000
_symmetry_Int_Tables_number   1
_chemical_formula_structural   HgCN2
_chemical_formula_sum   'Hg8 C8 N16'
_cell_volume   536.15542046
_cell_formula_units_Z   8
loop_
 _symmetry_equiv_pos_site_id
 _symmetry_equiv_pos_as_xyz
  1  'x, y, z'
loop_
 _atom_site_type_symbol
 _atom_site_label
 _atom_site_symmetry_multiplicity
 _atom_site_fract_x
 _atom_site_fract_y
 _atom_site_fract_z
 _atom_site_occupancy
  C  C0  1  0.665970  0.395866  0.615280  1
  C  C1  1  0.334030  0.604134  0.384720  1
  C  C2  1  0.834030  0.895866  0.615280  1
  C  C3  1  0.665970  0.104134  0.115280  1
  C  C4  1  0.165970  0.395866  0.884720  1
  C  C5  1  0.165970  0.104134  0.384720  1
  C  C6  1  0.334030  0.895866  0.884720  1
  C  C7  1  0.834030  0.604134  0.115280  1
  N  N8  1  0.920304  0.561130  0.212490  1
  N  N9  1  0.420304  0.938870  0.787510  1
  N  N10  1  0.079696  0.061130  0.287510  1
  N  N11  1  0.420304  0.561130  0.287510  1
  N  N12  1  0.579696  0.438870  0.712490  1
  N  N13  1  0.079696  0.438870  0.787510  1
  N  N14  1  0.579696  0.061130  0.212490  1
  N  N15  1  0.920304  0.938870  0.712490  1
  N  N16  1  0.742971  0.627255  0.016626  1
  N  N17  1  0.242971  0.872745  0.983374  1
  N  N18  1  0.257029  0.127255  0.483374  1
  N  N19  1  0.757029  0.372745  0.516626  1
  N  N20  1  0.257029  0.372745  0.983374  1
  N  N21  1  0.757029  0.127255  0.016626  1
  N  N22  1  0.742971  0.872745  0.516626  1
  N  N23  1  0.242971  0.627255  0.483374  1
  Hg  Hg24  1  0.155638  0.293731  0.627041  1
  Hg  Hg25  1  0.655638  0.206269  0.372959  1
  Hg  Hg26  1  0.844362  0.793731  0.872959  1
  Hg  Hg27  1  0.344362  0.706269  0.127041  1
  Hg  Hg28  1  0.844362  0.706269  0.372959  1
  Hg  Hg29  1  0.344362  0.793731  0.627041  1
  Hg  Hg30  1  0.155638  0.206269  0.127041  1
  Hg  Hg31  1  0.655638  0.293731  0.872959  1
