# generated using pymatgen
data_Tb2Fe3Si5
_symmetry_space_group_name_H-M   'P 1'
_cell_length_a   5.50066605
_cell_length_b   10.38003081
_cell_length_c   10.38003081
_cell_angle_alpha   90.00000000
_cell_angle_beta   90.00000000
_cell_angle_gamma   90.00000000
_symmetry_Int_Tables_number   1
_chemical_formula_structural   Tb2Fe3Si5
_chemical_formula_sum   'Tb8 Fe12 Si20'
_cell_volume   592.66948147
_cell_formula_units_Z   4
loop_
 _symmetry_equiv_pos_site_id
 _symmetry_equiv_pos_as_xyz
  1  'x, y, z'
loop_
 _atom_site_type_symbol
 _atom_site_label
 _atom_site_symmetry_multiplicity
 _atom_site_fract_x
 _atom_site_fract_y
 _atom_site_fract_z
 _atom_site_occupancy
  Si  Si0  1  0.500000  0.021399  0.320219  1
  Si  Si1  1  0.500000  0.978601  0.679781  1
  Si  Si2  1  0.500000  0.320219  0.978601  1
  Si  Si3  1  0.500000  0.679781  0.021399  1
  Si  Si4  1  0.000000  0.820219  0.521399  1
  Si  Si5  1  0.000000  0.478601  0.820219  1
  Si  Si6  1  0.000000  0.521399  0.179781  1
  Si  Si7  1  0.000000  0.179781  0.478601  1
  Si  Si8  1  0.750000  0.177300  0.677300  1
  Si  Si9  1  0.750000  0.322700  0.177300  1
  Si  Si10  1  0.750000  0.677300  0.822700  1
  Si  Si11  1  0.750000  0.822700  0.322700  1
  Si  Si12  1  0.250000  0.822700  0.322700  1
  Si  Si13  1  0.250000  0.677300  0.822700  1
  Si  Si14  1  0.250000  0.322700  0.177300  1
  Si  Si15  1  0.271191  0.000000  0.000000  1
  Si  Si16  1  0.771191  0.500000  0.500000  1
  Si  Si17  1  0.728809  0.000000  0.000000  1
  Si  Si18  1  0.228809  0.500000  0.500000  1
  Si  Si19  1  0.250000  0.177300  0.677300  1
  Fe  Fe20  1  0.500000  0.122979  0.854816  1
  Fe  Fe21  1  0.250000  0.500000  0.000000  1
  Fe  Fe22  1  0.750000  0.000000  0.500000  1
  Fe  Fe23  1  0.750000  0.500000  0.000000  1
  Fe  Fe24  1  0.000000  0.377021  0.354816  1
  Fe  Fe25  1  0.000000  0.645184  0.377021  1
  Fe  Fe26  1  0.000000  0.354816  0.622979  1
  Fe  Fe27  1  0.000000  0.622979  0.645184  1
  Fe  Fe28  1  0.500000  0.145184  0.122979  1
  Fe  Fe29  1  0.500000  0.854816  0.877021  1
  Fe  Fe30  1  0.500000  0.877021  0.145184  1
  Fe  Fe31  1  0.250000  0.000000  0.500000  1
  Tb  Tb32  1  0.000000  0.069490  0.235982  1
  Tb  Tb33  1  0.000000  0.764018  0.069490  1
  Tb  Tb34  1  0.000000  0.235982  0.930510  1
  Tb  Tb35  1  0.000000  0.930510  0.764018  1
  Tb  Tb36  1  0.500000  0.569490  0.264018  1
  Tb  Tb37  1  0.500000  0.430510  0.735982  1
  Tb  Tb38  1  0.500000  0.735982  0.569490  1
  Tb  Tb39  1  0.500000  0.264018  0.430510  1
