# generated using pymatgen
data_Tl4S3
_symmetry_space_group_name_H-M   'P 1'
_cell_length_a   8.35854795
_cell_length_b   8.13926697
_cell_length_c   13.12870685
_cell_angle_alpha   90.00000000
_cell_angle_beta   90.00000000
_cell_angle_gamma   103.32467944
_symmetry_Int_Tables_number   1
_chemical_formula_structural   Tl4S3
_chemical_formula_sum   'Tl16 S12'
_cell_volume   869.13350480
_cell_formula_units_Z   4
loop_
 _symmetry_equiv_pos_site_id
 _symmetry_equiv_pos_as_xyz
  1  'x, y, z'
loop_
 _atom_site_type_symbol
 _atom_site_label
 _atom_site_symmetry_multiplicity
 _atom_site_fract_x
 _atom_site_fract_y
 _atom_site_fract_z
 _atom_site_occupancy
  S  S0  1  0.038690  0.915749  0.834380  1
  S  S1  1  0.961310  0.584251  0.334380  1
  S  S2  1  0.961310  0.084251  0.165620  1
  S  S3  1  0.038690  0.415749  0.665620  1
  S  S4  1  0.491685  0.755910  0.747064  1
  S  S5  1  0.508315  0.744090  0.247064  1
  S  S6  1  0.508315  0.244090  0.252936  1
  S  S7  1  0.491685  0.255910  0.752936  1
  S  S8  1  0.240825  0.457173  0.972241  1
  S  S9  1  0.759175  0.042827  0.472241  1
  S  S10  1  0.759175  0.542827  0.027759  1
  S  S11  1  0.240825  0.957173  0.527759  1
  Tl  Tl12  1  0.292872  0.459920  0.776041  1
  Tl  Tl13  1  0.707128  0.040080  0.276041  1
  Tl  Tl14  1  0.707128  0.540080  0.223959  1
  Tl  Tl15  1  0.292872  0.959920  0.723959  1
  Tl  Tl16  1  0.802688  0.584503  0.790029  1
  Tl  Tl17  1  0.197312  0.915497  0.290029  1
  Tl  Tl18  1  0.197312  0.415497  0.209971  1
  Tl  Tl19  1  0.802688  0.084503  0.709971  1
  Tl  Tl20  1  0.912655  0.723503  0.534141  1
  Tl  Tl21  1  0.087345  0.776497  0.034141  1
  Tl  Tl22  1  0.087345  0.276497  0.465859  1
  Tl  Tl23  1  0.912655  0.223503  0.965859  1
  Tl  Tl24  1  0.528849  0.270840  0.498131  1
  Tl  Tl25  1  0.471151  0.229160  0.998131  1
  Tl  Tl26  1  0.471151  0.729160  0.501869  1
  Tl  Tl27  1  0.528849  0.770840  0.001869  1
