# generated using pymatgen
data_PRhO4
_symmetry_space_group_name_H-M   'P 1'
_cell_length_a   6.47758756
_cell_length_b   9.09872893
_cell_length_c   9.09872893
_cell_angle_alpha   70.96513105
_cell_angle_beta   69.14763903
_cell_angle_gamma   69.14763903
_symmetry_Int_Tables_number   1
_chemical_formula_structural   PRhO4
_chemical_formula_sum   'P6 Rh6 O24'
_cell_volume   455.93510422
_cell_formula_units_Z   6
loop_
 _symmetry_equiv_pos_site_id
 _symmetry_equiv_pos_as_xyz
  1  'x, y, z'
loop_
 _atom_site_type_symbol
 _atom_site_label
 _atom_site_symmetry_multiplicity
 _atom_site_fract_x
 _atom_site_fract_y
 _atom_site_fract_z
 _atom_site_occupancy
  O  O0  1  0.783295  0.856014  0.130575  1
  O  O1  1  0.269884  0.643986  0.369425  1
  O  O2  1  0.216705  0.869425  0.143986  1
  O  O3  1  0.730116  0.630575  0.356014  1
  O  O4  1  0.216705  0.143986  0.869425  1
  O  O5  1  0.730116  0.356014  0.630575  1
  O  O6  1  0.783295  0.130575  0.856014  1
  O  O7  1  0.269884  0.369425  0.643986  1
  O  O8  1  0.577323  0.085087  0.637431  1
  O  O9  1  0.799841  0.414913  0.862569  1
  O  O10  1  0.422677  0.362569  0.914913  1
  O  O11  1  0.200159  0.137431  0.585087  1
  O  O12  1  0.202537  0.845962  0.845962  1
  O  O13  1  0.394461  0.654038  0.654038  1
  O  O14  1  0.797463  0.154038  0.154038  1
  O  O15  1  0.605539  0.345962  0.345962  1
  O  O16  1  0.976928  0.371827  0.128173  1
  O  O17  1  0.976928  0.128173  0.371827  1
  O  O18  1  0.023072  0.871827  0.628173  1
  O  O19  1  0.023072  0.628173  0.871827  1
  O  O20  1  0.799841  0.862569  0.414913  1
  O  O21  1  0.577323  0.637431  0.085087  1
  O  O22  1  0.200159  0.585087  0.137431  1
  O  O23  1  0.422677  0.914913  0.362569  1
  P  P24  1  0.674244  0.825756  0.325756  1
  P  P25  1  0.325756  0.674244  0.174244  1
  P  P26  1  0.325756  0.174244  0.674244  1
  P  P27  1  0.674244  0.325756  0.825756  1
  P  P28  1  0.830787  0.250000  0.250000  1
  P  P29  1  0.169213  0.750000  0.750000  1
  Rh  Rh30  1  0.118973  0.881027  0.381027  1
  Rh  Rh31  1  0.881027  0.618973  0.118973  1
  Rh  Rh32  1  0.881027  0.118973  0.618973  1
  Rh  Rh33  1  0.118973  0.381027  0.881027  1
  Rh  Rh34  1  0.500000  0.500000  0.500000  1
  Rh  Rh35  1  0.000000  0.000000  0.000000  1
