# generated using pymatgen
data_Y4CI5
_symmetry_space_group_name_H-M   'P 1'
_cell_length_a   3.97942743
_cell_length_b   8.60615090
_cell_length_c   9.84015656
_cell_angle_alpha   102.19015772
_cell_angle_beta   101.66584119
_cell_angle_gamma   90.00000000
_symmetry_Int_Tables_number   1
_chemical_formula_structural   Y4CI5
_chemical_formula_sum   'Y4 C1 I5'
_cell_volume   322.27729326
_cell_formula_units_Z   1
loop_
 _symmetry_equiv_pos_site_id
 _symmetry_equiv_pos_as_xyz
  1  'x, y, z'
loop_
 _atom_site_type_symbol
 _atom_site_label
 _atom_site_symmetry_multiplicity
 _atom_site_fract_x
 _atom_site_fract_y
 _atom_site_fract_z
 _atom_site_occupancy
  C  C0  1  0.500000  0.000000  0.000000  1
  Y  Y1  1  0.372298  0.936830  0.744597  1
  Y  Y2  1  0.000454  0.810836  0.000907  1
  Y  Y3  1  0.627702  0.063170  0.255403  1
  Y  Y4  1  0.999546  0.189164  0.999093  1
  I  I5  1  0.837359  0.661003  0.674719  1
  I  I6  1  0.833617  0.178038  0.667233  1
  I  I7  1  0.166383  0.821962  0.332767  1
  I  I8  1  0.500000  0.500000  0.000000  1
  I  I9  1  0.162641  0.338997  0.325281  1
