# generated using pymatgen
data_Na2CaH10C2O11
_symmetry_space_group_name_H-M   'P 1'
_cell_length_a   7.71157886
_cell_length_b   8.25928828
_cell_length_c   9.75741483
_cell_angle_alpha   77.08103075
_cell_angle_beta   66.72373106
_cell_angle_gamma   62.17044846
_symmetry_Int_Tables_number   1
_chemical_formula_structural   Na2CaH10C2O11
_chemical_formula_sum   'Na4 Ca2 H20 C4 O22'
_cell_volume   504.27554375
_cell_formula_units_Z   2
loop_
 _symmetry_equiv_pos_site_id
 _symmetry_equiv_pos_as_xyz
  1  'x, y, z'
loop_
 _atom_site_type_symbol
 _atom_site_label
 _atom_site_symmetry_multiplicity
 _atom_site_fract_x
 _atom_site_fract_y
 _atom_site_fract_z
 _atom_site_occupancy
  H  H0  1  0.239119  0.602467  0.750712  1
  H  H1  1  0.592298  0.897533  0.749288  1
  H  H2  1  0.760881  0.397533  0.249288  1
  H  H3  1  0.407702  0.102467  0.250712  1
  H  H4  1  0.219926  0.512875  0.918106  1
  H  H5  1  0.650907  0.987125  0.581894  1
  H  H6  1  0.274494  0.184901  0.047358  1
  H  H7  1  0.506752  0.315099  0.452642  1
  H  H8  1  0.725506  0.815099  0.952642  1
  H  H9  1  0.493248  0.684901  0.547358  1
  H  H10  1  0.086844  0.133276  0.074020  1
  H  H11  1  0.349093  0.012875  0.418106  1
  H  H12  1  0.913156  0.866724  0.925980  1
  H  H13  1  0.705861  0.633276  0.574020  1
  H  H14  1  0.528828  0.351244  0.770176  1
  H  H15  1  0.650247  0.148756  0.729824  1
  H  H16  1  0.471172  0.648756  0.229824  1
  H  H17  1  0.349753  0.851244  0.270176  1
  H  H18  1  0.780074  0.487125  0.081894  1
  H  H19  1  0.294139  0.366724  0.425980  1
  C  C20  1  0.787381  0.561016  0.816546  1
  C  C21  1  0.835057  0.061016  0.316546  1
  C  C22  1  0.164943  0.938984  0.683454  1
  C  C23  1  0.212619  0.438984  0.183454  1
  O  O24  1  0.891189  0.536259  0.674885  1
  O  O25  1  0.779822  0.867535  1.000063  1
  O  O26  1  0.352581  0.367535  0.500063  1
  O  O27  1  0.220178  0.132465  -0.000063  1
  O  O28  1  0.442939  0.982525  0.311817  1
  O  O29  1  0.737281  0.517475  0.188183  1
  O  O30  1  0.557061  0.017475  0.688183  1
  O  O31  1  0.262719  0.482525  0.811817  1
  O  O32  1  0.647419  0.632465  0.499937  1
  O  O33  1  0.102334  0.963741  0.825115  1
  O  O34  1  0.108811  0.463741  0.325115  1
  O  O35  1  0.897666  0.036259  0.174885  1
  O  O36  1  0.635986  0.717915  0.864348  1
  O  O37  1  0.218250  0.782085  0.635652  1
  O  O38  1  0.364014  0.282085  0.135652  1
  O  O39  1  0.781750  0.217915  0.364348  1
  O  O40  1  0.177869  0.075488  0.588491  1
  O  O41  1  0.671918  0.250000  0.750000  1
  O  O42  1  0.158152  0.575488  0.088491  1
  O  O43  1  0.841848  0.424512  0.911509  1
  O  O44  1  0.328082  0.750000  0.250000  1
  O  O45  1  0.822131  0.924512  0.411509  1
  Na  Na46  1  0.102519  0.689718  0.486314  1
  Na  Na47  1  0.278552  0.810282  0.013686  1
  Na  Na48  1  0.897481  0.310282  0.513686  1
  Na  Na49  1  0.721449  0.189718  0.986314  1
  Ca  Ca50  1  0.193122  0.250000  0.750000  1
  Ca  Ca51  1  0.806878  0.750000  0.250000  1
