# generated using pymatgen
data_H5BrO2
_symmetry_space_group_name_H-M   'P 1'
_cell_length_a   4.13224837
_cell_length_b   12.55839429
_cell_length_c   7.08676540
_cell_angle_alpha   90.00000000
_cell_angle_beta   103.06989658
_cell_angle_gamma   90.00000000
_symmetry_Int_Tables_number   1
_chemical_formula_structural   H5BrO2
_chemical_formula_sum   'H20 Br4 O8'
_cell_volume   358.23652627
_cell_formula_units_Z   4
loop_
 _symmetry_equiv_pos_site_id
 _symmetry_equiv_pos_as_xyz
  1  'x, y, z'
loop_
 _atom_site_type_symbol
 _atom_site_label
 _atom_site_symmetry_multiplicity
 _atom_site_fract_x
 _atom_site_fract_y
 _atom_site_fract_z
 _atom_site_occupancy
  H  H0  1  0.762900  0.332128  0.568732  1
  H  H1  1  0.469993  0.409011  0.653904  1
  H  H2  1  0.417934  0.361900  0.414365  1
  H  H3  1  0.237100  0.832128  0.931268  1
  H  H4  1  0.582066  0.861900  0.085635  1
  H  H5  1  0.530007  0.909011  0.846096  1
  H  H6  1  0.237100  0.667872  0.431268  1
  H  H7  1  0.582066  0.638100  0.585635  1
  H  H8  1  0.530007  0.590989  0.346096  1
  H  H9  1  0.762900  0.167872  0.068732  1
  H  H10  1  0.469993  0.090989  0.153904  1
  H  H11  1  0.417934  0.138100  0.914365  1
  H  H12  1  0.321744  0.393328  0.908409  1
  H  H13  1  0.225865  0.507138  0.806557  1
  H  H14  1  0.678256  0.893328  0.591591  1
  H  H15  1  0.774135  0.007138  0.693443  1
  H  H16  1  0.678256  0.606672  0.091591  1
  H  H17  1  0.774135  0.492862  0.193443  1
  H  H18  1  0.321744  0.106672  0.408409  1
  H  H19  1  0.225865  0.992862  0.306557  1
  Br  Br20  1  0.037989  0.165143  0.660530  1
  Br  Br21  1  0.962011  0.665143  0.839470  1
  Br  Br22  1  0.962011  0.834857  0.339470  1
  Br  Br23  1  0.037989  0.334857  0.160530  1
  O  O24  1  0.590293  0.388385  0.531696  1
  O  O25  1  0.409707  0.888385  0.968304  1
  O  O26  1  0.409707  0.611615  0.468304  1
  O  O27  1  0.590293  0.111615  0.031696  1
  O  O28  1  0.307804  0.433889  0.788276  1
  O  O29  1  0.692196  0.933889  0.711724  1
  O  O30  1  0.692196  0.566111  0.211724  1
  O  O31  1  0.307804  0.066111  0.288276  1
