# generated using pymatgen
data_Er15C19
_symmetry_space_group_name_H-M   'P 1'
_cell_length_a   8.06891865
_cell_length_b   8.06891865
_cell_length_c   15.35027058
_cell_angle_alpha   90.00000000
_cell_angle_beta   90.00000000
_cell_angle_gamma   90.00000000
_symmetry_Int_Tables_number   1
_chemical_formula_structural   Er15C19
_chemical_formula_sum   'Er30 C38'
_cell_volume   999.41694634
_cell_formula_units_Z   2
loop_
 _symmetry_equiv_pos_site_id
 _symmetry_equiv_pos_as_xyz
  1  'x, y, z'
loop_
 _atom_site_type_symbol
 _atom_site_label
 _atom_site_symmetry_multiplicity
 _atom_site_fract_x
 _atom_site_fract_y
 _atom_site_fract_z
 _atom_site_occupancy
  C  C0  1  0.903602  0.303249  0.671439  1
  C  C1  1  0.096398  0.696751  0.671439  1
  C  C2  1  0.196751  0.596398  0.171439  1
  C  C3  1  0.696751  0.903602  0.328561  1
  C  C4  1  0.303249  0.096398  0.328561  1
  C  C5  1  0.596398  0.803249  0.828561  1
  C  C6  1  0.403602  0.196751  0.828561  1
  C  C7  1  0.803249  0.403602  0.171439  1
  C  C8  1  0.651862  0.849011  0.749413  1
  C  C9  1  0.348138  0.150989  0.749413  1
  C  C10  1  0.650989  0.848138  0.249413  1
  C  C11  1  0.150989  0.651862  0.250587  1
  C  C12  1  0.849011  0.348138  0.250587  1
  C  C13  1  0.848138  0.349011  0.750587  1
  C  C14  1  0.151862  0.650989  0.750587  1
  C  C15  1  0.349011  0.151862  0.249413  1
  C  C16  1  0.102360  0.302470  0.000026  1
  C  C17  1  0.696925  0.903596  0.669980  1
  C  C18  1  0.596404  0.803075  0.169980  1
  C  C19  1  0.096404  0.696925  0.330020  1
  C  C20  1  0.903596  0.303075  0.330020  1
  C  C21  1  0.803075  0.403596  0.830020  1
  C  C22  1  0.196925  0.596404  0.830020  1
  C  C23  1  0.403596  0.196925  0.169980  1
  C  C24  1  0.602360  0.197530  0.499974  1
  C  C25  1  0.397640  0.802470  0.499974  1
  C  C26  1  0.302470  0.897640  0.999974  1
  C  C27  1  0.802470  0.602360  0.500026  1
  C  C28  1  0.197530  0.397640  0.500026  1
  C  C29  1  0.897640  0.697530  0.000026  1
  C  C30  1  0.000000  0.000000  0.500000  1
  C  C31  1  0.500000  0.500000  0.000000  1
  C  C32  1  0.000000  0.000000  0.163051  1
  C  C33  1  0.000000  0.000000  0.836949  1
  C  C34  1  0.500000  0.500000  0.336949  1
  C  C35  1  0.500000  0.500000  0.663051  1
  C  C36  1  0.697530  0.102360  0.999974  1
  C  C37  1  0.303075  0.096404  0.669980  1
  Er  Er38  1  0.598128  0.215457  0.649818  1
  Er  Er39  1  0.401872  0.784543  0.649818  1
  Er  Er40  1  0.284543  0.901872  0.149818  1
  Er  Er41  1  0.784543  0.598128  0.350182  1
  Er  Er42  1  0.215457  0.401872  0.350182  1
  Er  Er43  1  0.901872  0.715457  0.850182  1
  Er  Er44  1  0.098128  0.284543  0.850182  1
  Er  Er45  1  0.715457  0.098128  0.149818  1
  Er  Er46  1  0.784487  0.598244  0.649750  1
  Er  Er47  1  0.215513  0.401756  0.649750  1
  Er  Er48  1  0.901756  0.715513  0.149750  1
  Er  Er49  1  0.401756  0.784487  0.350250  1
  Er  Er50  1  0.598244  0.215513  0.350250  1
  Er  Er51  1  0.715513  0.098244  0.850250  1
  Er  Er52  1  0.284487  0.901756  0.850250  1
  Er  Er53  1  0.098244  0.284487  0.149750  1
  Er  Er54  1  0.702950  0.906543  0.499945  1
  Er  Er55  1  0.297050  0.093457  0.499945  1
  Er  Er56  1  0.593457  0.797050  0.999945  1
  Er  Er57  1  0.093457  0.702950  0.500055  1
  Er  Er58  1  0.906543  0.297050  0.500055  1
  Er  Er59  1  0.797050  0.406543  0.000055  1
  Er  Er60  1  0.202950  0.593457  0.000055  1
  Er  Er61  1  0.406543  0.202950  0.999945  1
  Er  Er62  1  0.500000  0.500000  0.830716  1
  Er  Er63  1  0.500000  0.500000  0.169284  1
  Er  Er64  1  0.000000  0.000000  0.669284  1
  Er  Er65  1  0.000000  0.000000  0.330716  1
  Er  Er66  1  0.500000  0.500000  0.500000  1
  Er  Er67  1  0.000000  0.000000  0.000000  1
