# generated using pymatgen
data_NaIO4
_symmetry_space_group_name_H-M   'P 1'
_cell_length_a   5.43389613
_cell_length_b   5.43389613
_cell_length_c   7.19647372
_cell_angle_alpha   112.18131354
_cell_angle_beta   112.18131349
_cell_angle_gamma   90.00000002
_symmetry_Int_Tables_number   1
_chemical_formula_structural   NaIO4
_chemical_formula_sum   'Na2 I2 O8'
_cell_volume   179.66928403
_cell_formula_units_Z   2
loop_
 _symmetry_equiv_pos_site_id
 _symmetry_equiv_pos_as_xyz
  1  'x, y, z'
loop_
 _atom_site_type_symbol
 _atom_site_label
 _atom_site_symmetry_multiplicity
 _atom_site_fract_x
 _atom_site_fract_y
 _atom_site_fract_z
 _atom_site_occupancy
  O  O0  1  0.809915  0.444292  0.089240  1
  O  O1  1  0.644949  0.309915  0.589240  1
  O  O2  1  0.944292  0.779326  0.589240  1
  O  O3  1  0.279326  0.144949  0.089240  1
  O  O4  1  0.720674  0.855051  0.910760  1
  O  O5  1  0.055708  0.220674  0.410760  1
  O  O6  1  0.355051  0.690085  0.410760  1
  O  O7  1  0.190085  0.555708  0.910760  1
  Na  Na8  1  0.625000  0.875000  0.250000  1
  Na  Na9  1  0.375000  0.125000  0.750000  1
  I  I10  1  0.125000  0.375000  0.250000  1
  I  I11  1  0.875000  0.625000  0.750000  1
