# generated using pymatgen
data_Sc5Re2C7
_symmetry_space_group_name_H-M   'P 1'
_cell_length_a   3.22958843
_cell_length_b   7.81428793
_cell_length_c   7.88105452
_cell_angle_alpha   119.72015051
_cell_angle_beta   90.00000000
_cell_angle_gamma   90.00000000
_symmetry_Int_Tables_number   1
_chemical_formula_structural   Sc5Re2C7
_chemical_formula_sum   'Sc5 Re2 C7'
_cell_volume   172.73062636
_cell_formula_units_Z   1
loop_
 _symmetry_equiv_pos_site_id
 _symmetry_equiv_pos_as_xyz
  1  'x, y, z'
loop_
 _atom_site_type_symbol
 _atom_site_label
 _atom_site_symmetry_multiplicity
 _atom_site_fract_x
 _atom_site_fract_y
 _atom_site_fract_z
 _atom_site_occupancy
  Sc  Sc0  1  0.500000  0.916934  0.256429  1
  Sc  Sc1  1  0.500000  0.083066  0.743571  1
  Sc  Sc2  1  0.500000  0.660505  0.743571  1
  Sc  Sc3  1  0.500000  0.339495  0.256429  1
  Sc  Sc4  1  0.000000  0.500000  0.000000  1
  Re  Re5  1  0.000000  0.285279  0.570558  1
  Re  Re6  1  0.000000  0.714721  0.429442  1
  C  C7  1  0.500000  0.380989  0.761979  1
  C  C8  1  0.500000  0.619011  0.238021  1
  C  C9  1  0.000000  0.826844  1.000000  1
  C  C10  1  0.000000  0.173156  0.000000  1
  C  C11  1  0.000000  0.000000  0.500000  1
  C  C12  1  0.000000  0.500000  0.500000  1
  C  C13  1  0.000000  0.000000  0.000000  1
