# generated using pymatgen
data_Ce(SO4)2
_symmetry_space_group_name_H-M   'P 1'
_cell_length_a   9.17119226
_cell_length_b   9.57062253
_cell_length_c   13.70778241
_cell_angle_alpha   90.00000000
_cell_angle_beta   90.00000000
_cell_angle_gamma   90.00000000
_symmetry_Int_Tables_number   1
_chemical_formula_structural   Ce(SO4)2
_chemical_formula_sum   'Ce8 S16 O64'
_cell_volume   1203.18715741
_cell_formula_units_Z   8
loop_
 _symmetry_equiv_pos_site_id
 _symmetry_equiv_pos_as_xyz
  1  'x, y, z'
loop_
 _atom_site_type_symbol
 _atom_site_label
 _atom_site_symmetry_multiplicity
 _atom_site_fract_x
 _atom_site_fract_y
 _atom_site_fract_z
 _atom_site_occupancy
  Ce  Ce0  1  0.720071  0.962442  0.396814  1
  Ce  Ce1  1  0.220071  0.537558  0.396814  1
  Ce  Ce2  1  0.779929  0.462442  0.603186  1
  Ce  Ce3  1  0.279929  0.037558  0.603186  1
  Ce  Ce4  1  0.279929  0.537558  0.896814  1
  Ce  Ce5  1  0.779929  0.962442  0.896814  1
  Ce  Ce6  1  0.220071  0.037558  0.103186  1
  Ce  Ce7  1  0.720071  0.462442  0.103186  1
  S  S8  1  0.500656  0.278545  0.444174  1
  S  S9  1  1.000656  0.221455  0.444174  1
  S  S10  1  0.326662  0.896504  0.342807  1
  S  S11  1  0.326662  0.396504  0.157193  1
  S  S12  1  0.673338  0.103496  0.657193  1
  S  S13  1  -0.000656  0.278545  0.944174  1
  S  S14  1  0.826662  0.103496  0.157193  1
  S  S15  1  0.173338  0.396504  0.657193  1
  S  S16  1  0.673338  0.603496  0.842807  1
  S  S17  1  0.500656  0.778545  0.055826  1
  S  S18  1  1.000656  0.721455  0.055826  1
  S  S19  1  0.499344  0.221455  0.944174  1
  S  S20  1  0.826662  0.603496  0.342807  1
  S  S21  1  0.499344  0.721455  0.555826  1
  S  S22  1  -0.000656  0.778545  0.555826  1
  S  S23  1  0.173338  0.896504  0.842807  1
  O  O24  1  0.083965  0.876367  0.617922  1
  O  O25  1  0.216657  0.932046  0.943906  1
  O  O26  1  0.216657  0.432046  0.556094  1
  O  O27  1  0.403560  0.809017  0.617321  1
  O  O28  1  0.915140  0.360025  0.016600  1
  O  O29  1  0.012902  0.911324  0.831432  1
  O  O30  1  0.916035  0.123633  0.382078  1
  O  O31  1  0.903560  0.190983  0.882679  1
  O  O32  1  0.103855  0.186253  0.997075  1
  O  O33  1  0.747624  0.008869  0.727160  1
  O  O34  1  0.283343  0.932046  0.443906  1
  O  O35  1  0.987098  0.088676  0.168568  1
  O  O36  1  0.781487  0.249687  0.179162  1
  O  O37  1  0.783343  0.067954  0.056094  1
  O  O38  1  0.584860  0.860025  0.983400  1
  O  O39  1  0.415140  0.639975  0.483400  1
  O  O40  1  0.281487  0.750313  0.320838  1
  O  O41  1  0.084860  0.139975  0.516600  1
  O  O42  1  0.718513  0.749687  0.820838  1
  O  O43  1  0.487098  0.911324  0.331432  1
  O  O44  1  0.752376  0.008869  0.227160  1
  O  O45  1  0.603855  0.313747  0.997075  1
  O  O46  1  0.781487  0.749687  0.320838  1
  O  O47  1  0.012902  0.411324  0.668568  1
  O  O48  1  0.281487  0.250313  0.179162  1
  O  O49  1  0.915140  0.860025  0.483400  1
  O  O50  1  0.403560  0.309017  0.882679  1
  O  O51  1  0.987098  0.588676  0.331432  1
  O  O52  1  0.416035  0.376367  0.382078  1
  O  O53  1  0.603855  0.813747  0.502925  1
  O  O54  1  0.247624  0.491131  0.727160  1
  O  O55  1  0.396145  0.686253  0.002925  1
  O  O56  1  0.747624  0.508869  0.772840  1
  O  O57  1  0.916035  0.623633  0.117922  1
  O  O58  1  0.218513  0.250313  0.679162  1
  O  O59  1  0.096440  0.809017  0.117321  1
  O  O60  1  0.718513  0.249687  0.679162  1
  O  O61  1  0.218513  0.750313  0.820838  1
  O  O62  1  0.896145  0.813747  0.002925  1
  O  O63  1  0.487098  0.411324  0.168568  1
  O  O64  1  0.512902  0.588676  0.831432  1
  O  O65  1  0.283343  0.432046  0.056094  1
  O  O66  1  0.896145  0.313747  0.497075  1
  O  O67  1  0.583965  0.123633  0.882078  1
  O  O68  1  0.596440  0.190983  0.382679  1
  O  O69  1  0.084860  0.639975  0.983400  1
  O  O70  1  0.783343  0.567954  0.443906  1
  O  O71  1  0.416035  0.876367  0.117922  1
  O  O72  1  0.103855  0.686253  0.502925  1
  O  O73  1  0.252376  0.491131  0.227160  1
  O  O74  1  0.716657  0.067954  0.556094  1
  O  O75  1  0.716657  0.567954  0.943906  1
  O  O76  1  0.512902  0.088676  0.668568  1
  O  O77  1  0.415140  0.139975  0.016600  1
  O  O78  1  0.583965  0.623633  0.617922  1
  O  O79  1  0.596440  0.690983  0.117321  1
  O  O80  1  0.083965  0.376367  0.882078  1
  O  O81  1  0.752376  0.508869  0.272840  1
  O  O82  1  0.903560  0.690983  0.617321  1
  O  O83  1  0.396145  0.186253  0.497075  1
  O  O84  1  0.252376  0.991131  0.272840  1
  O  O85  1  0.247624  0.991131  0.772840  1
  O  O86  1  0.096440  0.309017  0.382679  1
  O  O87  1  0.584860  0.360025  0.516600  1
