# generated using pymatgen
data_Ni3(PO4)2
_symmetry_space_group_name_H-M   'P 1'
_cell_length_a   4.74821483
_cell_length_b   5.89683355
_cell_length_c   10.23502609
_cell_angle_alpha   90.84424894
_cell_angle_beta   90.00000000
_cell_angle_gamma   90.00000000
_symmetry_Int_Tables_number   1
_chemical_formula_structural   Ni3(PO4)2
_chemical_formula_sum   'Ni6 P4 O16'
_cell_volume   286.54381259
_cell_formula_units_Z   2
loop_
 _symmetry_equiv_pos_site_id
 _symmetry_equiv_pos_as_xyz
  1  'x, y, z'
loop_
 _atom_site_type_symbol
 _atom_site_label
 _atom_site_symmetry_multiplicity
 _atom_site_fract_x
 _atom_site_fract_y
 _atom_site_fract_z
 _atom_site_occupancy
  O  O0  1  0.235423  0.465876  0.661774  1
  O  O1  1  0.735423  0.534124  0.838226  1
  O  O2  1  0.764577  0.534124  0.338226  1
  O  O3  1  0.264577  0.465876  0.161774  1
  O  O4  1  0.198694  0.052605  0.673838  1
  O  O5  1  0.698694  0.947395  0.826162  1
  O  O6  1  0.801306  0.947395  0.326162  1
  O  O7  1  0.301306  0.052605  0.173838  1
  O  O8  1  0.308995  0.256993  0.952929  1
  O  O9  1  0.808995  0.743007  0.547071  1
  O  O10  1  0.745173  0.268827  0.102316  1
  O  O11  1  0.245173  0.731173  0.397684  1
  O  O12  1  0.254827  0.731173  0.897684  1
  O  O13  1  0.754827  0.268827  0.602316  1
  O  O14  1  0.191005  0.256993  0.452929  1
  O  O15  1  0.691005  0.743007  0.047071  1
  P  P16  1  0.077591  0.252054  0.595241  1
  P  P17  1  0.577591  0.747946  0.904759  1
  P  P18  1  0.922409  0.747946  0.404759  1
  P  P19  1  0.422409  0.252054  0.095242  1
  Ni  Ni20  1  0.513277  0.241920  0.774560  1
  Ni  Ni21  1  0.013277  0.758080  0.725440  1
  Ni  Ni22  1  0.486723  0.758080  0.225440  1
  Ni  Ni23  1  0.986723  0.241920  0.274560  1
  Ni  Ni24  1  0.500000  0.500000  0.500000  1
  Ni  Ni25  1  0.000000  0.500000  0.000000  1
