# generated using pymatgen
data_SrMnSn
_symmetry_space_group_name_H-M   'P 1'
_cell_length_a   4.70958909
_cell_length_b   4.71370706
_cell_length_c   7.54198385
_cell_angle_alpha   90.04114521
_cell_angle_beta   89.96179841
_cell_angle_gamma   90.00367938
_symmetry_Int_Tables_number   1
_chemical_formula_structural   SrMnSn
_chemical_formula_sum   'Sr2 Mn2 Sn2'
_cell_volume   167.42911991
_cell_formula_units_Z   2
loop_
 _symmetry_equiv_pos_site_id
 _symmetry_equiv_pos_as_xyz
  1  'x, y, z'
loop_
 _atom_site_type_symbol
 _atom_site_label
 _atom_site_symmetry_multiplicity
 _atom_site_fract_x
 _atom_site_fract_y
 _atom_site_fract_z
 _atom_site_occupancy
  Sr  Sr0  1  0.249857  0.250002  0.172863  1
  Sr  Sr1  1  0.750143  0.750134  0.827105  1
  Mn  Mn2  1  0.750119  0.249956  0.500010  1
  Mn  Mn3  1  0.249858  0.749797  0.500074  1
  Sn  Sn4  1  0.750283  0.749886  0.297178  1
  Sn  Sn5  1  0.249740  0.250225  0.702770  1
