# generated using pymatgen
data_K2Zn3O4
_symmetry_space_group_name_H-M   'P 1'
_cell_length_a   5.82898722
_cell_length_b   6.46695762
_cell_length_c   8.17651207
_cell_angle_alpha   113.29463385
_cell_angle_beta   102.14552225
_cell_angle_gamma   90.00000358
_symmetry_Int_Tables_number   1
_chemical_formula_structural   K2Zn3O4
_chemical_formula_sum   'K4 Zn6 O8'
_cell_volume   275.56781285
_cell_formula_units_Z   2
loop_
 _symmetry_equiv_pos_site_id
 _symmetry_equiv_pos_as_xyz
  1  'x, y, z'
loop_
 _atom_site_type_symbol
 _atom_site_label
 _atom_site_symmetry_multiplicity
 _atom_site_fract_x
 _atom_site_fract_y
 _atom_site_fract_z
 _atom_site_occupancy
  K  K0  1  0.511224  0.758583  0.762631  1
  K  K1  1  0.988776  0.995952  0.237369  1
  K  K2  1  0.488776  0.241417  0.237369  1
  K  K3  1  0.011224  0.004048  0.762631  1
  Zn  Zn4  1  0.250000  0.519190  1.000000  1
  Zn  Zn5  1  0.750000  0.480810  0.000000  1
  Zn  Zn6  1  0.085083  0.574043  0.382410  1
  Zn  Zn7  1  0.414917  0.191632  0.617590  1
  Zn  Zn8  1  0.914917  0.425957  0.617590  1
  Zn  Zn9  1  0.585083  0.808368  0.382410  1
  O  O10  1  0.955328  0.619392  0.883406  1
  O  O11  1  0.544672  0.735986  0.116594  1
  O  O12  1  0.044672  0.380608  0.116594  1
  O  O13  1  0.455328  0.264014  0.883406  1
  O  O14  1  0.285282  0.859212  0.470810  1
  O  O15  1  0.214718  0.388402  0.529190  1
  O  O16  1  0.714718  0.140788  0.529190  1
  O  O17  1  0.785282  0.611598  0.470810  1
