# generated using pymatgen
data_ZrCrSi2
_symmetry_space_group_name_H-M   'P 1'
_cell_length_a   8.02447912
_cell_length_b   9.13900017
_cell_length_c   9.80843189
_cell_angle_alpha   90.00000000
_cell_angle_beta   90.00000000
_cell_angle_gamma   90.00000000
_symmetry_Int_Tables_number   1
_chemical_formula_structural   ZrCrSi2
_chemical_formula_sum   'Zr12 Cr12 Si24'
_cell_volume   719.30837590
_cell_formula_units_Z   12
loop_
 _symmetry_equiv_pos_site_id
 _symmetry_equiv_pos_as_xyz
  1  'x, y, z'
loop_
 _atom_site_type_symbol
 _atom_site_label
 _atom_site_symmetry_multiplicity
 _atom_site_fract_x
 _atom_site_fract_y
 _atom_site_fract_z
 _atom_site_occupancy
  Si  Si0  1  0.000000  0.609659  0.098475  1
  Si  Si1  1  0.000000  0.390341  0.901525  1
  Si  Si2  1  0.000000  0.109659  0.401525  1
  Si  Si3  1  0.000000  0.890341  0.598475  1
  Si  Si4  1  0.500000  0.624289  0.103985  1
  Si  Si5  1  0.500000  0.375711  0.896015  1
  Si  Si6  1  0.500000  0.124289  0.396015  1
  Si  Si7  1  0.500000  0.875711  0.603985  1
  Si  Si8  1  0.000000  0.540327  0.374667  1
  Si  Si9  1  0.000000  0.459673  0.625333  1
  Si  Si10  1  0.000000  0.040327  0.125333  1
  Si  Si11  1  0.000000  0.959673  0.874667  1
  Si  Si12  1  0.500000  0.539385  0.379365  1
  Si  Si13  1  0.500000  0.460615  0.620635  1
  Si  Si14  1  0.500000  0.039385  0.120635  1
  Si  Si15  1  0.500000  0.960615  0.879365  1
  Si  Si16  1  0.850982  0.170814  0.681118  1
  Si  Si17  1  0.850982  0.670814  0.818882  1
  Si  Si18  1  0.149018  0.670814  0.818882  1
  Si  Si19  1  0.149018  0.329186  0.181118  1
  Si  Si20  1  0.149018  0.829186  0.318882  1
  Si  Si21  1  0.149018  0.170814  0.681118  1
  Si  Si22  1  0.850982  0.329186  0.181118  1
  Si  Si23  1  0.850982  0.829186  0.318882  1
  Cr  Cr24  1  0.749543  0.920587  0.746202  1
  Cr  Cr25  1  0.254441  0.500000  0.000000  1
  Cr  Cr26  1  0.254441  0.000000  0.500000  1
  Cr  Cr27  1  0.745559  0.500000  0.000000  1
  Cr  Cr28  1  0.749543  0.420587  0.753798  1
  Cr  Cr29  1  0.749543  0.579413  0.246202  1
  Cr  Cr30  1  0.250457  0.920587  0.746202  1
  Cr  Cr31  1  0.250457  0.079413  0.253798  1
  Cr  Cr32  1  0.250457  0.579413  0.246202  1
  Cr  Cr33  1  0.250457  0.420587  0.753798  1
  Cr  Cr34  1  0.749543  0.079413  0.253798  1
  Cr  Cr35  1  0.745559  0.000000  0.500000  1
  Zr  Zr36  1  0.500000  0.830523  0.320066  1
  Zr  Zr37  1  0.500000  0.169477  0.679934  1
  Zr  Zr38  1  0.500000  0.330523  0.179934  1
  Zr  Zr39  1  0.500000  0.669477  0.820066  1
  Zr  Zr40  1  0.746644  0.172403  0.952138  1
  Zr  Zr41  1  0.746644  0.827597  0.047862  1
  Zr  Zr42  1  0.253356  0.672403  0.547862  1
  Zr  Zr43  1  0.253356  0.327597  0.452138  1
  Zr  Zr44  1  0.253356  0.827597  0.047862  1
  Zr  Zr45  1  0.253356  0.172403  0.952138  1
  Zr  Zr46  1  0.746644  0.327597  0.452138  1
  Zr  Zr47  1  0.746644  0.672403  0.547862  1
