# generated using pymatgen
data_Ni(C2N3)2
_symmetry_space_group_name_H-M   'P 1'
_cell_length_a   6.04918486
_cell_length_b   7.05977737
_cell_length_c   7.26975855
_cell_angle_alpha   90.00000000
_cell_angle_beta   90.00000000
_cell_angle_gamma   90.00000000
_symmetry_Int_Tables_number   1
_chemical_formula_structural   Ni(C2N3)2
_chemical_formula_sum   'Ni2 C8 N12'
_cell_volume   310.46156989
_cell_formula_units_Z   2
loop_
 _symmetry_equiv_pos_site_id
 _symmetry_equiv_pos_as_xyz
  1  'x, y, z'
loop_
 _atom_site_type_symbol
 _atom_site_label
 _atom_site_symmetry_multiplicity
 _atom_site_fract_x
 _atom_site_fract_y
 _atom_site_fract_z
 _atom_site_occupancy
  C  C0  1  0.743176  0.155536  0.655453  1
  C  C1  1  0.243176  0.344464  0.844547  1
  C  C2  1  0.743176  0.155536  0.344547  1
  C  C3  1  0.243176  0.344464  0.155453  1
  C  C4  1  0.756824  0.655536  0.155453  1
  C  C5  1  0.256824  0.844464  0.344547  1
  C  C6  1  0.256824  0.844464  0.655453  1
  C  C7  1  0.756824  0.655536  0.844547  1
  N  N8  1  0.827377  0.727280  0.000000  1
  N  N9  1  0.327377  0.772720  0.500000  1
  N  N10  1  0.798256  0.096838  0.200681  1
  N  N11  1  0.298256  0.403162  0.299319  1
  N  N12  1  0.701744  0.596838  0.299319  1
  N  N13  1  0.201744  0.903162  0.200681  1
  N  N14  1  0.201744  0.903162  0.799319  1
  N  N15  1  0.701744  0.596838  0.700681  1
  N  N16  1  0.298256  0.403162  0.700681  1
  N  N17  1  0.798256  0.096838  0.799319  1
  N  N18  1  0.672623  0.227280  0.500000  1
  N  N19  1  0.172623  0.272720  0.000000  1
  Ni  Ni20  1  0.500000  0.500000  0.500000  1
  Ni  Ni21  1  0.000000  0.000000  0.000000  1
