# generated using pymatgen
data_BiPS4
_symmetry_space_group_name_H-M   'P 1'
_cell_length_a   11.28062054
_cell_length_b   10.80448460
_cell_length_c   12.64142888
_cell_angle_alpha   115.29913905
_cell_angle_beta   116.49864452
_cell_angle_gamma   89.99999998
_symmetry_Int_Tables_number   1
_chemical_formula_structural   BiPS4
_chemical_formula_sum   'Bi8 P8 S32'
_cell_volume   1211.52947350
_cell_formula_units_Z   8
loop_
 _symmetry_equiv_pos_site_id
 _symmetry_equiv_pos_as_xyz
  1  'x, y, z'
loop_
 _atom_site_type_symbol
 _atom_site_label
 _atom_site_symmetry_multiplicity
 _atom_site_fract_x
 _atom_site_fract_y
 _atom_site_fract_z
 _atom_site_occupancy
  P  P0  1  0.250000  0.219615  0.000000  1
  P  P1  1  0.786341  0.250000  0.500000  1
  P  P2  1  0.713659  0.750000  0.500000  1
  P  P3  1  0.213659  0.750000  0.500000  1
  P  P4  1  0.286341  0.250000  0.500000  1
  P  P5  1  0.250000  0.719615  0.000000  1
  P  P6  1  0.750000  0.780385  0.000000  1
  P  P7  1  0.750000  0.280385  0.000000  1
  S  S8  1  0.895588  0.414235  0.514031  1
  S  S9  1  0.381557  0.400204  0.485969  1
  S  S10  1  0.395588  0.099796  0.514031  1
  S  S11  1  0.118443  0.914235  0.514031  1
  S  S12  1  0.104412  0.585765  0.485969  1
  S  S13  1  0.618443  0.599796  0.514031  1
  S  S14  1  0.604412  0.900204  0.485969  1
  S  S15  1  0.881557  0.085765  0.485969  1
  S  S16  1  0.100764  0.117629  0.007268  1
  S  S17  1  0.593496  0.382371  0.992732  1
  S  S18  1  0.399236  0.110361  0.992732  1
  S  S19  1  0.906504  0.389639  0.007268  1
  S  S20  1  0.899236  0.882371  0.992732  1
  S  S21  1  0.406504  0.617629  0.007268  1
  S  S22  1  0.600764  0.889639  0.007268  1
  S  S23  1  0.093496  0.610361  0.992732  1
  S  S24  1  0.346459  0.409584  0.171904  1
  S  S25  1  0.674556  0.090416  0.828096  1
  S  S26  1  0.153541  0.237680  0.828096  1
  S  S27  1  0.825444  0.262320  0.171904  1
  S  S28  1  0.653541  0.590416  0.828096  1
  S  S29  1  0.325444  0.909584  0.171904  1
  S  S30  1  0.846459  0.762320  0.171904  1
  S  S31  1  0.174556  0.737680  0.828096  1
  S  S32  1  0.232174  0.667801  0.329642  1
  S  S33  1  0.402532  0.832199  0.670358  1
  S  S34  1  0.267826  0.338159  0.670358  1
  S  S35  1  0.097468  0.161841  0.329642  1
  S  S36  1  0.767826  0.332199  0.670358  1
  S  S37  1  0.597468  0.167801  0.329642  1
  S  S38  1  0.732174  0.661841  0.329642  1
  S  S39  1  0.902532  0.838159  0.670358  1
  Bi  Bi40  1  0.641245  0.891245  0.282490  1
  Bi  Bi41  1  0.858755  0.608755  0.717510  1
  Bi  Bi42  1  0.358755  0.108755  0.717510  1
  Bi  Bi43  1  0.141245  0.391245  0.282490  1
  Bi  Bi44  1  0.897891  0.147891  0.795782  1
  Bi  Bi45  1  0.602109  0.352109  0.204218  1
  Bi  Bi46  1  0.102109  0.852109  0.204218  1
  Bi  Bi47  1  0.397891  0.647891  0.795782  1
