# generated using pymatgen
data_U20Si16C3
_symmetry_space_group_name_H-M   'P 1'
_cell_length_a   10.33693336
_cell_length_b   10.33693336
_cell_length_c   7.85790126
_cell_angle_alpha   90.00000000
_cell_angle_beta   90.00000000
_cell_angle_gamma   119.99999999
_symmetry_Int_Tables_number   1
_chemical_formula_structural   U20Si16C3
_chemical_formula_sum   'U20 Si16 C3'
_cell_volume   727.14434690
_cell_formula_units_Z   1
loop_
 _symmetry_equiv_pos_site_id
 _symmetry_equiv_pos_as_xyz
  1  'x, y, z'
loop_
 _atom_site_type_symbol
 _atom_site_label
 _atom_site_symmetry_multiplicity
 _atom_site_fract_x
 _atom_site_fract_y
 _atom_site_fract_z
 _atom_site_occupancy
  C  C0  1  0.500000  0.000000  0.000000  1
  C  C1  1  0.500000  0.500000  0.000000  1
  C  C2  1  0.000000  0.500000  0.000000  1
  Si  Si3  1  0.333333  0.666667  0.254442  1
  Si  Si4  1  0.666667  0.333333  0.254442  1
  Si  Si5  1  0.666667  0.333333  0.745558  1
  Si  Si6  1  0.333333  0.666667  0.745558  1
  Si  Si7  1  0.226675  0.000000  0.249247  1
  Si  Si8  1  0.226675  0.226675  0.249247  1
  Si  Si9  1  0.000000  0.773325  0.249247  1
  Si  Si10  1  0.000000  0.226675  0.249247  1
  Si  Si11  1  0.773325  0.773325  0.249247  1
  Si  Si12  1  0.226675  0.000000  0.750753  1
  Si  Si13  1  0.773325  0.773325  0.750753  1
  Si  Si14  1  0.773325  0.000000  0.249247  1
  Si  Si15  1  0.000000  0.226675  0.750753  1
  Si  Si16  1  0.000000  0.773325  0.750753  1
  Si  Si17  1  0.773325  0.000000  0.750753  1
  Si  Si18  1  0.226675  0.226675  0.750753  1
  U  U19  1  0.000000  0.000000  0.000000  1
  U  U20  1  0.000000  0.000000  0.500000  1
  U  U21  1  0.500000  0.000000  0.299653  1
  U  U22  1  0.500000  0.500000  0.299653  1
  U  U23  1  0.000000  0.500000  0.299653  1
  U  U24  1  0.500000  0.000000  0.700347  1
  U  U25  1  0.500000  0.500000  0.700347  1
  U  U26  1  0.000000  0.500000  0.700347  1
  U  U27  1  0.216770  0.433541  0.000000  1
  U  U28  1  0.783230  0.216770  0.000000  1
  U  U29  1  0.433541  0.216770  0.000000  1
  U  U30  1  0.566459  0.783230  0.000000  1
  U  U31  1  0.216770  0.783230  0.000000  1
  U  U32  1  0.783230  0.566459  0.000000  1
  U  U33  1  0.212977  0.425955  0.500000  1
  U  U34  1  0.787023  0.212977  0.500000  1
  U  U35  1  0.425955  0.212977  0.500000  1
  U  U36  1  0.574045  0.787023  0.500000  1
  U  U37  1  0.212977  0.787023  0.500000  1
  U  U38  1  0.787023  0.574045  0.500000  1
