# generated using pymatgen
data_Ca2MnP2(H2O5)2
_symmetry_space_group_name_H-M   'P 1'
_cell_length_a   5.57037768
_cell_length_b   5.84955612
_cell_length_c   6.63806361
_cell_angle_alpha   90.16681881
_cell_angle_beta   102.42438567
_cell_angle_gamma   108.79069347
_symmetry_Int_Tables_number   1
_chemical_formula_structural   Ca2MnP2(H2O5)2
_chemical_formula_sum   'Ca2 Mn1 P2 H4 O10'
_cell_volume   199.36153673
_cell_formula_units_Z   1
loop_
 _symmetry_equiv_pos_site_id
 _symmetry_equiv_pos_as_xyz
  1  'x, y, z'
loop_
 _atom_site_type_symbol
 _atom_site_label
 _atom_site_symmetry_multiplicity
 _atom_site_fract_x
 _atom_site_fract_y
 _atom_site_fract_z
 _atom_site_occupancy
  H  H0  1  0.811050  0.071066  0.563009  1
  H  H1  1  0.188950  0.928933  0.436992  1
  H  H2  1  0.080870  0.283988  0.657368  1
  H  H3  1  0.919130  0.716011  0.342633  1
  O  O4  1  0.603031  0.753634  0.929116  1
  O  O5  1  0.396969  0.246366  0.070883  1
  O  O6  1  0.931832  0.157722  0.697598  1
  O  O7  1  0.877409  0.306898  0.117539  1
  O  O8  1  0.122591  0.693101  0.882461  1
  O  O9  1  0.068166  0.842279  0.302402  1
  O  O10  1  0.382801  0.995071  0.670156  1
  O  O11  1  0.697772  0.458575  0.398559  1
  O  O12  1  0.302228  0.541424  0.601441  1
  O  O13  1  0.617199  0.004928  0.329844  1
  P  P14  1  0.351396  0.752828  0.767001  1
  P  P15  1  0.648604  0.247171  0.232999  1
  Ca  Ca16  1  0.664753  0.396965  0.766271  1
  Ca  Ca17  1  0.335247  0.603035  0.233730  1
  Mn  Mn18  1  0.000000  0.000000  0.000000  1
