# generated using pymatgen
data_Mn4Be3Si3SeO12
_symmetry_space_group_name_H-M   'P 1'
_cell_length_a   8.44491254
_cell_length_b   8.44491254
_cell_length_c   8.44491254
_cell_angle_alpha   90.00000000
_cell_angle_beta   90.00000000
_cell_angle_gamma   90.00000000
_symmetry_Int_Tables_number   1
_chemical_formula_structural   Mn4Be3Si3SeO12
_chemical_formula_sum   'Mn8 Be6 Si6 Se2 O24'
_cell_volume   602.26200890
_cell_formula_units_Z   2
loop_
 _symmetry_equiv_pos_site_id
 _symmetry_equiv_pos_as_xyz
  1  'x, y, z'
loop_
 _atom_site_type_symbol
 _atom_site_label
 _atom_site_symmetry_multiplicity
 _atom_site_fract_x
 _atom_site_fract_y
 _atom_site_fract_z
 _atom_site_occupancy
  Be  Be0  1  0.250001  0.500000  0.000000  1
  Be  Be1  1  0.500000  0.000000  0.750001  1
  Be  Be2  1  0.500000  0.000000  0.250001  1
  Be  Be3  1  0.000000  0.250001  0.500000  1
  Be  Be4  1  0.000000  0.750001  0.500000  1
  Be  Be5  1  0.750001  0.500000  0.000000  1
  O  O6  1  0.142779  0.857165  0.578101  1
  O  O7  1  0.642779  0.078101  0.357165  1
  O  O8  1  0.921899  0.642835  0.642779  1
  O  O9  1  0.078101  0.642835  0.357220  1
  O  O10  1  0.642835  0.642779  0.921899  1
  O  O11  1  0.357165  0.357220  0.921899  1
  O  O12  1  0.857220  0.857165  0.421899  1
  O  O13  1  0.857220  0.142835  0.578101  1
  O  O14  1  0.642779  0.921899  0.642835  1
  O  O15  1  0.142835  0.578101  0.857220  1
  O  O16  1  0.578101  0.142779  0.857165  1
  O  O17  1  0.578101  0.857220  0.142835  1
  O  O18  1  0.857165  0.421899  0.857220  1
  O  O19  1  0.421899  0.857220  0.857165  1
  O  O20  1  0.142779  0.142835  0.421899  1
  O  O21  1  0.357220  0.921899  0.357165  1
  O  O22  1  0.357220  0.078101  0.642835  1
  O  O23  1  0.857165  0.578101  0.142779  1
  O  O24  1  0.921899  0.357165  0.357220  1
  O  O25  1  0.642835  0.357220  0.078101  1
  O  O26  1  0.357165  0.642779  0.078101  1
  O  O27  1  0.421899  0.142779  0.142835  1
  O  O28  1  0.142835  0.421899  0.142779  1
  O  O29  1  0.078101  0.357165  0.642779  1
  Si  Si30  1  0.750001  0.000000  0.500000  1
  Si  Si31  1  0.250001  0.000000  0.500000  1
  Si  Si32  1  0.000000  0.500000  0.750001  1
  Si  Si33  1  0.000000  0.500000  0.250001  1
  Si  Si34  1  0.500000  0.250001  0.000000  1
  Si  Si35  1  0.500000  0.750001  0.000000  1
  Mn  Mn36  1  0.677952  0.677952  0.677952  1
  Mn  Mn37  1  0.177952  0.177952  0.177952  1
  Mn  Mn38  1  0.322048  0.677952  0.322048  1
  Mn  Mn39  1  0.322048  0.322048  0.677952  1
  Mn  Mn40  1  0.677952  0.322048  0.322048  1
  Mn  Mn41  1  0.822048  0.177952  0.822048  1
  Mn  Mn42  1  0.177952  0.822048  0.822048  1
  Mn  Mn43  1  0.822048  0.822048  0.177952  1
  Se  Se44  1  0.000000  0.000000  0.000000  1
  Se  Se45  1  0.500000  0.500000  0.500000  1
