# generated using pymatgen
data_PuB4
_symmetry_space_group_name_H-M   'P 1'
_cell_length_a   4.01679239
_cell_length_b   7.10566734
_cell_length_c   7.10566734
_cell_angle_alpha   90.00000000
_cell_angle_beta   90.00000000
_cell_angle_gamma   90.00000000
_symmetry_Int_Tables_number   1
_chemical_formula_structural   PuB4
_chemical_formula_sum   'Pu4 B16'
_cell_volume   202.80988969
_cell_formula_units_Z   4
loop_
 _symmetry_equiv_pos_site_id
 _symmetry_equiv_pos_as_xyz
  1  'x, y, z'
loop_
 _atom_site_type_symbol
 _atom_site_label
 _atom_site_symmetry_multiplicity
 _atom_site_fract_x
 _atom_site_fract_y
 _atom_site_fract_z
 _atom_site_occupancy
  B  B0  1  0.500000  0.460961  0.322755  1
  B  B1  1  0.500000  0.539039  0.677245  1
  B  B2  1  0.500000  0.322755  0.539039  1
  B  B3  1  0.500000  0.677245  0.460961  1
  B  B4  1  0.201649  0.000000  0.000000  1
  B  B5  1  0.798351  0.500000  0.500000  1
  B  B6  1  0.798351  0.000000  0.000000  1
  B  B7  1  0.201649  0.500000  0.500000  1
  B  B8  1  0.500000  0.087155  0.587155  1
  B  B9  1  0.500000  0.412845  0.087155  1
  B  B10  1  0.500000  0.587155  0.912845  1
  B  B11  1  0.500000  0.912845  0.412845  1
  B  B12  1  0.500000  0.177245  0.039039  1
  B  B13  1  0.500000  0.960961  0.177245  1
  B  B14  1  0.500000  0.039039  0.822755  1
  B  B15  1  0.500000  0.822755  0.960961  1
  Pu  Pu16  1  0.000000  0.686584  0.186584  1
  Pu  Pu17  1  0.000000  0.813416  0.686584  1
  Pu  Pu18  1  0.000000  0.186584  0.313416  1
  Pu  Pu19  1  0.000000  0.313416  0.813416  1
