# generated using pymatgen
data_AgXeF9
_symmetry_space_group_name_H-M   'P 1'
_cell_length_a   5.78491670
_cell_length_b   5.78491670
_cell_length_c   11.23486098
_cell_angle_alpha   104.91903676
_cell_angle_beta   104.91903678
_cell_angle_gamma   90.00000000
_symmetry_Int_Tables_number   1
_chemical_formula_structural   AgXeF9
_chemical_formula_sum   'Ag2 Xe2 F18'
_cell_volume   350.17117806
_cell_formula_units_Z   2
loop_
 _symmetry_equiv_pos_site_id
 _symmetry_equiv_pos_as_xyz
  1  'x, y, z'
loop_
 _atom_site_type_symbol
 _atom_site_label
 _atom_site_symmetry_multiplicity
 _atom_site_fract_x
 _atom_site_fract_y
 _atom_site_fract_z
 _atom_site_occupancy
  F  F0  1  0.365095  0.915313  0.128297  1
  F  F1  1  0.212984  0.365095  0.128297  1
  F  F2  1  0.246406  0.246406  0.492811  1
  F  F3  1  0.753594  0.753594  0.507189  1
  F  F4  1  0.313023  0.866179  0.341440  1
  F  F5  1  0.475262  0.313023  0.341440  1
  F  F6  1  0.866179  0.028417  0.341440  1
  F  F7  1  0.028417  0.475262  0.341440  1
  F  F8  1  0.686977  0.133821  0.658560  1
  F  F9  1  0.524738  0.686977  0.658560  1
  F  F10  1  0.133821  0.971583  0.658560  1
  F  F11  1  0.971583  0.524738  0.658560  1
  F  F12  1  0.915313  0.763201  0.128297  1
  F  F13  1  0.763201  0.212984  0.128297  1
  F  F14  1  0.236799  0.787016  0.871703  1
  F  F15  1  0.084687  0.236799  0.871703  1
  F  F16  1  0.787016  0.634905  0.871703  1
  F  F17  1  0.634905  0.084687  0.871703  1
  Ag  Ag18  1  0.000000  0.500000  0.000000  1
  Ag  Ag19  1  0.500000  0.000000  0.000000  1
  Xe  Xe20  1  0.848376  0.848376  0.696751  1
  Xe  Xe21  1  0.151624  0.151624  0.303249  1
