# generated using pymatgen
data_Cd3P2
_symmetry_space_group_name_H-M   'P 1'
_cell_length_a   8.87946165
_cell_length_b   8.87946165
_cell_length_c   12.48326012
_cell_angle_alpha   90.00000000
_cell_angle_beta   90.00000000
_cell_angle_gamma   90.00000000
_symmetry_Int_Tables_number   1
_chemical_formula_structural   Cd3P2
_chemical_formula_sum   'Cd24 P16'
_cell_volume   984.24063678
_cell_formula_units_Z   8
loop_
 _symmetry_equiv_pos_site_id
 _symmetry_equiv_pos_as_xyz
  1  'x, y, z'
loop_
 _atom_site_type_symbol
 _atom_site_label
 _atom_site_symmetry_multiplicity
 _atom_site_fract_x
 _atom_site_fract_y
 _atom_site_fract_z
 _atom_site_occupancy
  P  P0  1  0.750000  0.750000  0.508469  1
  P  P1  1  0.750000  0.750000  0.008469  1
  P  P2  1  0.250000  0.250000  0.491531  1
  P  P3  1  0.250000  0.250000  0.991531  1
  P  P4  1  0.750000  0.250000  0.507292  1
  P  P5  1  0.250000  0.750000  0.007292  1
  P  P6  1  0.250000  0.750000  0.492708  1
  P  P7  1  0.750000  0.250000  0.992708  1
  P  P8  1  0.007546  0.992454  0.750000  1
  P  P9  1  0.507546  0.007546  0.250000  1
  P  P10  1  0.992454  0.492454  0.250000  1
  P  P11  1  0.492454  0.507546  0.750000  1
  P  P12  1  0.992454  0.007546  0.250000  1
  P  P13  1  0.492454  0.992454  0.750000  1
  P  P14  1  0.007546  0.507546  0.750000  1
  P  P15  1  0.507546  0.492454  0.250000  1
  Cd  Cd16  1  0.460514  0.250000  0.133078  1
  Cd  Cd17  1  0.250000  0.460514  0.633078  1
  Cd  Cd18  1  0.250000  0.039486  0.633078  1
  Cd  Cd19  1  0.960514  0.750000  0.866922  1
  Cd  Cd20  1  0.539486  0.750000  0.866922  1
  Cd  Cd21  1  0.039486  0.250000  0.133078  1
  Cd  Cd22  1  0.750000  0.960514  0.366922  1
  Cd  Cd23  1  0.750000  0.539486  0.366922  1
  Cd  Cd24  1  0.506402  0.250000  0.400505  1
  Cd  Cd25  1  0.993598  0.250000  0.400505  1
  Cd  Cd26  1  0.750000  0.006402  0.099495  1
  Cd  Cd27  1  0.250000  0.993598  0.900505  1
  Cd  Cd28  1  0.250000  0.506402  0.900505  1
  Cd  Cd29  1  0.493598  0.750000  0.599495  1
  Cd  Cd30  1  0.006402  0.750000  0.599495  1
  Cd  Cd31  1  0.750000  0.493598  0.099495  1
  Cd  Cd32  1  0.250000  0.535577  0.351314  1
  Cd  Cd33  1  0.250000  0.964423  0.351314  1
  Cd  Cd34  1  0.035577  0.750000  0.148686  1
  Cd  Cd35  1  0.535577  0.250000  0.851314  1
  Cd  Cd36  1  0.964423  0.250000  0.851314  1
  Cd  Cd37  1  0.750000  0.035577  0.648686  1
  Cd  Cd38  1  0.750000  0.464423  0.648686  1
  Cd  Cd39  1  0.464423  0.750000  0.148686  1
