# generated using pymatgen
data_Sc5(Re2Si3)4
_symmetry_space_group_name_H-M   'P 1'
_cell_length_a   5.26252575
_cell_length_b   10.23149017
_cell_length_c   14.52921604
_cell_angle_alpha   90.00000000
_cell_angle_beta   90.00000000
_cell_angle_gamma   104.90238302
_symmetry_Int_Tables_number   1
_chemical_formula_structural   Sc5(Re2Si3)4
_chemical_formula_sum   'Sc10 Si24 Re16'
_cell_volume   755.99108063
_cell_formula_units_Z   2
loop_
 _symmetry_equiv_pos_site_id
 _symmetry_equiv_pos_as_xyz
  1  'x, y, z'
loop_
 _atom_site_type_symbol
 _atom_site_label
 _atom_site_symmetry_multiplicity
 _atom_site_fract_x
 _atom_site_fract_y
 _atom_site_fract_z
 _atom_site_occupancy
  Si  Si0  1  0.643821  0.843476  0.851228  1
  Si  Si1  1  0.800345  0.156524  0.148772  1
  Si  Si2  1  0.643821  0.843476  0.148772  1
  Si  Si3  1  0.800345  0.156524  0.851228  1
  Si  Si4  1  0.115360  0.440086  0.500000  1
  Si  Si5  1  0.862106  0.000000  0.396710  1
  Si  Si6  1  0.862106  0.000000  0.603290  1
  Si  Si7  1  0.347842  0.000000  0.121075  1
  Si  Si8  1  0.675275  0.559914  0.500000  1
  Si  Si9  1  0.856905  0.736902  0.000000  1
  Si  Si10  1  0.120003  0.263098  0.000000  1
  Si  Si11  1  0.574118  0.416359  0.000000  1
  Si  Si12  1  0.727899  0.499792  0.757983  1
  Si  Si13  1  0.228107  0.500208  0.242017  1
  Si  Si14  1  0.727899  0.499792  0.242017  1
  Si  Si15  1  0.228107  0.500208  0.757983  1
  Si  Si16  1  0.608964  0.280000  0.500000  1
  Si  Si17  1  0.157759  0.583641  0.000000  1
  Si  Si18  1  0.328964  0.720000  0.500000  1
  Si  Si19  1  0.347842  0.000000  0.878925  1
  Si  Si20  1  0.298712  0.162227  0.646569  1
  Si  Si21  1  0.136485  0.837773  0.353431  1
  Si  Si22  1  0.298712  0.162227  0.353431  1
  Si  Si23  1  0.136485  0.837773  0.646569  1
  Sc  Sc24  1  0.859562  0.271313  0.673270  1
  Sc  Sc25  1  0.958746  0.000000  0.000000  1
  Sc  Sc26  1  0.859562  0.271313  0.326730  1
  Sc  Sc27  1  0.093066  0.732128  0.824513  1
  Sc  Sc28  1  0.360937  0.267872  0.175487  1
  Sc  Sc29  1  0.093066  0.732128  0.175487  1
  Sc  Sc30  1  0.360937  0.267872  0.824513  1
  Sc  Sc31  1  0.436398  0.000000  0.500000  1
  Sc  Sc32  1  0.588250  0.728687  0.673270  1
  Sc  Sc33  1  0.588250  0.728687  0.326730  1
  Re  Re34  1  0.072396  0.201689  0.500000  1
  Re  Re35  1  0.870707  0.798311  0.500000  1
  Re  Re36  1  0.026413  0.588179  0.624730  1
  Re  Re37  1  0.438234  0.411821  0.375270  1
  Re  Re38  1  0.555927  0.168486  0.000000  1
  Re  Re39  1  0.387441  0.831514  0.000000  1
  Re  Re40  1  0.438234  0.411821  0.624730  1
  Re  Re41  1  0.930021  0.402271  0.892343  1
  Re  Re42  1  0.998906  0.000000  0.769173  1
  Re  Re43  1  0.998906  0.000000  0.230827  1
  Re  Re44  1  0.506762  0.000000  0.720927  1
  Re  Re45  1  0.506762  0.000000  0.279073  1
  Re  Re46  1  0.527750  0.597729  0.107657  1
  Re  Re47  1  0.930021  0.402271  0.107657  1
  Re  Re48  1  0.527750  0.597729  0.892343  1
  Re  Re49  1  0.026413  0.588179  0.375270  1
