# generated using pymatgen
data_TeSeO4
_symmetry_space_group_name_H-M   'P 1'
_cell_length_a   4.49103265
_cell_length_b   6.85605705
_cell_length_c   7.64910695
_cell_angle_alpha   116.55354814
_cell_angle_beta   106.85908285
_cell_angle_gamma   90.28005983
_symmetry_Int_Tables_number   1
_chemical_formula_structural   TeSeO4
_chemical_formula_sum   'Te2 Se2 O8'
_cell_volume   199.11821404
_cell_formula_units_Z   2
loop_
 _symmetry_equiv_pos_site_id
 _symmetry_equiv_pos_as_xyz
  1  'x, y, z'
loop_
 _atom_site_type_symbol
 _atom_site_label
 _atom_site_symmetry_multiplicity
 _atom_site_fract_x
 _atom_site_fract_y
 _atom_site_fract_z
 _atom_site_occupancy
  O  O0  1  0.799454  0.946748  0.903481  1
  O  O1  1  0.145961  0.210242  0.787822  1
  O  O2  1  0.684885  0.754118  0.512515  1
  O  O3  1  0.856624  0.421853  0.211726  1
  O  O4  1  0.395819  0.043139  0.097378  1
  O  O5  1  0.874273  0.802347  0.223896  1
  O  O6  1  0.671184  0.241150  0.488644  1
  O  O7  1  0.149627  0.577880  0.774193  1
  Se  Se8  1  0.620138  0.628317  0.250786  1
  Se  Se9  1  0.870057  0.377848  0.749983  1
  Te  Te10  1  0.131111  0.890720  0.782615  1
  Te  Te11  1  0.847868  0.108139  0.218062  1
