# generated using pymatgen
data_Nb2Bi2PbO9
_symmetry_space_group_name_H-M   'P 1'
_cell_length_a   3.97390983
_cell_length_b   3.97369694
_cell_length_c   12.91925547
_cell_angle_alpha   98.84575357
_cell_angle_beta   98.84480351
_cell_angle_gamma   89.99695561
_symmetry_Int_Tables_number   1
_chemical_formula_structural   Nb2Bi2PbO9
_chemical_formula_sum   'Nb2 Bi2 Pb1 O9'
_cell_volume   199.12763253
_cell_formula_units_Z   1
loop_
 _symmetry_equiv_pos_site_id
 _symmetry_equiv_pos_as_xyz
  1  'x, y, z'
loop_
 _atom_site_type_symbol
 _atom_site_label
 _atom_site_symmetry_multiplicity
 _atom_site_fract_x
 _atom_site_fract_y
 _atom_site_fract_z
 _atom_site_occupancy
  O  O0  1  0.079862  0.579900  0.159664  1
  O  O1  1  0.420100  0.920140  0.840336  1
  O  O2  1  0.920136  0.420100  0.840336  1
  O  O3  1  0.579899  0.079859  0.159664  1
  O  O4  1  0.249989  0.749981  0.499990  1
  O  O5  1  0.500000  0.500000  1.000000  1
  O  O6  1  0.663319  0.663316  0.326651  1
  O  O7  1  0.750011  0.250018  0.500009  1
  O  O8  1  0.336681  0.336684  0.673350  1
  Nb  Nb9  1  0.412485  0.412490  0.824959  1
  Nb  Nb10  1  0.587513  0.587511  0.175042  1
  Pb  Pb11  1  0.000001  0.000000  0.000000  1
  Bi  Bi12  1  0.201481  0.201480  0.402938  1
  Bi  Bi13  1  0.798520  0.798519  0.597062  1
