# generated using pymatgen
data_Sr(NiP)2
_symmetry_space_group_name_H-M   'P 1'
_cell_length_a   3.95044818
_cell_length_b   8.17518198
_cell_length_c   8.17518198
_cell_angle_alpha   80.39478208
_cell_angle_beta   76.01828398
_cell_angle_gamma   76.01828395
_symmetry_Int_Tables_number   1
_chemical_formula_structural   Sr(NiP)2
_chemical_formula_sum   'Sr3 Ni6 P6'
_cell_volume   246.95458021
_cell_formula_units_Z   3
loop_
 _symmetry_equiv_pos_site_id
 _symmetry_equiv_pos_as_xyz
  1  'x, y, z'
loop_
 _atom_site_type_symbol
 _atom_site_label
 _atom_site_symmetry_multiplicity
 _atom_site_fract_x
 _atom_site_fract_y
 _atom_site_fract_z
 _atom_site_occupancy
  P  P0  1  0.335596  0.323636  0.005172  1
  P  P1  1  0.664404  0.676364  0.994828  1
  P  P2  1  0.664404  0.994828  0.676364  1
  P  P3  1  0.000000  0.381131  0.618869  1
  P  P4  1  0.335596  0.005172  0.323636  1
  P  P5  1  0.000000  0.618869  0.381131  1
  Ni  Ni6  1  0.156650  0.582559  0.104142  1
  Ni  Ni7  1  0.500000  0.270658  0.729342  1
  Ni  Ni8  1  0.500000  0.729342  0.270658  1
  Ni  Ni9  1  0.156650  0.104142  0.582559  1
  Ni  Ni10  1  0.843350  0.417441  0.895858  1
  Ni  Ni11  1  0.843350  0.895858  0.417441  1
  Sr  Sr12  1  0.683452  0.316548  0.316548  1
  Sr  Sr13  1  0.316548  0.683452  0.683452  1
  Sr  Sr14  1  0.000000  0.000000  0.000000  1
