# generated using pymatgen
data_K2Mo9S11
_symmetry_space_group_name_H-M   'P 1'
_cell_length_a   13.22665302
_cell_length_b   13.22665301
_cell_length_c   13.22665302
_cell_angle_alpha   41.65874742
_cell_angle_beta   41.65874742
_cell_angle_gamma   41.65874742
_symmetry_Int_Tables_number   1
_chemical_formula_structural   K2Mo9S11
_chemical_formula_sum   'K4 Mo18 S22'
_cell_volume   924.14089898
_cell_formula_units_Z   2
loop_
 _symmetry_equiv_pos_site_id
 _symmetry_equiv_pos_as_xyz
  1  'x, y, z'
loop_
 _atom_site_type_symbol
 _atom_site_label
 _atom_site_symmetry_multiplicity
 _atom_site_fract_x
 _atom_site_fract_y
 _atom_site_fract_z
 _atom_site_occupancy
  S  S0  1  0.053461  0.446539  0.750000  1
  S  S1  1  0.213923  0.483447  0.878862  1
  S  S2  1  0.750000  0.053461  0.446539  1
  S  S3  1  0.878862  0.213923  0.483447  1
  S  S4  1  0.636186  0.636186  0.636186  1
  S  S5  1  0.863814  0.863814  0.863814  1
  S  S6  1  0.363814  0.363814  0.363814  1
  S  S7  1  0.136186  0.136186  0.136186  1
  S  S8  1  0.713923  0.378862  0.983447  1
  S  S9  1  0.378862  0.983447  0.713923  1
  S  S10  1  0.983447  0.713923  0.378862  1
  S  S11  1  0.516553  0.121138  0.786077  1
  S  S12  1  0.121138  0.786077  0.516553  1
  S  S13  1  0.786077  0.516553  0.121138  1
  S  S14  1  0.286077  0.621138  0.016553  1
  S  S15  1  0.621138  0.016553  0.286077  1
  S  S16  1  0.016553  0.286077  0.621138  1
  S  S17  1  0.483447  0.878862  0.213923  1
  S  S18  1  0.553461  0.250000  0.946539  1
  S  S19  1  0.946539  0.553461  0.250000  1
  S  S20  1  0.250000  0.946539  0.553461  1
  S  S21  1  0.446539  0.750000  0.053461  1
  K  K22  1  0.553572  0.553572  0.553572  1
  K  K23  1  0.446428  0.446428  0.446428  1
  K  K24  1  0.946428  0.946428  0.946428  1
  K  K25  1  0.053572  0.053572  0.053572  1
  Mo  Mo26  1  0.855773  0.528258  0.676931  1
  Mo  Mo27  1  0.528258  0.676931  0.855773  1
  Mo  Mo28  1  0.676931  0.855773  0.528258  1
  Mo  Mo29  1  0.823069  0.971742  0.644227  1
  Mo  Mo30  1  0.971742  0.644227  0.823069  1
  Mo  Mo31  1  0.644227  0.823069  0.971742  1
  Mo  Mo32  1  0.144227  0.471742  0.323069  1
  Mo  Mo33  1  0.471742  0.323069  0.144227  1
  Mo  Mo34  1  0.323069  0.144227  0.471742  1
  Mo  Mo35  1  0.176931  0.028258  0.355773  1
  Mo  Mo36  1  0.028258  0.355773  0.176931  1
  Mo  Mo37  1  0.355773  0.176931  0.028258  1
  Mo  Mo38  1  0.582367  0.917633  0.750000  1
  Mo  Mo39  1  0.917633  0.750000  0.582367  1
  Mo  Mo40  1  0.750000  0.582367  0.917633  1
  Mo  Mo41  1  0.417633  0.082367  0.250000  1
  Mo  Mo42  1  0.082367  0.250000  0.417633  1
  Mo  Mo43  1  0.250000  0.417633  0.082367  1
