# generated using pymatgen
data_USbO5
_symmetry_space_group_name_H-M   'P 1'
_cell_length_a   5.52373333
_cell_length_b   5.51851372
_cell_length_c   7.61981136
_cell_angle_alpha   69.84140238
_cell_angle_beta   69.87005194
_cell_angle_gamma   73.23165656
_symmetry_Int_Tables_number   1
_chemical_formula_structural   USbO5
_chemical_formula_sum   'U2 Sb2 O10'
_cell_volume   200.88570178
_cell_formula_units_Z   2
loop_
 _symmetry_equiv_pos_site_id
 _symmetry_equiv_pos_as_xyz
  1  'x, y, z'
loop_
 _atom_site_type_symbol
 _atom_site_label
 _atom_site_symmetry_multiplicity
 _atom_site_fract_x
 _atom_site_fract_y
 _atom_site_fract_z
 _atom_site_occupancy
  O  O0  1  0.269626  0.231119  0.370382  1
  O  O1  1  0.730374  0.768881  0.629618  1
  O  O2  1  0.774170  0.725275  0.127395  1
  O  O3  1  0.225830  0.274725  0.872605  1
  O  O4  1  0.908267  0.087536  0.251032  1
  O  O5  1  0.091733  0.912464  0.748968  1
  O  O6  1  0.292752  0.692597  0.466728  1
  O  O7  1  0.707248  0.307403  0.533272  1
  O  O8  1  0.689668  0.289373  0.968226  1
  O  O9  1  0.310332  0.710627  0.031774  1
  Sb  Sb10  1  0.000000  0.000000  0.500000  1
  Sb  Sb11  1  0.000000  0.000000  0.000000  1
  U  U12  1  0.529795  0.470123  0.249834  1
  U  U13  1  0.470205  0.529877  0.750166  1
