# generated using pymatgen
data_Zr2P
_symmetry_space_group_name_H-M   'P 1'
_cell_length_a   3.63772164
_cell_length_b   17.63674016
_cell_length_c   17.63674016
_cell_angle_alpha   114.22060498
_cell_angle_beta   90.00000000
_cell_angle_gamma   90.00000000
_symmetry_Int_Tables_number   1
_chemical_formula_structural   Zr2P
_chemical_formula_sum   'Zr36 P18'
_cell_volume   1031.92445675
_cell_formula_units_Z   18
loop_
 _symmetry_equiv_pos_site_id
 _symmetry_equiv_pos_as_xyz
  1  'x, y, z'
loop_
 _atom_site_type_symbol
 _atom_site_label
 _atom_site_symmetry_multiplicity
 _atom_site_fract_x
 _atom_site_fract_y
 _atom_site_fract_z
 _atom_site_occupancy
  P  P0  1  0.500000  0.844700  0.155300  1
  P  P1  1  0.500000  0.155300  0.844700  1
  P  P2  1  0.000000  0.178005  0.608229  1
  P  P3  1  0.000000  0.821995  0.391771  1
  P  P4  1  0.000000  0.608229  0.178005  1
  P  P5  1  0.000000  0.391771  0.821995  1
  P  P6  1  0.000000  0.961022  0.627251  1
  P  P7  1  0.000000  0.038978  0.372749  1
  P  P8  1  0.000000  0.627251  0.961022  1
  P  P9  1  0.000000  0.372749  0.038978  1
  P  P10  1  0.500000  0.718425  0.580590  1
  P  P11  1  0.500000  0.281575  0.419410  1
  P  P12  1  0.500000  0.580590  0.718425  1
  P  P13  1  0.500000  0.419410  0.281575  1
  P  P14  1  0.500000  0.918216  0.792009  1
  P  P15  1  0.500000  0.081784  0.207991  1
  P  P16  1  0.500000  0.792009  0.918216  1
  P  P17  1  0.500000  0.207991  0.081784  1
  Zr  Zr18  1  0.000000  0.699316  0.461786  1
  Zr  Zr19  1  0.000000  0.300684  0.538214  1
  Zr  Zr20  1  0.500000  0.250609  0.250609  1
  Zr  Zr21  1  0.500000  0.749391  0.749391  1
  Zr  Zr22  1  0.000000  0.106622  0.106622  1
  Zr  Zr23  1  0.000000  0.893378  0.893378  1
  Zr  Zr24  1  0.000000  0.384225  0.384225  1
  Zr  Zr25  1  0.000000  0.615775  0.615775  1
  Zr  Zr26  1  0.500000  0.057821  0.942179  1
  Zr  Zr27  1  0.500000  0.942179  0.057821  1
  Zr  Zr28  1  0.500000  0.307586  0.692414  1
  Zr  Zr29  1  0.500000  0.692414  0.307586  1
  Zr  Zr30  1  0.500000  0.447794  0.552206  1
  Zr  Zr31  1  0.500000  0.552206  0.447794  1
  Zr  Zr32  1  0.000000  0.221145  0.778855  1
  Zr  Zr33  1  0.000000  0.778855  0.221145  1
  Zr  Zr34  1  0.000000  0.500000  0.000000  1
  Zr  Zr35  1  0.000000  0.000000  0.500000  1
  Zr  Zr36  1  0.000000  0.538214  0.300684  1
  Zr  Zr37  1  0.000000  0.461786  0.699316  1
  Zr  Zr38  1  0.000000  0.031577  0.789128  1
  Zr  Zr39  1  0.000000  0.968423  0.210872  1
  Zr  Zr40  1  0.000000  0.789128  0.031577  1
  Zr  Zr41  1  0.000000  0.210872  0.968423  1
  Zr  Zr42  1  0.000000  0.834710  0.669410  1
  Zr  Zr43  1  0.000000  0.165290  0.330590  1
  Zr  Zr44  1  0.000000  0.669410  0.834710  1
  Zr  Zr45  1  0.000000  0.330590  0.165290  1
  Zr  Zr46  1  0.500000  0.141254  0.481362  1
  Zr  Zr47  1  0.500000  0.858746  0.518638  1
  Zr  Zr48  1  0.500000  0.481362  0.141254  1
  Zr  Zr49  1  0.500000  0.518638  0.858746  1
  Zr  Zr50  1  0.500000  0.085991  0.654292  1
  Zr  Zr51  1  0.500000  0.914009  0.345708  1
  Zr  Zr52  1  0.500000  0.654292  0.085991  1
  Zr  Zr53  1  0.500000  0.345708  0.914009  1
