# generated using pymatgen
data_CdCoH18N6Cl5
_symmetry_space_group_name_H-M   'P 1'
_cell_length_a   16.04982289
_cell_length_b   16.04982286
_cell_length_c   16.04982318
_cell_angle_alpha   60.00000149
_cell_angle_beta   60.00000154
_cell_angle_gamma   60.00000220
_symmetry_Int_Tables_number   1
_chemical_formula_structural   CdCoH18N6Cl5
_chemical_formula_sum   'Cd8 Co8 H144 N48 Cl40'
_cell_volume   2923.45059884
_cell_formula_units_Z   8
loop_
 _symmetry_equiv_pos_site_id
 _symmetry_equiv_pos_as_xyz
  1  'x, y, z'
loop_
 _atom_site_type_symbol
 _atom_site_label
 _atom_site_symmetry_multiplicity
 _atom_site_fract_x
 _atom_site_fract_y
 _atom_site_fract_z
 _atom_site_occupancy
  H  H0  1  0.953733  0.051928  0.150386  1
  H  H1  1  0.448072  0.349614  0.156046  1
  H  H2  1  0.156046  0.546267  0.448072  1
  H  H3  1  0.448072  0.156046  0.546267  1
  H  H4  1  0.349614  0.546267  0.156046  1
  H  H5  1  0.349614  0.156046  0.448072  1
  H  H6  1  0.156046  0.349614  0.546267  1
  H  H7  1  0.150386  0.953733  0.051928  1
  H  H8  1  0.051928  0.150386  0.953733  1
  H  H9  1  0.343954  0.953733  0.150386  1
  H  H10  1  0.051928  0.343954  0.150386  1
  H  H11  1  0.343954  0.051928  0.953733  1
  H  H12  1  0.150386  0.051928  0.343954  1
  H  H13  1  0.953733  0.150386  0.343954  1
  H  H14  1  0.953733  0.343954  0.051928  1
  H  H15  1  0.156046  0.448072  0.349614  1
  H  H16  1  0.546267  0.156046  0.349614  1
  H  H17  1  0.546267  0.448072  0.156046  1
  H  H18  1  0.448072  0.546267  0.349614  1
  H  H19  1  0.349614  0.448072  0.546267  1
  H  H20  1  0.546267  0.349614  0.448072  1
  H  H21  1  0.150386  0.343954  0.953733  1
  H  H22  1  0.343954  0.150386  0.051928  1
  H  H23  1  0.051928  0.953733  0.343954  1
  H  H24  1  0.046267  0.948072  0.849614  1
  H  H25  1  0.551928  0.650386  0.843954  1
  H  H26  1  0.843954  0.453733  0.551928  1
  H  H27  1  0.551928  0.843954  0.453733  1
  H  H28  1  0.650386  0.453733  0.843954  1
  H  H29  1  0.650386  0.843954  0.551928  1
  H  H30  1  0.843954  0.650386  0.453733  1
  H  H31  1  0.849614  0.046267  0.948072  1
  H  H32  1  0.948072  0.849614  0.046267  1
  H  H33  1  0.656046  0.046267  0.849614  1
  H  H34  1  0.948072  0.656046  0.849614  1
  H  H35  1  0.656046  0.948072  0.046267  1
  H  H36  1  0.849614  0.948072  0.656046  1
  H  H37  1  0.046267  0.849614  0.656046  1
  H  H38  1  0.046267  0.656046  0.948072  1
  H  H39  1  0.843954  0.551928  0.650386  1
  H  H40  1  0.453733  0.843954  0.650386  1
  H  H41  1  0.453733  0.551928  0.843954  1
  H  H42  1  0.551928  0.453733  0.650386  1
  H  H43  1  0.650386  0.551928  0.453733  1
  H  H44  1  0.453733  0.650386  0.551928  1
  H  H45  1  0.849614  0.656046  0.046267  1
  H  H46  1  0.656046  0.849614  0.948072  1
  H  H47  1  0.948072  0.046267  0.656046  1
  H  H48  1  0.879756  0.988785  0.181974  1
  H  H49  1  0.511215  0.318026  0.050515  1
  H  H50  1  0.050515  0.620244  0.511215  1
  H  H51  1  0.511215  0.050515  0.620244  1
  H  H52  1  0.318026  0.620244  0.050515  1
  H  H53  1  0.318026  0.050515  0.511215  1
  H  H54  1  0.050515  0.318026  0.620244  1
  H  H55  1  0.181974  0.879756  0.988785  1
  H  H56  1  0.988785  0.181974  0.879756  1
  H  H57  1  0.449485  0.879756  0.181974  1
  H  H58  1  0.988785  0.449485  0.181974  1
  H  H59  1  0.449485  0.988785  0.879756  1
  H  H60  1  0.181974  0.988785  0.449485  1
  H  H61  1  0.879756  0.181974  0.449485  1
  H  H62  1  0.879756  0.449485  0.988785  1
  H  H63  1  0.050515  0.511215  0.318026  1
  H  H64  1  0.620244  0.050515  0.318026  1
  H  H65  1  0.620244  0.511215  0.050515  1
  H  H66  1  0.511215  0.620244  0.318026  1
  H  H67  1  0.318026  0.511215  0.620244  1
  H  H68  1  0.620244  0.318026  0.511215  1
  H  H69  1  0.181974  0.449485  0.879756  1
  H  H70  1  0.449485  0.181974  0.988785  1
  H  H71  1  0.988785  0.879756  0.449485  1
  H  H72  1  0.120244  0.011215  0.818026  1
  H  H73  1  0.488785  0.681974  0.949485  1
  H  H74  1  0.949485  0.379756  0.488785  1
  H  H75  1  0.488785  0.949485  0.379756  1
  H  H76  1  0.681974  0.379756  0.949485  1
  H  H77  1  0.681974  0.949485  0.488785  1
  H  H78  1  0.949485  0.681974  0.379756  1
  H  H79  1  0.818026  0.120244  0.011215  1
  H  H80  1  0.011215  0.818026  0.120244  1
  H  H81  1  0.550515  0.120244  0.818026  1
  H  H82  1  0.011215  0.550515  0.818026  1
  H  H83  1  0.550515  0.011215  0.120244  1
  H  H84  1  0.818026  0.011215  0.550515  1
  H  H85  1  0.120244  0.818026  0.550515  1
  H  H86  1  0.120244  0.550515  0.011215  1
  H  H87  1  0.949485  0.488785  0.681974  1
  H  H88  1  0.379756  0.949485  0.681974  1
  H  H89  1  0.379756  0.488785  0.949485  1
  H  H90  1  0.488785  0.379756  0.681974  1
  H  H91  1  0.681974  0.488785  0.379756  1
  H  H92  1  0.379756  0.681974  0.488785  1
  H  H93  1  0.818026  0.550515  0.120244  1
  H  H94  1  0.550515  0.818026  0.011215  1
  H  H95  1  0.011215  0.120244  0.550515  1
  H  H96  1  0.997849  0.925619  0.182253  1
  H  H97  1  0.574381  0.317747  0.105721  1
  H  H98  1  0.105721  0.502151  0.574381  1
  H  H99  1  0.574381  0.105721  0.502151  1
  H  H100  1  0.317747  0.502151  0.105721  1
  H  H101  1  0.317747  0.105721  0.574381  1
  H  H102  1  0.105721  0.317747  0.502151  1
  H  H103  1  0.182253  0.997849  0.925619  1
  H  H104  1  0.925619  0.182253  0.997849  1
  H  H105  1  0.394278  0.997849  0.182253  1
  H  H106  1  0.925619  0.394278  0.182253  1
  H  H107  1  0.394278  0.925619  0.997849  1
  H  H108  1  0.182253  0.925619  0.394278  1
  H  H109  1  0.997849  0.182253  0.394278  1
  H  H110  1  0.997849  0.394278  0.925619  1
  H  H111  1  0.105721  0.574381  0.317747  1
  H  H112  1  0.502151  0.105721  0.317747  1
  H  H113  1  0.502151  0.574381  0.105721  1
  H  H114  1  0.574381  0.502151  0.317747  1
  H  H115  1  0.317747  0.574381  0.502151  1
  H  H116  1  0.502151  0.317747  0.574381  1
  H  H117  1  0.182253  0.394278  0.997849  1
  H  H118  1  0.394278  0.182253  0.925619  1
  H  H119  1  0.925619  0.997849  0.394278  1
  H  H120  1  0.002151  0.074381  0.817747  1
  H  H121  1  0.425619  0.682253  0.894278  1
  H  H122  1  0.894278  0.497849  0.425619  1
  H  H123  1  0.425619  0.894278  0.497849  1
  H  H124  1  0.682253  0.497849  0.894278  1
  H  H125  1  0.682253  0.894278  0.425619  1
  H  H126  1  0.894278  0.682253  0.497849  1
  H  H127  1  0.817747  0.002151  0.074381  1
  H  H128  1  0.074381  0.817747  0.002151  1
  H  H129  1  0.605722  0.002151  0.817747  1
  H  H130  1  0.074381  0.605722  0.817747  1
  H  H131  1  0.605722  0.074381  0.002151  1
  H  H132  1  0.817747  0.074381  0.605722  1
  H  H133  1  0.002151  0.817747  0.605722  1
  H  H134  1  0.002151  0.605722  0.074381  1
  H  H135  1  0.894278  0.425619  0.682253  1
  H  H136  1  0.497849  0.894278  0.682253  1
  H  H137  1  0.497849  0.425619  0.894278  1
  H  H138  1  0.425619  0.497849  0.682253  1
  H  H139  1  0.682253  0.425619  0.497849  1
  H  H140  1  0.497849  0.682253  0.425619  1
  H  H141  1  0.817747  0.605722  0.002151  1
  H  H142  1  0.605722  0.817747  0.074381  1
  H  H143  1  0.074381  0.002151  0.605722  1
  N  N144  1  0.952748  0.991955  0.143173  1
  N  N145  1  0.508045  0.356827  0.087875  1
  N  N146  1  0.087875  0.547252  0.508045  1
  N  N147  1  0.508045  0.087875  0.547252  1
  N  N148  1  0.356827  0.547252  0.087875  1
  N  N149  1  0.356827  0.087875  0.508045  1
  N  N150  1  0.087875  0.356827  0.547252  1
  N  N151  1  0.143173  0.952748  0.991955  1
  N  N152  1  0.991955  0.143173  0.952748  1
  N  N153  1  0.412125  0.952748  0.143173  1
  N  N154  1  0.991955  0.412125  0.143173  1
  N  N155  1  0.412125  0.991955  0.952748  1
  N  N156  1  0.143173  0.991955  0.412125  1
  N  N157  1  0.952748  0.143173  0.412125  1
  N  N158  1  0.952748  0.412125  0.991955  1
  N  N159  1  0.087875  0.508045  0.356827  1
  N  N160  1  0.547252  0.087875  0.356827  1
  N  N161  1  0.547252  0.508045  0.087875  1
  N  N162  1  0.508045  0.547252  0.356827  1
  N  N163  1  0.356827  0.508045  0.547252  1
  N  N164  1  0.547252  0.356827  0.508045  1
  N  N165  1  0.143173  0.412125  0.952748  1
  N  N166  1  0.412125  0.143173  0.991955  1
  N  N167  1  0.991955  0.952748  0.412125  1
  N  N168  1  0.047252  0.008045  0.856827  1
  N  N169  1  0.491955  0.643173  0.912125  1
  N  N170  1  0.912125  0.452748  0.491955  1
  N  N171  1  0.491955  0.912125  0.452748  1
  N  N172  1  0.643173  0.452748  0.912125  1
  N  N173  1  0.643173  0.912125  0.491955  1
  N  N174  1  0.912125  0.643173  0.452748  1
  N  N175  1  0.856827  0.047252  0.008045  1
  N  N176  1  0.008045  0.856827  0.047252  1
  N  N177  1  0.587875  0.047252  0.856827  1
  N  N178  1  0.008045  0.587875  0.856827  1
  N  N179  1  0.587875  0.008045  0.047252  1
  N  N180  1  0.856827  0.008045  0.587875  1
  N  N181  1  0.047252  0.856827  0.587875  1
  N  N182  1  0.047252  0.587875  0.008045  1
  N  N183  1  0.912125  0.491955  0.643173  1
  N  N184  1  0.452748  0.912125  0.643173  1
  N  N185  1  0.452748  0.491955  0.912125  1
  N  N186  1  0.491955  0.452748  0.643173  1
  N  N187  1  0.643173  0.491955  0.452748  1
  N  N188  1  0.452748  0.643173  0.491955  1
  N  N189  1  0.856827  0.587875  0.047252  1
  N  N190  1  0.587875  0.856827  0.008045  1
  N  N191  1  0.008045  0.047252  0.587875  1
  Cl  Cl192  1  0.185284  0.185284  0.185284  1
  Cl  Cl193  1  0.314716  0.314716  0.555852  1
  Cl  Cl194  1  0.555852  0.314716  0.314716  1
  Cl  Cl195  1  0.314716  0.555852  0.314716  1
  Cl  Cl196  1  0.944148  0.185284  0.185284  1
  Cl  Cl197  1  0.185284  0.944148  0.185284  1
  Cl  Cl198  1  0.185284  0.185284  0.944148  1
  Cl  Cl199  1  0.314716  0.314716  0.314716  1
  Cl  Cl200  1  0.814716  0.814716  0.814716  1
  Cl  Cl201  1  0.685284  0.685284  0.444148  1
  Cl  Cl202  1  0.444148  0.685284  0.685284  1
  Cl  Cl203  1  0.685284  0.444148  0.685284  1
  Cl  Cl204  1  0.055852  0.814716  0.814716  1
  Cl  Cl205  1  0.814716  0.055852  0.814716  1
  Cl  Cl206  1  0.814716  0.814716  0.055852  1
  Cl  Cl207  1  0.685284  0.685284  0.685284  1
  Cl  Cl208  1  0.750000  0.085146  0.414854  1
  Cl  Cl209  1  0.414854  0.085146  0.250000  1
  Cl  Cl210  1  0.250000  0.750000  0.414854  1
  Cl  Cl211  1  0.414854  0.250000  0.750000  1
  Cl  Cl212  1  0.085146  0.750000  0.250000  1
  Cl  Cl213  1  0.085146  0.250000  0.414854  1
  Cl  Cl214  1  0.250000  0.085146  0.750000  1
  Cl  Cl215  1  0.414854  0.750000  0.085146  1
  Cl  Cl216  1  0.085146  0.414854  0.750000  1
  Cl  Cl217  1  0.750000  0.414854  0.250000  1
  Cl  Cl218  1  0.750000  0.250000  0.085146  1
  Cl  Cl219  1  0.250000  0.414854  0.085146  1
  Cl  Cl220  1  0.250000  0.914854  0.585146  1
  Cl  Cl221  1  0.585146  0.914854  0.750000  1
  Cl  Cl222  1  0.750000  0.250000  0.585146  1
  Cl  Cl223  1  0.585146  0.750000  0.250000  1
  Cl  Cl224  1  0.914854  0.250000  0.750000  1
  Cl  Cl225  1  0.914854  0.750000  0.585146  1
  Cl  Cl226  1  0.750000  0.914854  0.250000  1
  Cl  Cl227  1  0.585146  0.250000  0.914854  1
  Cl  Cl228  1  0.914854  0.585146  0.250000  1
  Cl  Cl229  1  0.250000  0.585146  0.750000  1
  Cl  Cl230  1  0.250000  0.750000  0.914854  1
  Cl  Cl231  1  0.750000  0.585146  0.914854  1
  Co  Co232  1  0.000000  0.000000  0.000000  1
  Co  Co233  1  0.500000  0.500000  0.000000  1
  Co  Co234  1  0.000000  0.500000  0.500000  1
  Co  Co235  1  0.500000  0.000000  0.500000  1
  Co  Co236  1  0.500000  0.000000  0.000000  1
  Co  Co237  1  0.000000  0.500000  0.000000  1
  Co  Co238  1  0.000000  0.000000  0.500000  1
  Co  Co239  1  0.500000  0.500000  0.500000  1
  Cd  Cd240  1  0.250000  0.250000  0.250000  1
  Cd  Cd241  1  0.250000  0.250000  0.750000  1
  Cd  Cd242  1  0.750000  0.250000  0.250000  1
  Cd  Cd243  1  0.250000  0.750000  0.250000  1
  Cd  Cd244  1  0.750000  0.750000  0.750000  1
  Cd  Cd245  1  0.750000  0.750000  0.250000  1
  Cd  Cd246  1  0.250000  0.750000  0.750000  1
  Cd  Cd247  1  0.750000  0.250000  0.750000  1
