# generated using pymatgen
data_Si3CCl8
_symmetry_space_group_name_H-M   'P 1'
_cell_length_a   8.93485249
_cell_length_b   9.38135577
_cell_length_c   9.51931091
_cell_angle_alpha   96.63350242
_cell_angle_beta   115.91607089
_cell_angle_gamma   101.97755991
_symmetry_Int_Tables_number   1
_chemical_formula_structural   Si3CCl8
_chemical_formula_sum   'Si6 C2 Cl16'
_cell_volume   682.49597067
_cell_formula_units_Z   2
loop_
 _symmetry_equiv_pos_site_id
 _symmetry_equiv_pos_as_xyz
  1  'x, y, z'
loop_
 _atom_site_type_symbol
 _atom_site_label
 _atom_site_symmetry_multiplicity
 _atom_site_fract_x
 _atom_site_fract_y
 _atom_site_fract_z
 _atom_site_occupancy
  Si  Si0  1  0.104020  0.433355  0.596951  1
  Si  Si1  1  0.895980  0.566645  0.403049  1
  Si  Si2  1  0.702568  0.216968  0.340098  1
  Si  Si3  1  0.297432  0.783032  0.659902  1
  Si  Si4  1  0.979687  0.290488  0.225387  1
  Si  Si5  1  0.020313  0.709512  0.774613  1
  Cl  Cl6  1  0.334093  0.420934  0.606275  1
  Cl  Cl7  1  0.665907  0.579066  0.393725  1
  Cl  Cl8  1  0.086457  0.324260  0.764756  1
  Cl  Cl9  1  0.913543  0.675740  0.235244  1
  Cl  Cl10  1  0.721253  1.003591  0.303866  1
  Cl  Cl11  1  0.278747  -0.003591  0.696134  1
  Cl  Cl12  1  0.490520  0.229695  0.142475  1
  Cl  Cl13  1  0.509480  0.770305  0.857525  1
  Cl  Cl14  1  0.640272  0.232294  0.522763  1
  Cl  Cl15  1  0.359728  0.767706  0.477237  1
  Cl  Cl16  1  0.085499  0.117955  0.279341  1
  Cl  Cl17  1  0.914501  0.882045  0.720659  1
  Cl  Cl18  1  0.771440  0.216069  0.999882  1
  Cl  Cl19  1  0.228560  0.783931  0.000118  1
  Cl  Cl20  1  0.159585  0.446239  0.202649  1
  Cl  Cl21  1  0.840415  0.553761  0.797351  1
  C  C22  1  0.911978  0.363160  0.380369  1
  C  C23  1  0.088022  0.636840  0.619631  1
