# generated using pymatgen
data_RuCl3
_symmetry_space_group_name_H-M   'P 1'
_cell_length_a   6.61247211
_cell_length_b   6.61247157
_cell_length_c   5.71156036
_cell_angle_alpha   90.00000000
_cell_angle_beta   90.00000000
_cell_angle_gamma   120.00000264
_symmetry_Int_Tables_number   1
_chemical_formula_structural   RuCl3
_chemical_formula_sum   'Ru2 Cl6'
_cell_volume   216.27835720
_cell_formula_units_Z   2
loop_
 _symmetry_equiv_pos_site_id
 _symmetry_equiv_pos_as_xyz
  1  'x, y, z'
loop_
 _atom_site_type_symbol
 _atom_site_label
 _atom_site_symmetry_multiplicity
 _atom_site_fract_x
 _atom_site_fract_y
 _atom_site_fract_z
 _atom_site_occupancy
  Ru  Ru0  1  0.000000  0.000000  0.000000  1
  Ru  Ru1  1  0.000000  0.000000  0.500000  1
  Cl  Cl2  1  0.001172  0.714621  0.750000  1
  Cl  Cl3  1  0.713448  0.714621  0.250000  1
  Cl  Cl4  1  0.285379  0.286552  0.750000  1
  Cl  Cl5  1  0.713448  0.998828  0.750000  1
  Cl  Cl6  1  0.285379  0.998828  0.250000  1
  Cl  Cl7  1  0.001172  0.286552  0.250000  1
