# generated using pymatgen
data_CuSbSe2
_symmetry_space_group_name_H-M   'P 1'
_cell_length_a   4.03449095
_cell_length_b   6.45669076
_cell_length_c   14.92857599
_cell_angle_alpha   90.00000000
_cell_angle_beta   90.00000000
_cell_angle_gamma   90.00000000
_symmetry_Int_Tables_number   1
_chemical_formula_structural   CuSbSe2
_chemical_formula_sum   'Cu4 Sb4 Se8'
_cell_volume   388.88134965
_cell_formula_units_Z   4
loop_
 _symmetry_equiv_pos_site_id
 _symmetry_equiv_pos_as_xyz
  1  'x, y, z'
loop_
 _atom_site_type_symbol
 _atom_site_label
 _atom_site_symmetry_multiplicity
 _atom_site_fract_x
 _atom_site_fract_y
 _atom_site_fract_z
 _atom_site_occupancy
  Cu  Cu0  1  0.750000  0.751489  0.170123  1
  Cu  Cu1  1  0.250000  0.248511  0.829877  1
  Cu  Cu2  1  0.750000  0.251489  0.329877  1
  Cu  Cu3  1  0.250000  0.748511  0.670123  1
  Se  Se4  1  0.250000  0.375690  0.675795  1
  Se  Se5  1  0.750000  0.373257  0.903673  1
  Se  Se6  1  0.750000  0.624310  0.324205  1
  Se  Se7  1  0.250000  0.875690  0.824205  1
  Se  Se8  1  0.750000  0.873257  0.596327  1
  Se  Se9  1  0.250000  0.626743  0.096327  1
  Se  Se10  1  0.250000  0.126743  0.403673  1
  Se  Se11  1  0.750000  0.124310  0.175795  1
  Sb  Sb12  1  0.750000  0.772115  0.942623  1
  Sb  Sb13  1  0.250000  0.727885  0.442623  1
  Sb  Sb14  1  0.750000  0.272115  0.557377  1
  Sb  Sb15  1  0.250000  0.227885  0.057377  1
