# generated using pymatgen
data_PdCl2
_symmetry_space_group_name_H-M   'P 1'
_cell_length_a   8.62240100
_cell_length_b   8.62240100
_cell_length_c   8.62240100
_cell_angle_alpha   108.01460569
_cell_angle_beta   108.01460568
_cell_angle_gamma   108.01460562
_symmetry_Int_Tables_number   1
_chemical_formula_structural   PdCl2
_chemical_formula_sum   'Pd6 Cl12'
_cell_volume   518.37840473
_cell_formula_units_Z   6
loop_
 _symmetry_equiv_pos_site_id
 _symmetry_equiv_pos_as_xyz
  1  'x, y, z'
loop_
 _atom_site_type_symbol
 _atom_site_label
 _atom_site_symmetry_multiplicity
 _atom_site_fract_x
 _atom_site_fract_y
 _atom_site_fract_z
 _atom_site_occupancy
  Cl  Cl0  1  0.751366  0.026106  0.222516  1
  Cl  Cl1  1  0.026106  0.222516  0.751366  1
  Cl  Cl2  1  0.222516  0.751366  0.026106  1
  Cl  Cl3  1  0.248634  0.973894  0.777484  1
  Cl  Cl4  1  0.973894  0.777484  0.248634  1
  Cl  Cl5  1  0.777484  0.248634  0.973894  1
  Cl  Cl6  1  0.136152  0.385015  0.358986  1
  Cl  Cl7  1  0.358986  0.136152  0.385015  1
  Cl  Cl8  1  0.385015  0.358986  0.136152  1
  Cl  Cl9  1  0.863848  0.614985  0.641014  1
  Cl  Cl10  1  0.641014  0.863848  0.614985  1
  Cl  Cl11  1  0.614985  0.641014  0.863848  1
  Pd  Pd12  1  0.693118  0.943921  0.917616  1
  Pd  Pd13  1  0.943921  0.917616  0.693118  1
  Pd  Pd14  1  0.917616  0.693118  0.943921  1
  Pd  Pd15  1  0.306882  0.056079  0.082384  1
  Pd  Pd16  1  0.056079  0.082384  0.306882  1
  Pd  Pd17  1  0.082384  0.306882  0.056079  1
