# generated using pymatgen
data_Sn4OF6
_symmetry_space_group_name_H-M   'P 1'
_cell_length_a   5.12763588
_cell_length_b   10.93392965
_cell_length_c   16.58333138
_cell_angle_alpha   90.00000000
_cell_angle_beta   90.00000000
_cell_angle_gamma   90.00000000
_symmetry_Int_Tables_number   1
_chemical_formula_structural   Sn4OF6
_chemical_formula_sum   'Sn16 O4 F24'
_cell_volume   929.74795603
_cell_formula_units_Z   4
loop_
 _symmetry_equiv_pos_site_id
 _symmetry_equiv_pos_as_xyz
  1  'x, y, z'
loop_
 _atom_site_type_symbol
 _atom_site_label
 _atom_site_symmetry_multiplicity
 _atom_site_fract_x
 _atom_site_fract_y
 _atom_site_fract_z
 _atom_site_occupancy
  O  O0  1  0.425096  0.614652  0.383445  1
  O  O1  1  0.925096  0.385348  0.116555  1
  O  O2  1  0.074904  0.114652  0.616555  1
  O  O3  1  0.574904  0.885348  0.883445  1
  F  F4  1  0.908099  0.725104  0.326959  1
  F  F5  1  0.408099  0.274896  0.173041  1
  F  F6  1  0.591901  0.225104  0.673041  1
  F  F7  1  0.091901  0.774896  0.826959  1
  F  F8  1  0.446701  0.870217  0.370964  1
  F  F9  1  0.946701  0.129783  0.129036  1
  F  F10  1  0.053299  0.370217  0.629036  1
  F  F11  1  0.553299  0.629783  0.870964  1
  F  F12  1  0.984048  0.483918  0.784729  1
  F  F13  1  0.484048  0.516082  0.715271  1
  F  F14  1  0.515952  0.983918  0.215271  1
  F  F15  1  0.015952  0.016082  0.284729  1
  F  F16  1  0.615583  0.956285  0.046376  1
  F  F17  1  0.115583  0.043715  0.453624  1
  F  F18  1  0.884417  0.456285  0.953624  1
  F  F19  1  0.384417  0.543715  0.546376  1
  F  F20  1  0.888960  0.019898  0.788558  1
  F  F21  1  0.388960  0.980102  0.711442  1
  F  F22  1  0.611040  0.519898  0.211442  1
  F  F23  1  0.111041  0.480102  0.288558  1
  F  F24  1  0.089052  0.969044  0.955499  1
  F  F25  1  0.589052  0.030956  0.544501  1
  F  F26  1  0.410948  0.469044  0.044501  1
  F  F27  1  0.910948  0.530956  0.455499  1
  Sn  Sn28  1  0.716095  0.841583  0.767820  1
  Sn  Sn29  1  0.216095  0.158417  0.732180  1
  Sn  Sn30  1  0.783905  0.341583  0.232180  1
  Sn  Sn31  1  0.283905  0.658417  0.267820  1
  Sn  Sn32  1  0.712385  0.720351  0.440430  1
  Sn  Sn33  1  0.212385  0.279649  0.059570  1
  Sn  Sn34  1  0.787615  0.220351  0.559570  1
  Sn  Sn35  1  0.287615  0.779649  0.940430  1
  Sn  Sn36  1  0.214223  0.951352  0.565375  1
  Sn  Sn37  1  0.714223  0.048648  0.934625  1
  Sn  Sn38  1  0.285777  0.451352  0.434625  1
  Sn  Sn39  1  0.785777  0.548648  0.065375  1
  Sn  Sn40  1  0.120711  0.555104  0.660077  1
  Sn  Sn41  1  0.620711  0.444896  0.839923  1
  Sn  Sn42  1  0.379289  0.055104  0.339923  1
  Sn  Sn43  1  0.879289  0.944896  0.160077  1
