# generated using pymatgen
data_Na7Al2Sb5
_symmetry_space_group_name_H-M   'P 1'
_cell_length_a   7.69867138
_cell_length_b   8.20530564
_cell_length_c   14.01460226
_cell_angle_alpha   90.00000000
_cell_angle_beta   90.00000000
_cell_angle_gamma   117.72101261
_symmetry_Int_Tables_number   1
_chemical_formula_structural   Na7Al2Sb5
_chemical_formula_sum   'Na14 Al4 Sb10'
_cell_volume   783.68954943
_cell_formula_units_Z   2
loop_
 _symmetry_equiv_pos_site_id
 _symmetry_equiv_pos_as_xyz
  1  'x, y, z'
loop_
 _atom_site_type_symbol
 _atom_site_label
 _atom_site_symmetry_multiplicity
 _atom_site_fract_x
 _atom_site_fract_y
 _atom_site_fract_z
 _atom_site_occupancy
  Na  Na0  1  0.099091  0.404337  0.250000  1
  Na  Na1  1  0.107744  0.416266  0.924791  1
  Na  Na2  1  0.808778  0.883521  0.922653  1
  Na  Na3  1  0.191222  0.116479  0.422653  1
  Na  Na4  1  0.900909  0.595663  0.750000  1
  Na  Na5  1  0.560399  0.261829  0.250000  1
  Na  Na6  1  0.229712  0.144828  0.750000  1
  Na  Na7  1  0.770288  0.855172  0.250000  1
  Na  Na8  1  0.892256  0.583734  0.075209  1
  Na  Na9  1  0.191222  0.116479  0.077347  1
  Na  Na10  1  0.892256  0.583734  0.424791  1
  Na  Na11  1  0.439601  0.738171  0.750000  1
  Na  Na12  1  0.808778  0.883521  0.577347  1
  Na  Na13  1  0.107744  0.416266  0.575209  1
  Al  Al14  1  0.413056  0.839159  0.088040  1
  Al  Al15  1  0.586944  0.160841  0.588040  1
  Al  Al16  1  0.586944  0.160841  0.911960  1
  Al  Al17  1  0.413056  0.839159  0.411960  1
  Sb  Sb18  1  0.469806  0.536377  0.099197  1
  Sb  Sb19  1  0.225862  0.850976  0.922543  1
  Sb  Sb20  1  0.774138  0.149024  0.422543  1
  Sb  Sb21  1  0.774138  0.149024  0.077457  1
  Sb  Sb22  1  0.530194  0.463624  0.900803  1
  Sb  Sb23  1  0.469806  0.536377  0.400803  1
  Sb  Sb24  1  0.530194  0.463624  0.599197  1
  Sb  Sb25  1  0.198370  0.833994  0.250000  1
  Sb  Sb26  1  0.801630  0.166006  0.750000  1
  Sb  Sb27  1  0.225862  0.850976  0.577457  1
