# generated using pymatgen
data_WCl3
_symmetry_space_group_name_H-M   'P 1'
_cell_length_a   10.17287918
_cell_length_b   10.17287898
_cell_length_c   10.17287859
_cell_angle_alpha   111.59659064
_cell_angle_beta   111.59659027
_cell_angle_gamma   111.59658974
_symmetry_Int_Tables_number   1
_chemical_formula_structural   WCl3
_chemical_formula_sum   'W6 Cl18'
_cell_volume   739.82288658
_cell_formula_units_Z   6
loop_
 _symmetry_equiv_pos_site_id
 _symmetry_equiv_pos_as_xyz
  1  'x, y, z'
loop_
 _atom_site_type_symbol
 _atom_site_label
 _atom_site_symmetry_multiplicity
 _atom_site_fract_x
 _atom_site_fract_y
 _atom_site_fract_z
 _atom_site_occupancy
  W  W0  1  0.235422  0.040199  0.131369  1
  W  W1  1  0.868631  0.764578  0.959801  1
  W  W2  1  0.040199  0.131369  0.235422  1
  W  W3  1  0.764578  0.959801  0.868631  1
  W  W4  1  0.959801  0.868631  0.764578  1
  W  W5  1  0.131369  0.235422  0.040199  1
  Cl  Cl6  1  0.895398  0.879176  0.227423  1
  Cl  Cl7  1  0.576425  0.684227  0.807354  1
  Cl  Cl8  1  0.104602  0.120824  0.772577  1
  Cl  Cl9  1  0.075094  0.277592  0.506704  1
  Cl  Cl10  1  0.423575  0.315773  0.192646  1
  Cl  Cl11  1  0.277592  0.506704  0.075094  1
  Cl  Cl12  1  0.315773  0.192646  0.423575  1
  Cl  Cl13  1  0.506704  0.075094  0.277592  1
  Cl  Cl14  1  0.684227  0.807354  0.576425  1
  Cl  Cl15  1  0.807354  0.576425  0.684227  1
  Cl  Cl16  1  0.192646  0.423575  0.315773  1
  Cl  Cl17  1  0.227423  0.895398  0.879176  1
  Cl  Cl18  1  0.924906  0.722408  0.493296  1
  Cl  Cl19  1  0.772577  0.104602  0.120824  1
  Cl  Cl20  1  0.722408  0.493296  0.924906  1
  Cl  Cl21  1  0.493296  0.924906  0.722408  1
  Cl  Cl22  1  0.120824  0.772577  0.104602  1
  Cl  Cl23  1  0.879176  0.227423  0.895398  1
