# generated using pymatgen
data_Sb2TeF14
_symmetry_space_group_name_H-M   'P 1'
_cell_length_a   7.61106428
_cell_length_b   10.00291689
_cell_length_c   14.56543109
_cell_angle_alpha   90.00000000
_cell_angle_beta   90.00000000
_cell_angle_gamma   91.50525938
_symmetry_Int_Tables_number   1
_chemical_formula_structural   Sb2TeF14
_chemical_formula_sum   'Sb8 Te4 F56'
_cell_volume   1108.52502097
_cell_formula_units_Z   4
loop_
 _symmetry_equiv_pos_site_id
 _symmetry_equiv_pos_as_xyz
  1  'x, y, z'
loop_
 _atom_site_type_symbol
 _atom_site_label
 _atom_site_symmetry_multiplicity
 _atom_site_fract_x
 _atom_site_fract_y
 _atom_site_fract_z
 _atom_site_occupancy
  F  F0  1  0.470675  0.175864  0.022938  1
  F  F1  1  0.529325  0.324136  0.522938  1
  F  F2  1  0.529325  0.824136  0.977062  1
  F  F3  1  0.470675  0.675864  0.477062  1
  F  F4  1  0.168478  0.357751  0.183871  1
  F  F5  1  0.831522  0.142249  0.683871  1
  F  F6  1  0.831522  0.642249  0.816129  1
  F  F7  1  0.168478  0.857751  0.316129  1
  F  F8  1  0.356635  0.428073  0.038620  1
  F  F9  1  0.643365  0.071927  0.538620  1
  F  F10  1  0.643365  0.571927  0.961380  1
  F  F11  1  0.356635  0.928073  0.461380  1
  F  F12  1  0.367553  0.408739  0.828176  1
  F  F13  1  0.632447  0.091261  0.328176  1
  F  F14  1  0.632447  0.591261  0.171824  1
  F  F15  1  0.367553  0.908739  0.671824  1
  F  F16  1  0.100773  0.379267  0.713770  1
  F  F17  1  0.899227  0.120733  0.213770  1
  F  F18  1  0.899227  0.620733  0.286230  1
  F  F19  1  0.100773  0.879267  0.786230  1
  F  F20  1  0.364908  0.540163  0.668096  1
  F  F21  1  0.635092  0.959837  0.168096  1
  F  F22  1  0.635092  0.459837  0.331904  1
  F  F23  1  0.364908  0.040163  0.831904  1
  F  F24  1  0.035045  0.648826  0.649178  1
  F  F25  1  0.964955  0.851174  0.149178  1
  F  F26  1  0.964955  0.351174  0.350822  1
  F  F27  1  0.035045  0.148826  0.850822  1
  F  F28  1  0.019341  0.903326  0.598246  1
  F  F29  1  0.980659  0.596674  0.098246  1
  F  F30  1  0.980659  0.096674  0.401754  1
  F  F31  1  0.019341  0.403326  0.901754  1
  F  F32  1  0.538202  0.816960  0.316114  1
  F  F33  1  0.461798  0.683040  0.816114  1
  F  F34  1  0.461798  0.183040  0.683886  1
  F  F35  1  0.538202  0.316960  0.183886  1
  F  F36  1  0.827116  0.576097  0.505997  1
  F  F37  1  0.172884  0.923903  0.005997  1
  F  F38  1  0.172884  0.423903  0.494003  1
  F  F39  1  0.827116  0.076097  0.994003  1
  F  F40  1  0.817418  0.837639  0.452629  1
  F  F41  1  0.182582  0.662361  0.952629  1
  F  F42  1  0.182582  0.162361  0.547371  1
  F  F43  1  0.817418  0.337639  0.047371  1
  F  F44  1  0.707325  0.765603  0.632064  1
  F  F45  1  0.292675  0.734397  0.132064  1
  F  F46  1  0.292675  0.234397  0.367936  1
  F  F47  1  0.707325  0.265603  0.867936  1
  F  F48  1  0.122881  0.716702  0.476834  1
  F  F49  1  0.877119  0.783298  0.976834  1
  F  F50  1  0.877119  0.283298  0.523166  1
  F  F51  1  0.122881  0.216702  0.023166  1
  F  F52  1  0.286740  0.610160  0.325618  1
  F  F53  1  0.713260  0.889840  0.825618  1
  F  F54  1  0.713260  0.389840  0.674382  1
  F  F55  1  0.286740  0.110160  0.174382  1
  Sb  Sb56  1  0.333783  0.269441  0.108263  1
  Sb  Sb57  1  0.666217  0.230559  0.608263  1
  Sb  Sb58  1  0.666217  0.730559  0.891737  1
  Sb  Sb59  1  0.333783  0.769441  0.391737  1
  Sb  Sb60  1  0.902675  0.241413  0.944289  1
  Sb  Sb61  1  0.097325  0.258587  0.444289  1
  Sb  Sb62  1  0.097325  0.758587  0.055711  1
  Sb  Sb63  1  0.902675  0.741413  0.555711  1
  Te  Te64  1  0.216942  0.026161  0.730333  1
  Te  Te65  1  0.783058  0.473839  0.230333  1
  Te  Te66  1  0.783058  0.973839  0.269667  1
  Te  Te67  1  0.216942  0.526161  0.769667  1
