# generated using pymatgen
data_Zn3(AsO3)2
_symmetry_space_group_name_H-M   'P 1'
_cell_length_a   6.26716437
_cell_length_b   7.96645561
_cell_length_c   14.58860801
_cell_angle_alpha   90.00000000
_cell_angle_beta   90.00000000
_cell_angle_gamma   90.00000000
_symmetry_Int_Tables_number   1
_chemical_formula_structural   Zn3(AsO3)2
_chemical_formula_sum   'Zn12 As8 O24'
_cell_volume   728.36669774
_cell_formula_units_Z   4
loop_
 _symmetry_equiv_pos_site_id
 _symmetry_equiv_pos_as_xyz
  1  'x, y, z'
loop_
 _atom_site_type_symbol
 _atom_site_label
 _atom_site_symmetry_multiplicity
 _atom_site_fract_x
 _atom_site_fract_y
 _atom_site_fract_z
 _atom_site_occupancy
  O  O0  1  0.411308  0.825307  0.895539  1
  O  O1  1  0.911308  0.174693  0.604461  1
  O  O2  1  0.588692  0.825307  0.104461  1
  O  O3  1  0.088692  0.174693  0.395539  1
  O  O4  1  0.588692  0.174693  0.104461  1
  O  O5  1  0.088692  0.825307  0.395539  1
  O  O6  1  0.411308  0.174693  0.895539  1
  O  O7  1  0.911308  0.825307  0.604461  1
  O  O8  1  0.343931  0.675947  0.699674  1
  O  O9  1  0.843931  0.324053  0.800326  1
  O  O10  1  0.656069  0.675947  0.300326  1
  O  O11  1  0.156069  0.324053  0.199674  1
  O  O12  1  0.656069  0.324053  0.300326  1
  O  O13  1  0.156069  0.675947  0.199674  1
  O  O14  1  0.343931  0.324053  0.699674  1
  O  O15  1  0.843931  0.675947  0.800326  1
  O  O16  1  0.839140  0.000000  0.218621  1
  O  O17  1  0.339140  0.000000  0.281379  1
  O  O18  1  0.160860  0.000000  0.781379  1
  O  O19  1  0.660860  0.000000  0.718621  1
  O  O20  1  0.666873  0.500000  0.940806  1
  O  O21  1  0.166873  0.500000  0.559194  1
  O  O22  1  0.333127  0.500000  0.059194  1
  O  O23  1  0.833127  0.500000  0.440806  1
  Zn  Zn24  1  0.000000  0.685931  0.500000  1
  Zn  Zn25  1  0.500000  0.314069  0.000000  1
  Zn  Zn26  1  0.000000  0.314069  0.500000  1
  Zn  Zn27  1  0.500000  0.685931  0.000000  1
  Zn  Zn28  1  0.435642  0.215576  0.222207  1
  Zn  Zn29  1  0.935642  0.784424  0.277793  1
  Zn  Zn30  1  0.564358  0.215576  0.777793  1
  Zn  Zn31  1  0.064358  0.784424  0.722207  1
  Zn  Zn32  1  0.935642  0.215576  0.277793  1
  Zn  Zn33  1  0.435642  0.784424  0.222207  1
  Zn  Zn34  1  0.064358  0.215576  0.722207  1
  Zn  Zn35  1  0.564358  0.784424  0.777793  1
  As  As36  1  0.091627  0.500000  0.125838  1
  As  As37  1  0.591627  0.500000  0.374162  1
  As  As38  1  0.908373  0.500000  0.874162  1
  As  As39  1  0.408373  0.500000  0.625838  1
  As  As40  1  0.773830  0.000000  0.098074  1
  As  As41  1  0.273830  0.000000  0.401926  1
  As  As42  1  0.226170  0.000000  0.901926  1
  As  As43  1  0.726170  0.000000  0.598074  1
