# generated using pymatgen
data_Te4P2O13
_symmetry_space_group_name_H-M   'P 1'
_cell_length_a   4.74466695
_cell_length_b   11.46771080
_cell_length_c   20.46521537
_cell_angle_alpha   93.65947989
_cell_angle_beta   90.00000000
_cell_angle_gamma   90.00000000
_symmetry_Int_Tables_number   1
_chemical_formula_structural   Te4P2O13
_chemical_formula_sum   'Te16 P8 O52'
_cell_volume   1111.25149018
_cell_formula_units_Z   4
loop_
 _symmetry_equiv_pos_site_id
 _symmetry_equiv_pos_as_xyz
  1  'x, y, z'
loop_
 _atom_site_type_symbol
 _atom_site_label
 _atom_site_symmetry_multiplicity
 _atom_site_fract_x
 _atom_site_fract_y
 _atom_site_fract_z
 _atom_site_occupancy
  O  O0  1  0.164223  0.949113  0.357615  1
  O  O1  1  0.664223  0.550887  0.142385  1
  O  O2  1  0.835777  0.050887  0.642385  1
  O  O3  1  0.335777  0.449113  0.857615  1
  O  O4  1  0.403674  0.719761  0.071130  1
  O  O5  1  0.903674  0.780239  0.428870  1
  O  O6  1  0.596326  0.280239  0.928870  1
  O  O7  1  0.096326  0.219761  0.571130  1
  O  O8  1  0.058548  0.650557  0.845007  1
  O  O9  1  0.558548  0.849443  0.654993  1
  O  O10  1  0.941452  0.349443  0.154993  1
  O  O11  1  0.441452  0.150557  0.345007  1
  O  O12  1  0.326621  0.696683  0.734230  1
  O  O13  1  0.826621  0.803317  0.765770  1
  O  O14  1  0.673379  0.303317  0.265770  1
  O  O15  1  0.173379  0.196683  0.234230  1
  O  O16  1  0.339093  0.008981  0.576816  1
  O  O17  1  0.839093  0.491019  0.923184  1
  O  O18  1  0.060982  0.731228  0.298804  1
  O  O19  1  0.660907  0.991019  0.423184  1
  O  O20  1  0.024269  0.554947  0.370414  1
  O  O21  1  0.524269  0.945053  0.129586  1
  O  O22  1  0.975731  0.445053  0.629586  1
  O  O23  1  0.475731  0.054947  0.870414  1
  O  O24  1  0.079140  0.114652  0.101983  1
  O  O25  1  0.579140  0.385348  0.398017  1
  O  O26  1  0.920860  0.885348  0.898017  1
  O  O27  1  0.420860  0.614652  0.601983  1
  O  O28  1  0.047385  0.277177  0.023028  1
  O  O29  1  0.547385  0.222823  0.476972  1
  O  O30  1  0.952615  0.722823  0.976972  1
  O  O31  1  0.452615  0.777177  0.523028  1
  O  O32  1  0.486944  0.260605  0.096005  1
  O  O33  1  0.986944  0.239395  0.403995  1
  O  O34  1  0.513056  0.739395  0.903995  1
  O  O35  1  0.013056  0.760605  0.596005  1
  O  O36  1  0.376297  0.108929  0.001845  1
  O  O37  1  0.876297  0.391071  0.498155  1
  O  O38  1  0.623703  0.891071  0.998155  1
  O  O39  1  0.123703  0.608929  0.501845  1
  O  O40  1  0.019135  0.173006  0.865008  1
  O  O41  1  0.519135  0.326994  0.634992  1
  O  O42  1  0.980865  0.826994  0.134992  1
  O  O43  1  0.480865  0.673006  0.365008  1
  O  O44  1  0.191140  0.038543  0.767321  1
  O  O45  1  0.691140  0.461457  0.732679  1
  O  O46  1  0.808860  0.961457  0.232679  1
  O  O47  1  0.308860  0.538543  0.267321  1
  O  O48  1  0.439018  0.231228  0.798804  1
  O  O49  1  0.939018  0.268772  0.701196  1
  O  O50  1  0.560982  0.768772  0.201196  1
  O  O51  1  0.160907  0.508981  0.076816  1
  P  P52  1  0.224031  0.625438  0.322304  1
  P  P53  1  0.724031  0.874562  0.177696  1
  P  P54  1  0.775969  0.374562  0.677696  1
  P  P55  1  0.275969  0.125438  0.822304  1
  P  P56  1  0.247760  0.693786  0.557992  1
  P  P57  1  0.747760  0.806214  0.942008  1
  P  P58  1  0.752240  0.306214  0.442008  1
  P  P59  1  0.252240  0.193786  0.057992  1
  Te  Te60  1  0.769232  0.624086  0.438095  1
  Te  Te61  1  0.269232  0.875914  0.061905  1
  Te  Te62  1  0.230768  0.375914  0.561905  1
  Te  Te63  1  0.730768  0.124086  0.938095  1
  Te  Te64  1  0.313282  0.629329  0.150144  1
  Te  Te65  1  0.813282  0.870671  0.349856  1
  Te  Te66  1  0.686718  0.370671  0.849856  1
  Te  Te67  1  0.186718  0.129329  0.650144  1
  Te  Te68  1  0.188059  0.579261  0.923545  1
  Te  Te69  1  0.688059  0.920739  0.576455  1
  Te  Te70  1  0.811941  0.420739  0.076455  1
  Te  Te71  1  0.311941  0.079261  0.423545  1
  Te  Te72  1  0.679672  0.700452  0.688473  1
  Te  Te73  1  0.179672  0.799548  0.811527  1
  Te  Te74  1  0.320328  0.299548  0.311527  1
  Te  Te75  1  0.820328  0.200452  0.188473  1
