# generated using pymatgen
data_Mg(H2N)2
_symmetry_space_group_name_H-M   'P 1'
_cell_length_a   10.50319348
_cell_length_b   10.50319348
_cell_length_c   12.74655007
_cell_angle_alpha   114.33062309
_cell_angle_beta   114.33062307
_cell_angle_gamma   89.99999999
_symmetry_Int_Tables_number   1
_chemical_formula_structural   Mg(H2N)2
_chemical_formula_sum   'Mg16 H64 N32'
_cell_volume   1142.81247874
_cell_formula_units_Z   16
loop_
 _symmetry_equiv_pos_site_id
 _symmetry_equiv_pos_as_xyz
  1  'x, y, z'
loop_
 _atom_site_type_symbol
 _atom_site_label
 _atom_site_symmetry_multiplicity
 _atom_site_fract_x
 _atom_site_fract_y
 _atom_site_fract_z
 _atom_site_occupancy
  H  H0  1  0.054417  0.630625  0.695797  1
  H  H1  1  0.934828  0.858620  0.804203  1
  H  H2  1  0.869375  0.445583  0.804203  1
  H  H3  1  0.858620  0.869375  0.304203  1
  H  H4  1  0.445583  0.934828  0.304203  1
  H  H5  1  0.565172  0.054417  0.195797  1
  H  H6  1  0.630625  0.641380  0.195797  1
  H  H7  1  0.641380  0.565172  0.695797  1
  H  H8  1  0.945583  0.369375  0.304203  1
  H  H9  1  0.065172  0.141380  0.195797  1
  H  H10  1  0.130625  0.554417  0.195797  1
  H  H11  1  0.141380  0.130625  0.695797  1
  H  H12  1  0.554417  0.065172  0.695797  1
  H  H13  1  0.434828  0.945583  0.804203  1
  H  H14  1  0.369375  0.358620  0.804203  1
  H  H15  1  0.358620  0.434828  0.304203  1
  H  H16  1  0.119005  0.575610  0.803713  1
  H  H17  1  0.771897  0.815292  0.696287  1
  H  H18  1  0.924390  0.380995  0.696287  1
  H  H19  1  0.815292  0.924390  0.196287  1
  H  H20  1  0.380995  0.771897  0.196287  1
  H  H21  1  0.728103  0.119005  0.303713  1
  H  H22  1  0.575610  0.684708  0.303713  1
  H  H23  1  0.684708  0.728103  0.803713  1
  H  H24  1  0.880995  0.424390  0.196287  1
  H  H25  1  0.228103  0.184708  0.303713  1
  H  H26  1  0.075610  0.619005  0.303713  1
  H  H27  1  0.955061  0.281626  0.448623  1
  H  H28  1  0.184708  0.075610  0.803713  1
  H  H29  1  0.271897  0.880995  0.696287  1
  H  H30  1  0.424390  0.315292  0.696287  1
  H  H31  1  0.315292  0.271897  0.196287  1
  H  H32  1  0.828806  0.471000  0.541893  1
  H  H33  1  0.929108  0.786914  0.958107  1
  H  H34  1  0.029000  0.671194  0.958107  1
  H  H35  1  0.786914  0.029000  0.458107  1
  H  H36  1  0.671194  0.929108  0.458107  1
  H  H37  1  0.570892  0.828806  0.041893  1
  H  H38  1  0.471000  0.713086  0.041893  1
  H  H39  1  0.713086  0.570892  0.541893  1
  H  H40  1  0.171194  0.529000  0.458107  1
  H  H41  1  0.070892  0.213086  0.041893  1
  H  H42  1  0.971000  0.328806  0.041893  1
  H  H43  1  0.213086  0.971000  0.541893  1
  H  H44  1  0.328806  0.070892  0.541893  1
  H  H45  1  0.429108  0.171194  0.958107  1
  H  H46  1  0.529000  0.286914  0.958107  1
  H  H47  1  0.286914  0.429108  0.458107  1
  H  H48  1  0.506439  0.333003  0.551377  1
  H  H49  1  0.718374  0.506439  0.051377  1
  H  H50  1  0.333003  0.044939  0.051377  1
  H  H51  1  0.455061  0.166997  0.448623  1
  H  H52  1  0.993561  0.781626  0.448623  1
  H  H53  1  0.781626  0.455061  0.948623  1
  H  H54  1  0.166997  0.993561  0.948623  1
  H  H55  1  0.044939  0.718374  0.551377  1
  H  H56  1  0.493561  0.666997  0.448623  1
  H  H57  1  0.281626  0.493561  0.948623  1
  H  H58  1  0.666997  0.955061  0.948623  1
  H  H59  1  0.544939  0.833003  0.551377  1
  H  H60  1  0.006439  0.218374  0.551377  1
  H  H61  1  0.218374  0.544939  0.051377  1
  H  H62  1  0.833003  0.006439  0.051377  1
  H  H63  1  0.619005  0.228103  0.803713  1
  N  N64  1  0.641295  0.146972  0.248518  1
  N  N65  1  0.898454  0.892777  0.251482  1
  N  N66  1  0.353028  0.858705  0.251482  1
  N  N67  1  0.892777  0.353028  0.751482  1
  N  N68  1  0.858705  0.898454  0.751482  1
  N  N69  1  0.601546  0.641295  0.748518  1
  N  N70  1  0.146972  0.607223  0.748518  1
  N  N71  1  0.607223  0.601546  0.248518  1
  N  N72  1  0.358705  0.853028  0.751482  1
  N  N73  1  0.101546  0.107223  0.748518  1
  N  N74  1  0.646972  0.141295  0.748518  1
  N  N75  1  0.107223  0.646972  0.248518  1
  N  N76  1  0.141295  0.101546  0.248518  1
  N  N77  1  0.398454  0.358705  0.251482  1
  N  N78  1  0.853028  0.392777  0.251482  1
  N  N79  1  0.392777  0.398454  0.751482  1
  N  N80  1  0.009906  0.759906  0.019812  1
  N  N81  1  0.759906  0.009906  0.519812  1
  N  N82  1  0.490094  0.740094  0.980188  1
  N  N83  1  0.740094  0.490094  0.480188  1
  N  N84  1  0.990094  0.240094  0.980188  1
  N  N85  1  0.240094  0.990094  0.480188  1
  N  N86  1  0.509906  0.259906  0.019812  1
  N  N87  1  0.259906  0.509906  0.519812  1
  N  N88  1  0.041671  0.250000  0.500000  1
  N  N89  1  0.750000  0.041671  1.000000  1
  N  N90  1  0.250000  0.458329  0.000000  1
  N  N91  1  0.458329  0.750000  0.500000  1
  N  N92  1  0.958329  0.750000  0.500000  1
  N  N93  1  0.250000  0.958329  0.000000  1
  N  N94  1  0.750000  0.541671  1.000000  1
  N  N95  1  0.541671  0.250000  0.500000  1
  Mg  Mg96  1  0.307412  0.794228  0.871479  1
  Mg  Mg97  1  0.922749  0.935933  0.628521  1
  Mg  Mg98  1  0.705772  0.192588  0.628521  1
  Mg  Mg99  1  0.935933  0.705772  0.128521  1
  Mg  Mg100  1  0.192588  0.922749  0.128521  1
  Mg  Mg101  1  0.577251  0.307412  0.371479  1
  Mg  Mg102  1  0.794228  0.564067  0.371479  1
  Mg  Mg103  1  0.564067  0.577251  0.871479  1
  Mg  Mg104  1  0.692588  0.205772  0.128521  1
  Mg  Mg105  1  0.077251  0.064067  0.371479  1
  Mg  Mg106  1  0.294228  0.807412  0.371479  1
  Mg  Mg107  1  0.064067  0.294228  0.871479  1
  Mg  Mg108  1  0.807412  0.077251  0.871479  1
  Mg  Mg109  1  0.422749  0.692588  0.628521  1
  Mg  Mg110  1  0.205772  0.435933  0.628521  1
  Mg  Mg111  1  0.435933  0.422749  0.128521  1
