# generated using pymatgen
data_Na3Sb5F18
_symmetry_space_group_name_H-M   'P 1'
_cell_length_a   5.58879048
_cell_length_b   12.33231406
_cell_length_c   24.26632788
_cell_angle_alpha   90.00000000
_cell_angle_beta   90.00000000
_cell_angle_gamma   90.98341754
_symmetry_Int_Tables_number   1
_chemical_formula_structural   Na3Sb5F18
_chemical_formula_sum   'Na12 Sb20 F72'
_cell_volume   1672.25495557
_cell_formula_units_Z   4
loop_
 _symmetry_equiv_pos_site_id
 _symmetry_equiv_pos_as_xyz
  1  'x, y, z'
loop_
 _atom_site_type_symbol
 _atom_site_label
 _atom_site_symmetry_multiplicity
 _atom_site_fract_x
 _atom_site_fract_y
 _atom_site_fract_z
 _atom_site_occupancy
  F  F0  1  0.479631  0.102385  0.885062  1
  F  F1  1  0.020369  0.397615  0.385062  1
  F  F2  1  0.520369  0.897615  0.114938  1
  F  F3  1  0.979631  0.602385  0.614938  1
  F  F4  1  0.033518  0.134089  0.865020  1
  F  F5  1  0.466482  0.365911  0.365019  1
  F  F6  1  0.966482  0.865911  0.134981  1
  F  F7  1  0.533518  0.634089  0.634980  1
  F  F8  1  0.890009  0.353603  0.881663  1
  F  F9  1  0.609991  0.146397  0.381663  1
  F  F10  1  0.109991  0.646397  0.118337  1
  F  F11  1  0.390009  0.853603  0.618337  1
  F  F12  1  0.990834  0.086172  0.762186  1
  F  F13  1  0.509166  0.413828  0.262186  1
  F  F14  1  0.009166  0.913828  0.237814  1
  F  F15  1  0.490834  0.586172  0.737814  1
  F  F16  1  0.576820  0.054130  0.598704  1
  F  F17  1  0.923180  0.445870  0.098704  1
  F  F18  1  0.423180  0.945870  0.401296  1
  F  F19  1  0.076820  0.554130  0.901296  1
  F  F20  1  0.390271  0.354644  0.862967  1
  F  F21  1  0.109729  0.145356  0.362967  1
  F  F22  1  0.609729  0.645356  0.137033  1
  F  F23  1  0.890271  0.854644  0.637033  1
  F  F24  1  0.117293  0.042246  0.654582  1
  F  F25  1  0.382707  0.457754  0.154582  1
  F  F26  1  0.882707  0.957754  0.345418  1
  F  F27  1  0.617293  0.542246  0.845418  1
  F  F28  1  0.146249  0.925309  0.914842  1
  F  F29  1  0.353751  0.574691  0.414842  1
  F  F30  1  0.853751  0.074691  0.085158  1
  F  F31  1  0.646249  0.425309  0.585158  1
  F  F32  1  0.950292  0.638581  0.720800  1
  F  F33  1  0.549708  0.861419  0.220800  1
  F  F34  1  0.049708  0.361419  0.279200  1
  F  F35  1  0.450292  0.138581  0.779200  1
  F  F36  1  0.057762  0.399666  0.981590  1
  F  F37  1  0.442238  0.100334  0.481590  1
  F  F38  1  0.942238  0.600334  0.018410  1
  F  F39  1  0.557762  0.899666  0.518410  1
  F  F40  1  0.587929  0.314766  0.979605  1
  F  F41  1  0.912071  0.185234  0.479605  1
  F  F42  1  0.412071  0.685234  0.020395  1
  F  F43  1  0.087929  0.814766  0.520395  1
  F  F44  1  0.518800  0.886483  0.984274  1
  F  F45  1  0.981200  0.613517  0.484274  1
  F  F46  1  0.481200  0.113517  0.015726  1
  F  F47  1  0.018800  0.386483  0.515726  1
  F  F48  1  0.704290  0.914723  0.840037  1
  F  F49  1  0.795710  0.585277  0.340037  1
  F  F50  1  0.295710  0.085277  0.159963  1
  F  F51  1  0.204290  0.414723  0.659963  1
  F  F52  1  0.581388  0.384031  0.764572  1
  F  F53  1  0.918612  0.115969  0.264572  1
  F  F54  1  0.418612  0.615969  0.235428  1
  F  F55  1  0.081388  0.884031  0.735428  1
  F  F56  1  0.611140  0.830075  0.740156  1
  F  F57  1  0.888860  0.669925  0.240156  1
  F  F58  1  0.388860  0.169925  0.259844  1
  F  F59  1  0.111140  0.330075  0.759844  1
  F  F60  1  0.664157  0.743764  0.905722  1
  F  F61  1  0.835843  0.756236  0.405722  1
  F  F62  1  0.335843  0.256236  0.094278  1
  F  F63  1  0.164157  0.243764  0.594278  1
  F  F64  1  0.937297  0.155219  0.983806  1
  F  F65  1  0.562703  0.344781  0.483806  1
  F  F66  1  0.062703  0.844781  0.016194  1
  F  F67  1  0.437297  0.655219  0.516194  1
  F  F68  1  0.849889  0.249096  0.676771  1
  F  F69  1  0.650111  0.250904  0.176771  1
  F  F70  1  0.150111  0.750904  0.323229  1
  F  F71  1  0.349889  0.749096  0.823229  1
  Na  Na72  1  0.770812  0.007933  0.931388  1
  Na  Na73  1  0.729188  0.492067  0.431388  1
  Na  Na74  1  0.229188  0.992067  0.068612  1
  Na  Na75  1  0.270812  0.507933  0.568612  1
  Na  Na76  1  0.781819  0.240094  0.806695  1
  Na  Na77  1  0.718181  0.259906  0.306695  1
  Na  Na78  1  0.218181  0.759906  0.193305  1
  Na  Na79  1  0.281819  0.740094  0.693305  1
  Na  Na80  1  0.249651  0.242185  0.932913  1
  Na  Na81  1  0.250349  0.257815  0.432913  1
  Na  Na82  1  0.750349  0.757815  0.067087  1
  Na  Na83  1  0.749651  0.742185  0.567087  1
  Sb  Sb84  1  0.165778  0.033705  0.304415  1
  Sb  Sb85  1  0.334222  0.466295  0.804415  1
  Sb  Sb86  1  0.834222  0.966295  0.695585  1
  Sb  Sb87  1  0.665778  0.533705  0.195585  1
  Sb  Sb88  1  0.194182  0.530533  0.066465  1
  Sb  Sb89  1  0.305818  0.969467  0.566465  1
  Sb  Sb90  1  0.805818  0.469467  0.933535  1
  Sb  Sb91  1  0.694182  0.030533  0.433535  1
  Sb  Sb92  1  0.299990  0.243653  0.179536  1
  Sb  Sb93  1  0.200010  0.256347  0.679536  1
  Sb  Sb94  1  0.700010  0.756347  0.820464  1
  Sb  Sb95  1  0.799990  0.743653  0.320464  1
  Sb  Sb96  1  0.760133  0.535548  0.673970  1
  Sb  Sb97  1  0.739867  0.964452  0.173970  1
  Sb  Sb98  1  0.239867  0.464452  0.326030  1
  Sb  Sb99  1  0.260133  0.035548  0.826030  1
  Sb  Sb100  1  0.229007  0.715503  0.455908  1
  Sb  Sb101  1  0.270993  0.784497  0.955908  1
  Sb  Sb102  1  0.770993  0.284497  0.544092  1
  Sb  Sb103  1  0.729007  0.215503  0.044092  1
