# generated using pymatgen
data_Al2Hg3Cl8
_symmetry_space_group_name_H-M   'P 1'
_cell_length_a   7.30031122
_cell_length_b   14.79394174
_cell_length_c   15.91830265
_cell_angle_alpha   90.00000000
_cell_angle_beta   90.00000000
_cell_angle_gamma   98.20762306
_symmetry_Int_Tables_number   1
_chemical_formula_structural   Al2Hg3Cl8
_chemical_formula_sum   'Al8 Hg12 Cl32'
_cell_volume   1701.57355131
_cell_formula_units_Z   4
loop_
 _symmetry_equiv_pos_site_id
 _symmetry_equiv_pos_as_xyz
  1  'x, y, z'
loop_
 _atom_site_type_symbol
 _atom_site_label
 _atom_site_symmetry_multiplicity
 _atom_site_fract_x
 _atom_site_fract_y
 _atom_site_fract_z
 _atom_site_occupancy
  Al  Al0  1  0.601790  0.092486  0.683344  1
  Al  Al1  1  0.805272  0.278973  0.399936  1
  Al  Al2  1  0.194728  0.221027  0.899936  1
  Al  Al3  1  0.194728  0.721027  0.600064  1
  Al  Al4  1  0.805272  0.778973  0.100064  1
  Al  Al5  1  0.601790  0.592486  0.816656  1
  Al  Al6  1  0.398210  0.907514  0.316656  1
  Al  Al7  1  0.398210  0.407514  0.183344  1
  Cl  Cl8  1  0.519121  0.207239  0.415945  1
  Cl  Cl9  1  0.480879  0.292761  0.915945  1
  Cl  Cl10  1  0.480879  0.792761  0.584055  1
  Cl  Cl11  1  0.519121  0.707239  0.084055  1
  Cl  Cl12  1  0.826548  0.399953  0.476349  1
  Cl  Cl13  1  0.993288  0.688123  0.062253  1
  Cl  Cl14  1  0.006712  0.811877  0.562253  1
  Cl  Cl15  1  0.006712  0.311877  0.937747  1
  Cl  Cl16  1  0.672704  0.237475  0.671564  1
  Cl  Cl17  1  0.327296  0.262525  0.171564  1
  Cl  Cl18  1  0.327296  0.762525  0.328436  1
  Cl  Cl19  1  0.672704  0.737475  0.828436  1
  Cl  Cl20  1  0.594943  0.044510  0.811326  1
  Cl  Cl21  1  0.405057  0.455490  0.311326  1
  Cl  Cl22  1  0.405057  0.955490  0.188674  1
  Cl  Cl23  1  0.594943  0.544510  0.688674  1
  Cl  Cl24  1  0.825389  0.028359  0.621140  1
  Cl  Cl25  1  0.174611  0.471641  0.121140  1
  Cl  Cl26  1  0.174611  0.971641  0.378860  1
  Cl  Cl27  1  0.825389  0.528359  0.878860  1
  Cl  Cl28  1  0.354825  0.043838  0.614692  1
  Cl  Cl29  1  0.645175  0.456162  0.114692  1
  Cl  Cl30  1  0.645175  0.956162  0.385308  1
  Cl  Cl31  1  0.354825  0.543838  0.885308  1
  Cl  Cl32  1  0.993288  0.188123  0.437747  1
  Cl  Cl33  1  0.826548  0.899953  0.023651  1
  Cl  Cl34  1  0.173452  0.600047  0.523651  1
  Cl  Cl35  1  0.173452  0.100047  0.976349  1
  Cl  Cl36  1  0.842122  0.809993  0.231254  1
  Cl  Cl37  1  0.157878  0.690007  0.731254  1
  Cl  Cl38  1  0.157878  0.190007  0.768746  1
  Cl  Cl39  1  0.842122  0.309993  0.268746  1
  Hg  Hg40  1  0.369403  0.301843  0.528681  1
  Hg  Hg41  1  0.630597  0.198157  0.028681  1
  Hg  Hg42  1  0.630597  0.698157  0.471319  1
  Hg  Hg43  1  0.369403  0.801843  0.971319  1
  Hg  Hg44  1  0.016414  0.469634  0.759453  1
  Hg  Hg45  1  0.983586  0.030366  0.259453  1
  Hg  Hg46  1  0.983586  0.530366  0.240547  1
  Hg  Hg47  1  0.016414  0.969634  0.740547  1
  Hg  Hg48  1  0.190735  0.391041  0.639924  1
  Hg  Hg49  1  0.809265  0.108959  0.139924  1
  Hg  Hg50  1  0.809265  0.608959  0.360076  1
  Hg  Hg51  1  0.190735  0.891041  0.860076  1
