# generated using pymatgen
data_KPbO2
_symmetry_space_group_name_H-M   'P 1'
_cell_length_a   7.12282695
_cell_length_b   7.62265704
_cell_length_c   13.08402269
_cell_angle_alpha   105.45226489
_cell_angle_beta   90.93764800
_cell_angle_gamma   117.53873411
_symmetry_Int_Tables_number   1
_chemical_formula_structural   KPbO2
_chemical_formula_sum   'K8 Pb8 O16'
_cell_volume   598.98869249
_cell_formula_units_Z   8
loop_
 _symmetry_equiv_pos_site_id
 _symmetry_equiv_pos_as_xyz
  1  'x, y, z'
loop_
 _atom_site_type_symbol
 _atom_site_label
 _atom_site_symmetry_multiplicity
 _atom_site_fract_x
 _atom_site_fract_y
 _atom_site_fract_z
 _atom_site_occupancy
  O  O0  1  0.855146  0.942883  0.342991  1
  O  O1  1  0.144854  0.057117  0.657009  1
  O  O2  1  0.110849  0.940381  0.138121  1
  O  O3  1  0.889151  0.059619  0.861879  1
  O  O4  1  0.166719  0.574257  0.143007  1
  O  O5  1  0.833281  0.425743  0.856993  1
  O  O6  1  0.391727  0.560212  0.361081  1
  O  O7  1  0.608273  0.439788  0.638919  1
  O  O8  1  0.924323  0.561301  0.354573  1
  O  O9  1  0.075677  0.438699  0.645427  1
  O  O10  1  0.577700  0.939487  0.144699  1
  O  O11  1  0.646742  0.557025  0.155809  1
  O  O12  1  0.335056  0.926039  0.356266  1
  O  O13  1  0.664944  0.073961  0.643734  1
  O  O14  1  0.353258  0.442975  0.844191  1
  O  O15  1  0.422300  0.060513  0.855301  1
  K  K16  1  0.484405  0.739229  0.734866  1
  K  K17  1  0.263943  0.264183  0.008064  1
  K  K18  1  0.011886  0.759731  0.765029  1
  K  K19  1  0.988114  0.240269  0.234971  1
  K  K20  1  0.233541  0.233611  0.491676  1
  K  K21  1  0.766459  0.766389  0.508324  1
  K  K22  1  0.515595  0.260771  0.265134  1
  K  K23  1  0.736057  0.735817  0.991936  1
  Pb  Pb24  1  0.238402  0.725714  0.465705  1
  Pb  Pb25  1  0.761598  0.274286  0.534295  1
  Pb  Pb26  1  0.736495  0.225785  0.966793  1
  Pb  Pb27  1  0.263505  0.774215  0.033207  1
  Pb  Pb28  1  0.515374  0.753257  0.253319  1
  Pb  Pb29  1  0.484627  0.246743  0.746681  1
  Pb  Pb30  1  0.013021  0.253162  0.754425  1
  Pb  Pb31  1  0.986979  0.746838  0.245575  1
