# generated using pymatgen
data_Tl2PSe3
_symmetry_space_group_name_H-M   'P 1'
_cell_length_a   9.21624861
_cell_length_b   12.60495572
_cell_length_c   12.84388106
_cell_angle_alpha   100.60109145
_cell_angle_beta   90.00000000
_cell_angle_gamma   90.00000000
_symmetry_Int_Tables_number   1
_chemical_formula_structural   Tl2PSe3
_chemical_formula_sum   'Tl16 P8 Se24'
_cell_volume   1466.61183940
_cell_formula_units_Z   8
loop_
 _symmetry_equiv_pos_site_id
 _symmetry_equiv_pos_as_xyz
  1  'x, y, z'
loop_
 _atom_site_type_symbol
 _atom_site_label
 _atom_site_symmetry_multiplicity
 _atom_site_fract_x
 _atom_site_fract_y
 _atom_site_fract_z
 _atom_site_occupancy
  P  P0  1  0.426458  0.996149  0.071494  1
  P  P1  1  0.926458  0.003851  0.428506  1
  P  P2  1  0.573542  0.003851  0.928506  1
  P  P3  1  0.073542  0.996149  0.571494  1
  P  P4  1  0.578905  0.565748  0.483835  1
  P  P5  1  0.078905  0.434252  0.016165  1
  P  P6  1  0.421095  0.434252  0.516165  1
  P  P7  1  0.921095  0.565748  0.983835  1
  Se  Se8  1  0.565877  0.947676  0.195800  1
  Se  Se9  1  0.065877  0.052324  0.304200  1
  Se  Se10  1  0.434123  0.052324  0.804200  1
  Se  Se11  1  0.934123  0.947676  0.695800  1
  Se  Se12  1  0.476554  0.657156  0.373574  1
  Se  Se13  1  0.976554  0.342844  0.126426  1
  Se  Se14  1  0.523446  0.342844  0.626426  1
  Se  Se15  1  0.023446  0.657156  0.873574  1
  Se  Se16  1  0.834588  0.840652  0.377611  1
  Se  Se17  1  0.334588  0.159348  0.122389  1
  Se  Se18  1  0.165412  0.159348  0.622390  1
  Se  Se19  1  0.665412  0.840652  0.877610  1
  Se  Se20  1  0.122641  0.335360  0.856556  1
  Se  Se21  1  0.622641  0.664640  0.643444  1
  Se  Se22  1  0.877359  0.664640  0.143444  1
  Se  Se23  1  0.377359  0.335360  0.356556  1
  Se  Se24  1  0.762615  0.128833  0.488974  1
  Se  Se25  1  0.262615  0.871167  0.011026  1
  Se  Se26  1  0.237385  0.871167  0.511026  1
  Se  Se27  1  0.737385  0.128833  0.988974  1
  Se  Se28  1  0.722420  0.479784  0.916664  1
  Se  Se29  1  0.222420  0.520216  0.583336  1
  Se  Se30  1  0.277580  0.520216  0.083336  1
  Se  Se31  1  0.777580  0.479784  0.416664  1
  Tl  Tl32  1  0.847804  0.477128  0.689516  1
  Tl  Tl33  1  0.347804  0.522872  0.810484  1
  Tl  Tl34  1  0.152196  0.522872  0.310484  1
  Tl  Tl35  1  0.652196  0.477128  0.189516  1
  Tl  Tl36  1  0.679908  0.197031  0.252287  1
  Tl  Tl37  1  0.179908  0.802969  0.247713  1
  Tl  Tl38  1  0.320092  0.802969  0.747713  1
  Tl  Tl39  1  0.820092  0.197031  0.752287  1
  Tl  Tl40  1  0.610022  0.900287  0.568668  1
  Tl  Tl41  1  0.110022  0.099713  0.931332  1
  Tl  Tl42  1  0.389978  0.099713  0.431332  1
  Tl  Tl43  1  0.889978  0.900287  0.068668  1
  Tl  Tl44  1  0.539084  0.706731  0.049297  1
  Tl  Tl45  1  0.039084  0.293269  0.450703  1
  Tl  Tl46  1  0.460916  0.293269  0.950703  1
  Tl  Tl47  1  0.960916  0.706731  0.549297  1
