# generated using pymatgen
data_BiP4HO12
_symmetry_space_group_name_H-M   'P 1'
_cell_length_a   7.22479648
_cell_length_b   8.75798969
_cell_length_c   8.98528868
_cell_angle_alpha   99.16323695
_cell_angle_beta   112.15049875
_cell_angle_gamma   107.23591861
_symmetry_Int_Tables_number   1
_chemical_formula_structural   BiP4HO12
_chemical_formula_sum   'Bi2 P8 H2 O24'
_cell_volume   478.75790619
_cell_formula_units_Z   2
loop_
 _symmetry_equiv_pos_site_id
 _symmetry_equiv_pos_as_xyz
  1  'x, y, z'
loop_
 _atom_site_type_symbol
 _atom_site_label
 _atom_site_symmetry_multiplicity
 _atom_site_fract_x
 _atom_site_fract_y
 _atom_site_fract_z
 _atom_site_occupancy
  Bi  Bi0  1  0.097097  0.265877  0.260309  1
  Bi  Bi1  1  0.902903  0.734123  0.739691  1
  P  P2  1  0.792687  0.809311  0.106749  1
  P  P3  1  0.571000  0.130784  0.842589  1
  P  P4  1  0.924110  0.615714  0.340307  1
  P  P5  1  0.613396  0.291626  0.581795  1
  P  P6  1  0.075890  0.384286  0.659693  1
  P  P7  1  0.207313  0.190689  0.893251  1
  P  P8  1  0.386604  0.708374  0.418205  1
  P  P9  1  0.429000  0.869216  0.157411  1
  H  H10  1  0.485610  0.861078  0.750899  1
  H  H11  1  0.514390  0.138922  0.249101  1
  O  O12  1  0.955472  0.972176  0.239937  1
  O  O13  1  0.472851  0.852865  0.341205  1
  O  O14  1  0.562291  0.059365  0.194406  1
  O  O15  1  0.555085  0.761098  0.599578  1
  O  O16  1  0.044528  0.027824  0.760063  1
  O  O17  1  0.166830  0.316375  0.551579  1
  O  O18  1  0.757468  0.782780  0.927880  1
  O  O19  1  0.552552  0.773487  0.096468  1
  O  O20  1  0.437709  0.940635  0.805594  1
  O  O21  1  0.194634  0.799991  0.037687  1
  O  O22  1  0.819931  0.263189  0.575766  1
  O  O23  1  0.242532  0.217220  0.072120  1
  O  O24  1  0.527149  0.147135  0.658795  1
  O  O25  1  0.444915  0.238902  0.400422  1
  O  O26  1  0.805366  0.200009  0.962313  1
  O  O27  1  0.833170  0.683625  0.448421  1
  O  O28  1  0.677213  0.461403  0.698789  1
  O  O29  1  0.169308  0.348938  0.839392  1
  O  O30  1  0.830692  0.651062  0.160608  1
  O  O31  1  0.108207  0.565754  0.699904  1
  O  O32  1  0.891793  0.434246  0.300096  1
  O  O33  1  0.180069  0.736811  0.424234  1
  O  O34  1  0.447448  0.226513  0.903532  1
  O  O35  1  0.322787  0.538597  0.301211  1
