# generated using pymatgen
data_Fe2NiO4
_symmetry_space_group_name_H-M   'P 1'
_cell_length_a   6.00453903
_cell_length_b   6.00453903
_cell_length_c   6.00453903
_cell_angle_alpha   60.00000005
_cell_angle_beta   60.00000005
_cell_angle_gamma   60.00000006
_symmetry_Int_Tables_number   1
_chemical_formula_structural   Fe2NiO4
_chemical_formula_sum   'Fe4 Ni2 O8'
_cell_volume   153.08196167
_cell_formula_units_Z   2
loop_
 _symmetry_equiv_pos_site_id
 _symmetry_equiv_pos_as_xyz
  1  'x, y, z'
loop_
 _atom_site_type_symbol
 _atom_site_label
 _atom_site_symmetry_multiplicity
 _atom_site_fract_x
 _atom_site_fract_y
 _atom_site_fract_z
 _atom_site_occupancy
  O  O0  1  0.741594  0.741594  0.741594  1
  O  O1  1  0.258406  0.258406  0.724783  1
  O  O2  1  0.258406  0.724783  0.258406  1
  O  O3  1  0.724783  0.258406  0.258406  1
  O  O4  1  0.741594  0.275217  0.741594  1
  O  O5  1  0.275217  0.741594  0.741594  1
  O  O6  1  0.258406  0.258406  0.258406  1
  O  O7  1  0.741594  0.741594  0.275217  1
  Fe  Fe8  1  0.500000  0.000000  0.500000  1
  Fe  Fe9  1  0.000000  0.500000  0.500000  1
  Fe  Fe10  1  0.500000  0.500000  0.000000  1
  Fe  Fe11  1  0.500000  0.500000  0.500000  1
  Ni  Ni12  1  0.875000  0.875000  0.875000  1
  Ni  Ni13  1  0.125000  0.125000  0.125000  1
