# generated using pymatgen
data_Hg3Cl4O
_symmetry_space_group_name_H-M   'P 1'
_cell_length_a   9.53746715
_cell_length_b   9.53746715
_cell_length_c   9.53746715
_cell_angle_alpha   90.00000000
_cell_angle_beta   90.00000000
_cell_angle_gamma   90.00000000
_symmetry_Int_Tables_number   1
_chemical_formula_structural   Hg3Cl4O
_chemical_formula_sum   'Hg12 Cl16 O4'
_cell_volume   867.55929140
_cell_formula_units_Z   4
loop_
 _symmetry_equiv_pos_site_id
 _symmetry_equiv_pos_as_xyz
  1  'x, y, z'
loop_
 _atom_site_type_symbol
 _atom_site_label
 _atom_site_symmetry_multiplicity
 _atom_site_fract_x
 _atom_site_fract_y
 _atom_site_fract_z
 _atom_site_occupancy
  Hg  Hg0  1  0.180870  0.517549  0.230682  1
  Hg  Hg1  1  0.730682  0.319130  0.482451  1
  Hg  Hg2  1  0.982451  0.769318  0.680870  1
  Hg  Hg3  1  0.230682  0.180870  0.517549  1
  Hg  Hg4  1  0.680870  0.982451  0.769318  1
  Hg  Hg5  1  0.269318  0.819130  0.017549  1
  Hg  Hg6  1  0.319130  0.482451  0.730682  1
  Hg  Hg7  1  0.482451  0.730682  0.319130  1
  Hg  Hg8  1  0.819130  0.017549  0.269318  1
  Hg  Hg9  1  0.017549  0.269318  0.819130  1
  Hg  Hg10  1  0.769318  0.680870  0.982451  1
  Hg  Hg11  1  0.517549  0.230682  0.180870  1
  Cl  Cl12  1  0.929578  0.070422  0.570422  1
  Cl  Cl13  1  0.429578  0.429578  0.429578  1
  Cl  Cl14  1  0.570422  0.929578  0.070422  1
  Cl  Cl15  1  0.339735  0.305291  0.029706  1
  Cl  Cl16  1  0.160265  0.694709  0.529706  1
  Cl  Cl17  1  0.470294  0.660265  0.805291  1
  Cl  Cl18  1  0.529706  0.160265  0.694709  1
  Cl  Cl19  1  0.805291  0.470294  0.660265  1
  Cl  Cl20  1  0.970294  0.839735  0.194709  1
  Cl  Cl21  1  0.029706  0.339735  0.305291  1
  Cl  Cl22  1  0.305291  0.029706  0.339735  1
  Cl  Cl23  1  0.070422  0.570422  0.929578  1
  Cl  Cl24  1  0.839735  0.194709  0.970294  1
  Cl  Cl25  1  0.660265  0.805291  0.470294  1
  Cl  Cl26  1  0.194709  0.970294  0.839735  1
  Cl  Cl27  1  0.694709  0.529706  0.160265  1
  O  O28  1  0.821492  0.821492  0.821492  1
  O  O29  1  0.678508  0.178508  0.321492  1
  O  O30  1  0.321492  0.678508  0.178508  1
  O  O31  1  0.178508  0.321492  0.678508  1
