# generated using pymatgen
data_Tl2(CdSb)3
_symmetry_space_group_name_H-M   'P 1'
_cell_length_a   4.98288302
_cell_length_b   9.14388053
_cell_length_c   12.12858416
_cell_angle_alpha   111.12286765
_cell_angle_beta   90.00000000
_cell_angle_gamma   105.81135383
_symmetry_Int_Tables_number   1
_chemical_formula_structural   Tl2(CdSb)3
_chemical_formula_sum   'Tl4 Cd6 Sb6'
_cell_volume   493.00221524
_cell_formula_units_Z   2
loop_
 _symmetry_equiv_pos_site_id
 _symmetry_equiv_pos_as_xyz
  1  'x, y, z'
loop_
 _atom_site_type_symbol
 _atom_site_label
 _atom_site_symmetry_multiplicity
 _atom_site_fract_x
 _atom_site_fract_y
 _atom_site_fract_z
 _atom_site_occupancy
  Cd  Cd0  1  0.606491  0.212983  0.071822  1
  Cd  Cd1  1  0.393509  0.787017  0.928178  1
  Cd  Cd2  1  0.946369  0.892738  0.727419  1
  Cd  Cd3  1  0.053631  0.107262  0.272581  1
  Cd  Cd4  1  0.632966  0.265932  0.660032  1
  Cd  Cd5  1  0.367034  0.734068  0.339968  1
  Sb  Sb6  1  0.807685  0.615370  0.814038  1
  Sb  Sb7  1  0.192315  0.384630  0.185962  1
  Sb  Sb8  1  0.466872  0.933743  0.184711  1
  Sb  Sb9  1  0.533128  0.066257  0.815289  1
  Sb  Sb10  1  0.086912  0.173824  0.527900  1
  Sb  Sb11  1  0.913088  0.826176  0.472100  1
  Tl  Tl12  1  0.688277  0.376553  0.387810  1
  Tl  Tl13  1  0.311723  0.623447  0.612190  1
  Tl  Tl14  1  0.177757  0.355514  0.889175  1
  Tl  Tl15  1  0.822243  0.644486  0.110825  1
