# generated using pymatgen
data_CoBiPO5
_symmetry_space_group_name_H-M   'P 1'
_cell_length_a   5.30406970
_cell_length_b   7.37854834
_cell_length_c   11.41856772
_cell_angle_alpha   90.00000000
_cell_angle_beta   90.00000000
_cell_angle_gamma   107.94498693
_symmetry_Int_Tables_number   1
_chemical_formula_structural   CoBiPO5
_chemical_formula_sum   'Co4 Bi4 P4 O20'
_cell_volume   425.14137647
_cell_formula_units_Z   4
loop_
 _symmetry_equiv_pos_site_id
 _symmetry_equiv_pos_as_xyz
  1  'x, y, z'
loop_
 _atom_site_type_symbol
 _atom_site_label
 _atom_site_symmetry_multiplicity
 _atom_site_fract_x
 _atom_site_fract_y
 _atom_site_fract_z
 _atom_site_occupancy
  O  O0  1  0.988333  0.120687  0.326444  1
  O  O1  1  0.511667  0.379313  0.826444  1
  O  O2  1  0.011667  0.879313  0.673556  1
  O  O3  1  0.488333  0.620687  0.173556  1
  O  O4  1  0.743321  0.986169  0.022166  1
  O  O5  1  0.756679  0.513831  0.522166  1
  O  O6  1  0.256679  0.013831  0.977834  1
  O  O7  1  0.243321  0.486169  0.477834  1
  O  O8  1  0.596899  0.337627  0.082794  1
  O  O9  1  0.903101  0.162373  0.582794  1
  O  O10  1  0.403101  0.662373  0.917206  1
  O  O11  1  0.096899  0.837627  0.417206  1
  O  O12  1  0.053869  0.338596  0.919366  1
  O  O13  1  0.446131  0.161404  0.419366  1
  O  O14  1  0.946131  0.661404  0.080634  1
  O  O15  1  0.553869  0.838596  0.580634  1
  O  O16  1  0.303852  0.991308  0.223543  1
  O  O17  1  0.196148  0.508692  0.723543  1
  O  O18  1  0.696148  0.008692  0.776457  1
  O  O19  1  0.803852  0.491308  0.276457  1
  P  P20  1  0.711786  0.527277  0.151319  1
  P  P21  1  0.788214  0.972723  0.651319  1
  P  P22  1  0.288214  0.472723  0.848681  1
  P  P23  1  0.211786  0.027277  0.348681  1
  Co  Co24  1  0.874293  0.317439  0.418050  1
  Co  Co25  1  0.625707  0.182561  0.918050  1
  Co  Co26  1  0.125707  0.682561  0.581950  1
  Co  Co27  1  0.374293  0.817439  0.081950  1
  Bi  Bi28  1  0.617957  0.689467  0.399781  1
  Bi  Bi29  1  0.882043  0.810533  0.899781  1
  Bi  Bi30  1  0.382043  0.310533  0.600219  1
  Bi  Bi31  1  0.117957  0.189467  0.100219  1
