# generated using pymatgen
data_RbLiCl2
_symmetry_space_group_name_H-M   'P 1'
_cell_length_a   4.17772500
_cell_length_b   7.27664764
_cell_length_c   7.60558017
_cell_angle_alpha   90.00000000
_cell_angle_beta   105.94108131
_cell_angle_gamma   90.00000000
_symmetry_Int_Tables_number   1
_chemical_formula_structural   RbLiCl2
_chemical_formula_sum   'Rb2 Li2 Cl4'
_cell_volume   222.31716256
_cell_formula_units_Z   2
loop_
 _symmetry_equiv_pos_site_id
 _symmetry_equiv_pos_as_xyz
  1  'x, y, z'
loop_
 _atom_site_type_symbol
 _atom_site_label
 _atom_site_symmetry_multiplicity
 _atom_site_fract_x
 _atom_site_fract_y
 _atom_site_fract_z
 _atom_site_occupancy
  Rb  Rb0  1  0.370316  0.250000  0.740632  1
  Rb  Rb1  1  0.629684  0.750000  0.259368  1
  Li  Li2  1  0.895499  0.750000  0.790998  1
  Li  Li3  1  0.104501  0.250000  0.209002  1
  Cl  Cl4  1  0.000000  0.000000  0.000000  1
  Cl  Cl5  1  0.000000  0.500000  0.000000  1
  Cl  Cl6  1  0.690505  0.250000  0.381009  1
  Cl  Cl7  1  0.309495  0.750000  0.618991  1
