# generated using pymatgen
data_KVP2O7
_symmetry_space_group_name_H-M   'P 1'
_cell_length_a   7.50143765
_cell_length_b   8.33634142
_cell_length_c   10.24775996
_cell_angle_alpha   90.00000000
_cell_angle_beta   90.00000000
_cell_angle_gamma   106.75765050
_symmetry_Int_Tables_number   1
_chemical_formula_structural   KVP2O7
_chemical_formula_sum   'K4 V4 P8 O28'
_cell_volume   613.62441774
_cell_formula_units_Z   4
loop_
 _symmetry_equiv_pos_site_id
 _symmetry_equiv_pos_as_xyz
  1  'x, y, z'
loop_
 _atom_site_type_symbol
 _atom_site_label
 _atom_site_symmetry_multiplicity
 _atom_site_fract_x
 _atom_site_fract_y
 _atom_site_fract_z
 _atom_site_occupancy
  O  O0  1  0.661321  0.185792  0.938723  1
  O  O1  1  0.338680  0.314208  0.438723  1
  O  O2  1  0.338679  0.814209  0.061277  1
  O  O3  1  0.661320  0.685792  0.561277  1
  O  O4  1  0.917904  0.244378  0.764436  1
  O  O5  1  0.082097  0.255621  0.264436  1
  O  O6  1  0.082096  0.755622  0.235564  1
  O  O7  1  0.917903  0.744379  0.735563  1
  O  O8  1  0.636305  0.233194  0.423404  1
  O  O9  1  0.363695  0.266805  0.923404  1
  O  O10  1  0.363695  0.766806  0.576596  1
  O  O11  1  0.636306  0.733195  0.076596  1
  O  O12  1  0.544003  0.258389  0.719170  1
  O  O13  1  0.455998  0.241611  0.219170  1
  O  O14  1  0.455997  0.741611  0.280830  1
  O  O15  1  0.544003  0.758388  0.780829  1
  O  O16  1  0.856745  0.986912  0.907219  1
  O  O17  1  0.143253  0.513087  0.407219  1
  O  O18  1  0.143254  0.013088  0.092781  1
  O  O19  1  0.856746  0.486913  0.592780  1
  O  O20  1  0.679684  0.485814  0.892605  1
  O  O21  1  0.320316  0.014186  0.392605  1
  O  O22  1  0.000925  0.221609  0.502363  1
  O  O23  1  0.679683  0.985814  0.607394  1
  O  O24  1  0.000924  0.721608  0.997637  1
  O  O25  1  0.999075  0.778391  0.497637  1
  O  O26  1  0.999076  0.278391  0.002363  1
  O  O27  1  0.320316  0.514185  0.107395  1
  P  P28  1  0.866803  0.170268  0.902062  1
  P  P29  1  0.866802  0.670269  0.597939  1
  P  P30  1  0.133199  0.829732  0.097939  1
  P  P31  1  0.133198  0.329733  0.402062  1
  P  P32  1  0.558802  0.308138  0.863634  1
  P  P33  1  0.441199  0.191862  0.363634  1
  P  P34  1  0.441199  0.691862  0.136366  1
  P  P35  1  0.558801  0.808138  0.636366  1
  K  K36  1  0.177410  0.056286  0.675817  1
  K  K37  1  0.177411  0.556285  0.824184  1
  K  K38  1  0.822589  0.943714  0.324184  1
  K  K39  1  0.822589  0.443715  0.175817  1
  V  V40  1  0.763151  0.239291  0.600475  1
  V  V41  1  0.236848  0.260709  0.100475  1
  V  V42  1  0.236849  0.760709  0.399525  1
  V  V43  1  0.763152  0.739291  0.899525  1
