# generated using pymatgen
data_Sr4(PPd)5
_symmetry_space_group_name_H-M   'P 1'
_cell_length_a   4.22200897
_cell_length_b   8.70568692
_cell_length_c   15.90948206
_cell_angle_alpha   89.99925483
_cell_angle_beta   97.62497515
_cell_angle_gamma   90.00000000
_symmetry_Int_Tables_number   1
_chemical_formula_structural   Sr4(PPd)5
_chemical_formula_sum   'Sr8 P10 Pd10'
_cell_volume   579.59020633
_cell_formula_units_Z   2
loop_
 _symmetry_equiv_pos_site_id
 _symmetry_equiv_pos_as_xyz
  1  'x, y, z'
loop_
 _atom_site_type_symbol
 _atom_site_label
 _atom_site_symmetry_multiplicity
 _atom_site_fract_x
 _atom_site_fract_y
 _atom_site_fract_z
 _atom_site_occupancy
  P  P0  1  0.270940  0.749999  0.541880  1
  P  P1  1  0.042349  0.750001  0.084697  1
  P  P2  1  0.043321  0.250009  0.086643  1
  P  P3  1  0.957651  0.249999  0.915303  1
  P  P4  1  0.956679  0.749991  0.913357  1
  P  P5  1  0.656930  0.249988  0.313859  1
  P  P6  1  0.343070  0.750012  0.686141  1
  P  P7  1  0.344275  0.250000  0.688549  1
  P  P8  1  0.729060  0.250001  0.458120  1
  P  P9  1  0.655725  0.750000  0.311451  1
  Sr  Sr10  1  0.806435  0.495723  0.612871  1
  Sr  Sr11  1  0.193565  0.504277  0.387129  1
  Sr  Sr12  1  0.193563  0.995721  0.387127  1
  Sr  Sr13  1  0.806437  0.004279  0.612873  1
  Sr  Sr14  1  0.579162  0.999756  0.158324  1
  Sr  Sr15  1  0.420838  0.499755  0.841676  1
  Sr  Sr16  1  0.420838  0.000244  0.841676  1
  Sr  Sr17  1  0.579162  0.500245  0.158324  1
  Pd  Pd18  1  0.733519  0.750006  0.467037  1
  Pd  Pd19  1  0.266481  0.249994  0.532963  1
  Pd  Pd20  1  0.000000  0.500000  0.000000  1
  Pd  Pd21  1  0.879927  0.749997  0.759854  1
  Pd  Pd22  1  0.120073  0.250003  0.240146  1
  Pd  Pd23  1  0.118561  0.749999  0.237122  1
  Pd  Pd24  1  0.881439  0.250001  0.762878  1
  Pd  Pd25  1  0.500058  0.750003  0.000116  1
  Pd  Pd26  1  0.499942  0.249997  0.999884  1
  Pd  Pd27  1  0.000000  0.000000  0.000000  1
