# generated using pymatgen
data_SrFe3(P2O7)2
_symmetry_space_group_name_H-M   'P 1'
_cell_length_a   7.65758973
_cell_length_b   7.87450317
_cell_length_c   9.71010664
_cell_angle_alpha   90.00000000
_cell_angle_beta   112.25251919
_cell_angle_gamma   90.00000000
_symmetry_Int_Tables_number   1
_chemical_formula_structural   SrFe3(P2O7)2
_chemical_formula_sum   'Sr2 Fe6 P8 O28'
_cell_volume   541.90963521
_cell_formula_units_Z   2
loop_
 _symmetry_equiv_pos_site_id
 _symmetry_equiv_pos_as_xyz
  1  'x, y, z'
loop_
 _atom_site_type_symbol
 _atom_site_label
 _atom_site_symmetry_multiplicity
 _atom_site_fract_x
 _atom_site_fract_y
 _atom_site_fract_z
 _atom_site_occupancy
  O  O0  1  0.840547  0.626766  0.610210  1
  O  O1  1  0.159453  0.126766  0.889790  1
  O  O2  1  0.159453  0.373234  0.389790  1
  O  O3  1  0.840547  0.873234  0.110210  1
  O  O4  1  0.275272  0.609829  0.633902  1
  O  O5  1  0.724728  0.109829  0.866098  1
  O  O6  1  0.724728  0.390171  0.366098  1
  O  O7  1  0.275272  0.890170  0.133902  1
  O  O8  1  0.620091  0.179980  0.589828  1
  O  O9  1  0.379909  0.679980  0.910172  1
  O  O10  1  0.379910  0.820020  0.410172  1
  O  O11  1  0.620091  0.320020  0.089828  1
  O  O12  1  0.684698  0.872143  0.677585  1
  O  O13  1  0.315302  0.372143  0.822414  1
  O  O14  1  0.315302  0.127857  0.322415  1
  O  O15  1  0.684698  0.627857  0.177585  1
  O  O16  1  0.404603  0.489550  0.194198  1
  O  O17  1  0.595397  0.989550  0.305802  1
  O  O18  1  0.595397  0.510450  0.805802  1
  O  O19  1  0.404603  0.010450  0.694198  1
  O  O20  1  0.000559  0.213571  0.139232  1
  O  O21  1  0.999441  0.713571  0.360768  1
  O  O22  1  0.972056  0.921491  0.613105  1
  O  O23  1  0.000559  0.286429  0.639232  1
  O  O24  1  0.972056  0.578507  0.113105  1
  O  O25  1  0.027944  0.078509  0.386895  1
  O  O26  1  0.027944  0.421491  0.886895  1
  O  O27  1  0.999441  0.786429  0.860768  1
  P  P28  1  0.603840  0.054635  0.703565  1
  P  P29  1  0.396160  0.554635  0.796435  1
  P  P30  1  0.396160  0.945365  0.296435  1
  P  P31  1  0.603840  0.445365  0.203565  1
  P  P32  1  0.887490  0.796733  0.692186  1
  P  P33  1  0.112510  0.296733  0.807814  1
  P  P34  1  0.887490  0.703267  0.192186  1
  P  P35  1  0.112510  0.203267  0.307814  1
  Fe  Fe36  1  0.188727  0.624347  0.026518  1
  Fe  Fe37  1  0.000000  0.000000  0.000000  1
  Fe  Fe38  1  0.188727  0.875653  0.526518  1
  Fe  Fe39  1  0.811273  0.375653  0.973482  1
  Fe  Fe40  1  0.811273  0.124347  0.473482  1
  Fe  Fe41  1  1.000000  0.500000  0.500000  1
  Sr  Sr42  1  0.500000  0.500000  0.500000  1
  Sr  Sr43  1  0.500000  0.000000  1.000000  1
