# generated using pymatgen
data_LiBi2(PO4)3
_symmetry_space_group_name_H-M   'P 1'
_cell_length_a   8.93976914
_cell_length_b   9.34117429
_cell_length_c   12.78211800
_cell_angle_alpha   90.00000000
_cell_angle_beta   89.46895311
_cell_angle_gamma   90.00000000
_symmetry_Int_Tables_number   1
_chemical_formula_structural   LiBi2(PO4)3
_chemical_formula_sum   'Li4 Bi8 P12 O48'
_cell_volume   1067.36251657
_cell_formula_units_Z   4
loop_
 _symmetry_equiv_pos_site_id
 _symmetry_equiv_pos_as_xyz
  1  'x, y, z'
loop_
 _atom_site_type_symbol
 _atom_site_label
 _atom_site_symmetry_multiplicity
 _atom_site_fract_x
 _atom_site_fract_y
 _atom_site_fract_z
 _atom_site_occupancy
  Li  Li0  1  0.577750  0.997635  0.147803  1
  Li  Li1  1  0.922250  0.497635  0.352197  1
  Li  Li2  1  0.929615  0.914209  0.688894  1
  Li  Li3  1  0.570385  0.414209  0.811106  1
  O  O4  1  0.265664  0.965234  0.269599  1
  O  O5  1  0.913749  0.629394  0.583157  1
  O  O6  1  0.859432  0.786150  0.801564  1
  O  O7  1  0.849653  0.607150  0.948894  1
  O  O8  1  0.876807  0.998056  0.236311  1
  O  O9  1  0.936486  0.095998  0.906483  1
  O  O10  1  0.953218  0.425121  0.211625  1
  O  O11  1  0.961326  0.142875  0.442304  1
  O  O12  1  0.041099  0.856872  0.559897  1
  O  O13  1  0.043480  0.891414  0.092835  1
  O  O14  1  0.040629  0.584011  0.798597  1
  O  O15  1  0.050963  0.669483  0.406408  1
  O  O16  1  0.083740  0.378969  0.424760  1
  O  O17  1  0.103718  0.006074  0.757040  1
  O  O18  1  0.121778  0.216412  0.186260  1
  O  O19  1  0.127105  0.419351  0.052792  1
  O  O20  1  0.123391  0.262086  0.825342  1
  O  O21  1  0.191794  0.197343  0.552902  1
  O  O22  1  0.216818  0.053756  0.934285  1
  O  O23  1  0.234336  0.465234  0.230401  1
  O  O24  1  0.283182  0.553756  0.565715  1
  O  O25  1  0.954153  0.314190  0.600482  1
  O  O26  1  0.308206  0.697343  0.947098  1
  O  O27  1  0.376609  0.762086  0.674658  1
  O  O28  1  0.372895  0.919351  0.447208  1
  O  O29  1  0.378222  0.716412  0.313740  1
  O  O30  1  0.396282  0.506074  0.742960  1
  O  O31  1  0.416260  0.878969  0.075240  1
  O  O32  1  0.459371  0.084011  0.701403  1
  O  O33  1  0.458901  0.356872  0.940103  1
  O  O34  1  0.449037  0.169483  0.093592  1
  O  O35  1  0.456520  0.391414  0.407165  1
  O  O36  1  0.538674  0.642875  0.057696  1
  O  O37  1  0.563514  0.595998  0.593517  1
  O  O38  1  0.545847  0.814190  0.899518  1
  O  O39  1  0.546782  0.925121  0.288375  1
  O  O40  1  0.586251  0.129394  0.916843  1
  O  O41  1  0.623193  0.498056  0.263689  1
  O  O42  1  0.640568  0.286150  0.698436  1
  O  O43  1  0.650347  0.107150  0.551106  1
  O  O44  1  0.643382  0.233660  0.315989  1
  O  O45  1  0.682627  0.299869  0.056361  1
  O  O46  1  0.856618  0.733660  0.184011  1
  O  O47  1  0.738838  0.433985  0.432402  1
  O  O48  1  0.761162  0.933985  0.067598  1
  O  O49  1  0.763310  0.527903  0.772799  1
  O  O50  1  0.817373  0.799869  0.443639  1
  O  O51  1  0.736690  0.027903  0.727201  1
  P  P52  1  0.390697  0.882994  0.331313  1
  P  P53  1  0.451405  0.754242  0.995719  1
  P  P54  1  0.403491  0.605283  0.646422  1
  P  P55  1  0.542692  0.242350  0.003218  1
  P  P56  1  0.618482  0.123219  0.667223  1
  P  P57  1  0.613152  0.387265  0.351233  1
  P  P58  1  0.886848  0.887265  0.148767  1
  P  P59  1  0.881518  0.623219  0.832777  1
  P  P60  1  0.048595  0.254242  0.504281  1
  P  P61  1  0.109303  0.382994  0.168687  1
  P  P62  1  0.096509  0.105283  0.853578  1
  P  P63  1  0.957308  0.742350  0.496782  1
  Bi  Bi64  1  0.751069  0.530161  0.110487  1
  Bi  Bi65  1  0.748931  0.030161  0.389513  1
  Bi  Bi66  1  0.759507  0.455514  0.605349  1
  Bi  Bi67  1  0.740493  0.955514  0.894651  1
  Bi  Bi68  1  0.266340  0.537560  0.394112  1
  Bi  Bi69  1  0.273928  0.972766  0.611659  1
  Bi  Bi70  1  0.233660  0.037560  0.105888  1
  Bi  Bi71  1  0.226072  0.472766  0.888341  1
