# generated using pymatgen
data_Ga3Pd5
_symmetry_space_group_name_H-M   'P 1'
_cell_length_a   4.08089538
_cell_length_b   5.49368440
_cell_length_c   10.70030962
_cell_angle_alpha   89.99962055
_cell_angle_beta   89.99996930
_cell_angle_gamma   90.00005703
_symmetry_Int_Tables_number   1
_chemical_formula_structural   Ga3Pd5
_chemical_formula_sum   'Ga6 Pd10'
_cell_volume   239.89186019
_cell_formula_units_Z   2
loop_
 _symmetry_equiv_pos_site_id
 _symmetry_equiv_pos_as_xyz
  1  'x, y, z'
loop_
 _atom_site_type_symbol
 _atom_site_label
 _atom_site_symmetry_multiplicity
 _atom_site_fract_x
 _atom_site_fract_y
 _atom_site_fract_z
 _atom_site_occupancy
  Ga  Ga0  1  0.499999  0.838140  0.645948  1
  Ga  Ga1  1  0.500000  0.338150  0.854048  1
  Ga  Ga2  1  0.000000  0.499953  0.499984  1
  Ga  Ga3  1  0.500000  0.161899  0.354055  1
  Ga  Ga4  1  1.000000  0.999956  0.000014  1
  Ga  Ga5  1  0.500000  0.661892  0.145950  1
  Pd  Pd6  1  0.500000  0.808254  0.895797  1
  Pd  Pd7  1  0.499999  0.691720  0.395779  1
  Pd  Pd8  1  0.500001  0.308267  0.604211  1
  Pd  Pd9  1  0.000001  0.917086  0.234181  1
  Pd  Pd10  1  0.000000  0.417084  0.265816  1
  Pd  Pd11  1  1.000000  0.582982  0.734144  1
  Pd  Pd12  1  0.000001  0.082979  0.765861  1
  Pd  Pd13  1  0.999999  0.499956  0.999987  1
  Pd  Pd14  1  1.000000  0.999958  0.500013  1
  Pd  Pd15  1  0.500000  0.191725  0.104212  1
