# generated using pymatgen
data_SrNiP2O7
_symmetry_space_group_name_H-M   'P 1'
_cell_length_a   5.33569544
_cell_length_b   8.35513589
_cell_length_c   12.81399294
_cell_angle_alpha   90.00000000
_cell_angle_beta   90.35108695
_cell_angle_gamma   90.00000000
_symmetry_Int_Tables_number   1
_chemical_formula_structural   SrNiP2O7
_chemical_formula_sum   'Sr4 Ni4 P8 O28'
_cell_volume   571.24298106
_cell_formula_units_Z   4
loop_
 _symmetry_equiv_pos_site_id
 _symmetry_equiv_pos_as_xyz
  1  'x, y, z'
loop_
 _atom_site_type_symbol
 _atom_site_label
 _atom_site_symmetry_multiplicity
 _atom_site_fract_x
 _atom_site_fract_y
 _atom_site_fract_z
 _atom_site_occupancy
  O  O0  1  0.691820  0.315925  0.590509  1
  O  O1  1  0.808180  0.815924  0.909491  1
  O  O2  1  0.308180  0.684075  0.409492  1
  O  O3  1  0.191819  0.184076  0.090508  1
  O  O4  1  0.593900  0.166584  0.978495  1
  O  O5  1  0.906100  0.666585  0.521505  1
  O  O6  1  0.406101  0.833415  0.021505  1
  O  O7  1  0.093899  0.333416  0.478494  1
  O  O8  1  0.983226  0.438514  0.793530  1
  O  O9  1  0.516773  0.938513  0.706471  1
  O  O10  1  0.016773  0.561487  0.206471  1
  O  O11  1  0.483228  0.061486  0.293530  1
  O  O12  1  0.264354  0.383654  0.950323  1
  O  O13  1  0.235647  0.883654  0.549677  1
  O  O14  1  0.735648  0.616346  0.049678  1
  O  O15  1  0.764352  0.116346  0.450322  1
  O  O16  1  0.675166  0.362241  0.151774  1
  O  O17  1  0.824835  0.862241  0.348226  1
  O  O18  1  0.324835  0.637759  0.848226  1
  O  O19  1  0.175166  0.137760  0.651773  1
  O  O20  1  0.669764  0.403648  0.399315  1
  O  O21  1  0.830235  0.903649  0.100685  1
  O  O22  1  0.443725  0.378291  0.765994  1
  O  O23  1  0.169766  0.096352  0.899315  1
  O  O24  1  0.943723  0.121708  0.265995  1
  O  O25  1  0.556277  0.621708  0.234005  1
  O  O26  1  0.056276  0.878292  0.734006  1
  O  O27  1  0.330235  0.596351  0.600684  1
  P  P28  1  0.809873  0.302837  0.482039  1
  P  P29  1  0.690127  0.802838  0.017961  1
  P  P30  1  0.190126  0.697163  0.517961  1
  P  P31  1  0.309873  0.197163  0.982039  1
  P  P32  1  0.251556  0.962943  0.664468  1
  P  P33  1  0.751557  0.537057  0.164467  1
  P  P34  1  0.748443  0.037057  0.335533  1
  P  P35  1  0.248445  0.462942  0.835533  1
  Ni  Ni36  1  0.813658  0.148673  0.112234  1
  Ni  Ni37  1  0.186341  0.851326  0.887765  1
  Ni  Ni38  1  0.686342  0.648674  0.387766  1
  Ni  Ni39  1  0.313657  0.351327  0.612235  1
  Sr  Sr40  1  0.785610  0.159574  0.780849  1
  Sr  Sr41  1  0.714390  0.659574  0.719152  1
  Sr  Sr42  1  0.214390  0.840426  0.219151  1
  Sr  Sr43  1  0.285609  0.340426  0.280849  1
