# generated using pymatgen
data_Fe4Ni3(PO4)6
_symmetry_space_group_name_H-M   'P 1'
_cell_length_a   6.38351554
_cell_length_b   8.00130818
_cell_length_c   9.31052483
_cell_angle_alpha   104.37776477
_cell_angle_beta   108.44623727
_cell_angle_gamma   101.26032280
_symmetry_Int_Tables_number   1
_chemical_formula_structural   Fe4Ni3(PO4)6
_chemical_formula_sum   'Fe4 Ni3 P6 O24'
_cell_volume   417.13202798
_cell_formula_units_Z   1
loop_
 _symmetry_equiv_pos_site_id
 _symmetry_equiv_pos_as_xyz
  1  'x, y, z'
loop_
 _atom_site_type_symbol
 _atom_site_label
 _atom_site_symmetry_multiplicity
 _atom_site_fract_x
 _atom_site_fract_y
 _atom_site_fract_z
 _atom_site_occupancy
  O  O0  1  0.789526  0.051174  0.293450  1
  O  O1  1  0.210476  0.948826  0.706550  1
  O  O2  1  0.453312  0.365499  0.293831  1
  O  O3  1  0.546689  0.634501  0.706169  1
  O  O4  1  0.275996  0.037175  0.238977  1
  O  O5  1  0.724005  0.962825  0.761024  1
  O  O6  1  0.537500  0.735701  0.222588  1
  O  O7  1  0.462500  0.264299  0.777413  1
  O  O8  1  0.633212  0.228408  0.498445  1
  O  O9  1  0.366787  0.771591  0.501555  1
  O  O10  1  0.750939  0.728798  0.531737  1
  O  O11  1  0.249061  0.271202  0.468264  1
  O  O12  1  0.118326  0.789296  0.923538  1
  O  O13  1  0.766814  0.806407  0.051236  1
  O  O14  1  0.233187  0.193593  0.948764  1
  O  O15  1  0.125958  0.531150  0.162077  1
  O  O16  1  0.874043  0.468851  0.837924  1
  O  O17  1  0.936325  0.446404  0.345540  1
  O  O18  1  0.881673  0.210705  0.076463  1
  O  O19  1  0.976780  0.805345  0.330379  1
  O  O20  1  0.023219  0.194654  0.669621  1
  O  O21  1  0.692873  0.464042  0.085059  1
  O  O22  1  0.307129  0.535958  0.914942  1
  O  O23  1  0.063674  0.553596  0.654460  1
  P  P24  1  0.398438  0.224699  0.373643  1
  P  P25  1  0.601563  0.775302  0.626358  1
  P  P26  1  0.234344  0.147293  0.774582  1
  P  P27  1  0.765655  0.852707  0.225418  1
  P  P28  1  0.908419  0.403127  0.165746  1
  P  P29  1  0.091582  0.596873  0.834254  1
  Fe  Fe30  1  0.047077  0.724901  0.525493  1
  Fe  Fe31  1  0.610778  0.547994  0.881393  1
  Fe  Fe32  1  0.952925  0.275099  0.474507  1
  Fe  Fe33  1  0.389222  0.452006  0.118606  1
  Ni  Ni34  1  0.731904  0.199704  0.723723  1
  Ni  Ni35  1  0.268095  0.800295  0.276277  1
  Ni  Ni36  1  0.000000  0.000000  0.000000  1
