# generated using pymatgen
data_MnH6(SO4)4
_symmetry_space_group_name_H-M   'P 1'
_cell_length_a   5.27710441
_cell_length_b   8.38263392
_cell_length_c   15.47389249
_cell_angle_alpha   90.00000000
_cell_angle_beta   90.00000000
_cell_angle_gamma   103.94205713
_symmetry_Int_Tables_number   1
_chemical_formula_structural   MnH6(SO4)4
_chemical_formula_sum   'Mn2 H12 S8 O32'
_cell_volume   664.33808367
_cell_formula_units_Z   2
loop_
 _symmetry_equiv_pos_site_id
 _symmetry_equiv_pos_as_xyz
  1  'x, y, z'
loop_
 _atom_site_type_symbol
 _atom_site_label
 _atom_site_symmetry_multiplicity
 _atom_site_fract_x
 _atom_site_fract_y
 _atom_site_fract_z
 _atom_site_occupancy
  H  H0  1  0.175494  0.297987  0.732401  1
  H  H1  1  0.824506  0.202013  0.232401  1
  H  H2  1  0.824506  0.702013  0.267599  1
  H  H3  1  0.175494  0.797987  0.767599  1
  H  H4  1  0.569072  0.159871  0.737329  1
  H  H5  1  0.430928  0.340129  0.237329  1
  H  H6  1  0.430928  0.840129  0.262671  1
  H  H7  1  0.569072  0.659871  0.762671  1
  H  H8  1  0.282901  0.611498  0.023222  1
  H  H9  1  0.717099  0.888502  0.523222  1
  H  H10  1  0.717099  0.388502  0.976778  1
  H  H11  1  0.282901  0.111498  0.476778  1
  O  O12  1  0.620927  0.272706  0.179502  1
  O  O13  1  0.379073  0.727294  0.820498  1
  O  O14  1  0.287958  0.392101  0.559510  1
  O  O15  1  0.712042  0.107899  0.059510  1
  O  O16  1  0.712042  0.607899  0.440490  1
  O  O17  1  0.287958  0.892101  0.940490  1
  O  O18  1  0.698541  0.307163  0.563676  1
  O  O19  1  0.301459  0.192837  0.063676  1
  O  O20  1  0.301459  0.692837  0.436324  1
  O  O21  1  0.620927  0.772706  0.320498  1
  O  O22  1  0.287092  0.099060  0.541893  1
  O  O23  1  0.712908  0.400940  0.041893  1
  O  O24  1  0.712908  0.900940  0.458107  1
  O  O25  1  0.287092  0.599060  0.958107  1
  O  O26  1  0.020283  0.663281  0.613367  1
  O  O27  1  0.979717  0.836719  0.113367  1
  O  O28  1  0.979717  0.336719  0.386633  1
  O  O29  1  0.020283  0.163281  0.886633  1
  O  O30  1  0.731839  0.855950  0.626824  1
  O  O31  1  0.268161  0.644050  0.126824  1
  O  O32  1  0.268161  0.144050  0.373176  1
  O  O33  1  0.731839  0.355950  0.873176  1
  O  O34  1  0.686762  0.613680  0.721209  1
  O  O35  1  0.313238  0.886320  0.221209  1
  O  O36  1  0.313238  0.386320  0.278791  1
  O  O37  1  0.686762  0.113680  0.778791  1
  O  O38  1  0.058149  0.857906  0.733997  1
  O  O39  1  0.941851  0.642094  0.233997  1
  O  O40  1  0.941851  0.142094  0.266003  1
  O  O41  1  0.058149  0.357906  0.766003  1
  O  O42  1  0.698541  0.807163  0.936324  1
  O  O43  1  0.379073  0.227294  0.679502  1
  S  S44  1  0.873677  0.249265  0.831939  1
  S  S45  1  0.126323  0.250735  0.331939  1
  S  S46  1  0.126323  0.750735  0.168061  1
  S  S47  1  0.873677  0.749265  0.668061  1
  S  S48  1  0.421070  0.766219  0.913941  1
  S  S49  1  0.578930  0.733781  0.413941  1
  S  S50  1  0.578930  0.233781  0.086059  1
  S  S51  1  0.421070  0.266219  0.586059  1
  Mn  Mn52  1  0.000000  0.000000  0.000000  1
  Mn  Mn53  1  0.000000  0.500000  0.500000  1
