# generated using pymatgen
data_Th11(Ru2C3)6
_symmetry_space_group_name_H-M   'P 1'
_cell_length_a   9.38004080
_cell_length_b   9.38004081
_cell_length_c   9.38004081
_cell_angle_alpha   109.47122064
_cell_angle_beta   109.47122065
_cell_angle_gamma   109.47122061
_symmetry_Int_Tables_number   1
_chemical_formula_structural   Th11(Ru2C3)6
_chemical_formula_sum   'Th11 Ru12 C18'
_cell_volume   635.31965673
_cell_formula_units_Z   1
loop_
 _symmetry_equiv_pos_site_id
 _symmetry_equiv_pos_as_xyz
  1  'x, y, z'
loop_
 _atom_site_type_symbol
 _atom_site_label
 _atom_site_symmetry_multiplicity
 _atom_site_fract_x
 _atom_site_fract_y
 _atom_site_fract_z
 _atom_site_occupancy
  C  C0  1  0.434720  0.000000  0.434720  1
  C  C1  1  0.565280  0.000000  0.565280  1
  C  C2  1  0.000000  0.565280  0.565280  1
  C  C3  1  0.000000  0.434720  0.434720  1
  C  C4  1  0.434720  0.434720  0.000000  1
  C  C5  1  0.565280  0.565280  0.000000  1
  C  C6  1  0.213821  0.213821  0.525472  1
  C  C7  1  0.688349  0.474528  0.688349  1
  C  C8  1  0.474528  0.688349  0.688349  1
  C  C9  1  0.000000  0.311651  0.786179  1
  C  C10  1  0.311651  0.000000  0.786179  1
  C  C11  1  0.525472  0.213821  0.213821  1
  C  C12  1  0.000000  0.786179  0.311651  1
  C  C13  1  0.786179  0.311651  0.000000  1
  C  C14  1  0.213821  0.525472  0.213821  1
  C  C15  1  0.311651  0.786179  0.000000  1
  C  C16  1  0.688349  0.688349  0.474528  1
  C  C17  1  0.786179  0.000000  0.311651  1
  Ru  Ru18  1  0.367925  0.000000  0.197656  1
  Ru  Ru19  1  0.000000  0.367925  0.197656  1
  Ru  Ru20  1  0.829731  0.632075  0.632075  1
  Ru  Ru21  1  0.632075  0.829731  0.632075  1
  Ru  Ru22  1  0.802344  0.802344  0.170269  1
  Ru  Ru23  1  0.802344  0.170269  0.802344  1
  Ru  Ru24  1  0.170269  0.802344  0.802344  1
  Ru  Ru25  1  0.197656  0.367925  0.000000  1
  Ru  Ru26  1  0.367925  0.197656  0.000000  1
  Ru  Ru27  1  0.632075  0.632075  0.829731  1
  Ru  Ru28  1  0.000000  0.197656  0.367925  1
  Ru  Ru29  1  0.197656  0.000000  0.367925  1
  Th  Th30  1  0.000000  0.000000  0.594129  1
  Th  Th31  1  0.000000  0.594129  0.000000  1
  Th  Th32  1  0.594129  0.000000  0.000000  1
  Th  Th33  1  0.405871  0.405871  0.405871  1
  Th  Th34  1  0.500000  0.750000  0.250000  1
  Th  Th35  1  0.250000  0.750000  0.500000  1
  Th  Th36  1  0.750000  0.250000  0.500000  1
  Th  Th37  1  0.250000  0.500000  0.750000  1
  Th  Th38  1  0.750000  0.500000  0.250000  1
  Th  Th39  1  0.500000  0.250000  0.750000  1
  Th  Th40  1  0.000000  0.000000  0.000000  1
