# generated using pymatgen
data_U(BiO3)2
_symmetry_space_group_name_H-M   'P 1'
_cell_length_a   3.92586748
_cell_length_b   3.92586748
_cell_length_c   9.56587653
_cell_angle_alpha   89.99926631
_cell_angle_beta   89.99926635
_cell_angle_gamma   59.97984045
_symmetry_Int_Tables_number   1
_chemical_formula_structural   U(BiO3)2
_chemical_formula_sum   'U1 Bi2 O6'
_cell_volume   127.65517202
_cell_formula_units_Z   1
loop_
 _symmetry_equiv_pos_site_id
 _symmetry_equiv_pos_as_xyz
  1  'x, y, z'
loop_
 _atom_site_type_symbol
 _atom_site_label
 _atom_site_symmetry_multiplicity
 _atom_site_fract_x
 _atom_site_fract_y
 _atom_site_fract_z
 _atom_site_occupancy
  O  O0  1  0.973624  0.026722  0.209797  1
  O  O1  1  0.973278  0.026376  0.790203  1
  O  O2  1  0.308258  0.358392  0.585112  1
  O  O3  1  0.639518  0.693701  0.947280  1
  O  O4  1  0.306299  0.360482  0.052720  1
  O  O5  1  0.641608  0.691742  0.414888  1
  Bi  Bi6  1  0.308646  0.357957  0.340157  1
  Bi  Bi7  1  0.642043  0.691354  0.659843  1
  U  U8  1  0.972726  0.027274  0.000000  1
