# generated using pymatgen
data_Cu7PSe6
_symmetry_space_group_name_H-M   'P 1'
_cell_length_a   7.16623689
_cell_length_b   10.12249061
_cell_length_c   14.44256281
_cell_angle_alpha   90.00000000
_cell_angle_beta   90.00000000
_cell_angle_gamma   90.00000000
_symmetry_Int_Tables_number   1
_chemical_formula_structural   Cu7PSe6
_chemical_formula_sum   'Cu28 P4 Se24'
_cell_volume   1047.66589833
_cell_formula_units_Z   4
loop_
 _symmetry_equiv_pos_site_id
 _symmetry_equiv_pos_as_xyz
  1  'x, y, z'
loop_
 _atom_site_type_symbol
 _atom_site_label
 _atom_site_symmetry_multiplicity
 _atom_site_fract_x
 _atom_site_fract_y
 _atom_site_fract_z
 _atom_site_occupancy
  P  P0  1  0.752033  0.253232  0.125741  1
  P  P1  1  0.247967  0.753232  0.874259  1
  P  P2  1  0.747967  0.253232  0.625741  1
  P  P3  1  0.252033  0.753232  0.374259  1
  Cu  Cu4  1  0.459007  0.003849  0.232961  1
  Cu  Cu5  1  0.540993  0.503849  0.767039  1
  Cu  Cu6  1  0.040993  0.003849  0.732961  1
  Cu  Cu7  1  0.959007  0.503849  0.267039  1
  Cu  Cu8  1  0.414181  0.045001  0.767113  1
  Cu  Cu9  1  0.585819  0.545001  0.232887  1
  Cu  Cu10  1  0.085819  0.045001  0.267113  1
  Cu  Cu11  1  0.914181  0.545001  0.732887  1
  Cu  Cu12  1  0.778328  0.744856  0.287296  1
  Cu  Cu13  1  0.221672  0.244856  0.712704  1
  Cu  Cu14  1  0.721672  0.744856  0.787296  1
  Cu  Cu15  1  0.278328  0.244856  0.212704  1
  Cu  Cu16  1  0.073881  0.085382  0.959052  1
  Cu  Cu17  1  0.926119  0.585382  0.040948  1
  Cu  Cu18  1  0.426119  0.085382  0.459052  1
  Cu  Cu19  1  0.573881  0.585382  0.540948  1
  Cu  Cu20  1  0.939008  0.926207  0.555975  1
  Cu  Cu21  1  0.060992  0.426207  0.444025  1
  Cu  Cu22  1  0.560992  0.926207  0.055975  1
  Cu  Cu23  1  0.439008  0.426207  0.944025  1
  Cu  Cu24  1  0.019367  0.360608  0.850464  1
  Cu  Cu25  1  0.980633  0.860608  0.149536  1
  Cu  Cu26  1  0.480633  0.360608  0.350464  1
  Cu  Cu27  1  0.519367  0.860608  0.649536  1
  Cu  Cu28  1  0.813810  0.272249  0.378661  1
  Cu  Cu29  1  0.186190  0.772249  0.621339  1
  Cu  Cu30  1  0.686190  0.272249  0.878661  1
  Cu  Cu31  1  0.313810  0.772249  0.121339  1
  Se  Se32  1  0.751216  0.116247  0.003424  1
  Se  Se33  1  0.248784  0.616247  0.996576  1
  Se  Se34  1  0.748784  0.116247  0.503424  1
  Se  Se35  1  0.251216  0.616247  0.496576  1
  Se  Se36  1  0.254030  0.623655  0.248321  1
  Se  Se37  1  0.745970  0.123655  0.751679  1
  Se  Se38  1  0.245970  0.623655  0.748321  1
  Se  Se39  1  0.754030  0.123655  0.251679  1
  Se  Se40  1  0.508431  0.878340  0.372532  1
  Se  Se41  1  0.491569  0.378340  0.627468  1
  Se  Se42  1  0.991569  0.878340  0.872532  1
  Se  Se43  1  0.008431  0.378340  0.127468  1
  Se  Se44  1  0.509723  0.876195  0.880346  1
  Se  Se45  1  0.490277  0.376195  0.119654  1
  Se  Se46  1  0.990277  0.876195  0.380346  1
  Se  Se47  1  0.009723  0.376195  0.619654  1
  Se  Se48  1  0.715800  0.730680  0.122329  1
  Se  Se49  1  0.284200  0.230680  0.877671  1
  Se  Se50  1  0.784200  0.730680  0.622329  1
  Se  Se51  1  0.215800  0.230680  0.377671  1
  Se  Se52  1  0.733147  0.507499  0.389636  1
  Se  Se53  1  0.266853  0.007499  0.610364  1
  Se  Se54  1  0.766853  0.507499  0.889636  1
  Se  Se55  1  0.233147  0.007499  0.110364  1
