# generated using pymatgen
data_Li3FeN2
_symmetry_space_group_name_H-M   'P 1'
_cell_length_a   4.67210860
_cell_length_b   4.81081558
_cell_length_c   5.82482996
_cell_angle_alpha   114.39244474
_cell_angle_beta   113.64612039
_cell_angle_gamma   89.99975476
_symmetry_Int_Tables_number   1
_chemical_formula_structural   Li3FeN2
_chemical_formula_sum   'Li6 Fe2 N4'
_cell_volume   107.05080558
_cell_formula_units_Z   2
loop_
 _symmetry_equiv_pos_site_id
 _symmetry_equiv_pos_as_xyz
  1  'x, y, z'
loop_
 _atom_site_type_symbol
 _atom_site_label
 _atom_site_symmetry_multiplicity
 _atom_site_fract_x
 _atom_site_fract_y
 _atom_site_fract_z
 _atom_site_occupancy
  Fe  Fe0  1  0.249996  0.999998  0.999999  1
  Fe  Fe1  1  0.750004  0.000002  0.000001  1
  N  N2  1  0.886338  0.106680  0.772688  1
  N  N3  1  0.113662  0.893320  0.227312  1
  N  N4  1  0.613662  0.334007  0.227319  1
  N  N5  1  0.386338  0.665993  0.772681  1
  Li  Li6  1  0.992042  0.742042  0.484103  1
  Li  Li7  1  0.507950  0.257950  0.515896  1
  Li  Li8  1  0.007958  0.257958  0.515897  1
  Li  Li9  1  0.492050  0.742050  0.484104  1
  Li  Li10  1  0.249995  0.499996  0.000000  1
  Li  Li11  1  0.750005  0.500004  1.000000  1
