# generated using pymatgen
data_Na3In2(AsO4)3
_symmetry_space_group_name_H-M   'P 1'
_cell_length_a   6.97385955
_cell_length_b   9.28109468
_cell_length_c   9.28109469
_cell_angle_alpha   92.77832942
_cell_angle_beta   106.22381899
_cell_angle_gamma   106.22382562
_symmetry_Int_Tables_number   1
_chemical_formula_structural   Na3In2(AsO4)3
_chemical_formula_sum   'Na6 In4 As6 O24'
_cell_volume   548.58706481
_cell_formula_units_Z   2
loop_
 _symmetry_equiv_pos_site_id
 _symmetry_equiv_pos_as_xyz
  1  'x, y, z'
loop_
 _atom_site_type_symbol
 _atom_site_label
 _atom_site_symmetry_multiplicity
 _atom_site_fract_x
 _atom_site_fract_y
 _atom_site_fract_z
 _atom_site_occupancy
  Na  Na0  1  0.000000  0.500000  0.500000  1
  Na  Na1  1  0.250000  0.275959  0.724041  1
  Na  Na2  1  0.250000  0.004643  0.995357  1
  Na  Na3  1  0.750000  0.995357  0.004643  1
  Na  Na4  1  0.750000  0.724041  0.275959  1
  Na  Na5  1  0.500000  0.500000  0.500000  1
  In  In6  1  0.145411  0.378718  0.066038  1
  In  In7  1  0.645411  0.066038  0.378718  1
  In  In8  1  0.854589  0.621282  0.933962  1
  In  In9  1  0.354589  0.933962  0.621282  1
  As  As10  1  0.867734  0.864145  0.657293  1
  As  As11  1  0.250000  0.723454  0.276546  1
  As  As12  1  0.367734  0.657293  0.864145  1
  As  As13  1  0.750000  0.276546  0.723454  1
  As  As14  1  0.132266  0.135855  0.342707  1
  As  As15  1  0.632266  0.342707  0.135855  1
  O  O16  1  0.614798  0.154897  0.161332  1
  O  O17  1  0.898380  1.000881  0.331533  1
  O  O18  1  0.885202  0.838668  0.845103  1
  O  O19  1  0.601620  0.668467  -0.000881  1
  O  O20  1  0.030297  0.751289  0.155083  1
  O  O21  1  0.817809  0.702677  0.543802  1
  O  O22  1  0.831086  0.408886  0.052123  1
  O  O23  1  0.398380  0.331533  1.000881  1
  O  O24  1  0.668914  0.947878  0.591114  1
  O  O25  1  0.724194  0.456239  0.737417  1
  O  O26  1  0.168914  0.591114  0.947878  1
  O  O27  1  0.775806  0.262583  0.543761  1
  O  O28  1  0.385202  0.845103  0.838668  1
  O  O29  1  0.331086  0.052123  0.408886  1
  O  O30  1  0.182191  0.297323  0.456198  1
  O  O31  1  0.224194  0.737417  0.456239  1
  O  O32  1  0.530297  0.155083  0.751289  1
  O  O33  1  0.469703  0.844917  0.248711  1
  O  O34  1  0.101620  -0.000881  0.668467  1
  O  O35  1  0.317809  0.543802  0.702677  1
  O  O36  1  0.275806  0.543761  0.262583  1
  O  O37  1  0.114798  0.161332  0.154897  1
  O  O38  1  0.969703  0.248711  0.844917  1
  O  O39  1  0.682191  0.456198  0.297323  1
