# generated using pymatgen
data_TlFeC3NO4
_symmetry_space_group_name_H-M   'P 1'
_cell_length_a   9.13706028
_cell_length_b   9.13706028
_cell_length_c   9.13706028
_cell_angle_alpha   90.00000000
_cell_angle_beta   90.00000000
_cell_angle_gamma   90.00000000
_symmetry_Int_Tables_number   1
_chemical_formula_structural   TlFeC3NO4
_chemical_formula_sum   'Tl4 Fe4 C12 N4 O16'
_cell_volume   762.81543184
_cell_formula_units_Z   4
loop_
 _symmetry_equiv_pos_site_id
 _symmetry_equiv_pos_as_xyz
  1  'x, y, z'
loop_
 _atom_site_type_symbol
 _atom_site_label
 _atom_site_symmetry_multiplicity
 _atom_site_fract_x
 _atom_site_fract_y
 _atom_site_fract_z
 _atom_site_occupancy
  C  C0  1  0.062205  0.911870  0.632200  1
  C  C1  1  0.911870  0.632200  0.062205  1
  C  C2  1  0.411870  0.867800  0.937795  1
  C  C3  1  0.088130  0.132200  0.437795  1
  C  C4  1  0.867800  0.937795  0.411870  1
  C  C5  1  0.437795  0.088130  0.132200  1
  C  C6  1  0.937795  0.411870  0.867800  1
  C  C7  1  0.588130  0.367800  0.562205  1
  C  C8  1  0.132200  0.437795  0.088130  1
  C  C9  1  0.562205  0.588130  0.367800  1
  C  C10  1  0.367800  0.562205  0.588130  1
  C  C11  1  0.632200  0.062205  0.911870  1
  N  N12  1  0.336220  0.163780  0.836220  1
  N  N13  1  0.163780  0.836220  0.336220  1
  N  N14  1  0.836220  0.336220  0.163780  1
  N  N15  1  0.663780  0.663780  0.663780  1
  O  O16  1  0.260239  0.239761  0.760239  1
  O  O17  1  0.239761  0.760239  0.260239  1
  O  O18  1  0.760239  0.260239  0.239761  1
  O  O19  1  0.739761  0.739761  0.739761  1
  O  O20  1  0.893496  0.758859  0.066638  1
  O  O21  1  0.066638  0.893496  0.758859  1
  O  O22  1  0.758859  0.066638  0.893496  1
  O  O23  1  0.933362  0.393496  0.741141  1
  O  O24  1  0.433362  0.106504  0.258859  1
  O  O25  1  0.741141  0.933362  0.393496  1
  O  O26  1  0.106504  0.258859  0.433362  1
  O  O27  1  0.393496  0.741141  0.933362  1
  O  O28  1  0.606504  0.241141  0.566638  1
  O  O29  1  0.566638  0.606504  0.241141  1
  O  O30  1  0.241141  0.566638  0.606504  1
  O  O31  1  0.258859  0.433362  0.106504  1
  Fe  Fe32  1  0.440728  0.059272  0.940728  1
  Fe  Fe33  1  0.059272  0.940728  0.440728  1
  Fe  Fe34  1  0.940728  0.440728  0.059272  1
  Fe  Fe35  1  0.559272  0.559272  0.559272  1
  Tl  Tl36  1  0.940226  0.559774  0.440226  1
  Tl  Tl37  1  0.559774  0.440226  0.940226  1
  Tl  Tl38  1  0.440226  0.940226  0.559774  1
  Tl  Tl39  1  0.059774  0.059774  0.059774  1
