# generated using pymatgen
data_Na4Sn3F10
_symmetry_space_group_name_H-M   'P 1'
_cell_length_a   5.55515482
_cell_length_b   11.10159282
_cell_length_c   11.10159281
_cell_angle_alpha   112.44977866
_cell_angle_beta   90.90241960
_cell_angle_gamma   90.90241957
_symmetry_Int_Tables_number   1
_chemical_formula_structural   Na4Sn3F10
_chemical_formula_sum   'Na8 Sn6 F20'
_cell_volume   632.50685501
_cell_formula_units_Z   2
loop_
 _symmetry_equiv_pos_site_id
 _symmetry_equiv_pos_as_xyz
  1  'x, y, z'
loop_
 _atom_site_type_symbol
 _atom_site_label
 _atom_site_symmetry_multiplicity
 _atom_site_fract_x
 _atom_site_fract_y
 _atom_site_fract_z
 _atom_site_occupancy
  F  F0  1  0.483509  0.203327  0.721236  1
  F  F1  1  0.016491  0.278764  0.796673  1
  F  F2  1  0.516491  0.796673  0.278764  1
  F  F3  1  0.983509  0.721236  0.203327  1
  F  F4  1  0.391094  0.097266  0.437293  1
  F  F5  1  0.108906  0.562707  0.902734  1
  F  F6  1  0.608906  0.902734  0.562707  1
  F  F7  1  0.891094  0.437293  0.097266  1
  F  F8  1  0.386428  0.346948  0.443394  1
  F  F9  1  0.113572  0.556606  0.653052  1
  F  F10  1  0.613572  0.653052  0.556606  1
  F  F11  1  0.886428  0.443394  0.346948  1
  F  F12  1  0.063086  0.009511  0.653560  1
  F  F13  1  0.436914  0.346440  0.990489  1
  F  F14  1  0.451757  0.504146  0.256753  1
  F  F15  1  0.048243  0.743247  0.495854  1
  F  F16  1  0.548243  0.495854  0.743247  1
  F  F17  1  0.951757  0.256753  0.504146  1
  F  F18  1  0.563086  0.653560  0.009511  1
  F  F19  1  0.936914  0.990489  0.346440  1
  Na  Na20  1  0.247395  0.555826  0.097768  1
  Na  Na21  1  0.252605  0.902232  0.444174  1
  Na  Na22  1  0.752605  0.444174  0.902232  1
  Na  Na23  1  0.747395  0.097768  0.555826  1
  Na  Na24  1  0.750000  0.656905  0.343095  1
  Na  Na25  1  0.250000  0.343095  0.656905  1
  Na  Na26  1  0.250000  0.547243  0.452757  1
  Na  Na27  1  0.750000  0.452757  0.547243  1
  Sn  Sn28  1  0.337007  0.663874  0.826747  1
  Sn  Sn29  1  0.162993  0.173253  0.336126  1
  Sn  Sn30  1  0.662993  0.336126  0.173253  1
  Sn  Sn31  1  0.837007  0.826747  0.663874  1
  Sn  Sn32  1  0.750000  0.842194  0.157806  1
  Sn  Sn33  1  0.250000  0.157806  0.842194  1
