# generated using pymatgen
data_Hg4As2Br3
_symmetry_space_group_name_H-M   'P 1'
_cell_length_a   13.02890005
_cell_length_b   13.02890005
_cell_length_c   13.02890005
_cell_angle_alpha   90.00000000
_cell_angle_beta   90.00000000
_cell_angle_gamma   90.00000000
_symmetry_Int_Tables_number   1
_chemical_formula_structural   Hg4As2Br3
_chemical_formula_sum   'Hg32 As16 Br24'
_cell_volume   2211.68492279
_cell_formula_units_Z   8
loop_
 _symmetry_equiv_pos_site_id
 _symmetry_equiv_pos_as_xyz
  1  'x, y, z'
loop_
 _atom_site_type_symbol
 _atom_site_label
 _atom_site_symmetry_multiplicity
 _atom_site_fract_x
 _atom_site_fract_y
 _atom_site_fract_z
 _atom_site_occupancy
  As  As0  1  0.445843  0.445843  0.445843  1
  As  As1  1  0.054157  0.554157  0.945843  1
  As  As2  1  0.945843  0.054157  0.554157  1
  As  As3  1  0.554157  0.945843  0.054157  1
  As  As4  1  0.554157  0.554157  0.554157  1
  As  As5  1  0.945843  0.445843  0.054157  1
  As  As6  1  0.054157  0.945843  0.445843  1
  As  As7  1  0.445843  0.054157  0.945843  1
  As  As8  1  0.108834  0.108834  0.108834  1
  As  As9  1  0.391166  0.891166  0.608834  1
  As  As10  1  0.608834  0.391166  0.891166  1
  As  As11  1  0.891166  0.608834  0.391166  1
  As  As12  1  0.891166  0.891166  0.891166  1
  As  As13  1  0.608834  0.108834  0.391166  1
  As  As14  1  0.391166  0.608834  0.108834  1
  As  As15  1  0.108834  0.391166  0.608834  1
  Br  Br16  1  0.185931  0.433288  0.266212  1
  Br  Br17  1  0.266212  0.185931  0.433288  1
  Br  Br18  1  0.433288  0.266212  0.185931  1
  Br  Br19  1  0.066712  0.733788  0.685931  1
  Br  Br20  1  0.766212  0.314069  0.566712  1
  Br  Br21  1  0.566712  0.766212  0.314069  1
  Br  Br22  1  0.233788  0.814069  0.933288  1
  Br  Br23  1  0.733788  0.685931  0.066712  1
  Br  Br24  1  0.933288  0.233788  0.814069  1
  Br  Br25  1  0.685931  0.066712  0.733788  1
  Br  Br26  1  0.814069  0.933288  0.233788  1
  Br  Br27  1  0.314069  0.566712  0.766212  1
  Br  Br28  1  0.814069  0.566712  0.733788  1
  Br  Br29  1  0.733788  0.814069  0.566712  1
  Br  Br30  1  0.566712  0.733788  0.814069  1
  Br  Br31  1  0.933288  0.266212  0.314069  1
  Br  Br32  1  0.233788  0.685931  0.433288  1
  Br  Br33  1  0.433288  0.233788  0.685931  1
  Br  Br34  1  0.766212  0.185931  0.066712  1
  Br  Br35  1  0.266212  0.314069  0.933288  1
  Br  Br36  1  0.066712  0.766212  0.185931  1
  Br  Br37  1  0.314069  0.933288  0.266212  1
  Br  Br38  1  0.185931  0.066712  0.766212  1
  Br  Br39  1  0.685931  0.433288  0.233788  1
  Hg  Hg40  1  0.032640  0.998767  0.254733  1
  Hg  Hg41  1  0.254733  0.032640  0.998767  1
  Hg  Hg42  1  0.998767  0.254733  0.032640  1
  Hg  Hg43  1  0.501233  0.745267  0.532640  1
  Hg  Hg44  1  0.754733  0.467360  0.001233  1
  Hg  Hg45  1  0.001233  0.754733  0.467360  1
  Hg  Hg46  1  0.245267  0.967360  0.498767  1
  Hg  Hg47  1  0.745267  0.532640  0.501233  1
  Hg  Hg48  1  0.498767  0.245267  0.967360  1
  Hg  Hg49  1  0.532640  0.501233  0.745267  1
  Hg  Hg50  1  0.967360  0.498767  0.245267  1
  Hg  Hg51  1  0.467360  0.001233  0.754733  1
  Hg  Hg52  1  0.967360  0.001233  0.745267  1
  Hg  Hg53  1  0.745267  0.967360  0.001233  1
  Hg  Hg54  1  0.001233  0.745267  0.967360  1
  Hg  Hg55  1  0.498767  0.254733  0.467360  1
  Hg  Hg56  1  0.245267  0.532640  0.998767  1
  Hg  Hg57  1  0.998767  0.245267  0.532640  1
  Hg  Hg58  1  0.754733  0.032640  0.501233  1
  Hg  Hg59  1  0.254733  0.467360  0.498767  1
  Hg  Hg60  1  0.501233  0.754733  0.032640  1
  Hg  Hg61  1  0.467360  0.498767  0.254733  1
  Hg  Hg62  1  0.032640  0.501233  0.754733  1
  Hg  Hg63  1  0.532640  0.998767  0.245267  1
  Hg  Hg64  1  0.222858  0.222858  0.222858  1
  Hg  Hg65  1  0.277142  0.777142  0.722858  1
  Hg  Hg66  1  0.722858  0.277142  0.777142  1
  Hg  Hg67  1  0.777142  0.722858  0.277142  1
  Hg  Hg68  1  0.777142  0.777142  0.777142  1
  Hg  Hg69  1  0.722858  0.222858  0.277142  1
  Hg  Hg70  1  0.277142  0.722858  0.222858  1
  Hg  Hg71  1  0.222858  0.277142  0.722858  1
