# generated using pymatgen
data_YSi3Ni5
_symmetry_space_group_name_H-M   'P 1'
_cell_length_a   3.79008096
_cell_length_b   6.63337565
_cell_length_c   18.70639300
_cell_angle_alpha   90.00000000
_cell_angle_beta   90.00000000
_cell_angle_gamma   90.00000000
_symmetry_Int_Tables_number   1
_chemical_formula_structural   YSi3Ni5
_chemical_formula_sum   'Y4 Si12 Ni20'
_cell_volume   470.29800166
_cell_formula_units_Z   4
loop_
 _symmetry_equiv_pos_site_id
 _symmetry_equiv_pos_as_xyz
  1  'x, y, z'
loop_
 _atom_site_type_symbol
 _atom_site_label
 _atom_site_symmetry_multiplicity
 _atom_site_fract_x
 _atom_site_fract_y
 _atom_site_fract_z
 _atom_site_occupancy
  Si  Si0  1  0.250000  0.844138  0.925564  1
  Si  Si1  1  0.750000  0.155862  0.074436  1
  Si  Si2  1  0.750000  0.344138  0.574436  1
  Si  Si3  1  0.250000  0.655862  0.425564  1
  Si  Si4  1  0.750000  0.621627  0.762638  1
  Si  Si5  1  0.250000  0.378373  0.237362  1
  Si  Si6  1  0.250000  0.418197  0.914282  1
  Si  Si7  1  0.750000  0.581803  0.085718  1
  Si  Si8  1  0.750000  0.918197  0.585718  1
  Si  Si9  1  0.250000  0.081803  0.414282  1
  Si  Si10  1  0.250000  0.121627  0.737362  1
  Si  Si11  1  0.750000  0.878373  0.262638  1
  Ni  Ni12  1  0.250000  0.133335  0.994713  1
  Ni  Ni13  1  0.750000  0.384166  0.984989  1
  Ni  Ni14  1  0.750000  0.115834  0.484989  1
  Ni  Ni15  1  0.250000  0.615834  0.015011  1
  Ni  Ni16  1  0.250000  0.357027  0.115007  1
  Ni  Ni17  1  0.750000  0.642973  0.884993  1
  Ni  Ni18  1  0.750000  0.857027  0.384993  1
  Ni  Ni19  1  0.250000  0.142973  0.615007  1
  Ni  Ni20  1  0.250000  0.069239  0.293538  1
  Ni  Ni21  1  0.750000  0.930761  0.706462  1
  Ni  Ni22  1  0.750000  0.569239  0.206462  1
  Ni  Ni23  1  0.250000  0.430761  0.793538  1
  Ni  Ni24  1  0.750000  0.633335  0.505287  1
  Ni  Ni25  1  0.250000  0.366665  0.494713  1
  Ni  Ni26  1  0.250000  0.814417  0.800393  1
  Ni  Ni27  1  0.750000  0.185583  0.199607  1
  Ni  Ni28  1  0.750000  0.314417  0.699607  1
  Ni  Ni29  1  0.250000  0.685583  0.300393  1
  Ni  Ni30  1  0.250000  0.884166  0.515011  1
  Ni  Ni31  1  0.750000  0.866665  0.005287  1
  Y  Y32  1  0.250000  0.622850  0.643712  1
  Y  Y33  1  0.750000  0.377150  0.356288  1
  Y  Y34  1  0.750000  0.122850  0.856288  1
  Y  Y35  1  0.250000  0.877150  0.143712  1
