# generated using pymatgen
data_Na2CrCl4
_symmetry_space_group_name_H-M   'P 1'
_cell_length_a   4.01498522
_cell_length_b   7.00869092
_cell_length_c   11.62515809
_cell_angle_alpha   90.00000000
_cell_angle_beta   90.00000000
_cell_angle_gamma   93.74554943
_symmetry_Int_Tables_number   1
_chemical_formula_structural   Na2CrCl4
_chemical_formula_sum   'Na4 Cr2 Cl8'
_cell_volume   326.43076404
_cell_formula_units_Z   2
loop_
 _symmetry_equiv_pos_site_id
 _symmetry_equiv_pos_as_xyz
  1  'x, y, z'
loop_
 _atom_site_type_symbol
 _atom_site_label
 _atom_site_symmetry_multiplicity
 _atom_site_fract_x
 _atom_site_fract_y
 _atom_site_fract_z
 _atom_site_occupancy
  Cr  Cr0  1  0.000000  0.000000  0.000000  1
  Cr  Cr1  1  0.000000  0.500000  0.500000  1
  Na  Na2  1  0.484071  0.594345  0.820232  1
  Na  Na3  1  0.515929  0.905655  0.320232  1
  Na  Na4  1  0.515929  0.405655  0.179768  1
  Na  Na5  1  0.484071  0.094345  0.679768  1
  Cl  Cl6  1  0.993477  0.883836  0.806510  1
  Cl  Cl7  1  0.006523  0.616164  0.306510  1
  Cl  Cl8  1  0.006523  0.116164  0.193490  1
  Cl  Cl9  1  0.993477  0.383836  0.693490  1
  Cl  Cl10  1  0.564403  0.758984  0.046891  1
  Cl  Cl11  1  0.435597  0.741016  0.546891  1
  Cl  Cl12  1  0.435597  0.241016  0.953109  1
  Cl  Cl13  1  0.564403  0.258984  0.453109  1
