# generated using pymatgen
data_Mo3S4
_symmetry_space_group_name_H-M   'P 1'
_cell_length_a   6.48791920
_cell_length_b   6.48807365
_cell_length_c   6.48927995
_cell_angle_alpha   91.26942914
_cell_angle_beta   91.25859450
_cell_angle_gamma   91.24285265
_symmetry_Int_Tables_number   1
_chemical_formula_structural   Mo3S4
_chemical_formula_sum   'Mo6 S8'
_cell_volume   272.96024429
_cell_formula_units_Z   2
loop_
 _symmetry_equiv_pos_site_id
 _symmetry_equiv_pos_as_xyz
  1  'x, y, z'
loop_
 _atom_site_type_symbol
 _atom_site_label
 _atom_site_symmetry_multiplicity
 _atom_site_fract_x
 _atom_site_fract_y
 _atom_site_fract_z
 _atom_site_occupancy
  Mo  Mo0  1  0.550392  0.211315  0.405448  1
  Mo  Mo1  1  0.405379  0.550464  0.211248  1
  Mo  Mo2  1  0.594649  0.449576  0.788790  1
  Mo  Mo3  1  0.449536  0.788605  0.594527  1
  Mo  Mo4  1  0.788719  0.594584  0.449547  1
  Mo  Mo5  1  0.211305  0.405427  0.550479  1
  S  S6  1  0.388204  0.133243  0.733029  1
  S  S7  1  0.611836  0.866737  0.266947  1
  S  S8  1  0.267043  0.611806  0.866767  1
  S  S9  1  0.732984  0.388194  0.133279  1
  S  S10  1  0.221074  0.221171  0.221167  1
  S  S11  1  0.778902  0.778867  0.778834  1
  S  S12  1  0.133195  0.732985  0.388160  1
  S  S13  1  0.866781  0.267026  0.611777  1
