# generated using pymatgen
data_P4(S2O)3
_symmetry_space_group_name_H-M   'P 1'
_cell_length_a   6.96540559
_cell_length_b   7.72427132
_cell_length_c   13.00308733
_cell_angle_alpha   90.00000000
_cell_angle_beta   90.00000000
_cell_angle_gamma   104.54606853
_symmetry_Int_Tables_number   1
_chemical_formula_structural   P4(S2O)3
_chemical_formula_sum   'P8 S12 O6'
_cell_volume   677.17597806
_cell_formula_units_Z   2
loop_
 _symmetry_equiv_pos_site_id
 _symmetry_equiv_pos_as_xyz
  1  'x, y, z'
loop_
 _atom_site_type_symbol
 _atom_site_label
 _atom_site_symmetry_multiplicity
 _atom_site_fract_x
 _atom_site_fract_y
 _atom_site_fract_z
 _atom_site_occupancy
  O  O0  1  0.704607  0.967704  0.652590  1
  O  O1  1  0.198959  0.739211  0.250000  1
  O  O2  1  0.704607  0.967704  0.847410  1
  O  O3  1  0.295393  0.032296  0.347410  1
  O  O4  1  0.295393  0.032296  0.152590  1
  O  O5  1  0.801041  0.260789  0.750000  1
  P  P6  1  0.820884  0.178173  0.864508  1
  P  P7  1  0.806785  0.957065  0.250000  1
  P  P8  1  0.179116  0.821827  0.364508  1
  P  P9  1  0.179116  0.821827  0.135492  1
  P  P10  1  0.820884  0.178173  0.635492  1
  P  P11  1  0.292910  0.166091  0.250000  1
  P  P12  1  0.193215  0.042935  0.750000  1
  P  P13  1  0.707090  0.833909  0.750000  1
  S  S14  1  0.718464  0.292079  0.972738  1
  S  S15  1  0.281536  0.707921  0.472738  1
  S  S16  1  0.281536  0.707921  0.027262  1
  S  S17  1  0.718464  0.292079  0.527262  1
  S  S18  1  0.496017  0.624422  0.750000  1
  S  S19  1  0.503983  0.375578  0.250000  1
  S  S20  1  0.119705  0.181559  0.881164  1
  S  S21  1  0.119705  0.181559  0.618836  1
  S  S22  1  0.880295  0.818441  0.118836  1
  S  S23  1  0.012039  0.215031  0.250000  1
  S  S24  1  0.987961  0.784969  0.750000  1
  S  S25  1  0.880295  0.818441  0.381164  1
