# generated using pymatgen
data_SrCuO3
_symmetry_space_group_name_H-M   'P 1'
_cell_length_a   3.85589336
_cell_length_b   8.55260598
_cell_length_c   10.81911821
_cell_angle_alpha   90.00000000
_cell_angle_beta   90.00000000
_cell_angle_gamma   90.01780206
_symmetry_Int_Tables_number   1
_chemical_formula_structural   SrCuO3
_chemical_formula_sum   'Sr6 Cu6 O18'
_cell_volume   356.79217754
_cell_formula_units_Z   6
loop_
 _symmetry_equiv_pos_site_id
 _symmetry_equiv_pos_as_xyz
  1  'x, y, z'
loop_
 _atom_site_type_symbol
 _atom_site_label
 _atom_site_symmetry_multiplicity
 _atom_site_fract_x
 _atom_site_fract_y
 _atom_site_fract_z
 _atom_site_occupancy
  O  O0  1  0.000019  0.990035  0.249984  1
  O  O1  1  0.000019  0.990035  0.750016  1
  O  O2  1  0.000428  0.293659  0.500000  1
  O  O3  1  0.999926  0.679122  0.500000  1
  O  O4  1  0.999583  0.686272  0.000000  1
  O  O5  1  0.000043  0.300701  0.000000  1
  O  O6  1  0.500339  0.155865  0.375216  1
  O  O7  1  0.500339  0.155865  0.624784  1
  O  O8  1  0.500294  0.486540  0.375684  1
  O  O9  1  0.500294  0.486540  0.624316  1
  O  O10  1  0.499823  0.817110  0.374548  1
  O  O11  1  0.499823  0.817110  0.625452  1
  O  O12  1  0.499659  0.824085  0.875190  1
  O  O13  1  0.499659  0.824085  0.124810  1
  O  O14  1  0.499680  0.493439  0.875707  1
  O  O15  1  0.499680  0.493439  0.124293  1
  O  O16  1  0.500162  0.162951  0.874535  1
  O  O17  1  0.500162  0.162951  0.125465  1
  Cu  Cu18  1  0.500031  0.990069  0.249978  1
  Cu  Cu19  1  0.500031  0.990069  0.750022  1
  Cu  Cu20  1  0.500455  0.321392  0.500000  1
  Cu  Cu21  1  0.499934  0.652908  0.500000  1
  Cu  Cu22  1  0.500034  0.327100  0.000000  1
  Cu  Cu23  1  0.499566  0.658581  0.000000  1
  Sr  Sr24  1  0.000446  0.293190  0.251364  1
  Sr  Sr25  1  0.000446  0.293190  0.748636  1
  Sr  Sr26  1  0.999564  0.686853  0.248741  1
  Sr  Sr27  1  0.999564  0.686853  0.751259  1
  Sr  Sr28  1  0.000103  0.986606  0.500000  1
  Sr  Sr29  1  -0.000107  -0.006612  0.000000  1
