# generated using pymatgen
data_TbMnSi
_symmetry_space_group_name_H-M   'P 1'
_cell_length_a   4.11627514
_cell_length_b   7.03489551
_cell_length_c   7.58032877
_cell_angle_alpha   90.00000000
_cell_angle_beta   90.00000000
_cell_angle_gamma   90.00000000
_symmetry_Int_Tables_number   1
_chemical_formula_structural   TbMnSi
_chemical_formula_sum   'Tb4 Mn4 Si4'
_cell_volume   219.50786687
_cell_formula_units_Z   4
loop_
 _symmetry_equiv_pos_site_id
 _symmetry_equiv_pos_as_xyz
  1  'x, y, z'
loop_
 _atom_site_type_symbol
 _atom_site_label
 _atom_site_symmetry_multiplicity
 _atom_site_fract_x
 _atom_site_fract_y
 _atom_site_fract_z
 _atom_site_occupancy
  Tb  Tb0  1  0.250000  0.507167  0.814403  1
  Tb  Tb1  1  0.750000  0.492833  0.185597  1
  Tb  Tb2  1  0.250000  0.007167  0.685597  1
  Tb  Tb3  1  0.750000  0.992833  0.314403  1
  Mn  Mn4  1  0.750000  0.863288  0.941514  1
  Mn  Mn5  1  0.250000  0.136712  0.058486  1
  Mn  Mn6  1  0.750000  0.363288  0.558486  1
  Mn  Mn7  1  0.250000  0.636712  0.441514  1
  Si  Si8  1  0.250000  0.789872  0.109982  1
  Si  Si9  1  0.750000  0.210128  0.890018  1
  Si  Si10  1  0.250000  0.289872  0.390018  1
  Si  Si11  1  0.750000  0.710128  0.609982  1
