# generated using pymatgen
data_RbH18RuN6(ClO2)4
_symmetry_space_group_name_H-M   'P 1'
_cell_length_a   10.17538826
_cell_length_b   10.17538826
_cell_length_c   10.17538825
_cell_angle_alpha   41.95369605
_cell_angle_beta   41.95369608
_cell_angle_gamma   41.95369605
_symmetry_Int_Tables_number   1
_chemical_formula_structural   RbH18RuN6(ClO2)4
_chemical_formula_sum   'Rb1 H18 Ru1 N6 Cl4 O8'
_cell_volume   425.88923469
_cell_formula_units_Z   1
loop_
 _symmetry_equiv_pos_site_id
 _symmetry_equiv_pos_as_xyz
  1  'x, y, z'
loop_
 _atom_site_type_symbol
 _atom_site_label
 _atom_site_symmetry_multiplicity
 _atom_site_fract_x
 _atom_site_fract_y
 _atom_site_fract_z
 _atom_site_occupancy
  H  H0  1  0.016624  0.647160  0.115323  1
  H  H1  1  0.352840  0.884677  0.983376  1
  H  H2  1  0.884677  0.983376  0.352840  1
  H  H3  1  0.983376  0.352840  0.884677  1
  H  H4  1  0.647160  0.115323  0.016624  1
  H  H5  1  0.115323  0.016624  0.647160  1
  H  H6  1  0.061102  0.738661  0.358876  1
  H  H7  1  0.170794  0.567864  0.193140  1
  H  H8  1  0.193140  0.170794  0.567864  1
  H  H9  1  0.567864  0.193140  0.170794  1
  H  H10  1  0.829206  0.432136  0.806860  1
  H  H11  1  0.358876  0.061102  0.738661  1
  H  H12  1  0.432136  0.806860  0.829206  1
  H  H13  1  0.261339  0.641124  0.938898  1
  H  H14  1  0.938898  0.261339  0.641124  1
  H  H15  1  0.641124  0.938898  0.261339  1
  H  H16  1  0.738661  0.358876  0.061102  1
  H  H17  1  0.806860  0.829206  0.432136  1
  N  N18  1  0.321189  0.930690  0.876025  1
  N  N19  1  0.123975  0.678811  0.069310  1
  N  N20  1  0.930690  0.876025  0.321189  1
  N  N21  1  0.876025  0.321189  0.930690  1
  N  N22  1  0.678811  0.069310  0.123975  1
  N  N23  1  0.069310  0.123975  0.678811  1
  O  O24  1  0.012668  0.663107  0.712486  1
  O  O25  1  0.663107  0.712486  0.012668  1
  O  O26  1  0.712486  0.012668  0.663107  1
  O  O27  1  0.987332  0.336893  0.287514  1
  O  O28  1  0.866461  0.866461  0.866461  1
  O  O29  1  0.287514  0.987332  0.336893  1
  O  O30  1  0.336893  0.287514  0.987332  1
  O  O31  1  0.133539  0.133539  0.133539  1
  Cl  Cl32  1  0.813934  0.813934  0.813934  1
  Cl  Cl33  1  0.186066  0.186066  0.186066  1
  Cl  Cl34  1  0.626849  0.626849  0.626849  1
  Cl  Cl35  1  0.373151  0.373151  0.373151  1
  Rb  Rb36  1  0.500000  0.500000  0.500000  1
  Ru  Ru37  1  0.000000  0.000000  0.000000  1
