# generated using pymatgen
data_ZrBr2
_symmetry_space_group_name_H-M   'P 1'
_cell_length_a   8.62231553
_cell_length_b   8.62231553
_cell_length_c   8.62231553
_cell_angle_alpha   106.83990393
_cell_angle_beta   106.83990399
_cell_angle_gamma   106.83990393
_symmetry_Int_Tables_number   1
_chemical_formula_structural   ZrBr2
_chemical_formula_sum   'Zr6 Br12'
_cell_volume   536.16213853
_cell_formula_units_Z   6
loop_
 _symmetry_equiv_pos_site_id
 _symmetry_equiv_pos_as_xyz
  1  'x, y, z'
loop_
 _atom_site_type_symbol
 _atom_site_label
 _atom_site_symmetry_multiplicity
 _atom_site_fract_x
 _atom_site_fract_y
 _atom_site_fract_z
 _atom_site_occupancy
  Br  Br0  1  0.631164  0.856793  0.554929  1
  Br  Br1  1  0.856793  0.554929  0.631164  1
  Br  Br2  1  0.554929  0.631164  0.856793  1
  Br  Br3  1  0.368836  0.143207  0.445071  1
  Br  Br4  1  0.143207  0.445071  0.368836  1
  Br  Br5  1  0.445071  0.368836  0.143207  1
  Br  Br6  1  0.310775  0.923154  0.776551  1
  Br  Br7  1  0.776551  0.310775  0.923154  1
  Br  Br8  1  0.923154  0.776551  0.310775  1
  Br  Br9  1  0.689225  0.076846  0.223449  1
  Br  Br10  1  0.223449  0.689225  0.076846  1
  Br  Br11  1  0.076846  0.223449  0.689225  1
  Zr  Zr12  1  0.968718  0.903435  0.714390  1
  Zr  Zr13  1  0.903435  0.714390  0.968718  1
  Zr  Zr14  1  0.714390  0.968718  0.903435  1
  Zr  Zr15  1  0.031282  0.096565  0.285610  1
  Zr  Zr16  1  0.096565  0.285610  0.031282  1
  Zr  Zr17  1  0.285610  0.031282  0.096565  1
