# generated using pymatgen
data_Na3H6Rh
_symmetry_space_group_name_H-M   'P 1'
_cell_length_a   5.23909855
_cell_length_b   9.37873097
_cell_length_c   9.60292620
_cell_angle_alpha   90.00000000
_cell_angle_beta   90.00000000
_cell_angle_gamma   90.00000000
_symmetry_Int_Tables_number   1
_chemical_formula_structural   Na3H6Rh
_chemical_formula_sum   'Na12 H24 Rh4'
_cell_volume   471.85030197
_cell_formula_units_Z   4
loop_
 _symmetry_equiv_pos_site_id
 _symmetry_equiv_pos_as_xyz
  1  'x, y, z'
loop_
 _atom_site_type_symbol
 _atom_site_label
 _atom_site_symmetry_multiplicity
 _atom_site_fract_x
 _atom_site_fract_y
 _atom_site_fract_z
 _atom_site_occupancy
  H  H0  1  0.250000  0.813217  0.748700  1
  H  H1  1  0.750000  0.186783  0.251300  1
  H  H2  1  0.250000  0.313217  0.751300  1
  H  H3  1  0.750000  0.686783  0.248700  1
  H  H4  1  0.250000  0.625999  0.454196  1
  H  H5  1  0.750000  0.374001  0.545804  1
  H  H6  1  0.250000  0.125999  0.045804  1
  H  H7  1  0.750000  0.874001  0.954196  1
  H  H8  1  0.530561  0.389668  0.337423  1
  H  H9  1  0.030561  0.610332  0.662577  1
  H  H10  1  0.969439  0.889668  0.162577  1
  H  H11  1  0.469439  0.110332  0.837423  1
  H  H12  1  0.469439  0.610332  0.662577  1
  H  H13  1  0.969439  0.389668  0.337423  1
  H  H14  1  0.030561  0.110332  0.837423  1
  H  H15  1  0.530561  0.889668  0.162577  1
  H  H16  1  0.521484  0.669854  0.034999  1
  H  H17  1  0.021484  0.330146  0.965001  1
  H  H18  1  0.978516  0.169854  0.465001  1
  H  H19  1  0.478516  0.830146  0.534999  1
  H  H20  1  0.478516  0.330146  0.965001  1
  H  H21  1  0.978516  0.669854  0.034999  1
  H  H22  1  0.021484  0.830146  0.534999  1
  H  H23  1  0.521484  0.169854  0.465001  1
  Na  Na24  1  0.250000  0.720790  0.249737  1
  Na  Na25  1  0.750000  0.279210  0.750263  1
  Na  Na26  1  0.250000  0.220790  0.250263  1
  Na  Na27  1  0.750000  0.779210  0.749737  1
  Na  Na28  1  0.250000  0.898108  0.966793  1
  Na  Na29  1  0.750000  0.101892  0.033207  1
  Na  Na30  1  0.250000  0.398108  0.533207  1
  Na  Na31  1  0.750000  0.601892  0.466793  1
  Na  Na32  1  0.250000  0.544566  0.872304  1
  Na  Na33  1  0.750000  0.455434  0.127696  1
  Na  Na34  1  0.250000  0.044566  0.627696  1
  Na  Na35  1  0.750000  0.955434  0.372304  1
  Rh  Rh36  1  0.250000  0.722239  0.599454  1
  Rh  Rh37  1  0.750000  0.277761  0.400546  1
  Rh  Rh38  1  0.250000  0.222239  0.900546  1
  Rh  Rh39  1  0.750000  0.777761  0.099454  1
