# generated using pymatgen
data_LuSeClO3
_symmetry_space_group_name_H-M   'P 1'
_cell_length_a   6.86068112
_cell_length_b   7.21734759
_cell_length_c   8.72004501
_cell_angle_alpha   90.00000000
_cell_angle_beta   90.00000000
_cell_angle_gamma   90.00000000
_symmetry_Int_Tables_number   1
_chemical_formula_structural   LuSeClO3
_chemical_formula_sum   'Lu4 Se4 Cl4 O12'
_cell_volume   431.78105414
_cell_formula_units_Z   4
loop_
 _symmetry_equiv_pos_site_id
 _symmetry_equiv_pos_as_xyz
  1  'x, y, z'
loop_
 _atom_site_type_symbol
 _atom_site_label
 _atom_site_symmetry_multiplicity
 _atom_site_fract_x
 _atom_site_fract_y
 _atom_site_fract_z
 _atom_site_occupancy
  Lu  Lu0  1  0.250000  0.100571  0.461003  1
  Lu  Lu1  1  0.750000  0.899429  0.538997  1
  Lu  Lu2  1  0.750000  0.399429  0.961003  1
  Lu  Lu3  1  0.250000  0.600571  0.038997  1
  Se  Se4  1  0.250000  0.208119  0.865406  1
  Se  Se5  1  0.250000  0.708119  0.634594  1
  Se  Se6  1  0.750000  0.791881  0.134594  1
  Se  Se7  1  0.750000  0.291881  0.365406  1
  Cl  Cl8  1  0.750000  0.563488  0.684250  1
  Cl  Cl9  1  0.250000  0.436512  0.315750  1
  Cl  Cl10  1  0.750000  0.063488  0.815750  1
  Cl  Cl11  1  0.250000  0.936512  0.184250  1
  O  O12  1  0.070436  0.861047  0.567612  1
  O  O13  1  0.429564  0.861047  0.567612  1
  O  O14  1  0.250000  0.751314  0.826155  1
  O  O15  1  0.929564  0.138953  0.432388  1
  O  O16  1  0.750000  0.748686  0.326155  1
  O  O17  1  0.570436  0.638953  0.067612  1
  O  O18  1  0.929564  0.638953  0.067612  1
  O  O19  1  0.570436  0.138953  0.432388  1
  O  O20  1  0.750000  0.248686  0.173845  1
  O  O21  1  0.429564  0.361047  0.932388  1
  O  O22  1  0.250000  0.251314  0.673845  1
  O  O23  1  0.070436  0.361047  0.932388  1
