# generated using pymatgen
data_TlAgI2
_symmetry_space_group_name_H-M   'P 1'
_cell_length_a   7.18605469
_cell_length_b   7.18605484
_cell_length_c   7.18605492
_cell_angle_alpha   107.33072229
_cell_angle_beta   107.33072265
_cell_angle_gamma   113.84265975
_symmetry_Int_Tables_number   1
_chemical_formula_structural   TlAgI2
_chemical_formula_sum   'Tl2 Ag2 I4'
_cell_volume   284.40311220
_cell_formula_units_Z   2
loop_
 _symmetry_equiv_pos_site_id
 _symmetry_equiv_pos_as_xyz
  1  'x, y, z'
loop_
 _atom_site_type_symbol
 _atom_site_label
 _atom_site_symmetry_multiplicity
 _atom_site_fract_x
 _atom_site_fract_y
 _atom_site_fract_z
 _atom_site_occupancy
  Tl  Tl0  1  0.250000  0.250000  0.000000  1
  Tl  Tl1  1  0.750000  0.750000  0.000000  1
  Ag  Ag2  1  0.250000  0.750000  0.500000  1
  Ag  Ag3  1  0.750000  0.250000  0.500000  1
  I  I4  1  0.677619  0.177619  0.855238  1
  I  I5  1  0.177619  0.322381  0.500000  1
  I  I6  1  0.822381  0.677619  0.500000  1
  I  I7  1  0.322381  0.822381  0.144762  1
