# generated using pymatgen
data_Sm(Sn3Ru2)2
_symmetry_space_group_name_H-M   'P 1'
_cell_length_a   6.94427921
_cell_length_b   6.94427921
_cell_length_c   6.96769450
_cell_angle_alpha   119.88889594
_cell_angle_beta   119.88889596
_cell_angle_gamma   90.00000001
_symmetry_Int_Tables_number   1
_chemical_formula_structural   Sm(Sn3Ru2)2
_chemical_formula_sum   'Sm1 Sn6 Ru4'
_cell_volume   238.38592063
_cell_formula_units_Z   1
loop_
 _symmetry_equiv_pos_site_id
 _symmetry_equiv_pos_as_xyz
  1  'x, y, z'
loop_
 _atom_site_type_symbol
 _atom_site_label
 _atom_site_symmetry_multiplicity
 _atom_site_fract_x
 _atom_site_fract_y
 _atom_site_fract_z
 _atom_site_occupancy
  Ru  Ru0  1  0.405032  0.405032  0.155492  1
  Ru  Ru1  1  0.750461  0.750461  0.155492  1
  Ru  Ru2  1  0.594968  0.249539  0.844508  1
  Ru  Ru3  1  0.249539  0.594968  0.844508  1
  Sn  Sn4  1  0.500000  0.000000  0.000000  1
  Sn  Sn5  1  0.470703  0.470703  0.588579  1
  Sn  Sn6  1  0.882125  0.529297  0.411421  1
  Sn  Sn7  1  0.529297  0.882125  0.411421  1
  Sn  Sn8  1  0.117875  0.117875  0.588579  1
  Sn  Sn9  1  0.000000  0.500000  0.000000  1
  Sm  Sm10  1  0.000000  0.000000  0.000000  1
