# generated using pymatgen
data_H8CN6
_symmetry_space_group_name_H-M   'P 1'
_cell_length_a   6.45440063
_cell_length_b   7.54237929
_cell_length_c   10.45781641
_cell_angle_alpha   90.00000000
_cell_angle_beta   90.00000000
_cell_angle_gamma   110.09469254
_symmetry_Int_Tables_number   1
_chemical_formula_structural   H8CN6
_chemical_formula_sum   'H32 C4 N24'
_cell_volume   478.11151416
_cell_formula_units_Z   4
loop_
 _symmetry_equiv_pos_site_id
 _symmetry_equiv_pos_as_xyz
  1  'x, y, z'
loop_
 _atom_site_type_symbol
 _atom_site_label
 _atom_site_symmetry_multiplicity
 _atom_site_fract_x
 _atom_site_fract_y
 _atom_site_fract_z
 _atom_site_occupancy
  C  C0  1  0.194622  0.235397  0.037752  1
  C  C1  1  0.305378  0.764603  0.537752  1
  C  C2  1  0.805378  0.764603  0.962248  1
  C  C3  1  0.694622  0.235397  0.462249  1
  N  N4  1  0.059000  0.215812  0.134143  1
  N  N5  1  0.441000  0.784188  0.634143  1
  N  N6  1  0.941000  0.784188  0.865857  1
  N  N7  1  0.559000  0.215812  0.365857  1
  N  N8  1  0.895422  0.303286  0.112229  1
  N  N9  1  0.604578  0.696714  0.612229  1
  N  N10  1  0.104578  0.696714  0.887771  1
  N  N11  1  0.395422  0.303286  0.387771  1
  N  N12  1  0.180491  0.327883  0.925775  1
  N  N13  1  0.319509  0.672117  0.425775  1
  N  N14  1  0.819509  0.672117  0.074225  1
  N  N15  1  0.680491  0.327883  0.574225  1
  N  N16  1  0.352629  0.358321  0.834994  1
  N  N17  1  0.147371  0.641679  0.334994  1
  N  N18  1  0.647371  0.641679  0.165006  1
  N  N19  1  0.852629  0.358321  0.665006  1
  N  N20  1  0.359423  0.157256  0.043459  1
  N  N21  1  0.140577  0.842744  0.543459  1
  N  N22  1  0.640577  0.842744  0.956541  1
  N  N23  1  0.859423  0.157256  0.456541  1
  N  N24  1  0.331975  0.999907  0.125052  1
  N  N25  1  0.168025  0.000093  0.625052  1
  N  N26  1  0.668025  0.000093  0.874948  1
  N  N27  1  0.831975  0.999907  0.374948  1
  H  H28  1  0.793622  0.270188  0.190848  1
  H  H29  1  0.706378  0.729812  0.690848  1
  H  H30  1  0.206378  0.729812  0.809152  1
  H  H31  1  0.293622  0.270188  0.309152  1
  H  H32  1  0.795948  0.235003  0.037260  1
  H  H33  1  0.704052  0.764997  0.537260  1
  H  H34  1  0.204052  0.764997  0.962740  1
  H  H35  1  0.295948  0.235003  0.462740  1
  H  H36  1  0.115544  0.435532  0.933292  1
  H  H37  1  0.384456  0.564468  0.433292  1
  H  H38  1  0.884455  0.564468  0.066708  1
  H  H39  1  0.615545  0.435532  0.566708  1
  H  H40  1  0.283349  0.344548  0.746000  1
  H  H41  1  0.216651  0.655452  0.246000  1
  H  H42  1  0.716651  0.655452  0.254000  1
  H  H43  1  0.783349  0.344548  0.754000  1
  H  H44  1  0.460533  0.494254  0.842550  1
  H  H45  1  0.039467  0.505746  0.342550  1
  H  H46  1  0.539467  0.505746  0.157450  1
  H  H47  1  0.960533  0.494254  0.657450  1
  H  H48  1  0.425132  0.144067  0.956307  1
  H  H49  1  0.074868  0.855933  0.456307  1
  H  H50  1  0.574868  0.855933  0.043693  1
  H  H51  1  0.925132  0.144067  0.543693  1
  H  H52  1  0.409283  0.049637  0.210865  1
  H  H53  1  0.090717  0.950363  0.710865  1
  H  H54  1  0.590717  0.950363  0.789135  1
  H  H55  1  0.909283  0.049637  0.289135  1
  H  H56  1  0.166407  0.936718  0.144102  1
  H  H57  1  0.333593  0.063282  0.644102  1
  H  H58  1  0.833593  0.063282  0.855898  1
  H  H59  1  0.666407  0.936718  0.355898  1
