# generated using pymatgen
data_Li5Sb2P5O18
_symmetry_space_group_name_H-M   'P 1'
_cell_length_a   9.50811891
_cell_length_b   11.12789486
_cell_length_c   6.84592333
_cell_angle_alpha   89.93068222
_cell_angle_beta   91.30722346
_cell_angle_gamma   98.16353809
_symmetry_Int_Tables_number   1
_chemical_formula_structural   Li5Sb2P5O18
_chemical_formula_sum   'Li10 Sb4 P10 O36'
_cell_volume   716.80734784
_cell_formula_units_Z   2
loop_
 _symmetry_equiv_pos_site_id
 _symmetry_equiv_pos_as_xyz
  1  'x, y, z'
loop_
 _atom_site_type_symbol
 _atom_site_label
 _atom_site_symmetry_multiplicity
 _atom_site_fract_x
 _atom_site_fract_y
 _atom_site_fract_z
 _atom_site_occupancy
  Li  Li0  1  0.032572  0.868218  0.019217  1
  Li  Li1  1  0.114142  0.351676  0.817707  1
  Li  Li2  1  0.225964  0.665556  0.139518  1
  Li  Li3  1  0.275978  0.599897  0.583957  1
  Li  Li4  1  0.377288  0.855874  0.329189  1
  Li  Li5  1  0.622712  0.144126  0.670811  1
  Li  Li6  1  0.724022  0.400103  0.416043  1
  Li  Li7  1  0.774036  0.334444  0.860482  1
  Li  Li8  1  0.885858  0.648324  0.182293  1
  Li  Li9  1  0.967428  0.131782  0.980783  1
  O  O10  1  0.024338  0.685034  0.955749  1
  O  O11  1  0.091779  0.888042  0.630053  1
  O  O12  1  0.026732  0.324220  0.418328  1
  O  O13  1  0.016809  0.187435  0.702812  1
  O  O14  1  0.104243  0.520257  0.742597  1
  O  O15  1  0.209530  0.737343  0.420311  1
  O  O16  1  0.163062  0.473568  0.206931  1
  O  O17  1  0.154161  0.043704  0.033151  1
  O  O18  1  0.331578  0.829077  0.036628  1
  O  O19  1  0.242438  0.222278  0.260109  1
  O  O20  1  0.391491  0.935055  0.704620  1
  O  O21  1  0.313651  0.333513  0.856470  1
  O  O22  1  0.283957  0.011854  0.357128  1
  O  O23  1  0.419530  0.712388  0.752967  1
  O  O24  1  0.363907  0.411696  0.522251  1
  O  O25  1  0.425641  0.608606  0.249504  1
  O  O26  1  0.433281  0.201124  0.623527  1
  O  O27  1  0.416461  0.115513  0.069516  1
  O  O28  1  0.583539  0.884487  0.930484  1
  O  O29  1  0.566719  0.798876  0.376473  1
  O  O30  1  0.574359  0.391394  0.750496  1
  O  O31  1  0.636093  0.588304  0.477749  1
  O  O32  1  0.580470  0.287612  0.247033  1
  O  O33  1  0.716043  0.988146  0.642872  1
  O  O34  1  0.686349  0.666487  0.143530  1
  O  O35  1  0.608509  0.064945  0.295380  1
  O  O36  1  0.757562  0.777722  0.739891  1
  O  O37  1  0.668422  0.170923  0.963372  1
  O  O38  1  0.845839  0.956296  0.966849  1
  O  O39  1  0.836938  0.526432  0.793069  1
  O  O40  1  0.790470  0.262657  0.579689  1
  O  O41  1  0.895757  0.479743  0.257403  1
  O  O42  1  0.983191  0.812565  0.297188  1
  O  O43  1  0.973268  0.675780  0.581672  1
  O  O44  1  0.908221  0.111958  0.369947  1
  O  O45  1  0.975662  0.314966  0.044251  1
  P  P46  1  0.072045  0.784914  0.475272  1
  P  P47  1  0.008958  0.399785  0.219906  1
  P  P48  1  0.267197  0.098520  0.180812  1
  P  P49  1  0.419539  0.834283  0.855070  1
  P  P50  1  0.420749  0.332590  0.692665  1
  P  P51  1  0.579251  0.667410  0.307335  1
  P  P52  1  0.580461  0.165717  0.144930  1
  P  P53  1  0.732803  0.901480  0.819188  1
  P  P54  1  0.991042  0.600215  0.780094  1
  P  P55  1  0.927955  0.215086  0.524728  1
  Sb  Sb56  1  0.243039  0.051777  0.655237  1
  Sb  Sb57  1  0.363799  0.399837  0.216656  1
  Sb  Sb58  1  0.636201  0.600163  0.783344  1
  Sb  Sb59  1  0.756961  0.948223  0.344763  1
