# generated using pymatgen
data_NbCl5
_symmetry_space_group_name_H-M   'P 1'
_cell_length_a   6.41346561
_cell_length_b   13.67769948
_cell_length_c   13.67769948
_cell_angle_alpha   85.94665698
_cell_angle_beta   89.41127811
_cell_angle_gamma   89.41127810
_symmetry_Int_Tables_number   1
_chemical_formula_structural   NbCl5
_chemical_formula_sum   'Nb6 Cl30'
_cell_volume   1196.70852349
_cell_formula_units_Z   6
loop_
 _symmetry_equiv_pos_site_id
 _symmetry_equiv_pos_as_xyz
  1  'x, y, z'
loop_
 _atom_site_type_symbol
 _atom_site_label
 _atom_site_symmetry_multiplicity
 _atom_site_fract_x
 _atom_site_fract_y
 _atom_site_fract_z
 _atom_site_occupancy
  Cl  Cl0  1  0.257568  0.330669  0.523522  1
  Cl  Cl1  1  0.742432  0.476478  0.669331  1
  Cl  Cl2  1  0.742432  0.669331  0.476478  1
  Cl  Cl3  1  0.257568  0.523522  0.330669  1
  Cl  Cl4  1  0.699323  0.201675  0.570294  1
  Cl  Cl5  1  0.300677  0.429706  0.798325  1
  Cl  Cl6  1  0.772513  0.237462  0.868484  1
  Cl  Cl7  1  0.227487  0.131516  0.762538  1
  Cl  Cl8  1  0.227487  0.762538  0.131516  1
  Cl  Cl9  1  0.772513  0.868484  0.237462  1
  Cl  Cl10  1  0.210156  0.189763  0.997321  1
  Cl  Cl11  1  0.789844  0.002679  0.810237  1
  Cl  Cl12  1  0.789844  0.810237  0.002679  1
  Cl  Cl13  1  0.210156  0.997321  0.189763  1
  Cl  Cl14  1  0.794715  0.047910  0.047910  1
  Cl  Cl15  1  0.205285  0.952090  0.952090  1
  Cl  Cl16  1  0.273569  0.285786  0.285786  1
  Cl  Cl17  1  0.726431  0.714214  0.714214  1
  Cl  Cl18  1  0.251327  0.465016  0.096226  1
  Cl  Cl19  1  0.748672  0.903774  0.534984  1
  Cl  Cl20  1  0.748672  0.534984  0.903774  1
  Cl  Cl21  1  0.251327  0.096226  0.465016  1
  Cl  Cl22  1  0.692282  0.335654  0.143218  1
  Cl  Cl23  1  0.307718  0.856782  0.664346  1
  Cl  Cl24  1  0.307718  0.664346  0.856782  1
  Cl  Cl25  1  0.692282  0.143218  0.335654  1
  Cl  Cl26  1  0.676479  0.380956  0.380956  1
  Cl  Cl27  1  0.323521  0.619044  0.619044  1
  Cl  Cl28  1  0.699323  0.570294  0.201675  1
  Cl  Cl29  1  0.300677  0.798325  0.429706  1
  Nb  Nb30  1  0.475202  0.225113  0.441497  1
  Nb  Nb31  1  0.524798  0.558503  0.774887  1
  Nb  Nb32  1  0.524798  0.774887  0.558503  1
  Nb  Nb33  1  0.475202  0.441497  0.225113  1
  Nb  Nb34  1  0.000000  0.891845  0.108155  1
  Nb  Nb35  1  0.000000  0.108155  0.891845  1
