# generated using pymatgen
data_CaIn2O4
_symmetry_space_group_name_H-M   'P 1'
_cell_length_a   6.62461303
_cell_length_b   6.62461303
_cell_length_c   6.64698100
_cell_angle_alpha   119.88874457
_cell_angle_beta   119.88874455
_cell_angle_gamma   90.00000005
_symmetry_Int_Tables_number   1
_chemical_formula_structural   CaIn2O4
_chemical_formula_sum   'Ca2 In4 O8'
_cell_volume   206.95912957
_cell_formula_units_Z   2
loop_
 _symmetry_equiv_pos_site_id
 _symmetry_equiv_pos_as_xyz
  1  'x, y, z'
loop_
 _atom_site_type_symbol
 _atom_site_label
 _atom_site_symmetry_multiplicity
 _atom_site_fract_x
 _atom_site_fract_y
 _atom_site_fract_z
 _atom_site_occupancy
  O  O0  1  0.764329  0.790515  0.528657  1
  O  O1  1  0.761858  0.235671  0.971343  1
  O  O2  1  0.209485  0.235671  0.971343  1
  O  O3  1  0.235671  0.209485  0.471343  1
  O  O4  1  0.235671  0.761858  0.471343  1
  O  O5  1  0.238142  0.764329  0.028657  1
  O  O6  1  0.764329  0.238142  0.528657  1
  O  O7  1  0.790515  0.764329  0.028657  1
  Ca  Ca8  1  0.375000  0.625000  0.750000  1
  Ca  Ca9  1  0.625000  0.375000  0.250000  1
  In  In10  1  0.500000  0.000000  0.500000  1
  In  In11  1  0.000000  0.000000  0.000000  1
  In  In12  1  0.000000  0.000000  0.500000  1
  In  In13  1  0.000000  0.500000  0.000000  1
