# generated using pymatgen
data_Al10Si2O19
_symmetry_space_group_name_H-M   'P 1'
_cell_length_a   5.91942818
_cell_length_b   7.68831279
_cell_length_c   15.43225665
_cell_angle_alpha   90.00000000
_cell_angle_beta   101.05711968
_cell_angle_gamma   90.00000000
_symmetry_Int_Tables_number   1
_chemical_formula_structural   Al10Si2O19
_chemical_formula_sum   'Al20 Si4 O38'
_cell_volume   689.29071786
_cell_formula_units_Z   2
loop_
 _symmetry_equiv_pos_site_id
 _symmetry_equiv_pos_as_xyz
  1  'x, y, z'
loop_
 _atom_site_type_symbol
 _atom_site_label
 _atom_site_symmetry_multiplicity
 _atom_site_fract_x
 _atom_site_fract_y
 _atom_site_fract_z
 _atom_site_occupancy
  O  O0  1  0.923684  0.528947  0.847369  1
  O  O1  1  0.076316  0.028947  0.152631  1
  O  O2  1  0.196177  0.447067  0.392354  1
  O  O3  1  0.803823  0.947067  0.607646  1
  O  O4  1  0.420397  0.561435  0.840793  1
  O  O5  1  0.579603  0.061435  0.159207  1
  O  O6  1  0.784609  0.290090  0.063069  1
  O  O7  1  0.215391  0.790090  0.936931  1
  O  O8  1  0.278460  0.290090  0.063069  1
  O  O9  1  0.721540  0.790090  0.936931  1
  O  O10  1  0.514256  0.296554  0.541191  1
  O  O11  1  0.485744  0.796554  0.458809  1
  O  O12  1  0.026935  0.296554  0.541191  1
  O  O13  1  0.973065  0.796554  0.458809  1
  O  O14  1  0.581456  0.693081  0.698221  1
  O  O15  1  0.418544  0.193081  0.301779  1
  O  O16  1  0.116764  0.693081  0.698221  1
  O  O17  1  0.883236  0.193081  0.301779  1
  O  O18  1  0.346665  0.719720  0.182877  1
  O  O19  1  0.653335  0.219720  0.817123  1
  O  O20  1  0.836212  0.719720  0.182877  1
  O  O21  1  0.163788  0.219720  0.817123  1
  O  O22  1  0.975322  0.080787  0.950645  1
  O  O23  1  0.024678  0.580787  0.049355  1
  O  O24  1  0.836048  0.361504  0.672096  1
  O  O25  1  0.163952  0.861504  0.327904  1
  O  O26  1  0.342923  0.404836  0.685845  1
  O  O27  1  0.657077  0.904836  0.314155  1
  O  O28  1  0.598804  0.409630  0.197609  1
  O  O29  1  0.401196  0.909630  0.802391  1
  O  O30  1  0.098132  0.434788  0.196265  1
  O  O31  1  0.901868  0.934788  0.803735  1
  O  O32  1  0.784007  0.618359  0.568013  1
  O  O33  1  0.215993  0.118359  0.431987  1
  O  O34  1  0.271405  0.553197  0.542810  1
  O  O35  1  0.728595  0.053197  0.457190  1
  O  O36  1  0.525803  0.573305  0.051607  1
  O  O37  1  0.474197  0.073305  0.948393  1
  Al  Al38  1  0.183451  0.006819  0.881370  1
  Al  Al39  1  0.816549  0.506819  0.118630  1
  Al  Al40  1  0.697919  0.006819  0.881370  1
  Al  Al41  1  0.302081  0.506819  0.118630  1
  Al  Al42  1  0.029725  0.161330  0.059449  1
  Al  Al43  1  0.970275  0.661330  0.940551  1
  Al  Al44  1  0.524523  0.179772  0.049046  1
  Al  Al45  1  0.475477  0.679772  0.950954  1
  Al  Al46  1  0.780887  0.175671  0.561774  1
  Al  Al47  1  0.219113  0.675671  0.438226  1
  Al  Al48  1  0.855127  0.811238  0.710254  1
  Al  Al49  1  0.144873  0.311238  0.289746  1
  Al  Al50  1  0.601267  0.837131  0.202534  1
  Al  Al51  1  0.398733  0.337131  0.797466  1
  Al  Al52  1  0.101600  0.830239  0.203200  1
  Al  Al53  1  0.898400  0.330239  0.796800  1
  Al  Al54  1  0.557406  0.491610  0.622133  1
  Al  Al55  1  0.442594  0.991610  0.377867  1
  Al  Al56  1  0.064727  0.491610  0.622133  1
  Al  Al57  1  0.935273  0.991610  0.377867  1
  Si  Si58  1  0.619293  0.215898  0.238586  1
  Si  Si59  1  0.380707  0.715898  0.761414  1
  Si  Si60  1  0.757441  0.814120  0.514882  1
  Si  Si61  1  0.242559  0.314120  0.485118  1
