# generated using pymatgen
data_MgInBr3
_symmetry_space_group_name_H-M   'P 1'
_cell_length_a   4.01204677
_cell_length_b   9.55208603
_cell_length_c   15.59923250
_cell_angle_alpha   90.00000000
_cell_angle_beta   90.00000000
_cell_angle_gamma   90.00000000
_symmetry_Int_Tables_number   1
_chemical_formula_structural   MgInBr3
_chemical_formula_sum   'Mg4 In4 Br12'
_cell_volume   597.81587487
_cell_formula_units_Z   4
loop_
 _symmetry_equiv_pos_site_id
 _symmetry_equiv_pos_as_xyz
  1  'x, y, z'
loop_
 _atom_site_type_symbol
 _atom_site_label
 _atom_site_symmetry_multiplicity
 _atom_site_fract_x
 _atom_site_fract_y
 _atom_site_fract_z
 _atom_site_occupancy
  In  In0  1  0.750000  0.546794  0.323326  1
  In  In1  1  0.250000  0.453206  0.676674  1
  In  In2  1  0.750000  0.046794  0.176674  1
  In  In3  1  0.250000  0.953206  0.823326  1
  Mg  Mg4  1  0.750000  0.838259  0.554923  1
  Mg  Mg5  1  0.250000  0.161741  0.445077  1
  Mg  Mg6  1  0.750000  0.338259  0.945077  1
  Mg  Mg7  1  0.250000  0.661741  0.054923  1
  Br  Br8  1  0.750000  0.325800  0.502053  1
  Br  Br9  1  0.250000  0.674200  0.497947  1
  Br  Br10  1  0.750000  0.825800  0.997947  1
  Br  Br11  1  0.250000  0.174200  0.002053  1
  Br  Br12  1  0.750000  0.724462  0.708219  1
  Br  Br13  1  0.250000  0.275538  0.291781  1
  Br  Br14  1  0.750000  0.224462  0.791781  1
  Br  Br15  1  0.250000  0.775538  0.208219  1
  Br  Br16  1  0.750000  0.978273  0.400325  1
  Br  Br17  1  0.250000  0.021727  0.599675  1
  Br  Br18  1  0.750000  0.478273  0.099675  1
  Br  Br19  1  0.250000  0.521727  0.900325  1
