# generated using pymatgen
data_RbPb
_symmetry_space_group_name_H-M   'P 1'
_cell_length_a   12.14596317
_cell_length_b   12.14596318
_cell_length_c   13.14704843
_cell_angle_alpha   117.51154767
_cell_angle_beta   117.51154768
_cell_angle_gamma   90.00000000
_symmetry_Int_Tables_number   1
_chemical_formula_structural   RbPb
_chemical_formula_sum   'Rb16 Pb16'
_cell_volume   1468.46220868
_cell_formula_units_Z   16
loop_
 _symmetry_equiv_pos_site_id
 _symmetry_equiv_pos_as_xyz
  1  'x, y, z'
loop_
 _atom_site_type_symbol
 _atom_site_label
 _atom_site_symmetry_multiplicity
 _atom_site_fract_x
 _atom_site_fract_y
 _atom_site_fract_z
 _atom_site_occupancy
  Rb  Rb0  1  0.113900  0.250000  0.500000  1
  Rb  Rb1  1  0.750000  0.113900  0.000000  1
  Rb  Rb2  1  0.250000  0.386100  0.000000  1
  Rb  Rb3  1  0.386100  0.750000  0.500000  1
  Rb  Rb4  1  0.886100  0.750000  0.500000  1
  Rb  Rb5  1  0.250000  0.886100  0.000000  1
  Rb  Rb6  1  0.750000  0.613900  0.000000  1
  Rb  Rb7  1  0.613900  0.250000  0.500000  1
  Rb  Rb8  1  0.504213  0.754213  0.250000  1
  Rb  Rb9  1  0.995787  0.504213  0.750000  1
  Rb  Rb10  1  0.754213  0.745787  0.750000  1
  Rb  Rb11  1  0.745787  0.995787  0.250000  1
  Rb  Rb12  1  0.495787  0.245787  0.750000  1
  Rb  Rb13  1  0.004213  0.495787  0.250000  1
  Rb  Rb14  1  0.245787  0.254213  0.250000  1
  Rb  Rb15  1  0.254213  0.004213  0.750000  1
  Pb  Pb16  1  0.992642  0.067398  0.863607  1
  Pb  Pb17  1  0.296209  0.992642  0.363607  1
  Pb  Pb18  1  0.067398  0.870965  0.363607  1
  Pb  Pb19  1  0.629035  0.432602  0.136393  1
  Pb  Pb20  1  0.507358  0.203791  0.136393  1
  Pb  Pb21  1  0.203791  0.629035  0.636393  1
  Pb  Pb22  1  0.432602  0.507358  0.636393  1
  Pb  Pb23  1  0.870965  0.296209  0.863607  1
  Pb  Pb24  1  0.007358  0.932602  0.136393  1
  Pb  Pb25  1  0.703791  0.007358  0.636393  1
  Pb  Pb26  1  0.932602  0.129035  0.636393  1
  Pb  Pb27  1  0.370965  0.567398  0.863607  1
  Pb  Pb28  1  0.492642  0.796209  0.863607  1
  Pb  Pb29  1  0.796209  0.370965  0.363607  1
  Pb  Pb30  1  0.567398  0.492642  0.363607  1
  Pb  Pb31  1  0.129035  0.703791  0.136393  1
