# generated using pymatgen
data_MoPbO4
_symmetry_space_group_name_H-M   'P 1'
_cell_length_a   5.52971404
_cell_length_b   5.52899187
_cell_length_c   7.29264654
_cell_angle_alpha   112.24728085
_cell_angle_beta   112.28831610
_cell_angle_gamma   89.99002471
_symmetry_Int_Tables_number   1
_chemical_formula_structural   MoPbO4
_chemical_formula_sum   'Mo2 Pb2 O8'
_cell_volume   188.25101381
_cell_formula_units_Z   2
loop_
 _symmetry_equiv_pos_site_id
 _symmetry_equiv_pos_as_xyz
  1  'x, y, z'
loop_
 _atom_site_type_symbol
 _atom_site_label
 _atom_site_symmetry_multiplicity
 _atom_site_fract_x
 _atom_site_fract_y
 _atom_site_fract_z
 _atom_site_occupancy
  O  O0  1  0.930294  0.307580  0.588483  1
  O  O1  1  0.280850  0.430242  0.088530  1
  O  O2  1  0.807685  0.158368  0.088586  1
  O  O3  1  0.658284  0.780899  0.588488  1
  O  O4  1  0.341716  0.219101  0.411512  1
  O  O5  1  0.192315  0.841632  0.911414  1
  O  O6  1  0.719150  0.569758  0.911470  1
  O  O7  1  0.069706  0.692420  0.411517  1
  Mo  Mo8  1  0.125057  0.375026  0.250047  1
  Mo  Mo9  1  0.874943  0.624974  0.749953  1
  Pb  Pb10  1  0.625026  0.874995  0.250018  1
  Pb  Pb11  1  0.374974  0.125005  0.749982  1
