# generated using pymatgen
data_CuH4(ClO)2
_symmetry_space_group_name_H-M   'P 1'
_cell_length_a   3.90355174
_cell_length_b   7.42194908
_cell_length_c   8.14328985
_cell_angle_alpha   90.00000000
_cell_angle_beta   90.00000000
_cell_angle_gamma   90.00000000
_symmetry_Int_Tables_number   1
_chemical_formula_structural   CuH4(ClO)2
_chemical_formula_sum   'Cu2 H8 Cl4 O4'
_cell_volume   235.92708609
_cell_formula_units_Z   2
loop_
 _symmetry_equiv_pos_site_id
 _symmetry_equiv_pos_as_xyz
  1  'x, y, z'
loop_
 _atom_site_type_symbol
 _atom_site_label
 _atom_site_symmetry_multiplicity
 _atom_site_fract_x
 _atom_site_fract_y
 _atom_site_fract_z
 _atom_site_occupancy
  Cu  Cu0  1  0.500000  0.500000  0.000000  1
  Cu  Cu1  1  0.500000  0.000000  0.500000  1
  H  H2  1  0.370366  0.415040  0.691110  1
  H  H3  1  0.629634  0.915040  0.808890  1
  H  H4  1  0.370366  0.415040  0.308890  1
  H  H5  1  0.629634  0.584960  0.308890  1
  H  H6  1  0.370366  0.084960  0.191110  1
  H  H7  1  0.629634  0.584960  0.691110  1
  H  H8  1  0.629634  0.915040  0.191110  1
  H  H9  1  0.370366  0.084960  0.808890  1
  Cl  Cl10  1  0.150146  0.248037  0.500000  1
  Cl  Cl11  1  0.150146  0.251963  0.000000  1
  Cl  Cl12  1  0.849854  0.751963  0.500000  1
  Cl  Cl13  1  0.849854  0.748037  0.000000  1
  O  O14  1  0.500000  0.500000  0.238813  1
  O  O15  1  0.500000  0.000000  0.261187  1
  O  O16  1  0.500000  0.000000  0.738813  1
  O  O17  1  0.500000  0.500000  0.761187  1
