# generated using pymatgen
data_TcP4
_symmetry_space_group_name_H-M   'P 1'
_cell_length_a   6.27680713
_cell_length_b   9.27181399
_cell_length_c   10.91379271
_cell_angle_alpha   90.00000000
_cell_angle_beta   90.00000000
_cell_angle_gamma   90.00000000
_symmetry_Int_Tables_number   1
_chemical_formula_structural   TcP4
_chemical_formula_sum   'Tc8 P32'
_cell_volume   635.15423065
_cell_formula_units_Z   8
loop_
 _symmetry_equiv_pos_site_id
 _symmetry_equiv_pos_as_xyz
  1  'x, y, z'
loop_
 _atom_site_type_symbol
 _atom_site_label
 _atom_site_symmetry_multiplicity
 _atom_site_fract_x
 _atom_site_fract_y
 _atom_site_fract_z
 _atom_site_occupancy
  P  P0  1  0.999479  0.208304  0.431025  1
  P  P1  1  0.499479  0.291696  0.568975  1
  P  P2  1  0.000521  0.708304  0.068975  1
  P  P3  1  0.500521  0.791696  0.931025  1
  P  P4  1  0.000521  0.791696  0.568975  1
  P  P5  1  0.500521  0.708304  0.431025  1
  P  P6  1  0.999479  0.291696  0.931025  1
  P  P7  1  0.499479  0.208304  0.068975  1
  P  P8  1  0.059520  0.281460  0.235816  1
  P  P9  1  0.559520  0.218540  0.764184  1
  P  P10  1  0.940480  0.781460  0.264184  1
  P  P11  1  0.440480  0.718540  0.735816  1
  P  P12  1  0.940480  0.718540  0.764184  1
  P  P13  1  0.440480  0.781460  0.235816  1
  P  P14  1  0.059520  0.218540  0.735816  1
  P  P15  1  0.559520  0.281460  0.264184  1
  P  P16  1  0.190224  0.946684  0.238292  1
  P  P17  1  0.690224  0.553316  0.761708  1
  P  P18  1  0.809776  0.446684  0.261708  1
  P  P19  1  0.309776  0.053316  0.738292  1
  P  P20  1  0.809776  0.053316  0.761708  1
  P  P21  1  0.309776  0.446684  0.238292  1
  P  P22  1  0.190224  0.553316  0.738292  1
  P  P23  1  0.690224  0.946684  0.261708  1
  P  P24  1  0.756398  0.043575  0.081249  1
  P  P25  1  0.256398  0.456425  0.918751  1
  P  P26  1  0.243602  0.543575  0.418751  1
  P  P27  1  0.743602  0.956425  0.581249  1
  P  P28  1  0.243602  0.956425  0.918751  1
  P  P29  1  0.743602  0.543575  0.081249  1
  P  P30  1  0.756398  0.456425  0.581249  1
  P  P31  1  0.256398  0.043575  0.418751  1
  Tc  Tc32  1  0.621207  0.109262  0.424590  1
  Tc  Tc33  1  0.121207  0.390738  0.575410  1
  Tc  Tc34  1  0.378793  0.609262  0.075410  1
  Tc  Tc35  1  0.878793  0.890738  0.924590  1
  Tc  Tc36  1  0.378793  0.890738  0.575410  1
  Tc  Tc37  1  0.878793  0.609262  0.424590  1
  Tc  Tc38  1  0.621207  0.390738  0.924590  1
  Tc  Tc39  1  0.121207  0.109262  0.075410  1
