# generated using pymatgen
data_FePb2(CN)6
_symmetry_space_group_name_H-M   'P 1'
_cell_length_a   7.14527115
_cell_length_b   7.14527115
_cell_length_c   5.81097323
_cell_angle_alpha   90.00000000
_cell_angle_beta   90.00000000
_cell_angle_gamma   119.99999999
_symmetry_Int_Tables_number   1
_chemical_formula_structural   FePb2(CN)6
_chemical_formula_sum   'Fe1 Pb2 C6 N6'
_cell_volume   256.93125277
_cell_formula_units_Z   1
loop_
 _symmetry_equiv_pos_site_id
 _symmetry_equiv_pos_as_xyz
  1  'x, y, z'
loop_
 _atom_site_type_symbol
 _atom_site_label
 _atom_site_symmetry_multiplicity
 _atom_site_fract_x
 _atom_site_fract_y
 _atom_site_fract_z
 _atom_site_occupancy
  C  C0  1  0.236063  0.185136  0.815150  1
  C  C1  1  0.814864  0.050927  0.815150  1
  C  C2  1  0.949073  0.763937  0.815150  1
  C  C3  1  0.050927  0.236063  0.184850  1
  C  C4  1  0.763937  0.814864  0.184850  1
  C  C5  1  0.185136  0.949073  0.184850  1
  N  N6  1  0.692148  0.076648  0.701113  1
  N  N7  1  0.384500  0.307852  0.701113  1
  N  N8  1  0.923352  0.615500  0.701113  1
  N  N9  1  0.307852  0.923352  0.298887  1
  N  N10  1  0.076648  0.384500  0.298887  1
  N  N11  1  0.615500  0.692148  0.298887  1
  Fe  Fe12  1  0.000000  0.000000  0.000000  1
  Pb  Pb13  1  0.666667  0.333333  0.436603  1
  Pb  Pb14  1  0.333333  0.666667  0.563397  1
