# generated using pymatgen
data_CsGdHgSe3
_symmetry_space_group_name_H-M   'P 1'
_cell_length_a   4.34352385
_cell_length_b   8.45657472
_cell_length_c   11.25251367
_cell_angle_alpha   90.00000000
_cell_angle_beta   90.00000000
_cell_angle_gamma   104.88106580
_symmetry_Int_Tables_number   1
_chemical_formula_structural   CsGdHgSe3
_chemical_formula_sum   'Cs2 Gd2 Hg2 Se6'
_cell_volume   399.45750373
_cell_formula_units_Z   2
loop_
 _symmetry_equiv_pos_site_id
 _symmetry_equiv_pos_as_xyz
  1  'x, y, z'
loop_
 _atom_site_type_symbol
 _atom_site_label
 _atom_site_symmetry_multiplicity
 _atom_site_fract_x
 _atom_site_fract_y
 _atom_site_fract_z
 _atom_site_occupancy
  Se  Se0  1  0.939734  0.879468  0.250000  1
  Se  Se1  1  0.060266  0.120532  0.750000  1
  Se  Se2  1  0.380708  0.761417  0.542289  1
  Se  Se3  1  0.380708  0.761417  0.957711  1
  Se  Se4  1  0.619292  0.238583  0.042289  1
  Se  Se5  1  0.619292  0.238583  0.457711  1
  Cs  Cs6  1  0.256182  0.512365  0.250000  1
  Cs  Cs7  1  0.743818  0.487635  0.750000  1
  Gd  Gd8  1  0.000000  0.000000  0.500000  1
  Gd  Gd9  1  0.000000  0.000000  0.000000  1
  Hg  Hg10  1  0.454488  0.908976  0.750000  1
  Hg  Hg11  1  0.545512  0.091024  0.250000  1
