# generated using pymatgen
data_Sr2LuRuO6
_symmetry_space_group_name_H-M   'P 1'
_cell_length_a   5.78040210
_cell_length_b   5.79237662
_cell_length_c   8.17030188
_cell_angle_alpha   90.00000000
_cell_angle_beta   90.27877571
_cell_angle_gamma   90.00000000
_symmetry_Int_Tables_number   1
_chemical_formula_structural   Sr2LuRuO6
_chemical_formula_sum   'Sr4 Lu2 Ru2 O12'
_cell_volume   273.55698249
_cell_formula_units_Z   2
loop_
 _symmetry_equiv_pos_site_id
 _symmetry_equiv_pos_as_xyz
  1  'x, y, z'
loop_
 _atom_site_type_symbol
 _atom_site_label
 _atom_site_symmetry_multiplicity
 _atom_site_fract_x
 _atom_site_fract_y
 _atom_site_fract_z
 _atom_site_occupancy
  Sr  Sr0  1  0.005685  0.026631  0.248568  1
  Sr  Sr1  1  0.494315  0.526631  0.251432  1
  Sr  Sr2  1  0.505685  0.473369  0.748568  1
  Sr  Sr3  1  0.994315  0.973369  0.751432  1
  Lu  Lu4  1  0.500000  0.000000  0.000000  1
  Lu  Lu5  1  0.000000  0.500000  0.500000  1
  Ru  Ru6  1  0.000000  0.500000  0.000000  1
  Ru  Ru7  1  0.500000  0.000000  0.500000  1
  O  O8  1  0.935170  0.487618  0.237724  1
  O  O9  1  0.064830  0.512382  0.762276  1
  O  O10  1  0.793493  0.230146  0.965135  1
  O  O11  1  0.435170  0.012382  0.737724  1
  O  O12  1  0.206508  0.769854  0.034865  1
  O  O13  1  0.564830  0.987618  0.262276  1
  O  O14  1  0.706507  0.730146  0.534865  1
  O  O15  1  0.731972  0.708286  0.965917  1
  O  O16  1  0.231972  0.791714  0.465917  1
  O  O17  1  0.293492  0.269854  0.465135  1
  O  O18  1  0.768028  0.208286  0.534083  1
  O  O19  1  0.268028  0.291714  0.034083  1
