# generated using pymatgen
data_Ta2SnO7
_symmetry_space_group_name_H-M   'P 1'
_cell_length_a   4.95671365
_cell_length_b   5.21374027
_cell_length_c   8.72517961
_cell_angle_alpha   83.73798272
_cell_angle_beta   106.50186236
_cell_angle_gamma   89.99999999
_symmetry_Int_Tables_number   1
_chemical_formula_structural   Ta2SnO7
_chemical_formula_sum   'Ta4 Sn2 O14'
_cell_volume   214.79383185
_cell_formula_units_Z   2
loop_
 _symmetry_equiv_pos_site_id
 _symmetry_equiv_pos_as_xyz
  1  'x, y, z'
loop_
 _atom_site_type_symbol
 _atom_site_label
 _atom_site_symmetry_multiplicity
 _atom_site_fract_x
 _atom_site_fract_y
 _atom_site_fract_z
 _atom_site_occupancy
  O  O0  1  0.685850  0.162786  0.551989  1
  O  O1  1  0.133861  0.337214  0.448011  1
  O  O2  1  0.314150  0.837214  0.448011  1
  O  O3  1  0.866139  0.662786  0.551989  1
  O  O4  1  0.313334  0.010160  0.715315  1
  O  O5  1  0.598019  0.489840  0.284685  1
  O  O6  1  0.380735  0.250000  0.000000  1
  O  O7  1  0.619265  0.750000  0.000000  1
  O  O8  1  0.930710  0.524710  0.838024  1
  O  O9  1  0.092686  0.975290  0.161976  1
  O  O10  1  0.069290  0.475290  0.161976  1
  O  O11  1  0.907314  0.024710  0.838024  1
  O  O12  1  0.401981  0.510160  0.715315  1
  O  O13  1  0.686666  0.989840  0.284685  1
  Sn  Sn14  1  0.227177  0.750000  0.000000  1
  Sn  Sn15  1  0.772823  0.250000  0.000000  1
  Ta  Ta16  1  0.390797  0.196790  0.325753  1
  Ta  Ta17  1  0.065044  0.303210  0.674247  1
  Ta  Ta18  1  0.934956  0.696790  0.325753  1
  Ta  Ta19  1  0.609203  0.803210  0.674247  1
