# generated using pymatgen
data_Na2ZnBr4
_symmetry_space_group_name_H-M   'P 1'
_cell_length_a   6.86533533
_cell_length_b   8.70370694
_cell_length_c   14.77396885
_cell_angle_alpha   90.00000000
_cell_angle_beta   90.00000000
_cell_angle_gamma   90.00000000
_symmetry_Int_Tables_number   1
_chemical_formula_structural   Na2ZnBr4
_chemical_formula_sum   'Na8 Zn4 Br16'
_cell_volume   882.80176614
_cell_formula_units_Z   4
loop_
 _symmetry_equiv_pos_site_id
 _symmetry_equiv_pos_as_xyz
  1  'x, y, z'
loop_
 _atom_site_type_symbol
 _atom_site_label
 _atom_site_symmetry_multiplicity
 _atom_site_fract_x
 _atom_site_fract_y
 _atom_site_fract_z
 _atom_site_occupancy
  Na  Na0  1  0.000000  0.000000  0.000000  1
  Na  Na1  1  0.500000  0.000000  0.500000  1
  Na  Na2  1  0.000000  0.500000  0.000000  1
  Na  Na3  1  0.500000  0.500000  0.500000  1
  Na  Na4  1  0.008086  0.750000  0.730137  1
  Na  Na5  1  0.508086  0.250000  0.769863  1
  Na  Na6  1  0.991914  0.250000  0.269863  1
  Na  Na7  1  0.491914  0.750000  0.230137  1
  Zn  Zn8  1  0.594597  0.750000  0.908922  1
  Zn  Zn9  1  0.094597  0.250000  0.591078  1
  Zn  Zn10  1  0.405403  0.250000  0.091078  1
  Zn  Zn11  1  0.905403  0.750000  0.408922  1
  Br  Br12  1  0.242817  0.750000  0.907538  1
  Br  Br13  1  0.742817  0.250000  0.592462  1
  Br  Br14  1  0.757183  0.250000  0.092462  1
  Br  Br15  1  0.257183  0.750000  0.407538  1
  Br  Br16  1  0.763449  0.750000  0.562357  1
  Br  Br17  1  0.263449  0.250000  0.937643  1
  Br  Br18  1  0.236551  0.250000  0.437643  1
  Br  Br19  1  0.736551  0.750000  0.062357  1
  Br  Br20  1  0.743300  0.973155  0.834057  1
  Br  Br21  1  0.243300  0.026845  0.665943  1
  Br  Br22  1  0.256700  0.473155  0.165943  1
  Br  Br23  1  0.756700  0.526845  0.334057  1
  Br  Br24  1  0.256700  0.026845  0.165943  1
  Br  Br25  1  0.756700  0.973155  0.334057  1
  Br  Br26  1  0.743300  0.526845  0.834057  1
  Br  Br27  1  0.243300  0.473155  0.665943  1
