# generated using pymatgen
data_MgP(HO)7
_symmetry_space_group_name_H-M   'P 1'
_cell_length_a   10.38738389
_cell_length_b   10.80290010
_cell_length_c   10.03464079
_cell_angle_alpha   90.00000000
_cell_angle_beta   90.00000000
_cell_angle_gamma   90.00000000
_symmetry_Int_Tables_number   1
_chemical_formula_structural   MgP(HO)7
_chemical_formula_sum   'Mg8 P8 H56 O56'
_cell_volume   1126.02588176
_cell_formula_units_Z   8
loop_
 _symmetry_equiv_pos_site_id
 _symmetry_equiv_pos_as_xyz
  1  'x, y, z'
loop_
 _atom_site_type_symbol
 _atom_site_label
 _atom_site_symmetry_multiplicity
 _atom_site_fract_x
 _atom_site_fract_y
 _atom_site_fract_z
 _atom_site_occupancy
  Mg  Mg0  1  0.797118  0.247384  0.408319  1
  Mg  Mg1  1  0.297118  0.252616  0.591681  1
  Mg  Mg2  1  0.202882  0.747384  0.091681  1
  Mg  Mg3  1  0.702882  0.752616  0.908319  1
  Mg  Mg4  1  0.202882  0.752616  0.591681  1
  Mg  Mg5  1  0.702882  0.747384  0.408319  1
  Mg  Mg6  1  0.797118  0.252616  0.908319  1
  Mg  Mg7  1  0.297118  0.247384  0.091681  1
  P  P8  1  0.493434  0.133477  0.346123  1
  P  P9  1  0.993434  0.366523  0.653877  1
  P  P10  1  0.506566  0.633477  0.153877  1
  P  P11  1  0.006566  0.866523  0.846123  1
  P  P12  1  0.506566  0.866523  0.653877  1
  P  P13  1  0.006566  0.633477  0.346123  1
  P  P14  1  0.493434  0.366523  0.846123  1
  P  P15  1  0.993434  0.133477  0.153877  1
  H  H16  1  0.674771  0.322514  0.653022  1
  H  H17  1  0.174771  0.177486  0.346978  1
  H  H18  1  0.325229  0.822514  0.846978  1
  H  H19  1  0.825229  0.677486  0.153022  1
  H  H20  1  0.325229  0.677486  0.346978  1
  H  H21  1  0.825229  0.822514  0.653022  1
  H  H22  1  0.674771  0.177486  0.153022  1
  H  H23  1  0.174771  0.322514  0.846978  1
  H  H24  1  0.582048  0.275892  0.539805  1
  H  H25  1  0.082048  0.224108  0.460195  1
  H  H26  1  0.417952  0.775892  0.960195  1
  H  H27  1  0.917952  0.724108  0.039805  1
  H  H28  1  0.417952  0.724108  0.460195  1
  H  H29  1  0.917952  0.775892  0.539805  1
  H  H30  1  0.582048  0.224108  0.039805  1
  H  H31  1  0.082048  0.275892  0.960195  1
  H  H32  1  0.791483  0.491501  0.311337  1
  H  H33  1  0.291483  0.008499  0.688663  1
  H  H34  1  0.208517  0.991501  0.188663  1
  H  H35  1  0.708517  0.508499  0.811337  1
  H  H36  1  0.208517  0.508499  0.688663  1
  H  H37  1  0.708517  0.991501  0.311337  1
  H  H38  1  0.791483  0.008499  0.811337  1
  H  H39  1  0.291483  0.491501  0.188663  1
  H  H40  1  0.661221  0.433996  0.256698  1
  H  H41  1  0.161221  0.066004  0.743302  1
  H  H42  1  0.338779  0.933996  0.243302  1
  H  H43  1  0.838779  0.566004  0.756698  1
  H  H44  1  0.338779  0.566004  0.743302  1
  H  H45  1  0.838779  0.933996  0.256698  1
  H  H46  1  0.661221  0.066004  0.756698  1
  H  H47  1  0.161221  0.433996  0.243302  1
  H  H48  1  0.821473  0.100635  0.618389  1
  H  H49  1  0.321473  0.399365  0.381611  1
  H  H50  1  0.178527  0.600635  0.881611  1
  H  H51  1  0.678527  0.899365  0.118389  1
  H  H52  1  0.178527  0.899365  0.381611  1
  H  H53  1  0.678527  0.600635  0.618389  1
  H  H54  1  0.821473  0.399365  0.118389  1
  H  H55  1  0.321473  0.100635  0.881611  1
  H  H56  1  0.845016  0.002304  0.505912  1
  H  H57  1  0.345016  0.497696  0.494088  1
  H  H58  1  0.154984  0.502304  0.994088  1
  H  H59  1  0.654984  0.997696  0.005912  1
  H  H60  1  0.154984  0.997696  0.494088  1
  H  H61  1  0.654984  0.502304  0.505912  1
  H  H62  1  0.845016  0.497696  0.005912  1
  H  H63  1  0.345016  0.002304  0.994088  1
  H  H64  1  0.501424  0.930698  0.399681  1
  H  H65  1  0.001424  0.569302  0.600319  1
  H  H66  1  0.498576  0.430698  0.100319  1
  H  H67  1  0.998576  0.069302  0.899681  1
  H  H68  1  0.498576  0.069302  0.600319  1
  H  H69  1  0.998576  0.430698  0.399681  1
  H  H70  1  0.501424  0.569302  0.899681  1
  H  H71  1  0.001424  0.930698  0.100319  1
  O  O72  1  0.409240  0.198141  0.246145  1
  O  O73  1  0.909240  0.301859  0.753855  1
  O  O74  1  0.590760  0.698141  0.253855  1
  O  O75  1  0.090760  0.801859  0.746145  1
  O  O76  1  0.590760  0.801859  0.753855  1
  O  O77  1  0.090760  0.698141  0.246145  1
  O  O78  1  0.409240  0.301859  0.746145  1
  O  O79  1  0.909240  0.198141  0.253855  1
  O  O80  1  0.455961  0.163348  0.493379  1
  O  O81  1  0.955961  0.336652  0.506621  1
  O  O82  1  0.544039  0.663348  0.006621  1
  O  O83  1  0.044039  0.836652  0.993379  1
  O  O84  1  0.544039  0.836652  0.506621  1
  O  O85  1  0.044039  0.663348  0.493379  1
  O  O86  1  0.455961  0.336652  0.993379  1
  O  O87  1  0.955961  0.163348  0.006621  1
  O  O88  1  0.639501  0.154702  0.325479  1
  O  O89  1  0.139501  0.345298  0.674521  1
  O  O90  1  0.360499  0.654702  0.174521  1
  O  O91  1  0.860499  0.845298  0.825479  1
  O  O92  1  0.360499  0.845298  0.674521  1
  O  O93  1  0.860499  0.654702  0.325479  1
  O  O94  1  0.639501  0.345298  0.825479  1
  O  O95  1  0.139501  0.154702  0.174521  1
  O  O96  1  0.471564  0.987230  0.323402  1
  O  O97  1  0.971564  0.512770  0.676598  1
  O  O98  1  0.528436  0.487230  0.176598  1
  O  O99  1  0.028436  0.012770  0.823402  1
  O  O100  1  0.528436  0.012770  0.676598  1
  O  O101  1  0.028436  0.487230  0.323402  1
  O  O102  1  0.471564  0.512770  0.823402  1
  O  O103  1  0.971564  0.987230  0.176598  1
  O  O104  1  0.666499  0.316899  0.554279  1
  O  O105  1  0.166499  0.183101  0.445721  1
  O  O106  1  0.333501  0.816899  0.945721  1
  O  O107  1  0.833501  0.683101  0.054279  1
  O  O108  1  0.333501  0.683101  0.445721  1
  O  O109  1  0.833501  0.816899  0.554279  1
  O  O110  1  0.666499  0.183101  0.054279  1
  O  O111  1  0.166499  0.316899  0.945721  1
  O  O112  1  0.749036  0.411758  0.289919  1
  O  O113  1  0.249036  0.088242  0.710081  1
  O  O114  1  0.250964  0.911758  0.210081  1
  O  O115  1  0.750964  0.588242  0.789919  1
  O  O116  1  0.250964  0.588242  0.710081  1
  O  O117  1  0.750964  0.911758  0.289919  1
  O  O118  1  0.749036  0.088242  0.789919  1
  O  O119  1  0.249036  0.411758  0.210081  1
  O  O120  1  0.845564  0.091546  0.523511  1
  O  O121  1  0.345564  0.408454  0.476489  1
  O  O122  1  0.154436  0.591546  0.976489  1
  O  O123  1  0.654436  0.908454  0.023511  1
  O  O124  1  0.154436  0.908454  0.476489  1
  O  O125  1  0.654436  0.591546  0.523511  1
  O  O126  1  0.845564  0.408454  0.023511  1
  O  O127  1  0.345564  0.091546  0.976489  1
