# generated using pymatgen
data_InCuTe2
_symmetry_space_group_name_H-M   'P 1'
_cell_length_a   6.28815912
_cell_length_b   6.28815957
_cell_length_c   7.70827540
_cell_angle_alpha   114.02815836
_cell_angle_beta   114.02816197
_cell_angle_gamma   90.00987748
_symmetry_Int_Tables_number   1
_chemical_formula_structural   InCuTe2
_chemical_formula_sum   'In2 Cu2 Te4'
_cell_volume   249.17465723
_cell_formula_units_Z   2
loop_
 _symmetry_equiv_pos_site_id
 _symmetry_equiv_pos_as_xyz
  1  'x, y, z'
loop_
 _atom_site_type_symbol
 _atom_site_label
 _atom_site_symmetry_multiplicity
 _atom_site_fract_x
 _atom_site_fract_y
 _atom_site_fract_z
 _atom_site_occupancy
  In  In0  1  0.749620  0.248613  0.498737  1
  In  In1  1  0.498613  0.499620  0.998737  1
  Cu  Cu2  1  0.000867  0.002480  0.000975  1
  Cu  Cu3  1  0.252480  0.750867  0.500975  1
  Te  Te4  1  0.123260  0.659520  0.749629  1
  Te  Te5  1  0.340558  0.375082  0.250659  1
  Te  Te6  1  0.625082  0.090558  0.750659  1
  Te  Te7  1  0.909520  0.873260  0.249629  1
