# generated using pymatgen
data_WS9Cl4
_symmetry_space_group_name_H-M   'P 1'
_cell_length_a   11.34687585
_cell_length_b   18.24022523
_cell_length_c   18.24022523
_cell_angle_alpha   90.00000000
_cell_angle_beta   90.00000000
_cell_angle_gamma   90.00000000
_symmetry_Int_Tables_number   1
_chemical_formula_structural   WS9Cl4
_chemical_formula_sum   'W8 S72 Cl32'
_cell_volume   3775.17159373
_cell_formula_units_Z   8
loop_
 _symmetry_equiv_pos_site_id
 _symmetry_equiv_pos_as_xyz
  1  'x, y, z'
loop_
 _atom_site_type_symbol
 _atom_site_label
 _atom_site_symmetry_multiplicity
 _atom_site_fract_x
 _atom_site_fract_y
 _atom_site_fract_z
 _atom_site_occupancy
  S  S0  1  0.237581  0.208071  0.201286  1
  S  S1  1  0.762419  0.201286  0.791929  1
  S  S2  1  0.762419  0.798714  0.208071  1
  S  S3  1  0.237581  0.791929  0.798714  1
  S  S4  1  0.262419  0.708071  0.298714  1
  S  S5  1  0.262419  0.291929  0.701286  1
  S  S6  1  0.737581  0.298714  0.291929  1
  S  S7  1  0.737581  0.701286  0.708071  1
  S  S8  1  0.837711  0.018444  0.237781  1
  S  S9  1  0.162289  0.237781  0.981556  1
  S  S10  1  0.162289  0.762219  0.018444  1
  S  S11  1  0.837711  0.981556  0.762219  1
  S  S12  1  0.662289  0.518444  0.262219  1
  S  S13  1  0.662289  0.481556  0.737781  1
  S  S14  1  0.337711  0.262219  0.481556  1
  S  S15  1  0.337711  0.737781  0.518444  1
  S  S16  1  0.782137  0.037915  0.344052  1
  S  S17  1  0.217863  0.344052  0.962085  1
  S  S18  1  0.217863  0.655948  0.037915  1
  S  S19  1  0.782137  0.962085  0.655948  1
  S  S20  1  0.717863  0.537915  0.155948  1
  S  S21  1  0.717863  0.462085  0.844052  1
  S  S22  1  0.282137  0.155948  0.462085  1
  S  S23  1  0.282137  0.844052  0.537915  1
  S  S24  1  0.696791  0.945794  0.381823  1
  S  S25  1  0.303209  0.381823  0.054206  1
  S  S26  1  0.303209  0.618177  0.945794  1
  S  S27  1  0.696791  0.054206  0.618177  1
  S  S28  1  0.803209  0.445794  0.118177  1
  S  S29  1  0.803209  0.554206  0.881823  1
  S  S30  1  0.196791  0.118177  0.554206  1
  S  S31  1  0.196791  0.881823  0.445794  1
  S  S32  1  0.517088  0.958896  0.369133  1
  S  S33  1  0.482912  0.369133  0.041104  1
  S  S34  1  0.482912  0.630867  0.958896  1
  S  S35  1  0.517088  0.041104  0.630867  1
  S  S36  1  0.982912  0.458896  0.130867  1
  S  S37  1  0.982912  0.541104  0.869133  1
  S  S38  1  0.017088  0.130867  0.541104  1
  S  S39  1  0.017088  0.869133  0.458896  1
  S  S40  1  0.464295  0.907944  0.273757  1
  S  S41  1  0.535705  0.273757  0.092056  1
  S  S42  1  0.535705  0.726243  0.907944  1
  S  S43  1  0.464295  0.092056  0.726243  1
  S  S44  1  0.035705  0.407944  0.226243  1
  S  S45  1  0.035705  0.592056  0.773757  1
  S  S46  1  0.964295  0.226243  0.592056  1
  S  S47  1  0.964295  0.773757  0.407944  1
  S  S48  1  0.453053  0.984451  0.190796  1
  S  S49  1  0.546947  0.190796  0.015549  1
  S  S50  1  0.546947  0.809204  0.984451  1
  S  S51  1  0.453053  0.015549  0.809204  1
  S  S52  1  0.046947  0.484451  0.309204  1
  S  S53  1  0.046947  0.515549  0.690796  1
  S  S54  1  0.953053  0.309204  0.515549  1
  S  S55  1  0.953053  0.690796  0.484451  1
  S  S56  1  0.606327  0.981681  0.129625  1
  S  S57  1  0.393673  0.129625  0.018319  1
  S  S58  1  0.393673  0.870375  0.981681  1
  S  S59  1  0.606327  0.018319  0.870375  1
  S  S60  1  0.893673  0.481681  0.370375  1
  S  S61  1  0.893673  0.518319  0.629625  1
  S  S62  1  0.106327  0.370375  0.518319  1
  S  S63  1  0.106327  0.629625  0.481681  1
  S  S64  1  0.718144  0.063274  0.164727  1
  S  S65  1  0.281856  0.164727  0.936726  1
  S  S66  1  0.281856  0.835273  0.063274  1
  S  S67  1  0.718144  0.936726  0.835273  1
  S  S68  1  0.781856  0.563274  0.335273  1
  S  S69  1  0.781856  0.436726  0.664727  1
  S  S70  1  0.218144  0.335273  0.436726  1
  S  S71  1  0.218144  0.664727  0.563274  1
  Cl  Cl72  1  0.097488  0.061680  0.118883  1
  Cl  Cl73  1  0.902512  0.118883  0.938320  1
  Cl  Cl74  1  0.902512  0.881117  0.061680  1
  Cl  Cl75  1  0.097488  0.938320  0.881117  1
  Cl  Cl76  1  0.402512  0.561680  0.381117  1
  Cl  Cl77  1  0.402512  0.438320  0.618883  1
  Cl  Cl78  1  0.597488  0.381117  0.438320  1
  Cl  Cl79  1  0.597488  0.618883  0.561680  1
  Cl  Cl80  1  0.156144  0.047147  0.288716  1
  Cl  Cl81  1  0.843856  0.288716  0.952853  1
  Cl  Cl82  1  0.843856  0.711284  0.047147  1
  Cl  Cl83  1  0.156144  0.952853  0.711284  1
  Cl  Cl84  1  0.343856  0.547147  0.211284  1
  Cl  Cl85  1  0.343856  0.452853  0.788716  1
  Cl  Cl86  1  0.656144  0.211284  0.452853  1
  Cl  Cl87  1  0.656144  0.788716  0.547147  1
  Cl  Cl88  1  0.002768  0.188980  0.321046  1
  Cl  Cl89  1  0.997232  0.321046  0.811020  1
  Cl  Cl90  1  0.997232  0.678954  0.188980  1
  Cl  Cl91  1  0.002768  0.811020  0.678954  1
  Cl  Cl92  1  0.497232  0.688980  0.178954  1
  Cl  Cl93  1  0.497232  0.311020  0.821046  1
  Cl  Cl94  1  0.502768  0.178954  0.311020  1
  Cl  Cl95  1  0.502768  0.821046  0.688980  1
  Cl  Cl96  1  0.944227  0.203948  0.151263  1
  Cl  Cl97  1  0.055773  0.151263  0.796052  1
  Cl  Cl98  1  0.055773  0.848737  0.203948  1
  Cl  Cl99  1  0.944227  0.796052  0.848737  1
  Cl  Cl100  1  0.555773  0.703948  0.348737  1
  Cl  Cl101  1  0.555773  0.296052  0.651263  1
  Cl  Cl102  1  0.444227  0.348737  0.296052  1
  Cl  Cl103  1  0.444227  0.651263  0.703948  1
  W  W104  1  0.087720  0.141904  0.216286  1
  W  W105  1  0.912280  0.216286  0.858096  1
  W  W106  1  0.912280  0.783714  0.141904  1
  W  W107  1  0.087720  0.858096  0.783714  1
  W  W108  1  0.412280  0.641904  0.283714  1
  W  W109  1  0.412280  0.358096  0.716286  1
  W  W110  1  0.587720  0.283714  0.358096  1
  W  W111  1  0.587720  0.716286  0.641904  1
