# generated using pymatgen
data_Fe3BO6
_symmetry_space_group_name_H-M   'P 1'
_cell_length_a   4.51221635
_cell_length_b   8.68595373
_cell_length_c   10.22300249
_cell_angle_alpha   90.00000000
_cell_angle_beta   90.00000000
_cell_angle_gamma   90.00000000
_symmetry_Int_Tables_number   1
_chemical_formula_structural   Fe3BO6
_chemical_formula_sum   'Fe12 B4 O24'
_cell_volume   400.66913919
_cell_formula_units_Z   4
loop_
 _symmetry_equiv_pos_site_id
 _symmetry_equiv_pos_as_xyz
  1  'x, y, z'
loop_
 _atom_site_type_symbol
 _atom_site_label
 _atom_site_symmetry_multiplicity
 _atom_site_fract_x
 _atom_site_fract_y
 _atom_site_fract_z
 _atom_site_occupancy
  B  B0  1  0.089888  0.250000  0.716945  1
  B  B1  1  0.910112  0.750000  0.283055  1
  B  B2  1  0.410112  0.250000  0.216945  1
  B  B3  1  0.589888  0.750000  0.783055  1
  O  O4  1  0.775883  0.750000  0.417652  1
  O  O5  1  0.275883  0.250000  0.082348  1
  O  O6  1  0.224117  0.250000  0.582348  1
  O  O7  1  0.724117  0.750000  0.917652  1
  O  O8  1  0.766209  0.418709  0.964918  1
  O  O9  1  0.266209  0.581291  0.535082  1
  O  O10  1  0.233791  0.918709  0.035082  1
  O  O11  1  0.733791  0.081291  0.464918  1
  O  O12  1  0.267620  0.750000  0.781453  1
  O  O13  1  0.232380  0.750000  0.281453  1
  O  O14  1  0.767620  0.250000  0.718547  1
  O  O15  1  0.732380  0.250000  0.218547  1
  O  O16  1  0.734529  0.886732  0.715203  1
  O  O17  1  0.234529  0.113268  0.784797  1
  O  O18  1  0.265471  0.386732  0.284797  1
  O  O19  1  0.765471  0.613268  0.215203  1
  O  O20  1  0.265471  0.113268  0.284797  1
  O  O21  1  0.765471  0.886732  0.215203  1
  O  O22  1  0.734529  0.613268  0.715203  1
  O  O23  1  0.234529  0.386732  0.784797  1
  O  O24  1  0.266209  0.918709  0.535082  1
  O  O25  1  0.766209  0.081291  0.964918  1
  O  O26  1  0.733791  0.418709  0.464918  1
  O  O27  1  0.233791  0.581291  0.035082  1
  Fe  Fe28  1  0.478841  0.750000  0.090495  1
  Fe  Fe29  1  0.978841  0.250000  0.409505  1
  Fe  Fe30  1  0.521159  0.250000  0.909505  1
  Fe  Fe31  1  0.021159  0.750000  0.590495  1
  Fe  Fe32  1  0.519270  0.433817  0.628683  1
  Fe  Fe33  1  0.019270  0.566183  0.871317  1
  Fe  Fe34  1  0.480730  0.933817  0.371317  1
  Fe  Fe35  1  0.980730  0.066183  0.128683  1
  Fe  Fe36  1  0.480730  0.566183  0.371317  1
  Fe  Fe37  1  0.980730  0.433817  0.128683  1
  Fe  Fe38  1  0.519270  0.066183  0.628683  1
  Fe  Fe39  1  0.019270  0.933817  0.871317  1
