# generated using pymatgen
data_ErSiRu
_symmetry_space_group_name_H-M   'P 1'
_cell_length_a   4.30536001
_cell_length_b   6.94455825
_cell_length_c   7.11351374
_cell_angle_alpha   90.00000000
_cell_angle_beta   90.00000000
_cell_angle_gamma   90.00000000
_symmetry_Int_Tables_number   1
_chemical_formula_structural   ErSiRu
_chemical_formula_sum   'Er4 Si4 Ru4'
_cell_volume   212.68569090
_cell_formula_units_Z   4
loop_
 _symmetry_equiv_pos_site_id
 _symmetry_equiv_pos_as_xyz
  1  'x, y, z'
loop_
 _atom_site_type_symbol
 _atom_site_label
 _atom_site_symmetry_multiplicity
 _atom_site_fract_x
 _atom_site_fract_y
 _atom_site_fract_z
 _atom_site_occupancy
  Si  Si0  1  0.250000  0.302348  0.893438  1
  Si  Si1  1  0.750000  0.697652  0.106562  1
  Si  Si2  1  0.250000  0.802348  0.606562  1
  Si  Si3  1  0.750000  0.197652  0.393438  1
  Ru  Ru4  1  0.750000  0.845725  0.433956  1
  Ru  Ru5  1  0.250000  0.154275  0.566044  1
  Ru  Ru6  1  0.750000  0.345725  0.066044  1
  Ru  Ru7  1  0.250000  0.654275  0.933956  1
  Er  Er8  1  0.250000  0.987955  0.187473  1
  Er  Er9  1  0.750000  0.012045  0.812527  1
  Er  Er10  1  0.250000  0.487955  0.312527  1
  Er  Er11  1  0.750000  0.512045  0.687473  1
