# generated using pymatgen
data_SrMgSi2
_symmetry_space_group_name_H-M   'P 1'
_cell_length_a   4.43817126
_cell_length_b   11.44959980
_cell_length_c   14.41327771
_cell_angle_alpha   90.00000000
_cell_angle_beta   90.00000000
_cell_angle_gamma   90.00000000
_symmetry_Int_Tables_number   1
_chemical_formula_structural   SrMgSi2
_chemical_formula_sum   'Sr8 Mg8 Si16'
_cell_volume   732.41481132
_cell_formula_units_Z   8
loop_
 _symmetry_equiv_pos_site_id
 _symmetry_equiv_pos_as_xyz
  1  'x, y, z'
loop_
 _atom_site_type_symbol
 _atom_site_label
 _atom_site_symmetry_multiplicity
 _atom_site_fract_x
 _atom_site_fract_y
 _atom_site_fract_z
 _atom_site_occupancy
  Mg  Mg0  1  0.250000  0.442036  0.439921  1
  Mg  Mg1  1  0.750000  0.557964  0.560079  1
  Mg  Mg2  1  0.750000  0.942036  0.060079  1
  Mg  Mg3  1  0.250000  0.057964  0.939921  1
  Mg  Mg4  1  0.250000  0.679962  0.690103  1
  Mg  Mg5  1  0.750000  0.320038  0.309897  1
  Mg  Mg6  1  0.750000  0.179962  0.809897  1
  Mg  Mg7  1  0.250000  0.820038  0.190103  1
  Si  Si8  1  0.750000  0.952217  0.867733  1
  Si  Si9  1  0.250000  0.452217  0.632267  1
  Si  Si10  1  0.750000  0.547783  0.367733  1
  Si  Si11  1  0.250000  0.027900  0.466770  1
  Si  Si12  1  0.250000  0.047783  0.132267  1
  Si  Si13  1  0.250000  0.274191  0.722909  1
  Si  Si14  1  0.750000  0.725809  0.277091  1
  Si  Si15  1  0.750000  0.774191  0.777091  1
  Si  Si16  1  0.250000  0.211680  0.393326  1
  Si  Si17  1  0.750000  0.972100  0.533230  1
  Si  Si18  1  0.750000  0.527900  0.033230  1
  Si  Si19  1  0.250000  0.472100  0.966770  1
  Si  Si20  1  0.250000  0.288320  0.893326  1
  Si  Si21  1  0.750000  0.788320  0.606674  1
  Si  Si22  1  0.750000  0.711680  0.106674  1
  Si  Si23  1  0.250000  0.225809  0.222909  1
  Sr  Sr24  1  0.250000  0.523264  0.196139  1
  Sr  Sr25  1  0.250000  0.741034  0.938442  1
  Sr  Sr26  1  0.750000  0.258966  0.061558  1
  Sr  Sr27  1  0.750000  0.241034  0.561558  1
  Sr  Sr28  1  0.250000  0.758966  0.438443  1
  Sr  Sr29  1  0.250000  0.976736  0.696139  1
  Sr  Sr30  1  0.750000  0.023264  0.303861  1
  Sr  Sr31  1  0.750000  0.476736  0.803861  1
