# generated using pymatgen
data_LaFe5H2
_symmetry_space_group_name_H-M   'P 1'
_cell_length_a   4.15046345
_cell_length_b   5.16482246
_cell_length_c   5.19007614
_cell_angle_alpha   119.83917194
_cell_angle_beta   90.00000000
_cell_angle_gamma   90.00000000
_symmetry_Int_Tables_number   1
_chemical_formula_structural   LaFe5H2
_chemical_formula_sum   'La1 Fe5 H2'
_cell_volume   96.50679549
_cell_formula_units_Z   1
loop_
 _symmetry_equiv_pos_site_id
 _symmetry_equiv_pos_as_xyz
  1  'x, y, z'
loop_
 _atom_site_type_symbol
 _atom_site_label
 _atom_site_symmetry_multiplicity
 _atom_site_fract_x
 _atom_site_fract_y
 _atom_site_fract_z
 _atom_site_occupancy
  H  H0  1  0.500000  0.866522  0.733044  1
  H  H1  1  0.500000  0.133478  0.266956  1
  Fe  Fe2  1  0.500000  0.000000  0.500000  1
  Fe  Fe3  1  0.500000  0.500000  0.500000  1
  Fe  Fe4  1  0.000000  0.336746  0.673492  1
  Fe  Fe5  1  0.000000  0.663254  0.326508  1
  Fe  Fe6  1  0.500000  0.500000  0.000000  1
  La  La7  1  0.000000  0.000000  0.000000  1
