# generated using pymatgen
data_SrH2N2O5
_symmetry_space_group_name_H-M   'P 1'
_cell_length_a   4.54314399
_cell_length_b   9.07200363
_cell_length_c   12.75231253
_cell_angle_alpha   90.00000000
_cell_angle_beta   99.38938933
_cell_angle_gamma   90.00000000
_symmetry_Int_Tables_number   1
_chemical_formula_structural   SrH2N2O5
_chemical_formula_sum   'Sr4 H8 N8 O20'
_cell_volume   518.55022691
_cell_formula_units_Z   4
loop_
 _symmetry_equiv_pos_site_id
 _symmetry_equiv_pos_as_xyz
  1  'x, y, z'
loop_
 _atom_site_type_symbol
 _atom_site_label
 _atom_site_symmetry_multiplicity
 _atom_site_fract_x
 _atom_site_fract_y
 _atom_site_fract_z
 _atom_site_occupancy
  H  H0  1  0.904762  0.427831  0.216949  1
  H  H1  1  0.095238  0.927831  0.783051  1
  H  H2  1  0.842369  0.527834  0.307638  1
  H  H3  1  0.157631  0.027834  0.692362  1
  H  H4  1  0.858244  0.112353  0.830862  1
  H  H5  1  0.141756  0.612353  0.169138  1
  H  H6  1  0.389340  0.487341  0.181312  1
  H  H7  1  0.610660  0.987341  0.818688  1
  N  N8  1  0.527237  0.238468  0.015365  1
  N  N9  1  0.472763  0.738468  0.984635  1
  N  N10  1  0.528809  0.986104  0.497201  1
  N  N11  1  0.471191  0.486104  0.502799  1
  N  N12  1  0.992254  0.311015  0.691236  1
  N  N13  1  0.007746  0.811015  0.308764  1
  N  N14  1  0.573776  0.622273  0.731463  1
  N  N15  1  0.426224  0.122273  0.268537  1
  O  O16  1  0.619896  0.860530  0.534217  1
  O  O17  1  0.380104  0.360530  0.465783  1
  O  O18  1  0.509166  0.543635  0.806053  1
  O  O19  1  0.490834  0.043634  0.193947  1
  O  O20  1  0.850887  0.651783  0.738407  1
  O  O21  1  0.149113  0.151783  0.261593  1
  O  O22  1  0.746685  0.507267  0.504229  1
  O  O23  1  0.253315  0.007267  0.495771  1
  O  O24  1  0.011280  0.783685  0.211038  1
  O  O25  1  0.988720  0.283685  0.788962  1
  O  O26  1  0.025406  0.697308  0.367996  1
  O  O27  1  0.974594  0.197308  0.632004  1
  O  O28  1  0.806837  0.015017  0.859637  1
  O  O29  1  0.193163  0.515017  0.140363  1
  O  O30  1  0.604356  0.366187  0.989255  1
  O  O31  1  0.395644  0.866187  0.010745  1
  O  O32  1  0.247581  0.222667  0.009932  1
  O  O33  1  0.752419  0.722667  0.990068  1
  O  O34  1  0.230588  0.935332  0.729709  1
  O  O35  1  0.769412  0.435332  0.270291  1
  Sr  Sr36  1  0.879336  0.224192  0.423655  1
  Sr  Sr37  1  0.120664  0.724192  0.576345  1
  Sr  Sr38  1  0.066418  0.499658  0.927881  1
  Sr  Sr39  1  0.933582  0.999658  0.072119  1
