# generated using pymatgen
data_HoSiRu
_symmetry_space_group_name_H-M   'P 1'
_cell_length_a   4.31842029
_cell_length_b   6.95403222
_cell_length_c   7.14811605
_cell_angle_alpha   90.00000000
_cell_angle_beta   90.00000000
_cell_angle_gamma   90.00000000
_symmetry_Int_Tables_number   1
_chemical_formula_structural   HoSiRu
_chemical_formula_sum   'Ho4 Si4 Ru4'
_cell_volume   214.66102609
_cell_formula_units_Z   4
loop_
 _symmetry_equiv_pos_site_id
 _symmetry_equiv_pos_as_xyz
  1  'x, y, z'
loop_
 _atom_site_type_symbol
 _atom_site_label
 _atom_site_symmetry_multiplicity
 _atom_site_fract_x
 _atom_site_fract_y
 _atom_site_fract_z
 _atom_site_occupancy
  Ho  Ho0  1  0.750000  0.011636  0.812276  1
  Ho  Ho1  1  0.750000  0.511636  0.687724  1
  Ho  Ho2  1  0.250000  0.988364  0.187724  1
  Ho  Ho3  1  0.250000  0.488364  0.312276  1
  Si  Si4  1  0.250000  0.303121  0.893334  1
  Si  Si5  1  0.750000  0.196879  0.393334  1
  Si  Si6  1  0.250000  0.803121  0.606666  1
  Si  Si7  1  0.750000  0.696879  0.106666  1
  Ru  Ru8  1  0.250000  0.154465  0.565884  1
  Ru  Ru9  1  0.250000  0.654465  0.934116  1
  Ru  Ru10  1  0.750000  0.345535  0.065884  1
  Ru  Ru11  1  0.750000  0.845535  0.434116  1
