# generated using pymatgen
data_CaP2(HO)4
_symmetry_space_group_name_H-M   'P 1'
_cell_length_a   5.73254412
_cell_length_b   6.75532714
_cell_length_c   8.14680301
_cell_angle_alpha   101.33175794
_cell_angle_beta   110.59915444
_cell_angle_gamma   89.99999996
_symmetry_Int_Tables_number   1
_chemical_formula_structural   CaP2(HO)4
_chemical_formula_sum   'Ca2 P4 H8 O8'
_cell_volume   288.73648952
_cell_formula_units_Z   2
loop_
 _symmetry_equiv_pos_site_id
 _symmetry_equiv_pos_as_xyz
  1  'x, y, z'
loop_
 _atom_site_type_symbol
 _atom_site_label
 _atom_site_symmetry_multiplicity
 _atom_site_fract_x
 _atom_site_fract_y
 _atom_site_fract_z
 _atom_site_occupancy
  H  H0  1  0.093077  0.362531  0.559715  1
  H  H1  1  0.533362  0.137469  0.440285  1
  H  H2  1  0.906923  0.637469  0.440285  1
  H  H3  1  0.466638  0.862531  0.559715  1
  H  H4  1  0.057057  0.082590  0.657925  1
  H  H5  1  0.399133  0.417410  0.342075  1
  H  H6  1  0.942943  0.917410  0.342075  1
  H  H7  1  0.600867  0.582590  0.657925  1
  O  O8  1  0.213207  0.102292  0.149680  1
  O  O9  1  0.063528  0.397708  0.850320  1
  O  O10  1  0.322955  0.771040  0.779180  1
  O  O11  1  0.543776  0.728960  0.220820  1
  O  O12  1  0.677045  0.228960  0.220820  1
  O  O13  1  0.456224  0.271040  0.779180  1
  O  O14  1  0.936472  0.602292  0.149680  1
  O  O15  1  0.786793  0.897708  0.850320  1
  P  P16  1  0.175435  0.281575  0.717052  1
  P  P17  1  0.458384  0.218425  0.282948  1
  P  P18  1  0.824565  0.718425  0.282948  1
  P  P19  1  0.541616  0.781575  0.717052  1
  Ca  Ca20  1  0.832757  0.250000  0.000000  1
  Ca  Ca21  1  0.167243  0.750000  0.000000  1
