# generated using pymatgen
data_MnSiO3
_symmetry_space_group_name_H-M   'P 1'
_cell_length_a   5.44932916
_cell_length_b   9.34160166
_cell_length_c   9.70158143
_cell_angle_alpha   90.00000000
_cell_angle_beta   102.18262787
_cell_angle_gamma   90.00000000
_symmetry_Int_Tables_number   1
_chemical_formula_structural   MnSiO3
_chemical_formula_sum   'Mn8 Si8 O24'
_cell_volume   482.74164450
_cell_formula_units_Z   8
loop_
 _symmetry_equiv_pos_site_id
 _symmetry_equiv_pos_as_xyz
  1  'x, y, z'
loop_
 _atom_site_type_symbol
 _atom_site_label
 _atom_site_symmetry_multiplicity
 _atom_site_fract_x
 _atom_site_fract_y
 _atom_site_fract_z
 _atom_site_occupancy
  O  O0  1  0.563528  0.765931  0.599776  1
  O  O1  1  0.936472  0.265931  0.400224  1
  O  O2  1  0.436470  0.234069  0.400224  1
  O  O3  1  0.063529  0.734069  0.599776  1
  O  O4  1  0.764503  0.512633  0.626064  1
  O  O5  1  0.735498  0.012634  0.373936  1
  O  O6  1  0.235496  0.487367  0.373935  1
  O  O7  1  0.264503  0.987367  0.626064  1
  O  O8  1  0.715293  0.658761  0.373663  1
  O  O9  1  0.784707  0.158760  0.626337  1
  O  O10  1  0.284707  0.341240  0.626337  1
  O  O11  1  0.215292  0.841240  0.373663  1
  O  O12  1  0.049949  0.257909  0.100707  1
  O  O13  1  0.450052  0.757909  0.899293  1
  O  O14  1  0.950051  0.742090  0.899292  1
  O  O15  1  0.549949  0.242090  0.100708  1
  O  O16  1  0.710583  0.340586  0.873167  1
  O  O17  1  0.789417  0.840586  0.126834  1
  O  O18  1  0.289418  0.659415  0.126834  1
  O  O19  1  0.210583  0.159414  0.873167  1
  O  O20  1  0.269076  0.010812  0.124295  1
  O  O21  1  0.730923  0.989189  0.875705  1
  O  O22  1  0.230923  0.510811  0.875704  1
  O  O23  1  0.769077  0.489189  0.124295  1
  Si  Si24  1  0.778357  0.663941  0.546486  1
  Si  Si25  1  0.721643  0.163941  0.453515  1
  Si  Si26  1  0.221643  0.336059  0.453515  1
  Si  Si27  1  0.278358  0.836058  0.546486  1
  Si  Si28  1  0.272420  0.163637  0.045881  1
  Si  Si29  1  0.227581  0.663637  0.954118  1
  Si  Si30  1  0.727581  0.836363  0.954119  1
  Si  Si31  1  0.772419  0.336363  0.045881  1
  Mn  Mn32  1  0.502752  0.488072  0.249808  1
  Mn  Mn33  1  0.997248  0.988072  0.750191  1
  Mn  Mn34  1  0.497248  0.511928  0.750191  1
  Mn  Mn35  1  0.002753  0.011928  0.249808  1
  Mn  Mn36  1  0.502395  0.850771  0.250252  1
  Mn  Mn37  1  0.997605  0.350772  0.749749  1
  Mn  Mn38  1  0.497605  0.149228  0.749749  1
  Mn  Mn39  1  0.002396  0.649228  0.250252  1
