# generated using pymatgen
data_Co(SiP)3
_symmetry_space_group_name_H-M   'P 1'
_cell_length_a   5.72749680
_cell_length_b   5.92789859
_cell_length_c   12.80125766
_cell_angle_alpha   89.87542201
_cell_angle_beta   90.00000000
_cell_angle_gamma   90.00000000
_symmetry_Int_Tables_number   1
_chemical_formula_structural   Co(SiP)3
_chemical_formula_sum   'Co4 Si12 P12'
_cell_volume   434.62753174
_cell_formula_units_Z   4
loop_
 _symmetry_equiv_pos_site_id
 _symmetry_equiv_pos_as_xyz
  1  'x, y, z'
loop_
 _atom_site_type_symbol
 _atom_site_label
 _atom_site_symmetry_multiplicity
 _atom_site_fract_x
 _atom_site_fract_y
 _atom_site_fract_z
 _atom_site_occupancy
  Si  Si0  1  0.584842  0.639156  0.927370  1
  Si  Si1  1  0.084842  0.360844  0.072629  1
  Si  Si2  1  0.998534  0.935998  0.427488  1
  Si  Si3  1  0.498534  0.064002  0.572512  1
  Si  Si4  1  0.529969  0.172527  0.319614  1
  Si  Si5  1  0.029969  0.827473  0.680386  1
  Si  Si6  1  0.565218  0.627232  0.223189  1
  Si  Si7  1  0.065218  0.372768  0.776811  1
  Si  Si8  1  0.167522  0.921574  0.954380  1
  Si  Si9  1  0.667522  0.078426  0.045620  1
  Si  Si10  1  0.598312  0.527698  0.671704  1
  Si  Si11  1  0.098312  0.472302  0.328296  1
  P  P12  1  0.924785  0.130997  0.279787  1
  P  P13  1  0.424785  0.869003  0.720213  1
  P  P14  1  0.837108  0.585332  0.450884  1
  P  P15  1  0.337108  0.414668  0.549116  1
  P  P16  1  0.908812  0.025528  0.826227  1
  P  P17  1  0.408812  0.974472  0.173773  1
  P  P18  1  0.983370  0.561749  0.927428  1
  P  P19  1  0.483370  0.438251  0.072572  1
  P  P20  1  0.893579  0.125099  0.573568  1
  P  P21  1  0.393579  0.874901  0.426432  1
  P  P22  1  0.958507  0.653298  0.179689  1
  P  P23  1  0.458507  0.346702  0.820311  1
  Co  Co24  1  0.467263  0.517972  0.385854  1
  Co  Co25  1  0.967263  0.482028  0.614146  1
  Co  Co26  1  0.035279  0.006168  0.121415  1
  Co  Co27  1  0.535279  0.993832  0.878585  1
