# generated using pymatgen
data_RbFeBP2HO9
_symmetry_space_group_name_H-M   'P 1'
_cell_length_a   8.49112159
_cell_length_b   9.51615269
_cell_length_c   9.81357140
_cell_angle_alpha   102.17191622
_cell_angle_beta   90.00000000
_cell_angle_gamma   90.00000000
_symmetry_Int_Tables_number   1
_chemical_formula_structural   RbFeBP2HO9
_chemical_formula_sum   'Rb4 Fe4 B4 P8 H4 O36'
_cell_volume   775.13779790
_cell_formula_units_Z   4
loop_
 _symmetry_equiv_pos_site_id
 _symmetry_equiv_pos_as_xyz
  1  'x, y, z'
loop_
 _atom_site_type_symbol
 _atom_site_label
 _atom_site_symmetry_multiplicity
 _atom_site_fract_x
 _atom_site_fract_y
 _atom_site_fract_z
 _atom_site_occupancy
  H  H0  1  0.078193  0.600380  0.494967  1
  H  H1  1  0.578193  0.399620  0.005033  1
  H  H2  1  0.921807  0.399620  0.505034  1
  H  H3  1  0.421807  0.600380  0.994967  1
  B  B4  1  0.056930  0.663882  0.305506  1
  B  B5  1  0.556931  0.336118  0.194494  1
  B  B6  1  0.943070  0.336119  0.694493  1
  B  B7  1  0.443069  0.663881  0.805507  1
  O  O8  1  0.488083  0.072788  0.807519  1
  O  O9  1  0.297749  0.586033  0.753642  1
  O  O10  1  0.202250  0.586034  0.253643  1
  O  O11  1  0.702251  0.413967  0.246357  1
  O  O12  1  0.917034  0.585959  0.237769  1
  O  O13  1  0.417033  0.414040  0.262231  1
  O  O14  1  0.082966  0.414040  0.762230  1
  O  O15  1  0.582967  0.585960  0.737769  1
  O  O16  1  0.719955  0.635426  0.439641  1
  O  O17  1  0.219954  0.364574  0.060359  1
  O  O18  1  0.632250  0.656135  0.196531  1
  O  O19  1  0.780046  0.635427  0.939641  1
  O  O20  1  0.988082  0.927212  0.692480  1
  O  O21  1  0.797750  0.413967  0.746358  1
  O  O22  1  0.011918  0.072789  0.307519  1
  O  O23  1  0.511917  0.927212  0.192481  1
  O  O24  1  0.664307  0.909102  0.917897  1
  O  O25  1  0.164308  0.090898  0.582102  1
  O  O26  1  0.335693  0.090898  0.082102  1
  O  O27  1  0.835692  0.909101  0.417898  1
  O  O28  1  0.654352  0.894749  0.652920  1
  O  O29  1  0.154352  0.105251  0.847080  1
  O  O30  1  0.345648  0.105251  0.347080  1
  O  O31  1  0.845648  0.894749  0.152920  1
  O  O32  1  0.424792  0.807825  0.774184  1
  O  O33  1  0.924792  0.192174  0.725817  1
  O  O34  1  0.575208  0.192175  0.225817  1
  O  O35  1  0.075208  0.807825  0.274183  1
  O  O36  1  0.450408  0.686150  0.961125  1
  O  O37  1  0.950409  0.313850  0.538876  1
  O  O38  1  0.549592  0.313850  0.038876  1
  O  O39  1  0.049591  0.686151  0.461125  1
  O  O40  1  0.867750  0.656134  0.696531  1
  O  O41  1  0.367750  0.343866  0.803468  1
  O  O42  1  0.132250  0.343865  0.303468  1
  O  O43  1  0.280045  0.364573  0.560359  1
  P  P44  1  0.740160  0.579737  0.282790  1
  P  P45  1  0.240160  0.420263  0.217210  1
  P  P46  1  0.259840  0.420264  0.717210  1
  P  P47  1  0.759840  0.579736  0.782790  1
  P  P48  1  0.937398  0.923902  0.292094  1
  P  P49  1  0.562602  0.923903  0.792094  1
  P  P50  1  0.062602  0.076097  0.707905  1
  P  P51  1  0.437398  0.076097  0.207905  1
  Fe  Fe52  1  0.844618  0.793318  0.567698  1
  Fe  Fe53  1  0.155382  0.206681  0.432302  1
  Fe  Fe54  1  0.344618  0.206682  0.932302  1
  Fe  Fe55  1  0.655382  0.793318  0.067698  1
  Rb  Rb56  1  0.100507  0.806306  0.935214  1
  Rb  Rb57  1  0.600507  0.193694  0.564785  1
  Rb  Rb58  1  0.899493  0.193694  0.064786  1
  Rb  Rb59  1  0.399493  0.806307  0.435214  1
