# generated using pymatgen
data_TlSb3S5
_symmetry_space_group_name_H-M   'P 1'
_cell_length_a   7.47970152
_cell_length_b   9.19703394
_cell_length_c   15.95388864
_cell_angle_alpha   90.00000000
_cell_angle_beta   90.00000000
_cell_angle_gamma   114.36142664
_symmetry_Int_Tables_number   1
_chemical_formula_structural   TlSb3S5
_chemical_formula_sum   'Tl4 Sb12 S20'
_cell_volume   999.76670320
_cell_formula_units_Z   4
loop_
 _symmetry_equiv_pos_site_id
 _symmetry_equiv_pos_as_xyz
  1  'x, y, z'
loop_
 _atom_site_type_symbol
 _atom_site_label
 _atom_site_symmetry_multiplicity
 _atom_site_fract_x
 _atom_site_fract_y
 _atom_site_fract_z
 _atom_site_occupancy
  S  S0  1  0.671915  0.111311  0.728342  1
  S  S1  1  0.328085  0.388689  0.228342  1
  S  S2  1  0.328085  0.888689  0.271658  1
  S  S3  1  0.671915  0.611311  0.771658  1
  S  S4  1  0.211049  0.340843  0.873384  1
  S  S5  1  0.788951  0.159157  0.373384  1
  S  S6  1  0.788951  0.659157  0.126616  1
  S  S7  1  0.211049  0.840843  0.626616  1
  S  S8  1  0.749578  0.499909  0.556171  1
  S  S9  1  0.250422  0.000091  0.056171  1
  S  S10  1  0.250422  0.500091  0.443829  1
  S  S11  1  0.749578  0.999909  0.943829  1
  S  S12  1  0.774822  0.396804  0.940614  1
  S  S13  1  0.225178  0.103196  0.440614  1
  S  S14  1  0.225178  0.603196  0.059386  1
  S  S15  1  0.774822  0.896804  0.559386  1
  S  S16  1  0.290471  0.763174  0.841141  1
  S  S17  1  0.709529  0.736826  0.341141  1
  S  S18  1  0.709529  0.236826  0.158859  1
  S  S19  1  0.290471  0.263174  0.658859  1
  Sb  Sb20  1  0.503241  0.063445  0.869187  1
  Sb  Sb21  1  0.496759  0.436555  0.369187  1
  Sb  Sb22  1  0.496759  0.936555  0.130813  1
  Sb  Sb23  1  0.503241  0.563445  0.630813  1
  Sb  Sb24  1  1.006870  0.213214  0.503352  1
  Sb  Sb25  1  -0.006870  0.286786  0.003352  1
  Sb  Sb26  1  -0.006870  0.786786  0.496648  1
  Sb  Sb27  1  1.006870  0.713214  0.996648  1
  Sb  Sb28  1  0.466538  0.112278  0.596325  1
  Sb  Sb29  1  0.533462  0.387722  0.096325  1
  Sb  Sb30  1  0.533462  0.887722  0.403675  1
  Sb  Sb31  1  0.466538  0.612278  0.903675  1
  Tl  Tl32  1  0.973275  0.462479  0.736017  1
  Tl  Tl33  1  0.026725  0.037521  0.236017  1
  Tl  Tl34  1  0.026725  0.537521  0.263983  1
  Tl  Tl35  1  0.973275  0.962479  0.763983  1
