# generated using pymatgen
data_Fe2WO6
_symmetry_space_group_name_H-M   'P 1'
_cell_length_a   4.62452320
_cell_length_b   5.07184246
_cell_length_c   16.96812842
_cell_angle_alpha   90.00000000
_cell_angle_beta   90.00000000
_cell_angle_gamma   90.00000000
_symmetry_Int_Tables_number   1
_chemical_formula_structural   Fe2WO6
_chemical_formula_sum   'Fe8 W4 O24'
_cell_volume   397.98495986
_cell_formula_units_Z   4
loop_
 _symmetry_equiv_pos_site_id
 _symmetry_equiv_pos_as_xyz
  1  'x, y, z'
loop_
 _atom_site_type_symbol
 _atom_site_label
 _atom_site_symmetry_multiplicity
 _atom_site_fract_x
 _atom_site_fract_y
 _atom_site_fract_z
 _atom_site_occupancy
  O  O0  1  0.725014  0.916050  0.202675  1
  O  O1  1  0.225014  0.083950  0.297325  1
  O  O2  1  0.774986  0.416050  0.297325  1
  O  O3  1  0.274986  0.583950  0.202675  1
  O  O4  1  0.274986  0.083950  0.797325  1
  O  O5  1  0.774986  0.916050  0.702675  1
  O  O6  1  0.225014  0.583950  0.702675  1
  O  O7  1  0.725014  0.416050  0.797325  1
  O  O8  1  0.726540  0.429976  0.125914  1
  O  O9  1  0.226540  0.570024  0.374086  1
  O  O10  1  0.773460  0.929976  0.374086  1
  O  O11  1  0.273460  0.070024  0.125914  1
  O  O12  1  0.763663  0.406571  0.959125  1
  O  O13  1  0.263663  0.593429  0.540875  1
  O  O14  1  0.736337  0.906571  0.540875  1
  O  O15  1  0.236338  0.093429  0.959125  1
  O  O16  1  0.236338  0.593429  0.040875  1
  O  O17  1  0.736337  0.406571  0.459125  1
  O  O18  1  0.263663  0.093429  0.459125  1
  O  O19  1  0.763663  0.906571  0.040875  1
  O  O20  1  0.726540  0.929976  0.874086  1
  O  O21  1  0.226540  0.070024  0.625914  1
  O  O22  1  0.773460  0.429976  0.625914  1
  O  O23  1  0.273460  0.570024  0.874086  1
  Fe  Fe24  1  0.000000  0.750000  0.947175  1
  Fe  Fe25  1  0.500000  0.250000  0.552825  1
  Fe  Fe26  1  0.000000  0.250000  0.052825  1
  Fe  Fe27  1  0.500000  0.750000  0.447175  1
  Fe  Fe28  1  0.500000  0.750000  0.777653  1
  Fe  Fe29  1  0.000000  0.250000  0.722347  1
  Fe  Fe30  1  0.500000  0.250000  0.222347  1
  Fe  Fe31  1  0.000000  0.750000  0.277653  1
  W  W32  1  0.000000  0.750000  0.615649  1
  W  W33  1  0.500000  0.250000  0.884351  1
  W  W34  1  0.000000  0.250000  0.384351  1
  W  W35  1  0.500000  0.750000  0.115649  1
