# generated using pymatgen
data_BaU2O7
_symmetry_space_group_name_H-M   'P 1'
_cell_length_a   7.20311049
_cell_length_b   7.20311049
_cell_length_c   7.96600141
_cell_angle_alpha   116.87951387
_cell_angle_beta   116.87951388
_cell_angle_gamma   90.00000003
_symmetry_Int_Tables_number   1
_chemical_formula_structural   BaU2O7
_chemical_formula_sum   'Ba2 U4 O14'
_cell_volume   317.79081772
_cell_formula_units_Z   2
loop_
 _symmetry_equiv_pos_site_id
 _symmetry_equiv_pos_as_xyz
  1  'x, y, z'
loop_
 _atom_site_type_symbol
 _atom_site_label
 _atom_site_symmetry_multiplicity
 _atom_site_fract_x
 _atom_site_fract_y
 _atom_site_fract_z
 _atom_site_occupancy
  O  O0  1  0.625000  0.375000  0.250000  1
  O  O1  1  0.375000  0.625000  0.750000  1
  O  O2  1  0.592905  0.842905  0.185811  1
  O  O3  1  0.842905  0.592905  0.685811  1
  O  O4  1  0.407095  0.157095  0.814189  1
  O  O5  1  0.157095  0.407095  0.314189  1
  O  O6  1  0.236415  0.000000  0.000000  1
  O  O7  1  0.500000  0.236415  0.500000  1
  O  O8  1  0.000000  0.763585  0.500000  1
  O  O9  1  0.763585  0.500000  0.000000  1
  O  O10  1  0.763585  0.000000  0.000000  1
  O  O11  1  0.500000  0.763585  0.500000  1
  O  O12  1  0.000000  0.236415  0.500000  1
  O  O13  1  0.236415  0.500000  0.000000  1
  Ba  Ba14  1  0.875000  0.125000  0.750000  1
  Ba  Ba15  1  0.125000  0.875000  0.250000  1
  U  U16  1  0.500000  0.000000  0.000000  1
  U  U17  1  0.500000  0.500000  0.500000  1
  U  U18  1  0.000000  0.500000  0.500000  1
  U  U19  1  0.500000  0.500000  0.000000  1
