# generated using pymatgen
data_GaBr2
_symmetry_space_group_name_H-M   'P 1'
_cell_length_a   7.85765899
_cell_length_b   10.50955922
_cell_length_c   10.73724800
_cell_angle_alpha   90.00000000
_cell_angle_beta   90.00000000
_cell_angle_gamma   90.00000000
_symmetry_Int_Tables_number   1
_chemical_formula_structural   GaBr2
_chemical_formula_sum   'Ga8 Br16'
_cell_volume   886.68765727
_cell_formula_units_Z   8
loop_
 _symmetry_equiv_pos_site_id
 _symmetry_equiv_pos_as_xyz
  1  'x, y, z'
loop_
 _atom_site_type_symbol
 _atom_site_label
 _atom_site_symmetry_multiplicity
 _atom_site_fract_x
 _atom_site_fract_y
 _atom_site_fract_z
 _atom_site_occupancy
  Ga  Ga0  1  0.250000  0.000000  0.186708  1
  Ga  Ga1  1  0.250000  0.500000  0.313292  1
  Ga  Ga2  1  0.750000  0.000000  0.813292  1
  Ga  Ga3  1  0.750000  0.500000  0.686708  1
  Ga  Ga4  1  0.598409  0.250000  0.250000  1
  Ga  Ga5  1  0.901591  0.750000  0.250000  1
  Ga  Ga6  1  0.401591  0.750000  0.750000  1
  Ga  Ga7  1  0.098409  0.250000  0.750000  1
  Br  Br8  1  0.320289  0.180323  0.063408  1
  Br  Br9  1  0.320289  0.319677  0.436592  1
  Br  Br10  1  0.179711  0.680323  0.436592  1
  Br  Br11  1  0.179711  0.819677  0.063408  1
  Br  Br12  1  0.679711  0.819677  0.936592  1
  Br  Br13  1  0.679711  0.680323  0.563408  1
  Br  Br14  1  0.820289  0.319677  0.563408  1
  Br  Br15  1  0.820289  0.180323  0.936592  1
  Br  Br16  1  0.005650  0.034417  0.310823  1
  Br  Br17  1  0.005650  0.465583  0.189177  1
  Br  Br18  1  0.494350  0.534417  0.189177  1
  Br  Br19  1  0.494350  0.965583  0.310823  1
  Br  Br20  1  0.994350  0.965583  0.689177  1
  Br  Br21  1  0.994350  0.534417  0.810823  1
  Br  Br22  1  0.505650  0.465583  0.810823  1
  Br  Br23  1  0.505650  0.034417  0.689177  1
