# generated using pymatgen
data_Na2W2O7
_symmetry_space_group_name_H-M   'P 1'
_cell_length_a   3.87853741
_cell_length_b   5.52393671
_cell_length_c   13.80581632
_cell_angle_alpha   90.00000000
_cell_angle_beta   98.07490016
_cell_angle_gamma   90.00000000
_symmetry_Int_Tables_number   1
_chemical_formula_structural   Na2W2O7
_chemical_formula_sum   'Na4 W4 O14'
_cell_volume   292.85414609
_cell_formula_units_Z   2
loop_
 _symmetry_equiv_pos_site_id
 _symmetry_equiv_pos_as_xyz
  1  'x, y, z'
loop_
 _atom_site_type_symbol
 _atom_site_label
 _atom_site_symmetry_multiplicity
 _atom_site_fract_x
 _atom_site_fract_y
 _atom_site_fract_z
 _atom_site_occupancy
  O  O0  1  0.307747  0.819201  0.615497  1
  O  O1  1  0.692252  0.319202  0.384503  1
  O  O2  1  0.953207  0.608668  0.906415  1
  O  O3  1  0.046793  0.108667  0.093585  1
  O  O4  1  0.291402  0.304440  0.582807  1
  O  O5  1  0.708598  0.804441  0.417193  1
  O  O6  1  0.854116  0.110215  0.708233  1
  O  O7  1  0.145883  0.610214  0.291767  1
  O  O8  1  0.605256  0.895430  0.210510  1
  O  O9  1  0.394746  0.395431  0.789491  1
  O  O10  1  0.492052  0.320489  0.984102  1
  O  O11  1  0.410186  0.895178  0.820375  1
  O  O12  1  0.589813  0.395177  0.179625  1
  O  O13  1  0.507948  0.820490  0.015898  1
  Na  Na14  1  0.783529  0.571020  0.567059  1
  Na  Na15  1  0.216471  0.071019  0.432941  1
  Na  Na16  1  0.053725  0.615135  0.107451  1
  Na  Na17  1  0.946275  0.115134  0.892549  1
  W  W18  1  0.342105  0.094854  0.684210  1
  W  W19  1  0.657894  0.594855  0.315790  1
  W  W20  1  0.447215  0.606850  0.894427  1
  W  W21  1  0.552788  0.106850  0.105573  1
