# generated using pymatgen
data_CoPb2WO6
_symmetry_space_group_name_H-M   'P 1'
_cell_length_a   5.71730651
_cell_length_b   5.70267958
_cell_length_c   5.71730652
_cell_angle_alpha   90.89565569
_cell_angle_beta   119.89078092
_cell_angle_gamma   119.16372817
_symmetry_Int_Tables_number   1
_chemical_formula_structural   CoPb2WO6
_chemical_formula_sum   'Co1 Pb2 W1 O6'
_cell_volume   132.64318659
_cell_formula_units_Z   1
loop_
 _symmetry_equiv_pos_site_id
 _symmetry_equiv_pos_as_xyz
  1  'x, y, z'
loop_
 _atom_site_type_symbol
 _atom_site_label
 _atom_site_symmetry_multiplicity
 _atom_site_fract_x
 _atom_site_fract_y
 _atom_site_fract_z
 _atom_site_occupancy
  O  O0  1  0.996993  0.270465  0.791000  1
  O  O1  1  0.520535  0.729535  0.726527  1
  O  O2  1  0.003007  0.729535  0.209000  1
  O  O3  1  0.479465  0.270465  0.273473  1
  O  O4  1  0.942367  0.182063  0.239697  1
  O  O5  1  0.057633  0.817937  0.760303  1
  Co  Co6  1  0.000000  0.500000  0.500000  1
  W  W7  1  0.000000  0.000000  0.000000  1
  Pb  Pb8  1  0.508336  0.258912  0.750576  1
  Pb  Pb9  1  0.491664  0.741088  0.249424  1
