# generated using pymatgen
data_Pt5Se4
_symmetry_space_group_name_H-M   'P 1'
_cell_length_a   4.70375086
_cell_length_b   6.67185234
_cell_length_c   11.27205194
_cell_angle_alpha   101.39567952
_cell_angle_beta   90.00000000
_cell_angle_gamma   90.00000000
_symmetry_Int_Tables_number   1
_chemical_formula_structural   Pt5Se4
_chemical_formula_sum   'Pt10 Se8'
_cell_volume   346.77401927
_cell_formula_units_Z   2
loop_
 _symmetry_equiv_pos_site_id
 _symmetry_equiv_pos_as_xyz
  1  'x, y, z'
loop_
 _atom_site_type_symbol
 _atom_site_label
 _atom_site_symmetry_multiplicity
 _atom_site_fract_x
 _atom_site_fract_y
 _atom_site_fract_z
 _atom_site_occupancy
  Se  Se0  1  0.462319  0.485719  0.356035  1
  Se  Se1  1  0.962319  0.514281  0.143965  1
  Se  Se2  1  0.537681  0.514281  0.643965  1
  Se  Se3  1  0.037681  0.485719  0.856035  1
  Se  Se4  1  0.865209  0.088329  0.362337  1
  Se  Se5  1  0.365209  0.911671  0.137663  1
  Se  Se6  1  0.134791  0.911671  0.637663  1
  Se  Se7  1  0.634791  0.088329  0.862337  1
  Pt  Pt8  1  0.000000  0.000000  0.000000  1
  Pt  Pt9  1  0.500000  0.000000  0.500000  1
  Pt  Pt10  1  0.163494  0.776560  0.326376  1
  Pt  Pt11  1  0.663494  0.223440  0.173624  1
  Pt  Pt12  1  0.836506  0.223440  0.673624  1
  Pt  Pt13  1  0.336506  0.776560  0.826376  1
  Pt  Pt14  1  0.832160  0.668452  0.497788  1
  Pt  Pt15  1  0.332160  0.331548  0.002212  1
  Pt  Pt16  1  0.167840  0.331548  0.502212  1
  Pt  Pt17  1  0.667840  0.668452  0.997788  1
