# generated using pymatgen
data_TlHg5Cl11
_symmetry_space_group_name_H-M   'P 1'
_cell_length_a   6.62017783
_cell_length_b   9.65738358
_cell_length_c   9.65738383
_cell_angle_alpha   100.71993033
_cell_angle_beta   107.70554889
_cell_angle_gamma   107.70554524
_symmetry_Int_Tables_number   1
_chemical_formula_structural   TlHg5Cl11
_chemical_formula_sum   'Tl1 Hg5 Cl11'
_cell_volume   533.28617429
_cell_formula_units_Z   1
loop_
 _symmetry_equiv_pos_site_id
 _symmetry_equiv_pos_as_xyz
  1  'x, y, z'
loop_
 _atom_site_type_symbol
 _atom_site_label
 _atom_site_symmetry_multiplicity
 _atom_site_fract_x
 _atom_site_fract_y
 _atom_site_fract_z
 _atom_site_occupancy
  Hg  Hg0  1  0.000000  0.000000  0.000000  1
  Hg  Hg1  1  0.313972  0.484015  0.147657  1
  Hg  Hg2  1  0.686028  0.852343  0.515985  1
  Hg  Hg3  1  0.686028  0.515985  0.852343  1
  Hg  Hg4  1  0.313972  0.147657  0.484015  1
  Tl  Tl5  1  0.000000  0.500000  0.500000  1
  Cl  Cl6  1  0.613964  0.852264  0.852264  1
  Cl  Cl7  1  0.386036  0.147736  0.147736  1
  Cl  Cl8  1  0.303491  0.362292  0.797122  1
  Cl  Cl9  1  0.696509  0.202878  0.637708  1
  Cl  Cl10  1  0.696509  0.637708  0.202878  1
  Cl  Cl11  1  0.303491  0.797122  0.362292  1
  Cl  Cl12  1  0.928838  0.332809  0.083816  1
  Cl  Cl13  1  0.071162  0.916184  0.667191  1
  Cl  Cl14  1  0.071162  0.667191  0.916184  1
  Cl  Cl15  1  0.928838  0.083816  0.332809  1
  Cl  Cl16  1  0.500000  0.500000  0.500000  1
