# generated using pymatgen
data_Hg5(ClO2)2
_symmetry_space_group_name_H-M   'P 1'
_cell_length_a   6.22622848
_cell_length_b   9.02698889
_cell_length_c   9.02682577
_cell_angle_alpha   82.72938572
_cell_angle_beta   69.82956433
_cell_angle_gamma   69.83034690
_symmetry_Int_Tables_number   1
_chemical_formula_structural   Hg5(ClO2)2
_chemical_formula_sum   'Hg10 Cl4 O8'
_cell_volume   447.00835298
_cell_formula_units_Z   2
loop_
 _symmetry_equiv_pos_site_id
 _symmetry_equiv_pos_as_xyz
  1  'x, y, z'
loop_
 _atom_site_type_symbol
 _atom_site_label
 _atom_site_symmetry_multiplicity
 _atom_site_fract_x
 _atom_site_fract_y
 _atom_site_fract_z
 _atom_site_occupancy
  Hg  Hg0  1  0.212615  0.139641  0.860357  1
  Hg  Hg1  1  0.787385  0.860359  0.139643  1
  Hg  Hg2  1  0.287391  0.639642  0.360355  1
  Hg  Hg3  1  0.749990  0.591081  0.908924  1
  Hg  Hg4  1  0.749997  0.908876  0.591120  1
  Hg  Hg5  1  0.250003  0.091124  0.408880  1
  Hg  Hg6  1  0.749992  0.249998  0.250002  1
  Hg  Hg7  1  0.250010  0.408919  0.091076  1
  Hg  Hg8  1  0.712609  0.360358  0.639645  1
  Hg  Hg9  1  0.250008  0.750002  0.749998  1
  Cl  Cl10  1  0.769221  0.608888  0.391197  1
  Cl  Cl11  1  0.230779  0.391112  0.608803  1
  Cl  Cl12  1  0.730765  0.108817  0.891123  1
  Cl  Cl13  1  0.269235  0.891183  0.108877  1
  O  O14  1  0.125446  0.821426  0.529332  1
  O  O15  1  0.023783  0.321422  0.029331  1
  O  O16  1  0.874554  0.178574  0.470668  1
  O  O17  1  0.476241  0.470676  0.178564  1
  O  O18  1  0.523759  0.529324  0.821436  1
  O  O19  1  0.976217  0.678578  0.970669  1
  O  O20  1  0.374540  0.970675  0.678561  1
  O  O21  1  0.625460  0.029325  0.321439  1
