# generated using pymatgen
data_Sb7Se8F35
_symmetry_space_group_name_H-M   'P 1'
_cell_length_a   11.41959222
_cell_length_b   11.80538705
_cell_length_c   13.91439250
_cell_angle_alpha   90.00000000
_cell_angle_beta   90.00000000
_cell_angle_gamma   93.47406393
_symmetry_Int_Tables_number   1
_chemical_formula_structural   Sb7Se8F35
_chemical_formula_sum   'Sb14 Se16 F70'
_cell_volume   1872.38973935
_cell_formula_units_Z   2
loop_
 _symmetry_equiv_pos_site_id
 _symmetry_equiv_pos_as_xyz
  1  'x, y, z'
loop_
 _atom_site_type_symbol
 _atom_site_label
 _atom_site_symmetry_multiplicity
 _atom_site_fract_x
 _atom_site_fract_y
 _atom_site_fract_z
 _atom_site_occupancy
  F  F0  1  0.987582  0.494942  0.362367  1
  F  F1  1  0.512418  0.005058  0.862367  1
  F  F2  1  0.012418  0.505058  0.637633  1
  F  F3  1  0.487582  0.994942  0.137633  1
  F  F4  1  0.989707  0.338132  0.504781  1
  F  F5  1  0.510293  0.161868  0.004782  1
  F  F6  1  0.010293  0.661868  0.495219  1
  F  F7  1  0.489707  0.838132  0.995219  1
  F  F8  1  0.170436  0.500510  0.490711  1
  F  F9  1  0.329564  0.999490  0.990711  1
  F  F10  1  0.829564  0.499490  0.509289  1
  F  F11  1  0.670436  0.000510  0.009289  1
  F  F12  1  0.893140  0.320217  0.847914  1
  F  F13  1  0.606860  0.179783  0.347914  1
  F  F14  1  0.106860  0.679783  0.152086  1
  F  F15  1  0.393140  0.820217  0.652086  1
  F  F16  1  0.906649  0.211720  0.673671  1
  F  F17  1  0.593351  0.288280  0.173671  1
  F  F18  1  0.093351  0.788280  0.326329  1
  F  F19  1  0.406649  0.711720  0.826329  1
  F  F20  1  0.763439  0.384321  0.698060  1
  F  F21  1  0.736561  0.115679  0.198060  1
  F  F22  1  0.236561  0.615679  0.301940  1
  F  F23  1  0.263439  0.884321  0.801940  1
  F  F24  1  0.804180  0.102312  0.824241  1
  F  F25  1  0.695820  0.397688  0.324241  1
  F  F26  1  0.195820  0.897688  0.175759  1
  F  F27  1  0.304181  0.602312  0.675759  1
  F  F28  1  0.673805  0.167857  0.670135  1
  F  F29  1  0.826195  0.332143  0.170135  1
  F  F30  1  0.326195  0.832143  0.329865  1
  F  F31  1  0.173805  0.667857  0.829865  1
  F  F32  1  0.654791  0.272221  0.845352  1
  F  F33  1  0.845209  0.227779  0.345352  1
  F  F34  1  0.345209  0.727779  0.154648  1
  F  F35  1  0.154791  0.772221  0.654648  1
  F  F36  1  0.788716  0.753107  0.572963  1
  F  F37  1  0.711284  0.746893  0.072963  1
  F  F38  1  0.211284  0.246893  0.427037  1
  F  F39  1  0.288716  0.253107  0.927037  1
  F  F40  1  0.887915  0.880744  0.717536  1
  F  F41  1  0.612085  0.619256  0.217536  1
  F  F42  1  0.112085  0.119256  0.282464  1
  F  F43  1  0.387915  0.380744  0.782464  1
  F  F44  1  0.720432  0.791999  0.839427  1
  F  F45  1  0.779568  0.708001  0.339427  1
  F  F46  1  0.279568  0.208001  0.160573  1
  F  F47  1  0.220432  0.291999  0.660573  1
  F  F48  1  0.627771  0.662975  0.697419  1
  F  F49  1  0.872229  0.837025  0.197419  1
  F  F50  1  0.372229  0.337025  0.302581  1
  F  F51  1  0.127771  0.162975  0.802581  1
  F  F52  1  0.655770  0.896830  0.670607  1
  F  F53  1  0.844230  0.603170  0.170607  1
  F  F54  1  0.344230  0.103170  0.329393  1
  F  F55  1  0.155770  0.396830  0.829393  1
  F  F56  1  0.858015  0.653796  0.739923  1
  F  F57  1  0.641985  0.846204  0.239923  1
  F  F58  1  0.141985  0.346204  0.260077  1
  F  F59  1  0.358015  0.153796  0.760077  1
  F  F60  1  0.000000  0.500000  0.000000  1
  F  F61  1  0.500000  0.000000  0.500000  1
  F  F62  1  0.792755  0.526932  0.902793  1
  F  F63  1  0.707245  0.973068  0.402793  1
  F  F64  1  0.207245  0.473068  0.097207  1
  F  F65  1  0.292755  0.026932  0.597207  1
  F  F66  1  0.958438  0.703747  0.918484  1
  F  F67  1  0.541562  0.796253  0.418484  1
  F  F68  1  0.041562  0.296253  0.081516  1
  F  F69  1  0.458438  0.203747  0.581516  1
  Se  Se70  1  0.884082  0.915957  0.972979  1
  Se  Se71  1  0.615918  0.584043  0.472979  1
  Se  Se72  1  0.115918  0.084043  0.027021  1
  Se  Se73  1  0.384082  0.415957  0.527021  1
  Se  Se74  1  0.085984  0.903417  0.963235  1
  Se  Se75  1  0.414016  0.596583  0.463235  1
  Se  Se76  1  0.914016  0.096583  0.036765  1
  Se  Se77  1  0.585984  0.403417  0.536765  1
  Se  Se78  1  0.933465  0.920812  0.416959  1
  Se  Se79  1  0.566535  0.579188  0.916959  1
  Se  Se80  1  0.066535  0.079188  0.583041  1
  Se  Se81  1  0.433465  0.420812  0.083041  1
  Se  Se82  1  0.880385  0.065671  0.517179  1
  Se  Se83  1  0.619615  0.434329  0.017179  1
  Se  Se84  1  0.119615  0.934329  0.482821  1
  Se  Se85  1  0.380385  0.565671  0.982821  1
  Sb  Sb86  1  0.000000  0.500000  0.500000  1
  Sb  Sb87  1  0.500000  0.000000  0.000000  1
  Sb  Sb88  1  0.781564  0.242809  0.761758  1
  Sb  Sb89  1  0.718436  0.257191  0.261758  1
  Sb  Sb90  1  0.218436  0.757191  0.238242  1
  Sb  Sb91  1  0.281564  0.742809  0.738242  1
  Sb  Sb92  1  0.753716  0.777226  0.705264  1
  Sb  Sb93  1  0.746284  0.722774  0.205264  1
  Sb  Sb94  1  0.246284  0.222774  0.294736  1
  Sb  Sb95  1  0.253716  0.277226  0.794736  1
  Sb  Sb96  1  0.954817  0.553901  0.857066  1
  Sb  Sb97  1  0.545183  0.946099  0.357066  1
  Sb  Sb98  1  0.045183  0.446099  0.142934  1
  Sb  Sb99  1  0.454817  0.053901  0.642934  1
