# generated using pymatgen
data_Ba2Y(CuO2)3
_symmetry_space_group_name_H-M   'P 1'
_cell_length_a   3.89049541
_cell_length_b   3.89065171
_cell_length_c   12.12301951
_cell_angle_alpha   90.00004492
_cell_angle_beta   90.00018291
_cell_angle_gamma   90.00000427
_symmetry_Int_Tables_number   1
_chemical_formula_structural   Ba2Y(CuO2)3
_chemical_formula_sum   'Ba2 Y1 Cu3 O6'
_cell_volume   183.50084395
_cell_formula_units_Z   1
loop_
 _symmetry_equiv_pos_site_id
 _symmetry_equiv_pos_as_xyz
  1  'x, y, z'
loop_
 _atom_site_type_symbol
 _atom_site_label
 _atom_site_symmetry_multiplicity
 _atom_site_fract_x
 _atom_site_fract_y
 _atom_site_fract_z
 _atom_site_occupancy
  Ba  Ba0  1  0.500001  0.500000  0.197114  1
  Ba  Ba1  1  0.500000  0.499999  0.802889  1
  Y  Y2  1  0.500001  0.499998  0.500002  1
  Cu  Cu3  1  0.999995  0.999997  0.368125  1
  Cu  Cu4  1  0.000001  0.000002  0.631867  1
  Cu  Cu5  1  0.000004  0.000005  -0.000002  1
  O  O6  1  0.999999  0.499999  0.620909  1
  O  O7  1  0.499999  -0.000002  0.379080  1
  O  O8  1  0.500000  -0.000000  0.618710  1
  O  O9  1  0.999999  0.000001  0.149340  1
  O  O10  1  0.000000  0.500001  0.381272  1
  O  O11  1  0.000000  0.999999  0.850693  1
