# generated using pymatgen
data_Ag(TeMo)6
_symmetry_space_group_name_H-M   'P 1'
_cell_length_a   4.61488367
_cell_length_b   9.57212672
_cell_length_c   9.69975864
_cell_angle_alpha   120.61213176
_cell_angle_beta   90.00000000
_cell_angle_gamma   103.94901818
_symmetry_Int_Tables_number   1
_chemical_formula_structural   Ag(TeMo)6
_chemical_formula_sum   'Ag1 Te6 Mo6'
_cell_volume   354.00351376
_cell_formula_units_Z   1
loop_
 _symmetry_equiv_pos_site_id
 _symmetry_equiv_pos_as_xyz
  1  'x, y, z'
loop_
 _atom_site_type_symbol
 _atom_site_label
 _atom_site_symmetry_multiplicity
 _atom_site_fract_x
 _atom_site_fract_y
 _atom_site_fract_z
 _atom_site_occupancy
  Mo  Mo0  1  0.714194  0.428388  0.316401  1
  Mo  Mo1  1  0.285806  0.571612  0.683599  1
  Mo  Mo2  1  0.846014  0.692029  0.622269  1
  Mo  Mo3  1  0.153986  0.307971  0.377731  1
  Mo  Mo4  1  0.688992  0.377985  0.563056  1
  Mo  Mo5  1  0.311008  0.622015  0.436944  1
  Ag  Ag6  1  0.000000  0.000000  0.000000  1
  Te  Te7  1  0.121776  0.243552  0.632075  1
  Te  Te8  1  0.544179  0.088357  0.250937  1
  Te  Te9  1  0.455821  0.911643  0.749063  1
  Te  Te10  1  0.822056  0.644113  0.891566  1
  Te  Te11  1  0.177944  0.355887  0.108434  1
  Te  Te12  1  0.878224  0.756448  0.367925  1
