# generated using pymatgen
data_Bi2Te2S
_symmetry_space_group_name_H-M   'P 1'
_cell_length_a   10.64690353
_cell_length_b   10.64690360
_cell_length_c   10.64690320
_cell_angle_alpha   23.27875230
_cell_angle_beta   23.27875144
_cell_angle_gamma   23.27875423
_symmetry_Int_Tables_number   1
_chemical_formula_structural   Bi2Te2S
_chemical_formula_sum   'Bi2 Te2 S1'
_cell_volume   165.49146361
_cell_formula_units_Z   1
loop_
 _symmetry_equiv_pos_site_id
 _symmetry_equiv_pos_as_xyz
  1  'x, y, z'
loop_
 _atom_site_type_symbol
 _atom_site_label
 _atom_site_symmetry_multiplicity
 _atom_site_fract_x
 _atom_site_fract_y
 _atom_site_fract_z
 _atom_site_occupancy
  Bi  Bi0  1  0.610648  0.610648  0.610648  1
  Bi  Bi1  1  0.389352  0.389352  0.389352  1
  Te  Te2  1  0.780352  0.780352  0.780352  1
  Te  Te3  1  0.219648  0.219648  0.219648  1
  S  S4  1  0.000000  0.000000  0.000000  1
