# generated using pymatgen
data_Y6OsI10
_symmetry_space_group_name_H-M   'P 1'
_cell_length_a   7.74610624
_cell_length_b   9.74700159
_cell_length_c   9.79136255
_cell_angle_alpha   107.52004192
_cell_angle_beta   96.99339662
_cell_angle_gamma   104.82887605
_symmetry_Int_Tables_number   1
_chemical_formula_structural   Y6OsI10
_chemical_formula_sum   'Y6 Os1 I10'
_cell_volume   665.45285099
_cell_formula_units_Z   1
loop_
 _symmetry_equiv_pos_site_id
 _symmetry_equiv_pos_as_xyz
  1  'x, y, z'
loop_
 _atom_site_type_symbol
 _atom_site_label
 _atom_site_symmetry_multiplicity
 _atom_site_fract_x
 _atom_site_fract_y
 _atom_site_fract_z
 _atom_site_occupancy
  Y  Y0  1  0.111805  0.039542  0.758641  1
  Y  Y1  1  0.888195  0.960458  0.241359  1
  Y  Y2  1  0.972231  0.283763  0.084338  1
  Y  Y3  1  0.027769  0.716237  0.915662  1
  Y  Y4  1  0.351824  0.126506  0.167160  1
  Y  Y5  1  0.648176  0.873494  0.832840  1
  I  I6  1  0.356042  0.453747  0.273396  1
  I  I7  1  0.643958  0.546253  0.726604  1
  I  I8  1  0.261866  0.088872  0.461480  1
  I  I9  1  0.738134  0.911128  0.538520  1
  I  I10  1  0.086565  0.369649  0.820198  1
  I  I11  1  0.913435  0.630351  0.179802  1
  I  I12  1  0.454491  0.818058  0.091742  1
  I  I13  1  0.545509  0.181942  0.908258  1
  I  I14  1  0.788449  0.261043  0.348482  1
  I  I15  1  0.211551  0.738957  0.651518  1
  Os  Os16  1  0.000000  0.000000  0.000000  1
