# generated using pymatgen
data_Tl3Cd2I7
_symmetry_space_group_name_H-M   'P 1'
_cell_length_a   4.59058772
_cell_length_b   14.34547667
_cell_length_c   15.45217222
_cell_angle_alpha   90.00000000
_cell_angle_beta   90.00000000
_cell_angle_gamma   90.00000000
_symmetry_Int_Tables_number   1
_chemical_formula_structural   Tl3Cd2I7
_chemical_formula_sum   'Tl6 Cd4 I14'
_cell_volume   1017.58996139
_cell_formula_units_Z   2
loop_
 _symmetry_equiv_pos_site_id
 _symmetry_equiv_pos_as_xyz
  1  'x, y, z'
loop_
 _atom_site_type_symbol
 _atom_site_label
 _atom_site_symmetry_multiplicity
 _atom_site_fract_x
 _atom_site_fract_y
 _atom_site_fract_z
 _atom_site_occupancy
  Cd  Cd0  1  0.500000  0.247030  0.885951  1
  Cd  Cd1  1  0.500000  0.752970  0.114049  1
  Cd  Cd2  1  0.500000  0.252970  0.385951  1
  Cd  Cd3  1  0.500000  0.747030  0.614049  1
  I  I4  1  0.000000  0.340178  0.309046  1
  I  I5  1  0.000000  0.659822  0.690954  1
  I  I6  1  0.000000  0.159822  0.809046  1
  I  I7  1  0.000000  0.840178  0.190954  1
  I  I8  1  0.500000  0.500000  0.500000  1
  I  I9  1  0.500000  0.000000  0.000000  1
  I  I10  1  0.500000  0.705276  0.938296  1
  I  I11  1  0.500000  0.294724  0.061704  1
  I  I12  1  0.500000  0.205276  0.561704  1
  I  I13  1  0.500000  0.794724  0.438296  1
  I  I14  1  0.500000  0.933321  0.681985  1
  I  I15  1  0.500000  0.066679  0.318015  1
  I  I16  1  0.500000  0.433321  0.818015  1
  I  I17  1  0.500000  0.566679  0.181985  1
  Tl  Tl18  1  0.000000  0.000000  0.500000  1
  Tl  Tl19  1  0.000000  0.500000  0.000000  1
  Tl  Tl20  1  0.000000  0.605056  0.365611  1
  Tl  Tl21  1  0.000000  0.394944  0.634389  1
  Tl  Tl22  1  0.000000  0.105056  0.134389  1
  Tl  Tl23  1  0.000000  0.894944  0.865611  1
