# generated using pymatgen
data_Mn6Si7Ni16
_symmetry_space_group_name_H-M   'P 1'
_cell_length_a   7.83434720
_cell_length_b   7.83434721
_cell_length_c   7.83434720
_cell_angle_alpha   60.00000002
_cell_angle_beta   60.00000001
_cell_angle_gamma   60.00000004
_symmetry_Int_Tables_number   1
_chemical_formula_structural   Mn6Si7Ni16
_chemical_formula_sum   'Mn6 Si7 Ni16'
_cell_volume   340.01137501
_cell_formula_units_Z   1
loop_
 _symmetry_equiv_pos_site_id
 _symmetry_equiv_pos_as_xyz
  1  'x, y, z'
loop_
 _atom_site_type_symbol
 _atom_site_label
 _atom_site_symmetry_multiplicity
 _atom_site_fract_x
 _atom_site_fract_y
 _atom_site_fract_z
 _atom_site_occupancy
  Si  Si0  1  0.000000  0.000000  0.000000  1
  Si  Si1  1  0.500000  0.000000  0.000000  1
  Si  Si2  1  0.000000  0.000000  0.500000  1
  Si  Si3  1  0.500000  0.500000  0.000000  1
  Si  Si4  1  0.000000  0.500000  0.500000  1
  Si  Si5  1  0.000000  0.500000  0.000000  1
  Si  Si6  1  0.500000  0.000000  0.500000  1
  Mn  Mn7  1  0.693994  0.306006  0.306006  1
  Mn  Mn8  1  0.693994  0.693994  0.306006  1
  Mn  Mn9  1  0.306006  0.306006  0.693994  1
  Mn  Mn10  1  0.693994  0.306006  0.693994  1
  Mn  Mn11  1  0.306006  0.693994  0.306006  1
  Mn  Mn12  1  0.306006  0.693994  0.693994  1
  Ni  Ni13  1  0.334560  0.334560  0.334560  1
  Ni  Ni14  1  0.665440  0.665440  0.003680  1
  Ni  Ni15  1  0.003680  0.665440  0.665440  1
  Ni  Ni16  1  0.665440  0.003680  0.665440  1
  Ni  Ni17  1  0.996320  0.334560  0.334560  1
  Ni  Ni18  1  0.334560  0.996320  0.334560  1
  Ni  Ni19  1  0.334560  0.334560  0.996320  1
  Ni  Ni20  1  0.665440  0.665440  0.665440  1
  Ni  Ni21  1  0.117608  0.117608  0.117608  1
  Ni  Ni22  1  0.882392  0.882392  0.352823  1
  Ni  Ni23  1  0.352823  0.882392  0.882392  1
  Ni  Ni24  1  0.882392  0.352823  0.882392  1
  Ni  Ni25  1  0.647177  0.117608  0.117608  1
  Ni  Ni26  1  0.117608  0.647177  0.117608  1
  Ni  Ni27  1  0.117608  0.117608  0.647177  1
  Ni  Ni28  1  0.882392  0.882392  0.882392  1
