# generated using pymatgen
data_H6CN4O
_symmetry_space_group_name_H-M   'P 1'
_cell_length_a   3.80535376
_cell_length_b   8.90660183
_cell_length_c   11.95325659
_cell_angle_alpha   90.00000000
_cell_angle_beta   90.29599462
_cell_angle_gamma   90.00000000
_symmetry_Int_Tables_number   1
_chemical_formula_structural   H6CN4O
_chemical_formula_sum   'H24 C4 N16 O4'
_cell_volume   405.12357907
_cell_formula_units_Z   4
loop_
 _symmetry_equiv_pos_site_id
 _symmetry_equiv_pos_as_xyz
  1  'x, y, z'
loop_
 _atom_site_type_symbol
 _atom_site_label
 _atom_site_symmetry_multiplicity
 _atom_site_fract_x
 _atom_site_fract_y
 _atom_site_fract_z
 _atom_site_occupancy
  H  H0  1  0.376785  0.528146  0.834001  1
  H  H1  1  0.123215  0.028146  0.665999  1
  H  H2  1  0.623215  0.471854  0.165999  1
  H  H3  1  0.876785  0.971854  0.334001  1
  H  H4  1  0.006036  0.455580  0.786673  1
  H  H5  1  0.493964  0.955580  0.713327  1
  H  H6  1  0.993964  0.544420  0.213327  1
  H  H7  1  0.506036  0.044420  0.286673  1
  H  H8  1  0.050335  0.709111  0.732124  1
  H  H9  1  0.449665  0.209111  0.767876  1
  H  H10  1  0.949665  0.290889  0.267876  1
  H  H11  1  0.550335  0.790889  0.232124  1
  H  H12  1  0.497469  0.869539  0.047197  1
  H  H13  1  0.429291  0.871372  0.520405  1
  H  H14  1  0.502531  0.130461  0.952803  1
  H  H15  1  0.997469  0.630461  0.547197  1
  H  H16  1  0.885729  0.921471  0.095527  1
  H  H17  1  0.614271  0.421471  0.404473  1
  H  H18  1  0.114271  0.078529  0.904473  1
  H  H19  1  0.385729  0.578529  0.595527  1
  H  H20  1  0.929291  0.628628  0.020405  1
  H  H21  1  0.570709  0.128628  0.479595  1
  H  H22  1  0.070709  0.371372  0.979595  1
  H  H23  1  0.002531  0.369539  0.452803  1
  C  C24  1  0.387815  0.720935  0.387742  1
  C  C25  1  0.612185  0.279065  0.612258  1
  C  C26  1  0.112185  0.220935  0.112258  1
  C  C27  1  0.887815  0.779065  0.887742  1
  N  N28  1  0.516899  0.173078  0.688546  1
  N  N29  1  0.391032  0.029940  0.655834  1
  N  N30  1  0.891032  0.470060  0.155834  1
  N  N31  1  0.608968  0.970060  0.344166  1
  N  N32  1  0.983101  0.673078  0.811454  1
  N  N33  1  0.108968  0.529940  0.844166  1
  N  N34  1  0.016899  0.326922  0.188546  1
  N  N35  1  0.483101  0.826922  0.311454  1
  N  N36  1  0.394271  0.761271  0.498105  1
  N  N37  1  0.770404  0.329360  0.420822  1
  N  N38  1  0.729596  0.829360  0.079178  1
  N  N39  1  0.229596  0.670640  0.579178  1
  N  N40  1  0.894271  0.738729  0.998105  1
  N  N41  1  0.605729  0.238729  0.501895  1
  N  N42  1  0.105729  0.261271  0.001895  1
  N  N43  1  0.270404  0.170640  0.920822  1
  O  O44  1  0.796220  0.908439  0.856015  1
  O  O45  1  0.703780  0.408439  0.643985  1
  O  O46  1  0.203780  0.091561  0.143985  1
  O  O47  1  0.296220  0.591561  0.356015  1
