# generated using pymatgen
data_K2TeI6
_symmetry_space_group_name_H-M   'P 1'
_cell_length_a   8.20945742
_cell_length_b   8.50225936
_cell_length_c   11.69569676
_cell_angle_alpha   90.00000000
_cell_angle_beta   90.13376883
_cell_angle_gamma   90.00000000
_symmetry_Int_Tables_number   1
_chemical_formula_structural   K2TeI6
_chemical_formula_sum   'K4 Te2 I12'
_cell_volume   816.34496733
_cell_formula_units_Z   2
loop_
 _symmetry_equiv_pos_site_id
 _symmetry_equiv_pos_as_xyz
  1  'x, y, z'
loop_
 _atom_site_type_symbol
 _atom_site_label
 _atom_site_symmetry_multiplicity
 _atom_site_fract_x
 _atom_site_fract_y
 _atom_site_fract_z
 _atom_site_occupancy
  K  K0  1  0.021535  0.576568  0.747440  1
  K  K1  1  0.478465  0.076568  0.752560  1
  K  K2  1  0.978465  0.423432  0.252560  1
  K  K3  1  0.521535  0.923432  0.247440  1
  Te  Te4  1  0.000000  0.000000  0.000000  1
  Te  Te5  1  0.500000  0.500000  0.500000  1
  I  I6  1  0.918344  0.993748  0.751973  1
  I  I7  1  0.581656  0.493748  0.748027  1
  I  I8  1  0.081656  0.006252  0.248027  1
  I  I9  1  0.418344  0.506252  0.251973  1
  I  I10  1  0.794658  0.695577  0.454312  1
  I  I11  1  0.705342  0.195577  0.045688  1
  I  I12  1  0.205342  0.304423  0.545688  1
  I  I13  1  0.294658  0.804423  0.954312  1
  I  I14  1  0.806866  0.706886  0.035596  1
  I  I15  1  0.693134  0.206886  0.464404  1
  I  I16  1  0.193134  0.293114  0.964404  1
  I  I17  1  0.306866  0.793114  0.535596  1
