# generated using pymatgen
data_KAg5S3
_symmetry_space_group_name_H-M   'P 1'
_cell_length_a   13.52891385
_cell_length_b   13.52891385
_cell_length_c   8.05484199
_cell_angle_alpha   90.00000000
_cell_angle_beta   90.00000000
_cell_angle_gamma   120.00000002
_symmetry_Int_Tables_number   1
_chemical_formula_structural   KAg5S3
_chemical_formula_sum   'K6 Ag30 S18'
_cell_volume   1276.77249898
_cell_formula_units_Z   6
loop_
 _symmetry_equiv_pos_site_id
 _symmetry_equiv_pos_as_xyz
  1  'x, y, z'
loop_
 _atom_site_type_symbol
 _atom_site_label
 _atom_site_symmetry_multiplicity
 _atom_site_fract_x
 _atom_site_fract_y
 _atom_site_fract_z
 _atom_site_occupancy
  S  S0  1  0.554781  0.778809  0.250000  1
  S  S1  1  0.221191  0.775972  0.250000  1
  S  S2  1  0.224028  0.445219  0.250000  1
  S  S3  1  0.445219  0.224028  0.750000  1
  S  S4  1  0.775972  0.221191  0.750000  1
  S  S5  1  0.778809  0.554781  0.750000  1
  S  S6  1  0.532640  0.418687  0.250000  1
  S  S7  1  0.581313  0.113952  0.250000  1
  S  S8  1  0.886048  0.467360  0.250000  1
  S  S9  1  0.467360  0.886048  0.750000  1
  S  S10  1  0.113952  0.581313  0.750000  1
  S  S11  1  0.418687  0.532640  0.750000  1
  S  S12  1  0.865461  0.780829  0.250000  1
  S  S13  1  0.219171  0.084631  0.250000  1
  S  S14  1  0.915369  0.134539  0.250000  1
  S  S15  1  0.134539  0.915369  0.750000  1
  S  S16  1  0.084631  0.219171  0.750000  1
  S  S17  1  0.780829  0.865461  0.750000  1
  K  K18  1  0.333333  0.666667  0.501461  1
  K  K19  1  0.333333  0.666667  0.998539  1
  K  K20  1  0.666667  0.333333  0.498539  1
  K  K21  1  0.666667  0.333333  0.001461  1
  K  K22  1  0.000000  0.000000  0.500000  1
  K  K23  1  0.000000  0.000000  0.000000  1
  Ag  Ag24  1  0.995077  0.702107  0.750000  1
  Ag  Ag25  1  0.707030  0.004923  0.750000  1
  Ag  Ag26  1  0.297893  0.292970  0.750000  1
  Ag  Ag27  1  0.292970  0.297893  0.250000  1
  Ag  Ag28  1  0.004923  0.707030  0.250000  1
  Ag  Ag29  1  0.702107  0.995077  0.250000  1
  Ag  Ag30  1  0.464767  0.464767  0.500000  1
  Ag  Ag31  1  0.000000  0.535233  0.000000  1
  Ag  Ag32  1  0.535233  0.000000  0.000000  1
  Ag  Ag33  1  0.535233  0.000000  0.500000  1
  Ag  Ag34  1  0.000000  0.535233  0.500000  1
  Ag  Ag35  1  0.464767  0.464767  0.000000  1
  Ag  Ag36  1  0.184080  0.850410  0.501277  1
  Ag  Ag37  1  0.149590  0.333670  0.501277  1
  Ag  Ag38  1  0.666330  0.815920  0.501277  1
  Ag  Ag39  1  0.815920  0.666330  0.498723  1
  Ag  Ag40  1  0.666330  0.815920  0.998723  1
  Ag  Ag41  1  0.184080  0.850410  0.998723  1
  Ag  Ag42  1  0.149590  0.333670  0.998723  1
  Ag  Ag43  1  0.850410  0.184080  0.001277  1
  Ag  Ag44  1  0.333670  0.149590  0.001277  1
  Ag  Ag45  1  0.333670  0.149590  0.498723  1
  Ag  Ag46  1  0.850410  0.184080  0.498723  1
  Ag  Ag47  1  0.815920  0.666330  0.001277  1
  Ag  Ag48  1  0.631854  0.634388  0.250000  1
  Ag  Ag49  1  0.365612  0.997466  0.250000  1
  Ag  Ag50  1  0.002534  0.368146  0.250000  1
  Ag  Ag51  1  0.368146  0.002534  0.750000  1
  Ag  Ag52  1  0.997466  0.365612  0.750000  1
  Ag  Ag53  1  0.634388  0.631854  0.750000  1
