# generated using pymatgen
data_CaMnSb2
_symmetry_space_group_name_H-M   'P 1'
_cell_length_a   4.37691539
_cell_length_b   4.38323898
_cell_length_c   21.07593853
_cell_angle_alpha   90.00000000
_cell_angle_beta   90.00000000
_cell_angle_gamma   90.00000000
_symmetry_Int_Tables_number   1
_chemical_formula_structural   CaMnSb2
_chemical_formula_sum   'Ca4 Mn4 Sb8'
_cell_volume   404.34327486
_cell_formula_units_Z   4
loop_
 _symmetry_equiv_pos_site_id
 _symmetry_equiv_pos_as_xyz
  1  'x, y, z'
loop_
 _atom_site_type_symbol
 _atom_site_label
 _atom_site_symmetry_multiplicity
 _atom_site_fract_x
 _atom_site_fract_y
 _atom_site_fract_z
 _atom_site_occupancy
  Ca  Ca0  1  0.250000  0.735913  0.120081  1
  Ca  Ca1  1  0.750000  0.264087  0.879919  1
  Ca  Ca2  1  0.750000  0.235913  0.379919  1
  Ca  Ca3  1  0.250000  0.764087  0.620081  1
  Mn  Mn4  1  0.250000  0.234957  0.250114  1
  Mn  Mn5  1  0.750000  0.765043  0.749886  1
  Mn  Mn6  1  0.750000  0.734957  0.249886  1
  Mn  Mn7  1  0.250000  0.265043  0.750114  1
  Sb  Sb8  1  0.250000  0.233526  0.000741  1
  Sb  Sb9  1  0.750000  0.766474  0.999259  1
  Sb  Sb10  1  0.750000  0.733526  0.499259  1
  Sb  Sb11  1  0.250000  0.266474  0.500741  1
  Sb  Sb12  1  0.250000  0.735162  0.325071  1
  Sb  Sb13  1  0.750000  0.264838  0.674929  1
  Sb  Sb14  1  0.750000  0.235162  0.174929  1
  Sb  Sb15  1  0.250000  0.764838  0.825071  1
