# generated using pymatgen
data_Na2CuH6C2O9
_symmetry_space_group_name_H-M   'P 1'
_cell_length_a   6.17104461
_cell_length_b   9.87132001
_cell_length_c   13.80238508
_cell_angle_alpha   92.29986576
_cell_angle_beta   90.00000000
_cell_angle_gamma   90.00000000
_symmetry_Int_Tables_number   1
_chemical_formula_structural   Na2CuH6C2O9
_chemical_formula_sum   'Na8 Cu4 H24 C8 O36'
_cell_volume   840.11373942
_cell_formula_units_Z   4
loop_
 _symmetry_equiv_pos_site_id
 _symmetry_equiv_pos_as_xyz
  1  'x, y, z'
loop_
 _atom_site_type_symbol
 _atom_site_label
 _atom_site_symmetry_multiplicity
 _atom_site_fract_x
 _atom_site_fract_y
 _atom_site_fract_z
 _atom_site_occupancy
  H  H0  1  0.547272  0.111406  0.391227  1
  H  H1  1  0.047272  0.388594  0.108773  1
  H  H2  1  0.452728  0.888594  0.608773  1
  H  H3  1  0.952728  0.611406  0.891227  1
  H  H4  1  0.606658  0.192966  0.487807  1
  H  H5  1  0.106658  0.307034  0.012193  1
  H  H6  1  0.393342  0.807034  0.512193  1
  H  H7  1  0.893342  0.692966  0.987807  1
  H  H8  1  0.476247  0.686322  0.114222  1
  H  H9  1  0.976247  0.813678  0.385778  1
  H  H10  1  0.523753  0.313678  0.885778  1
  H  H11  1  0.023753  0.186322  0.614222  1
  H  H12  1  0.240541  0.642896  0.087744  1
  H  H13  1  0.740541  0.857104  0.412256  1
  H  H14  1  0.759459  0.357104  0.912256  1
  H  H15  1  0.259459  0.142896  0.587744  1
  H  H16  1  0.927850  0.550615  0.409727  1
  H  H17  1  0.427850  0.949385  0.090273  1
  H  H18  1  0.072150  0.449385  0.590273  1
  H  H19  1  0.572150  0.050615  0.909727  1
  H  H20  1  0.759234  0.509106  0.488063  1
  H  H21  1  0.259234  0.990894  0.011937  1
  H  H22  1  0.240766  0.490894  0.511937  1
  H  H23  1  0.740766  0.009106  0.988063  1
  C  C24  1  0.258534  0.422811  0.329588  1
  C  C25  1  0.758534  0.077189  0.170412  1
  C  C26  1  0.741466  0.577189  0.670412  1
  C  C27  1  0.241466  0.922811  0.829588  1
  C  C28  1  0.846476  0.616499  0.173356  1
  C  C29  1  0.346476  0.883501  0.326644  1
  C  C30  1  0.153524  0.383501  0.826644  1
  C  C31  1  0.653524  0.116499  0.673356  1
  O  O32  1  0.652173  0.178981  0.419744  1
  O  O33  1  0.152173  0.321019  0.080256  1
  O  O34  1  0.347827  0.821019  0.580256  1
  O  O35  1  0.847827  0.678981  0.919744  1
  O  O36  1  0.394609  0.627822  0.068449  1
  O  O37  1  0.894609  0.872178  0.431551  1
  O  O38  1  0.605391  0.372178  0.931551  1
  O  O39  1  0.105391  0.127822  0.568449  1
  O  O40  1  0.773509  0.528086  0.418237  1
  O  O41  1  0.273508  0.971914  0.081763  1
  O  O42  1  0.226492  0.471914  0.581763  1
  O  O43  1  0.726491  0.028086  0.918237  1
  O  O44  1  0.140964  0.318501  0.330418  1
  O  O45  1  0.640964  0.181499  0.169582  1
  O  O46  1  0.859036  0.681499  0.669582  1
  O  O47  1  0.359036  0.818501  0.830418  1
  O  O48  1  0.419362  0.435967  0.268061  1
  O  O49  1  0.919362  0.064033  0.231939  1
  O  O50  1  0.580638  0.564033  0.731939  1
  O  O51  1  0.080638  0.935967  0.768061  1
  O  O52  1  0.234342  0.530160  0.388929  1
  O  O53  1  0.734342  0.969840  0.111071  1
  O  O54  1  0.765658  0.469840  0.611071  1
  O  O55  1  0.265658  0.030160  0.888929  1
  O  O56  1  0.849824  0.487390  0.166718  1
  O  O57  1  0.349824  0.012610  0.333282  1
  O  O58  1  0.150176  0.512610  0.833282  1
  O  O59  1  0.650176  0.987390  0.666718  1
  O  O60  1  0.977925  0.689441  0.120305  1
  O  O61  1  0.477925  0.810559  0.379695  1
  O  O62  1  0.022075  0.310559  0.879695  1
  O  O63  1  0.522075  0.189441  0.620305  1
  O  O64  1  0.713913  0.686352  0.229550  1
  O  O65  1  0.213913  0.813648  0.270450  1
  O  O66  1  0.286087  0.313648  0.770450  1
  O  O67  1  0.786087  0.186352  0.729550  1
  Na  Na68  1  0.761212  0.338529  0.301675  1
  Na  Na69  1  0.261212  0.161471  0.198325  1
  Na  Na70  1  0.238788  0.661471  0.698325  1
  Na  Na71  1  0.738788  0.838529  0.801675  1
  Na  Na72  1  0.481183  0.605268  0.902276  1
  Na  Na73  1  0.981183  0.894732  0.597724  1
  Na  Na74  1  0.518817  0.394732  0.097724  1
  Na  Na75  1  0.018817  0.105268  0.402276  1
  Cu  Cu76  1  0.491578  0.622717  0.321177  1
  Cu  Cu77  1  0.991578  0.877283  0.178823  1
  Cu  Cu78  1  0.508422  0.377283  0.678823  1
  Cu  Cu79  1  0.008422  0.122717  0.821177  1
