# generated using pymatgen
data_AsCl2F3
_symmetry_space_group_name_H-M   'P 1'
_cell_length_a   6.43010777
_cell_length_b   8.94534495
_cell_length_c   8.94534495
_cell_angle_alpha   90.00000000
_cell_angle_beta   90.00000000
_cell_angle_gamma   90.00000000
_symmetry_Int_Tables_number   1
_chemical_formula_structural   AsCl2F3
_chemical_formula_sum   'As4 Cl8 F12'
_cell_volume   514.53205571
_cell_formula_units_Z   4
loop_
 _symmetry_equiv_pos_site_id
 _symmetry_equiv_pos_as_xyz
  1  'x, y, z'
loop_
 _atom_site_type_symbol
 _atom_site_label
 _atom_site_symmetry_multiplicity
 _atom_site_fract_x
 _atom_site_fract_y
 _atom_site_fract_z
 _atom_site_occupancy
  F  F0  1  0.397495  0.750000  0.750000  1
  F  F1  1  0.602505  0.250000  0.250000  1
  F  F2  1  0.673228  0.563265  0.681616  1
  F  F3  1  0.673228  0.818384  0.563265  1
  F  F4  1  0.673228  0.681616  0.936735  1
  F  F5  1  0.673228  0.936735  0.818384  1
  F  F6  1  0.326772  0.436735  0.318384  1
  F  F7  1  0.326772  0.181616  0.436735  1
  F  F8  1  0.326772  0.318384  0.063265  1
  F  F9  1  0.050329  0.250000  0.250000  1
  F  F10  1  0.949671  0.750000  0.750000  1
  F  F11  1  0.326772  0.063265  0.181616  1
  Cl  Cl12  1  0.191341  0.435995  0.713337  1
  Cl  Cl13  1  0.191341  0.786663  0.435995  1
  Cl  Cl14  1  0.808659  0.286663  0.935995  1
  Cl  Cl15  1  0.808659  0.564005  0.286663  1
  Cl  Cl16  1  0.808659  0.935995  0.213337  1
  Cl  Cl17  1  0.808659  0.213337  0.564005  1
  Cl  Cl18  1  0.191341  0.064005  0.786663  1
  Cl  Cl19  1  0.191341  0.713337  0.064005  1
  As  As20  1  0.675230  0.750000  0.750000  1
  As  As21  1  0.324770  0.250000  0.250000  1
  As  As22  1  0.000000  0.250000  0.750000  1
  As  As23  1  0.000000  0.750000  0.250000  1
