# generated using pymatgen
data_In(Mo3Se4)2
_symmetry_space_group_name_H-M   'P 1'
_cell_length_a   6.90812941
_cell_length_b   6.90812940
_cell_length_c   6.90812940
_cell_angle_alpha   89.05162753
_cell_angle_beta   89.05162745
_cell_angle_gamma   89.05162748
_symmetry_Int_Tables_number   1
_chemical_formula_structural   In(Mo3Se4)2
_chemical_formula_sum   'In1 Mo6 Se8'
_cell_volume   329.53748794
_cell_formula_units_Z   1
loop_
 _symmetry_equiv_pos_site_id
 _symmetry_equiv_pos_as_xyz
  1  'x, y, z'
loop_
 _atom_site_type_symbol
 _atom_site_label
 _atom_site_symmetry_multiplicity
 _atom_site_fract_x
 _atom_site_fract_y
 _atom_site_fract_z
 _atom_site_occupancy
  Se  Se0  1  0.614818  0.879045  0.257051  1
  Se  Se1  1  0.879045  0.257051  0.614818  1
  Se  Se2  1  0.257051  0.614818  0.879045  1
  Se  Se3  1  0.385182  0.120955  0.742949  1
  Se  Se4  1  0.120955  0.742949  0.385182  1
  Se  Se5  1  0.742949  0.385182  0.120955  1
  Se  Se6  1  0.756311  0.756311  0.756311  1
  Se  Se7  1  0.243689  0.243689  0.243689  1
  Mo  Mo8  1  0.439053  0.759824  0.578916  1
  Mo  Mo9  1  0.759824  0.578916  0.439053  1
  Mo  Mo10  1  0.578916  0.439053  0.759824  1
  Mo  Mo11  1  0.560947  0.240176  0.421084  1
  Mo  Mo12  1  0.240176  0.421084  0.560947  1
  Mo  Mo13  1  0.421084  0.560947  0.240176  1
  In  In14  1  0.000000  0.000000  0.000000  1
