# generated using pymatgen
data_Zn(H2N)2
_symmetry_space_group_name_H-M   'P 1'
_cell_length_a   10.12823819
_cell_length_b   10.12823630
_cell_length_c   12.41076674
_cell_angle_alpha   114.08010370
_cell_angle_beta   114.08192090
_cell_angle_gamma   89.99999997
_symmetry_Int_Tables_number   1
_chemical_formula_structural   Zn(H2N)2
_chemical_formula_sum   'Zn16 H64 N32'
_cell_volume   1039.77138954
_cell_formula_units_Z   16
loop_
 _symmetry_equiv_pos_site_id
 _symmetry_equiv_pos_as_xyz
  1  'x, y, z'
loop_
 _atom_site_type_symbol
 _atom_site_label
 _atom_site_symmetry_multiplicity
 _atom_site_fract_x
 _atom_site_fract_y
 _atom_site_fract_z
 _atom_site_occupancy
  H  H0  1  0.117412  0.729191  0.807257  1
  H  H1  1  0.921936  0.810145  0.692741  1
  H  H2  1  0.770805  0.382589  0.692738  1
  H  H3  1  0.810155  0.770809  0.192743  1
  H  H4  1  0.382596  0.921934  0.192736  1
  H  H5  1  0.578067  0.117411  0.307262  1
  H  H6  1  0.729195  0.689855  0.307259  1
  H  H7  1  0.689860  0.578066  0.807264  1
  H  H8  1  0.882588  0.270809  0.192743  1
  H  H9  1  0.078064  0.189855  0.307259  1
  H  H10  1  0.229195  0.617411  0.307262  1
  H  H11  1  0.189845  0.229191  0.807257  1
  H  H12  1  0.617404  0.078066  0.807264  1
  H  H13  1  0.421933  0.882589  0.692738  1
  H  H14  1  0.270805  0.310145  0.692741  1
  H  H15  1  0.310140  0.421934  0.192736  1
  H  H16  1  0.939606  0.450448  0.803752  1
  H  H17  1  0.646698  0.635845  0.696240  1
  H  H18  1  0.049535  0.560396  0.696245  1
  H  H19  1  0.635853  0.049552  0.196248  1
  H  H20  1  0.560398  0.646712  0.196237  1
  H  H21  1  0.853291  0.939604  0.303755  1
  H  H22  1  0.450458  0.864155  0.303760  1
  H  H23  1  0.864161  0.853288  0.803763  1
  H  H24  1  0.060394  0.549552  0.196248  1
  H  H25  1  0.353302  0.364156  0.303760  1
  H  H26  1  0.950465  0.439604  0.303755  1
  H  H27  1  0.032172  0.788784  0.958526  1
  H  H28  1  0.364147  0.950448  0.803752  1
  H  H29  1  0.146709  0.060396  0.696245  1
  H  H30  1  0.549542  0.135845  0.696240  1
  H  H31  1  0.135839  0.146712  0.196237  1
  H  H32  1  0.052369  0.335824  0.553021  1
  H  H33  1  0.782800  0.999343  0.946972  1
  H  H34  1  0.164173  0.447645  0.946991  1
  H  H35  1  0.999348  0.164176  0.446979  1
  H  H36  1  0.447643  0.782815  0.446984  1
  H  H37  1  0.717182  0.052355  0.053009  1
  H  H38  1  0.335828  0.500657  0.053028  1
  H  H39  1  0.500659  0.717185  0.553016  1
  H  H40  1  0.947631  0.664176  0.446979  1
  H  H41  1  0.217200  0.000657  0.053028  1
  H  H42  1  0.835827  0.552355  0.053009  1
  H  H43  1  0.000652  0.835824  0.553021  1
  H  H44  1  0.552357  0.217185  0.553016  1
  H  H45  1  0.282818  0.947645  0.946991  1
  H  H46  1  0.664172  0.499343  0.946972  1
  H  H47  1  0.499341  0.282815  0.446984  1
  H  H48  1  0.073642  0.330236  0.041467  1
  H  H49  1  0.211231  0.073641  0.541470  1
  H  H50  1  0.330255  0.967824  0.541471  1
  H  H51  1  0.532175  0.169764  0.958533  1
  H  H52  1  0.426353  0.288784  0.958526  1
  H  H53  1  0.288784  0.532176  0.458529  1
  H  H54  1  0.169761  0.426359  0.458530  1
  H  H55  1  0.967828  0.211216  0.041474  1
  H  H56  1  0.926358  0.669764  0.958533  1
  H  H57  1  0.788769  0.926359  0.458530  1
  H  H58  1  0.669745  0.032176  0.458529  1
  H  H59  1  0.467825  0.830236  0.041467  1
  H  H60  1  0.573647  0.711216  0.041474  1
  H  H61  1  0.711216  0.467824  0.541471  1
  H  H62  1  0.830239  0.573641  0.541470  1
  H  H63  1  0.439602  0.353288  0.803763  1
  N  N64  1  0.144634  0.639048  0.749619  1
  N  N65  1  0.889437  0.895007  0.750379  1
  N  N66  1  0.860949  0.355356  0.750376  1
  N  N67  1  0.895015  0.860952  0.250381  1
  N  N68  1  0.355362  0.889435  0.250374  1
  N  N69  1  0.610573  0.144644  0.249624  1
  N  N70  1  0.639058  0.604993  0.249621  1
  N  N71  1  0.604988  0.610565  0.749626  1
  N  N72  1  0.855366  0.360952  0.250381  1
  N  N73  1  0.110563  0.104993  0.249621  1
  N  N74  1  0.139051  0.644644  0.249624  1
  N  N75  1  0.104985  0.139048  0.749619  1
  N  N76  1  0.644638  0.110565  0.749626  1
  N  N77  1  0.389427  0.855356  0.750376  1
  N  N78  1  0.360942  0.395007  0.750379  1
  N  N79  1  0.395012  0.389435  0.250374  1
  N  N80  1  0.963344  0.250000  0.500000  1
  N  N81  1  0.749995  0.963337  -0.000004  1
  N  N82  1  0.249998  0.536663  1.000004  1
  N  N83  1  0.536667  0.750000  0.500000  1
  N  N84  1  0.036656  0.750000  0.500000  1
  N  N85  1  0.250005  0.036663  1.000004  1
  N  N86  1  0.750002  0.463337  -0.000004  1
  N  N87  1  0.463333  0.250000  0.500000  1
  N  N88  1  0.010358  0.760369  0.020721  1
  N  N89  1  0.760356  0.010358  0.520721  1
  N  N90  1  0.489637  0.739631  0.979279  1
  N  N91  1  0.739635  0.489642  0.479279  1
  N  N92  1  0.989642  0.239631  0.979279  1
  N  N93  1  0.239644  0.989642  0.479279  1
  N  N94  1  0.510363  0.260369  0.020721  1
  N  N95  1  0.260365  0.510358  0.520721  1
  Zn  Zn96  1  0.796675  0.307736  0.370571  1
  Zn  Zn97  1  0.937160  0.926119  0.129438  1
  Zn  Zn98  1  0.192276  0.703333  0.129435  1
  Zn  Zn99  1  0.926104  0.192264  0.629429  1
  Zn  Zn100  1  0.703327  0.937154  0.629445  1
  Zn  Zn101  1  0.562841  0.796667  0.870565  1
  Zn  Zn102  1  0.307722  0.573881  0.870562  1
  Zn  Zn103  1  0.573883  0.562846  0.370555  1
  Zn  Zn104  1  0.203325  0.692264  0.629429  1
  Zn  Zn105  1  0.062840  0.073881  0.870562  1
  Zn  Zn106  1  0.807724  0.296667  0.870565  1
  Zn  Zn107  1  0.073896  0.807736  0.370571  1
  Zn  Zn108  1  0.296673  0.062846  0.370555  1
  Zn  Zn109  1  0.437159  0.203333  0.129435  1
  Zn  Zn110  1  0.692278  0.426119  0.129438  1
  Zn  Zn111  1  0.426117  0.437154  0.629445  1
