# generated using pymatgen
data_Y6C2I7
_symmetry_space_group_name_H-M   'P 1'
_cell_length_a   3.93349800
_cell_length_b   11.12260298
_cell_length_c   11.79845752
_cell_angle_alpha   68.59096390
_cell_angle_beta   80.40426015
_cell_angle_gamma   79.81514827
_symmetry_Int_Tables_number   1
_chemical_formula_structural   Y6C2I7
_chemical_formula_sum   'Y6 C2 I7'
_cell_volume   470.05218045
_cell_formula_units_Z   1
loop_
 _symmetry_equiv_pos_site_id
 _symmetry_equiv_pos_as_xyz
  1  'x, y, z'
loop_
 _atom_site_type_symbol
 _atom_site_label
 _atom_site_symmetry_multiplicity
 _atom_site_fract_x
 _atom_site_fract_y
 _atom_site_fract_z
 _atom_site_occupancy
  C  C0  1  0.719074  0.156710  0.405142  1
  C  C1  1  0.280926  0.843290  0.594858  1
  Y  Y2  1  0.762382  0.282064  0.193171  1
  Y  Y3  1  0.691847  0.991885  0.624422  1
  Y  Y4  1  0.863236  0.719405  0.554122  1
  Y  Y5  1  0.136764  0.280595  0.445878  1
  Y  Y6  1  0.308154  0.008115  0.375578  1
  Y  Y7  1  0.237618  0.717936  0.806829  1
  I  I8  1  0.840729  0.497630  0.820912  1
  I  I9  1  0.159271  0.502370  0.179088  1
  I  I10  1  0.941195  0.837883  0.279727  1
  I  I11  1  0.058805  0.162117  0.720273  1
  I  I12  1  0.500000  0.500000  0.500000  1
  I  I13  1  0.613189  0.847862  0.925760  1
  I  I14  1  0.386811  0.152138  0.074240  1
