# generated using pymatgen
data_Zn(AsO2)2
_symmetry_space_group_name_H-M   'P 1'
_cell_length_a   4.65107204
_cell_length_b   5.11434590
_cell_length_c   18.20429325
_cell_angle_alpha   90.00000000
_cell_angle_beta   90.32657370
_cell_angle_gamma   90.00000000
_symmetry_Int_Tables_number   1
_chemical_formula_structural   Zn(AsO2)2
_chemical_formula_sum   'Zn4 As8 O16'
_cell_volume   433.02197057
_cell_formula_units_Z   4
loop_
 _symmetry_equiv_pos_site_id
 _symmetry_equiv_pos_as_xyz
  1  'x, y, z'
loop_
 _atom_site_type_symbol
 _atom_site_label
 _atom_site_symmetry_multiplicity
 _atom_site_fract_x
 _atom_site_fract_y
 _atom_site_fract_z
 _atom_site_occupancy
  As  As0  1  0.989375  0.211910  0.903237  1
  As  As1  1  0.010625  0.711910  0.596763  1
  As  As2  1  0.010625  0.788090  0.096763  1
  As  As3  1  0.989375  0.288090  0.403237  1
  As  As4  1  0.486697  0.775657  0.905253  1
  As  As5  1  0.513303  0.275657  0.594747  1
  As  As6  1  0.513303  0.224343  0.094747  1
  As  As7  1  0.486697  0.724343  0.405253  1
  Zn  Zn8  1  0.253719  0.489569  0.752227  1
  Zn  Zn9  1  0.746281  0.989569  0.747773  1
  Zn  Zn10  1  0.746281  0.510431  0.247773  1
  Zn  Zn11  1  0.253719  0.010431  0.252227  1
  O  O12  1  0.609400  0.118496  0.909798  1
  O  O13  1  0.390600  0.618496  0.590202  1
  O  O14  1  0.390600  0.881504  0.090203  1
  O  O15  1  0.609400  0.381504  0.409797  1
  O  O16  1  0.107549  0.869164  0.914454  1
  O  O17  1  0.892451  0.369164  0.585546  1
  O  O18  1  0.892451  0.130836  0.085546  1
  O  O19  1  0.107549  0.630836  0.414454  1
  O  O20  1  0.003139  0.234014  0.805021  1
  O  O21  1  0.996861  0.734014  0.694979  1
  O  O22  1  0.996861  0.765986  0.194979  1
  O  O23  1  0.003139  0.265986  0.305021  1
  O  O24  1  0.505628  0.739727  0.806995  1
  O  O25  1  0.494372  0.239727  0.693005  1
  O  O26  1  0.494372  0.260273  0.193005  1
  O  O27  1  0.505628  0.760273  0.306995  1
