# generated using pymatgen
data_Na4B2O5
_symmetry_space_group_name_H-M   'P 1'
_cell_length_a   6.38000944
_cell_length_b   6.71092541
_cell_length_c   6.71092541
_cell_angle_alpha   74.00352784
_cell_angle_beta   74.07167143
_cell_angle_gamma   74.07167144
_symmetry_Int_Tables_number   1
_chemical_formula_structural   Na4B2O5
_chemical_formula_sum   'Na8 B4 O10'
_cell_volume   259.38711390
_cell_formula_units_Z   2
loop_
 _symmetry_equiv_pos_site_id
 _symmetry_equiv_pos_as_xyz
  1  'x, y, z'
loop_
 _atom_site_type_symbol
 _atom_site_label
 _atom_site_symmetry_multiplicity
 _atom_site_fract_x
 _atom_site_fract_y
 _atom_site_fract_z
 _atom_site_occupancy
  B  B0  1  0.832483  0.927794  0.255296  1
  B  B1  1  0.667517  0.744704  0.072206  1
  B  B2  1  0.167517  0.072206  0.744704  1
  B  B3  1  0.332483  0.255296  0.927794  1
  O  O4  1  0.250000  0.075634  0.924366  1
  O  O5  1  0.750000  0.924366  0.075634  1
  O  O6  1  0.459846  0.348519  0.743707  1
  O  O7  1  0.040154  0.256293  0.651481  1
  O  O8  1  0.783094  0.117488  0.315366  1
  O  O9  1  0.716906  0.684634  0.882512  1
  O  O10  1  0.216906  0.882512  0.684634  1
  O  O11  1  0.283094  0.315366  0.117488  1
  O  O12  1  0.959846  0.743707  0.348519  1
  O  O13  1  0.540154  0.651481  0.256293  1
  Na  Na14  1  0.772433  0.032112  0.685612  1
  Na  Na15  1  0.727567  0.314388  0.967888  1
  Na  Na16  1  0.227567  0.967888  0.314388  1
  Na  Na17  1  0.272433  0.685612  0.032112  1
  Na  Na18  1  0.427184  0.328855  0.402451  1
  Na  Na19  1  0.072816  0.597549  0.671145  1
  Na  Na20  1  0.572816  0.671145  0.597549  1
  Na  Na21  1  0.927184  0.402451  0.328855  1
