# generated using pymatgen
data_Os2(CO)7
_symmetry_space_group_name_H-M   'P 1'
_cell_length_a   9.60696475
_cell_length_b   9.60696475
_cell_length_c   11.99458116
_cell_angle_alpha   89.83363889
_cell_angle_beta   89.83363893
_cell_angle_gamma   88.42405036
_symmetry_Int_Tables_number   1
_chemical_formula_structural   Os2(CO)7
_chemical_formula_sum   'Os8 C28 O28'
_cell_volume   1106.59732074
_cell_formula_units_Z   4
loop_
 _symmetry_equiv_pos_site_id
 _symmetry_equiv_pos_as_xyz
  1  'x, y, z'
loop_
 _atom_site_type_symbol
 _atom_site_label
 _atom_site_symmetry_multiplicity
 _atom_site_fract_x
 _atom_site_fract_y
 _atom_site_fract_z
 _atom_site_occupancy
  C  C0  1  0.295775  0.522567  0.102907  1
  C  C1  1  0.477433  0.704225  0.397093  1
  C  C2  1  0.704225  0.477433  0.897093  1
  C  C3  1  0.522567  0.295775  0.602907  1
  C  C4  1  0.515655  0.686926  0.154384  1
  C  C5  1  0.313074  0.484345  0.345616  1
  C  C6  1  0.484345  0.313074  0.845616  1
  C  C7  1  0.686926  0.515655  0.654384  1
  C  C8  1  0.347049  0.751605  0.976315  1
  C  C9  1  0.248395  0.652951  0.523685  1
  C  C10  1  0.652951  0.248395  0.023685  1
  C  C11  1  0.751605  0.347049  0.476315  1
  C  C12  1  0.131998  0.109997  0.269427  1
  C  C13  1  0.890003  0.868002  0.230573  1
  C  C14  1  0.868002  0.890003  0.730573  1
  C  C15  1  0.109997  0.131998  0.769427  1
  C  C16  1  0.423840  0.032158  0.324972  1
  C  C17  1  0.967842  0.576160  0.175028  1
  C  C18  1  0.576160  0.967842  0.675028  1
  C  C19  1  0.032158  0.423840  0.824972  1
  C  C20  1  0.309248  0.986859  0.118889  1
  C  C21  1  0.013141  0.690752  0.381111  1
  C  C22  1  0.690752  0.013141  0.881111  1
  C  C23  1  0.986859  0.309248  0.618889  1
  C  C24  1  0.198212  0.922400  0.431911  1
  C  C25  1  0.077600  0.801788  0.068089  1
  C  C26  1  0.801788  0.077600  0.568089  1
  C  C27  1  0.922400  0.198212  0.931911  1
  O  O28  1  0.279283  0.405675  0.082997  1
  O  O29  1  0.594325  0.720717  0.417003  1
  O  O30  1  0.720717  0.594325  0.917003  1
  O  O31  1  0.405675  0.279283  0.582997  1
  O  O32  1  0.634586  0.664892  0.164536  1
  O  O33  1  0.335108  0.365414  0.335464  1
  O  O34  1  0.365414  0.335108  0.835464  1
  O  O35  1  0.664892  0.634586  0.664536  1
  O  O36  1  0.366719  0.771107  0.882164  1
  O  O37  1  0.228893  0.633281  0.617836  1
  O  O38  1  0.633281  0.228893  0.117836  1
  O  O39  1  0.771107  0.366719  0.382164  1
  O  O40  1  0.058564  0.207562  0.269202  1
  O  O41  1  0.792438  0.941436  0.230798  1
  O  O42  1  0.941436  0.792438  0.730798  1
  O  O43  1  0.207562  0.058564  0.769202  1
  O  O44  1  0.522020  0.083943  0.360493  1
  O  O45  1  0.916057  0.477980  0.139507  1
  O  O46  1  0.477980  0.916057  0.639507  1
  O  O47  1  0.083943  0.522020  0.860493  1
  O  O48  1  0.335758  0.048816  0.037707  1
  O  O49  1  0.951184  0.664242  0.462293  1
  O  O50  1  0.664242  0.951184  0.962293  1
  O  O51  1  0.048816  0.335758  0.537707  1
  O  O52  1  0.155809  0.948643  0.521277  1
  O  O53  1  0.051357  0.844191  0.978723  1
  O  O54  1  0.844191  0.051357  0.478723  1
  O  O55  1  0.948643  0.155809  0.021277  1
  Os  Os56  1  0.321796  0.712734  0.131663  1
  Os  Os57  1  0.287266  0.678204  0.368337  1
  Os  Os58  1  0.678204  0.287266  0.868337  1
  Os  Os59  1  0.712734  0.321796  0.631663  1
  Os  Os60  1  0.255480  0.949484  0.275088  1
  Os  Os61  1  0.050516  0.744520  0.224912  1
  Os  Os62  1  0.744520  0.050516  0.724912  1
  Os  Os63  1  0.949484  0.255480  0.775088  1
