# generated using pymatgen
data_Zr5Te6
_symmetry_space_group_name_H-M   'P 1'
_cell_length_a   11.80801888
_cell_length_b   11.80801888
_cell_length_c   7.17403936
_cell_angle_alpha   90.00000000
_cell_angle_beta   90.00000000
_cell_angle_gamma   120.00000000
_symmetry_Int_Tables_number   1
_chemical_formula_structural   Zr5Te6
_chemical_formula_sum   'Zr15 Te18'
_cell_volume   866.26040593
_cell_formula_units_Z   3
loop_
 _symmetry_equiv_pos_site_id
 _symmetry_equiv_pos_as_xyz
  1  'x, y, z'
loop_
 _atom_site_type_symbol
 _atom_site_label
 _atom_site_symmetry_multiplicity
 _atom_site_fract_x
 _atom_site_fract_y
 _atom_site_fract_z
 _atom_site_occupancy
  Zr  Zr0  1  0.000000  0.362727  0.500000  1
  Zr  Zr1  1  0.362727  0.000000  0.500000  1
  Zr  Zr2  1  0.637273  0.637273  0.500000  1
  Zr  Zr3  1  0.000000  0.637273  0.500000  1
  Zr  Zr4  1  0.637273  0.000000  0.500000  1
  Zr  Zr5  1  0.362727  0.362727  0.500000  1
  Zr  Zr6  1  0.297871  0.297871  0.000000  1
  Zr  Zr7  1  0.000000  0.702129  0.000000  1
  Zr  Zr8  1  0.702129  0.000000  0.000000  1
  Zr  Zr9  1  0.702129  0.702129  0.000000  1
  Zr  Zr10  1  0.000000  0.297871  0.000000  1
  Zr  Zr11  1  0.297871  0.000000  0.000000  1
  Zr  Zr12  1  0.333333  0.666667  0.511384  1
  Zr  Zr13  1  0.666667  0.333333  0.488616  1
  Zr  Zr14  1  0.000000  0.000000  0.000000  1
  Te  Te15  1  0.224501  0.775499  0.244799  1
  Te  Te16  1  0.550997  0.775499  0.244799  1
  Te  Te17  1  0.224501  0.449003  0.244799  1
  Te  Te18  1  0.775499  0.550997  0.755201  1
  Te  Te19  1  0.775499  0.224501  0.755201  1
  Te  Te20  1  0.449003  0.224501  0.755201  1
  Te  Te21  1  0.117600  0.558800  0.790892  1
  Te  Te22  1  0.441200  0.558800  0.790892  1
  Te  Te23  1  0.441200  0.882400  0.790892  1
  Te  Te24  1  0.558800  0.441200  0.209108  1
  Te  Te25  1  0.882400  0.441200  0.209108  1
  Te  Te26  1  0.558800  0.117600  0.209108  1
  Te  Te27  1  0.106548  0.213096  0.710967  1
  Te  Te28  1  0.786904  0.893452  0.710967  1
  Te  Te29  1  0.106548  0.893452  0.710967  1
  Te  Te30  1  0.893452  0.786904  0.289033  1
  Te  Te31  1  0.893452  0.106548  0.289033  1
  Te  Te32  1  0.213096  0.106548  0.289033  1
