# generated using pymatgen
data_In5S4
_symmetry_space_group_name_H-M   'P 1'
_cell_length_a   12.70920293
_cell_length_b   12.70920293
_cell_length_c   12.70920293
_cell_angle_alpha   90.00000000
_cell_angle_beta   90.00000000
_cell_angle_gamma   90.00000000
_symmetry_Int_Tables_number   1
_chemical_formula_structural   In5S4
_chemical_formula_sum   'In40 S32'
_cell_volume   2052.83924936
_cell_formula_units_Z   8
loop_
 _symmetry_equiv_pos_site_id
 _symmetry_equiv_pos_as_xyz
  1  'x, y, z'
loop_
 _atom_site_type_symbol
 _atom_site_label
 _atom_site_symmetry_multiplicity
 _atom_site_fract_x
 _atom_site_fract_y
 _atom_site_fract_z
 _atom_site_occupancy
  S  S0  1  0.324708  0.073889  0.256809  1
  S  S1  1  0.256809  0.324708  0.073889  1
  S  S2  1  0.073889  0.256809  0.324708  1
  S  S3  1  0.426111  0.743191  0.824708  1
  S  S4  1  0.756809  0.175292  0.926111  1
  S  S5  1  0.926111  0.756809  0.175292  1
  S  S6  1  0.243191  0.675292  0.573889  1
  S  S7  1  0.743191  0.824708  0.426111  1
  S  S8  1  0.573889  0.243191  0.675292  1
  S  S9  1  0.824708  0.426111  0.743191  1
  S  S10  1  0.675292  0.573889  0.243191  1
  S  S11  1  0.175292  0.926111  0.756809  1
  S  S12  1  0.675292  0.926111  0.743191  1
  S  S13  1  0.743191  0.675292  0.926111  1
  S  S14  1  0.926111  0.743191  0.675292  1
  S  S15  1  0.573889  0.256809  0.175292  1
  S  S16  1  0.243191  0.824708  0.073889  1
  S  S17  1  0.073889  0.243191  0.824708  1
  S  S18  1  0.756809  0.324708  0.426111  1
  S  S19  1  0.256809  0.175292  0.573889  1
  S  S20  1  0.426111  0.756809  0.324708  1
  S  S21  1  0.175292  0.573889  0.256809  1
  S  S22  1  0.324708  0.426111  0.756809  1
  S  S23  1  0.824708  0.073889  0.243191  1
  S  S24  1  0.075294  0.075294  0.075294  1
  S  S25  1  0.424706  0.924706  0.575294  1
  S  S26  1  0.575294  0.424706  0.924706  1
  S  S27  1  0.924706  0.575294  0.424706  1
  S  S28  1  0.924706  0.924706  0.924706  1
  S  S29  1  0.575294  0.075294  0.424706  1
  S  S30  1  0.424706  0.575294  0.075294  1
  S  S31  1  0.075294  0.424706  0.575294  1
  In  In32  1  0.269082  0.269082  0.269082  1
  In  In33  1  0.230918  0.730918  0.769082  1
  In  In34  1  0.769082  0.230918  0.730918  1
  In  In35  1  0.730918  0.769082  0.230918  1
  In  In36  1  0.730918  0.730918  0.730918  1
  In  In37  1  0.769082  0.269082  0.230918  1
  In  In38  1  0.230918  0.769082  0.269082  1
  In  In39  1  0.269082  0.230918  0.769082  1
  In  In40  1  0.401230  0.401230  0.401230  1
  In  In41  1  0.098770  0.598770  0.901230  1
  In  In42  1  0.901230  0.098770  0.598770  1
  In  In43  1  0.598770  0.901230  0.098770  1
  In  In44  1  0.598770  0.598770  0.598770  1
  In  In45  1  0.901230  0.401230  0.098770  1
  In  In46  1  0.098770  0.901230  0.401230  1
  In  In47  1  0.401230  0.098770  0.901230  1
  In  In48  1  0.268297  0.026799  0.067620  1
  In  In49  1  0.067620  0.268297  0.026799  1
  In  In50  1  0.026799  0.067620  0.268297  1
  In  In51  1  0.473201  0.932380  0.768297  1
  In  In52  1  0.567620  0.231703  0.973201  1
  In  In53  1  0.973201  0.567620  0.231703  1
  In  In54  1  0.432380  0.731703  0.526799  1
  In  In55  1  0.932380  0.768297  0.473201  1
  In  In56  1  0.526799  0.432380  0.731703  1
  In  In57  1  0.768297  0.473201  0.932380  1
  In  In58  1  0.731703  0.526799  0.432380  1
  In  In59  1  0.231703  0.973201  0.567620  1
  In  In60  1  0.731703  0.973201  0.932380  1
  In  In61  1  0.932380  0.731703  0.973201  1
  In  In62  1  0.973201  0.932380  0.731703  1
  In  In63  1  0.526799  0.067620  0.231703  1
  In  In64  1  0.432380  0.768297  0.026799  1
  In  In65  1  0.026799  0.432380  0.768297  1
  In  In66  1  0.567620  0.268297  0.473201  1
  In  In67  1  0.067620  0.231703  0.526799  1
  In  In68  1  0.473201  0.567620  0.268297  1
  In  In69  1  0.231703  0.526799  0.067620  1
  In  In70  1  0.268297  0.473201  0.567620  1
  In  In71  1  0.768297  0.026799  0.432380  1
