# generated using pymatgen
data_CaH4SO6
_symmetry_space_group_name_H-M   'P 1'
_cell_length_a   5.76418689
_cell_length_b   6.41067151
_cell_length_c   8.19557327
_cell_angle_alpha   66.97668071
_cell_angle_beta   80.76294357
_cell_angle_gamma   65.76846182
_symmetry_Int_Tables_number   1
_chemical_formula_structural   CaH4SO6
_chemical_formula_sum   'Ca2 H8 S2 O12'
_cell_volume   254.16540930
_cell_formula_units_Z   2
loop_
 _symmetry_equiv_pos_site_id
 _symmetry_equiv_pos_as_xyz
  1  'x, y, z'
loop_
 _atom_site_type_symbol
 _atom_site_label
 _atom_site_symmetry_multiplicity
 _atom_site_fract_x
 _atom_site_fract_y
 _atom_site_fract_z
 _atom_site_occupancy
  H  H0  1  0.409989  0.752543  0.486650  1
  H  H1  1  0.090011  0.260807  0.486650  1
  H  H2  1  0.590011  0.247457  0.513350  1
  H  H3  1  0.909989  0.739193  0.513350  1
  H  H4  1  0.757649  0.159956  0.680095  1
  H  H5  1  0.742351  0.659949  0.680095  1
  H  H6  1  0.242351  0.840044  0.319905  1
  H  H7  1  0.257649  0.340051  0.319905  1
  O  O8  1  0.915795  0.917963  0.269109  1
  O  O9  1  0.095249  0.686491  0.955212  1
  O  O10  1  0.904751  0.313509  0.044788  1
  O  O11  1  0.595249  0.141703  0.044788  1
  O  O12  1  0.919098  0.637258  0.639959  1
  O  O13  1  0.580902  0.222783  0.639959  1
  O  O14  1  0.080902  0.362742  0.360041  1
  O  O15  1  0.419098  0.777217  0.360041  1
  O  O16  1  0.084205  0.082037  0.730891  1
  O  O17  1  0.415795  0.687072  0.730891  1
  O  O18  1  0.404751  0.858297  0.955212  1
  O  O19  1  0.584205  0.312928  0.269109  1
  S  S20  1  0.750000  0.171449  0.157103  1
  S  S21  1  0.250000  0.828551  0.842897  1
  Ca  Ca22  1  0.750000  0.670079  0.159842  1
  Ca  Ca23  1  0.250000  0.329921  0.840158  1
