# generated using pymatgen
data_Ba2Ta15O32
_symmetry_space_group_name_H-M   'P 1'
_cell_length_a   12.83967077
_cell_length_b   12.83967078
_cell_length_c   12.83967078
_cell_angle_alpha   35.67340426
_cell_angle_beta   35.67340425
_cell_angle_gamma   35.67340427
_symmetry_Int_Tables_number   1
_chemical_formula_structural   Ba2Ta15O32
_chemical_formula_sum   'Ba2 Ta15 O32'
_cell_volume   643.48852679
_cell_formula_units_Z   1
loop_
 _symmetry_equiv_pos_site_id
 _symmetry_equiv_pos_as_xyz
  1  'x, y, z'
loop_
 _atom_site_type_symbol
 _atom_site_label
 _atom_site_symmetry_multiplicity
 _atom_site_fract_x
 _atom_site_fract_y
 _atom_site_fract_z
 _atom_site_occupancy
  O  O0  1  0.181334  0.960095  0.763284  1
  O  O1  1  0.960095  0.763284  0.181334  1
  O  O2  1  0.763284  0.181334  0.960095  1
  O  O3  1  0.818666  0.039905  0.236716  1
  O  O4  1  0.039905  0.236716  0.818666  1
  O  O5  1  0.236716  0.818666  0.039905  1
  O  O6  1  0.352291  0.467670  0.058458  1
  O  O7  1  0.467670  0.058458  0.352291  1
  O  O8  1  0.058458  0.352291  0.467670  1
  O  O9  1  0.647709  0.532330  0.941542  1
  O  O10  1  0.532330  0.941542  0.647709  1
  O  O11  1  0.941542  0.647709  0.532330  1
  O  O12  1  0.956708  0.071535  0.658722  1
  O  O13  1  0.071535  0.658722  0.956708  1
  O  O14  1  0.658722  0.956708  0.071535  1
  O  O15  1  0.043292  0.928465  0.341278  1
  O  O16  1  0.928465  0.341278  0.043292  1
  O  O17  1  0.803097  0.538814  0.362981  1
  O  O18  1  0.362981  0.803097  0.538814  1
  O  O19  1  0.538814  0.362981  0.803097  1
  O  O20  1  0.196903  0.461186  0.637019  1
  O  O21  1  0.637019  0.196903  0.461186  1
  O  O22  1  0.461186  0.637019  0.196903  1
  O  O23  1  0.071808  0.760011  0.667526  1
  O  O24  1  0.667526  0.071808  0.760011  1
  O  O25  1  0.760011  0.667526  0.071808  1
  O  O26  1  0.928192  0.239989  0.332474  1
  O  O27  1  0.332474  0.928192  0.239989  1
  O  O28  1  0.239989  0.332474  0.928192  1
  O  O29  1  0.237778  0.237778  0.237778  1
  O  O30  1  0.762222  0.762222  0.762222  1
  O  O31  1  0.341278  0.043292  0.928465  1
  Ba  Ba32  1  0.360233  0.360233  0.360233  1
  Ba  Ba33  1  0.639767  0.639767  0.639767  1
  Ta  Ta34  1  0.317137  0.555283  0.724554  1
  Ta  Ta35  1  0.444717  0.275446  0.682863  1
  Ta  Ta36  1  0.275446  0.682863  0.444717  1
  Ta  Ta37  1  0.682863  0.444717  0.275446  1
  Ta  Ta38  1  0.861320  0.861320  0.861320  1
  Ta  Ta39  1  0.138680  0.138680  0.138680  1
  Ta  Ta40  1  0.805156  0.926794  0.471285  1
  Ta  Ta41  1  0.926794  0.471285  0.805156  1
  Ta  Ta42  1  0.471285  0.805156  0.926794  1
  Ta  Ta43  1  0.194844  0.073206  0.528715  1
  Ta  Ta44  1  0.073206  0.528715  0.194844  1
  Ta  Ta45  1  0.528715  0.194844  0.073206  1
  Ta  Ta46  1  0.000000  0.000000  0.000000  1
  Ta  Ta47  1  0.724554  0.317137  0.555283  1
  Ta  Ta48  1  0.555283  0.724554  0.317137  1
