# generated using pymatgen
data_UIr
_symmetry_space_group_name_H-M   'P 1'
_cell_length_a   5.61620258
_cell_length_b   5.60568959
_cell_length_c   10.63138040
_cell_angle_alpha   90.00000000
_cell_angle_beta   90.00000000
_cell_angle_gamma   98.70140002
_symmetry_Int_Tables_number   1
_chemical_formula_structural   UIr
_chemical_formula_sum   'U8 Ir8'
_cell_volume   330.85205090
_cell_formula_units_Z   8
loop_
 _symmetry_equiv_pos_site_id
 _symmetry_equiv_pos_as_xyz
  1  'x, y, z'
loop_
 _atom_site_type_symbol
 _atom_site_label
 _atom_site_symmetry_multiplicity
 _atom_site_fract_x
 _atom_site_fract_y
 _atom_site_fract_z
 _atom_site_occupancy
  Ir  Ir0  1  0.900637  0.907022  0.741736  1
  Ir  Ir1  1  0.099363  0.092978  0.241736  1
  Ir  Ir2  1  0.355536  0.341403  0.744303  1
  Ir  Ir3  1  0.644464  0.658597  0.244303  1
  Ir  Ir4  1  0.099450  0.593018  0.541289  1
  Ir  Ir5  1  0.900550  0.406982  0.041289  1
  Ir  Ir6  1  0.644430  0.158555  0.538712  1
  Ir  Ir7  1  0.355570  0.841445  0.038712  1
  U  U8  1  0.863428  0.902741  0.003514  1
  U  U9  1  0.136572  0.097259  0.503514  1
  U  U10  1  0.393728  0.343642  0.007741  1
  U  U11  1  0.606272  0.656358  0.507741  1
  U  U12  1  0.136602  0.597232  0.279470  1
  U  U13  1  0.863398  0.402768  0.779470  1
  U  U14  1  0.606190  0.156415  0.275237  1
  U  U15  1  0.393810  0.843585  0.775237  1
