# generated using pymatgen
data_SiCl2O
_symmetry_space_group_name_H-M   'P 1'
_cell_length_a   6.43851580
_cell_length_b   8.53825236
_cell_length_c   8.57568850
_cell_angle_alpha   77.12432116
_cell_angle_beta   81.96748912
_cell_angle_gamma   74.02587968
_symmetry_Int_Tables_number   1
_chemical_formula_structural   SiCl2O
_chemical_formula_sum   'Si4 Cl8 O4'
_cell_volume   440.28789701
_cell_formula_units_Z   4
loop_
 _symmetry_equiv_pos_site_id
 _symmetry_equiv_pos_as_xyz
  1  'x, y, z'
loop_
 _atom_site_type_symbol
 _atom_site_label
 _atom_site_symmetry_multiplicity
 _atom_site_fract_x
 _atom_site_fract_y
 _atom_site_fract_z
 _atom_site_occupancy
  O  O0  1  0.953686  0.306682  0.073904  1
  O  O1  1  0.046314  0.693318  0.926096  1
  O  O2  1  0.903524  0.500349  0.784418  1
  O  O3  1  0.096476  0.499651  0.215582  1
  Si  Si4  1  0.103769  0.680771  0.107205  1
  Si  Si5  1  0.896231  0.319229  0.892795  1
  Si  Si6  1  0.979966  0.671746  0.757868  1
  Si  Si7  1  0.020034  0.328254  0.242132  1
  Cl  Cl8  1  0.759805  0.336266  0.406718  1
  Cl  Cl9  1  0.240195  0.663734  0.593282  1
  Cl  Cl10  1  0.731231  0.865493  0.678332  1
  Cl  Cl11  1  0.268769  0.134507  0.321668  1
  Cl  Cl12  1  0.115513  0.139927  0.792979  1
  Cl  Cl13  1  0.884487  0.860073  0.207021  1
  Cl  Cl14  1  0.594450  0.286448  0.898341  1
  Cl  Cl15  1  0.405550  0.713552  0.101659  1
