# generated using pymatgen
data_WBr2
_symmetry_space_group_name_H-M   'P 1'
_cell_length_a   10.04693932
_cell_length_b   10.04693931
_cell_length_c   12.12242613
_cell_angle_alpha   90.00000000
_cell_angle_beta   90.00000000
_cell_angle_gamma   105.82210720
_symmetry_Int_Tables_number   1
_chemical_formula_structural   WBr2
_chemical_formula_sum   'W12 Br24'
_cell_volume   1177.28910861
_cell_formula_units_Z   12
loop_
 _symmetry_equiv_pos_site_id
 _symmetry_equiv_pos_as_xyz
  1  'x, y, z'
loop_
 _atom_site_type_symbol
 _atom_site_label
 _atom_site_symmetry_multiplicity
 _atom_site_fract_x
 _atom_site_fract_y
 _atom_site_fract_z
 _atom_site_occupancy
  Br  Br0  1  0.655890  0.655890  0.844157  1
  Br  Br1  1  0.844110  0.844110  0.344157  1
  Br  Br2  1  0.155890  0.155890  0.655843  1
  Br  Br3  1  0.344110  0.344110  0.155843  1
  Br  Br4  1  0.778300  0.221700  0.500000  1
  Br  Br5  1  0.721700  0.278300  0.000000  1
  Br  Br6  1  0.221700  0.778300  0.500000  1
  Br  Br7  1  0.278300  0.721700  0.000000  1
  Br  Br8  1  0.091934  0.324668  0.930911  1
  Br  Br9  1  0.408066  0.175332  0.430911  1
  Br  Br10  1  0.824668  0.591934  0.569089  1
  Br  Br11  1  0.675332  0.908066  0.069089  1
  Br  Br12  1  0.185457  0.952760  0.208178  1
  Br  Br13  1  0.314543  0.547240  0.708178  1
  Br  Br14  1  0.452760  0.685457  0.291822  1
  Br  Br15  1  0.047240  0.814543  0.791822  1
  Br  Br16  1  0.814543  0.047240  0.791822  1
  Br  Br17  1  0.685457  0.452760  0.291822  1
  Br  Br18  1  0.547240  0.314543  0.708178  1
  Br  Br19  1  0.952760  0.185457  0.208178  1
  Br  Br20  1  0.324668  0.091934  0.930911  1
  Br  Br21  1  0.175332  0.408066  0.430911  1
  Br  Br22  1  0.591934  0.824668  0.569089  1
  Br  Br23  1  0.908066  0.675332  0.069089  1
  W  W24  1  0.069752  0.069752  0.861912  1
  W  W25  1  0.430248  0.430248  0.361912  1
  W  W26  1  0.569752  0.569752  0.638088  1
  W  W27  1  0.930248  0.930248  0.138088  1
  W  W28  1  0.861847  0.861847  0.930340  1
  W  W29  1  0.638153  0.638153  0.430340  1
  W  W30  1  0.361847  0.361847  0.569660  1
  W  W31  1  0.138153  0.138153  0.069660  1
  W  W32  1  0.617335  0.382665  0.500000  1
  W  W33  1  0.882665  0.117335  0.000000  1
  W  W34  1  0.382665  0.617335  0.500000  1
  W  W35  1  0.117335  0.882665  0.000000  1
