# generated using pymatgen
data_S3N2Cl
_symmetry_space_group_name_H-M   'P 1'
_cell_length_a   8.51371095
_cell_length_b   8.52010083
_cell_length_c   14.63433829
_cell_angle_alpha   90.00000000
_cell_angle_beta   90.00000000
_cell_angle_gamma   90.00000000
_symmetry_Int_Tables_number   1
_chemical_formula_structural   S3N2Cl
_chemical_formula_sum   'S24 N16 Cl8'
_cell_volume   1061.54088542
_cell_formula_units_Z   8
loop_
 _symmetry_equiv_pos_site_id
 _symmetry_equiv_pos_as_xyz
  1  'x, y, z'
loop_
 _atom_site_type_symbol
 _atom_site_label
 _atom_site_symmetry_multiplicity
 _atom_site_fract_x
 _atom_site_fract_y
 _atom_site_fract_z
 _atom_site_occupancy
  N  N0  1  0.894260  0.970910  0.680901  1
  N  N1  1  0.037121  0.723798  0.860527  1
  N  N2  1  0.537121  0.276202  0.639473  1
  N  N3  1  0.462879  0.223798  0.139473  1
  N  N4  1  0.962879  0.776202  0.360527  1
  N  N5  1  0.962879  0.276202  0.139473  1
  N  N6  1  0.462879  0.723798  0.360527  1
  N  N7  1  0.537121  0.776202  0.860527  1
  N  N8  1  0.037121  0.223798  0.639473  1
  N  N9  1  0.894260  0.470910  0.819099  1
  N  N10  1  0.394260  0.529090  0.680901  1
  N  N11  1  0.605740  0.970910  0.180901  1
  N  N12  1  0.105740  0.029090  0.319099  1
  N  N13  1  0.105740  0.529090  0.180901  1
  N  N14  1  0.605740  0.470910  0.319099  1
  N  N15  1  0.394260  0.029090  0.819099  1
  S  S16  1  0.164062  0.523268  0.075909  1
  S  S17  1  0.335938  0.023268  0.924091  1
  S  S18  1  0.664062  0.476732  0.424091  1
  S  S19  1  0.011500  0.099429  0.718405  1
  S  S20  1  0.164062  0.023268  0.424091  1
  S  S21  1  0.664062  0.976732  0.075909  1
  S  S22  1  0.335938  0.523268  0.575909  1
  S  S23  1  0.835938  0.476732  0.924091  1
  S  S24  1  0.956036  0.195970  0.540379  1
  S  S25  1  0.956036  0.695970  0.959621  1
  S  S26  1  0.456036  0.304030  0.540379  1
  S  S27  1  0.543964  0.195970  0.040379  1
  S  S28  1  0.043964  0.804030  0.459621  1
  S  S29  1  0.043964  0.304030  0.040379  1
  S  S30  1  0.543964  0.695970  0.459621  1
  S  S31  1  0.456036  0.804030  0.959621  1
  S  S32  1  0.511500  0.900571  0.781595  1
  S  S33  1  0.011500  0.599429  0.781595  1
  S  S34  1  0.511500  0.400571  0.718405  1
  S  S35  1  0.488500  0.099429  0.218405  1
  S  S36  1  0.988500  0.900571  0.281595  1
  S  S37  1  0.988500  0.400571  0.218405  1
  S  S38  1  0.488500  0.599429  0.281595  1
  S  S39  1  0.835938  0.976732  0.575909  1
  Cl  Cl40  1  0.742243  0.103774  0.404567  1
  Cl  Cl41  1  0.242243  0.896226  0.095433  1
  Cl  Cl42  1  0.757757  0.603774  0.595433  1
  Cl  Cl43  1  0.257757  0.396226  0.904567  1
  Cl  Cl44  1  0.257757  0.896226  0.595433  1
  Cl  Cl45  1  0.757757  0.103774  0.904567  1
  Cl  Cl46  1  0.242243  0.396226  0.404567  1
  Cl  Cl47  1  0.742243  0.603774  0.095433  1
