# generated using pymatgen
data_Na3B5S9
_symmetry_space_group_name_H-M   'P 1'
_cell_length_a   14.55125892
_cell_length_b   14.55125851
_cell_length_c   16.71574939
_cell_angle_alpha   115.80158058
_cell_angle_beta   115.80157980
_cell_angle_gamma   90.00000030
_symmetry_Int_Tables_number   1
_chemical_formula_structural   Na3B5S9
_chemical_formula_sum   'Na24 B40 S72'
_cell_volume   2789.39058824
_cell_formula_units_Z   8
loop_
 _symmetry_equiv_pos_site_id
 _symmetry_equiv_pos_as_xyz
  1  'x, y, z'
loop_
 _atom_site_type_symbol
 _atom_site_label
 _atom_site_symmetry_multiplicity
 _atom_site_fract_x
 _atom_site_fract_y
 _atom_site_fract_z
 _atom_site_occupancy
  B  B0  1  0.649439  0.224099  0.249812  1
  B  B1  1  0.525713  0.649439  0.749812  1
  B  B2  1  0.224099  0.600373  0.749812  1
  B  B3  1  0.899627  0.275901  0.750188  1
  B  B4  1  0.850561  0.974287  0.750188  1
  B  B5  1  0.974287  0.899627  0.250188  1
  B  B6  1  0.275901  0.850561  0.250188  1
  B  B7  1  0.600373  0.525713  0.249812  1
  B  B8  1  0.350561  0.775901  0.750188  1
  B  B9  1  0.474287  0.350561  0.250188  1
  B  B10  1  0.775901  0.399627  0.250188  1
  B  B11  1  0.100373  0.724099  0.249812  1
  B  B12  1  0.149439  0.025713  0.249812  1
  B  B13  1  0.025713  0.100373  0.749812  1
  B  B14  1  0.724099  0.149439  0.749812  1
  B  B15  1  0.399627  0.474287  0.750188  1
  B  B16  1  0.540400  0.290400  0.080800  1
  B  B17  1  0.290400  0.540400  0.580800  1
  B  B18  1  0.959600  0.209600  0.919200  1
  B  B19  1  0.209600  0.959600  0.419200  1
  B  B20  1  0.459600  0.709600  0.919200  1
  B  B21  1  0.709600  0.459600  0.419200  1
  B  B22  1  0.040400  0.790400  0.080800  1
  B  B23  1  0.790400  0.040400  0.580800  1
  B  B24  1  0.709851  0.170335  0.083795  1
  B  B25  1  0.413460  0.709851  0.583795  1
  B  B26  1  0.170335  0.373944  0.583795  1
  B  B27  1  0.126056  0.329665  0.916205  1
  B  B28  1  0.790149  0.086540  0.916205  1
  B  B29  1  0.086540  0.126056  0.416205  1
  B  B30  1  0.329665  0.790149  0.416205  1
  B  B31  1  0.373944  0.413460  0.083795  1
  B  B32  1  0.290149  0.829665  0.916205  1
  B  B33  1  0.586540  0.290149  0.416205  1
  B  B34  1  0.829665  0.626056  0.416205  1
  B  B35  1  0.873944  0.670335  0.083795  1
  B  B36  1  0.209851  0.913460  0.083795  1
  B  B37  1  0.913460  0.873944  0.583795  1
  B  B38  1  0.670335  0.209851  0.583795  1
  B  B39  1  0.626056  0.586540  0.916205  1
  Na  Na40  1  0.500000  0.000000  0.000000  1
  Na  Na41  1  0.500000  0.500000  0.500000  1
  Na  Na42  1  0.000000  0.500000  0.500000  1
  Na  Na43  1  0.000000  0.500000  0.000000  1
  Na  Na44  1  0.000000  0.000000  0.000000  1
  Na  Na45  1  0.000000  0.000000  0.500000  1
  Na  Na46  1  0.500000  0.000000  0.500000  1
  Na  Na47  1  0.500000  0.500000  0.000000  1
  Na  Na48  1  0.250000  0.163273  0.000000  1
  Na  Na49  1  0.336727  0.250000  0.500000  1
  Na  Na50  1  0.163273  0.750000  0.500000  1
  Na  Na51  1  0.750000  0.336727  0.000000  1
  Na  Na52  1  0.750000  0.836727  0.000000  1
  Na  Na53  1  0.663273  0.750000  0.500000  1
  Na  Na54  1  0.836727  0.250000  0.500000  1
  Na  Na55  1  0.250000  0.663273  0.000000  1
  Na  Na56  1  0.921071  0.171071  0.250000  1
  Na  Na57  1  0.578929  0.921071  0.750000  1
  Na  Na58  1  0.171071  0.328929  0.750000  1
  Na  Na59  1  0.328929  0.578929  0.250000  1
  Na  Na60  1  0.078929  0.828929  0.750000  1
  Na  Na61  1  0.421071  0.078929  0.250000  1
  Na  Na62  1  0.828929  0.671071  0.250000  1
  Na  Na63  1  0.671071  0.421071  0.750000  1
  S  S64  1  0.516654  0.241755  0.163316  1
  S  S65  1  0.421561  0.516654  0.663316  1
  S  S66  1  0.241755  0.646661  0.663316  1
  S  S67  1  0.853339  0.258245  0.836684  1
  S  S68  1  0.983346  0.078439  0.836684  1
  S  S69  1  0.078439  0.853339  0.336684  1
  S  S70  1  0.258245  0.983346  0.336684  1
  S  S71  1  0.646661  0.421561  0.163316  1
  S  S72  1  0.483346  0.758245  0.836684  1
  S  S73  1  0.578439  0.483346  0.336684  1
  S  S74  1  0.758245  0.353339  0.336684  1
  S  S75  1  0.146661  0.741755  0.163316  1
  S  S76  1  0.016654  0.921561  0.163316  1
  S  S77  1  0.921561  0.146661  0.663316  1
  S  S78  1  0.741755  0.016654  0.663316  1
  S  S79  1  0.353339  0.578439  0.836684  1
  S  S80  1  0.821739  0.297879  0.166399  1
  S  S81  1  0.368520  0.821739  0.666399  1
  S  S82  1  0.297879  0.344660  0.666399  1
  S  S83  1  0.155340  0.202121  0.833601  1
  S  S84  1  0.678261  0.131480  0.833601  1
  S  S85  1  0.131480  0.155340  0.333601  1
  S  S86  1  0.202121  0.678261  0.333601  1
  S  S87  1  0.344660  0.368520  0.166399  1
  S  S88  1  0.178261  0.702121  0.833601  1
  S  S89  1  0.631480  0.178261  0.333601  1
  S  S90  1  0.702121  0.655340  0.333601  1
  S  S91  1  0.844660  0.797879  0.166399  1
  S  S92  1  0.321739  0.868520  0.166399  1
  S  S93  1  0.868520  0.844660  0.666399  1
  S  S94  1  0.797879  0.321739  0.666399  1
  S  S95  1  0.655340  0.631480  0.833601  1
  S  S96  1  0.695515  0.118448  0.168555  1
  S  S97  1  0.550107  0.695515  0.668555  1
  S  S98  1  0.118448  0.473040  0.668555  1
  S  S99  1  0.026960  0.381552  0.831445  1
  S  S100  1  0.804485  0.949893  0.831445  1
  S  S101  1  0.949893  0.026960  0.331445  1
  S  S102  1  0.381552  0.804485  0.331445  1
  S  S103  1  0.473040  0.550107  0.168555  1
  S  S104  1  0.304485  0.881552  0.831445  1
  S  S105  1  0.449893  0.304485  0.331445  1
  S  S106  1  0.881552  0.526960  0.331445  1
  S  S107  1  0.973040  0.618448  0.168555  1
  S  S108  1  0.195515  0.050107  0.168555  1
  S  S109  1  0.050107  0.973040  0.668555  1
  S  S110  1  0.618448  0.195515  0.668555  1
  S  S111  1  0.526960  0.449893  0.831445  1
  S  S112  1  0.579839  0.184911  0.994579  1
  S  S113  1  0.309668  0.579839  0.494579  1
  S  S114  1  0.184911  0.414740  0.494579  1
  S  S115  1  0.085260  0.315089  0.005421  1
  S  S116  1  0.920161  0.190332  0.005421  1
  S  S117  1  0.190332  0.085260  0.505421  1
  S  S118  1  0.315089  0.920161  0.505421  1
  S  S119  1  0.414740  0.309668  0.994579  1
  S  S120  1  0.420161  0.815089  0.005421  1
  S  S121  1  0.690332  0.420161  0.505421  1
  S  S122  1  0.815089  0.585260  0.505421  1
  S  S123  1  0.914740  0.684911  0.994579  1
  S  S124  1  0.079839  0.809668  0.994579  1
  S  S125  1  0.809668  0.914740  0.494579  1
  S  S126  1  0.684911  0.079839  0.494579  1
  S  S127  1  0.585260  0.690332  0.005421  1
  S  S128  1  0.750000  0.054088  1.000000  1
  S  S129  1  0.445912  0.750000  0.500000  1
  S  S130  1  0.054088  0.250000  0.500000  1
  S  S131  1  0.250000  0.445912  0.000000  1
  S  S132  1  0.250000  0.945912  0.000000  1
  S  S133  1  0.554088  0.250000  0.500000  1
  S  S134  1  0.945912  0.750000  0.500000  1
  S  S135  1  0.750000  0.554088  1.000000  1
