# generated using pymatgen
data_Se2NCl5
_symmetry_space_group_name_H-M   'P 1'
_cell_length_a   8.79374343
_cell_length_b   13.12152974
_cell_length_c   17.05307201
_cell_angle_alpha   90.00000000
_cell_angle_beta   95.35236811
_cell_angle_gamma   90.00000000
_symmetry_Int_Tables_number   1
_chemical_formula_structural   Se2NCl5
_chemical_formula_sum   'Se16 N8 Cl40'
_cell_volume   1959.12956597
_cell_formula_units_Z   8
loop_
 _symmetry_equiv_pos_site_id
 _symmetry_equiv_pos_as_xyz
  1  'x, y, z'
loop_
 _atom_site_type_symbol
 _atom_site_label
 _atom_site_symmetry_multiplicity
 _atom_site_fract_x
 _atom_site_fract_y
 _atom_site_fract_z
 _atom_site_occupancy
  N  N0  1  0.886647  0.785531  0.519026  1
  N  N1  1  0.613353  0.285531  0.980974  1
  N  N2  1  0.113353  0.214469  0.480974  1
  N  N3  1  0.386647  0.714469  0.019026  1
  N  N4  1  0.856389  0.013599  0.785003  1
  N  N5  1  0.643611  0.513599  0.714997  1
  N  N6  1  0.143611  0.986401  0.214997  1
  N  N7  1  0.356389  0.486401  0.285003  1
  Cl  Cl8  1  0.124207  0.925983  0.905066  1
  Cl  Cl9  1  0.881126  0.090100  0.308480  1
  Cl  Cl10  1  0.381126  0.409900  0.808480  1
  Cl  Cl11  1  0.118874  0.909900  0.691520  1
  Cl  Cl12  1  0.328205  0.728771  0.274440  1
  Cl  Cl13  1  0.171795  0.228771  0.225560  1
  Cl  Cl14  1  0.671795  0.271229  0.725560  1
  Cl  Cl15  1  0.828205  0.771229  0.774440  1
  Cl  Cl16  1  0.840836  0.797888  0.330573  1
  Cl  Cl17  1  0.435289  0.056773  0.289463  1
  Cl  Cl18  1  0.935289  0.443227  0.789463  1
  Cl  Cl19  1  0.564711  0.943227  0.710537  1
  Cl  Cl20  1  0.624207  0.574017  0.405066  1
  Cl  Cl21  1  0.875793  0.074017  0.094934  1
  Cl  Cl22  1  0.375793  0.425983  0.594934  1
  Cl  Cl23  1  0.618874  0.590100  0.191520  1
  Cl  Cl24  1  0.503722  0.331643  0.387556  1
  Cl  Cl25  1  0.996278  0.831643  0.112444  1
  Cl  Cl26  1  0.496278  0.668357  0.612444  1
  Cl  Cl27  1  0.003722  0.168357  0.887556  1
  Cl  Cl28  1  0.533499  0.863931  0.127896  1
  Cl  Cl29  1  0.966501  0.363931  0.372104  1
  Cl  Cl30  1  0.466501  0.136069  0.872104  1
  Cl  Cl31  1  0.033499  0.636069  0.627896  1
  Cl  Cl32  1  0.135933  0.645774  0.446330  1
  Cl  Cl33  1  0.364067  0.145774  0.053670  1
  Cl  Cl34  1  0.864067  0.354226  0.553670  1
  Cl  Cl35  1  0.635933  0.854226  0.946330  1
  Cl  Cl36  1  0.597069  0.874085  0.460046  1
  Cl  Cl37  1  0.902931  0.374085  0.039954  1
  Cl  Cl38  1  0.402931  0.125915  0.539954  1
  Cl  Cl39  1  0.097069  0.625915  0.960046  1
  Cl  Cl40  1  0.649896  0.581929  0.947075  1
  Cl  Cl41  1  0.850104  0.081929  0.552925  1
  Cl  Cl42  1  0.350104  0.418071  0.052925  1
  Cl  Cl43  1  0.149896  0.918071  0.447075  1
  Cl  Cl44  1  0.340836  0.702112  0.830573  1
  Cl  Cl45  1  0.159164  0.202112  0.669427  1
  Cl  Cl46  1  0.659164  0.297888  0.169427  1
  Cl  Cl47  1  0.064711  0.556773  0.210537  1
  Se  Se48  1  0.084972  0.754126  0.540373  1
  Se  Se49  1  0.415028  0.254126  0.959627  1
  Se  Se50  1  0.915028  0.245874  0.459627  1
  Se  Se51  1  0.584972  0.745874  0.040373  1
  Se  Se52  1  0.847408  0.883497  0.446342  1
  Se  Se53  1  0.652592  0.383497  0.053658  1
  Se  Se54  1  0.152592  0.116503  0.553658  1
  Se  Se55  1  0.347408  0.616503  0.946342  1
  Se  Se56  1  0.055482  0.037235  0.810098  1
  Se  Se57  1  0.444518  0.537235  0.689902  1
  Se  Se58  1  0.944518  0.962765  0.189902  1
  Se  Se59  1  0.555482  0.462765  0.310098  1
  Se  Se60  1  0.816840  0.918577  0.710213  1
  Se  Se61  1  0.683160  0.418577  0.789787  1
  Se  Se62  1  0.183160  0.081423  0.289787  1
  Se  Se63  1  0.316840  0.581423  0.210213  1
