# generated using pymatgen
data_Cd4OF6
_symmetry_space_group_name_H-M   'P 1'
_cell_length_a   5.53019889
_cell_length_b   7.63764373
_cell_length_c   7.63764373
_cell_angle_alpha   90.00000000
_cell_angle_beta   90.00000000
_cell_angle_gamma   90.00000000
_symmetry_Int_Tables_number   1
_chemical_formula_structural   Cd4OF6
_chemical_formula_sum   'Cd8 O2 F12'
_cell_volume   322.59641963
_cell_formula_units_Z   2
loop_
 _symmetry_equiv_pos_site_id
 _symmetry_equiv_pos_as_xyz
  1  'x, y, z'
loop_
 _atom_site_type_symbol
 _atom_site_label
 _atom_site_symmetry_multiplicity
 _atom_site_fract_x
 _atom_site_fract_y
 _atom_site_fract_z
 _atom_site_occupancy
  Cd  Cd0  1  0.053192  0.250000  0.001212  1
  Cd  Cd1  1  0.553192  0.498788  0.250000  1
  Cd  Cd2  1  0.553192  0.001212  0.250000  1
  Cd  Cd3  1  0.053192  0.250000  0.498788  1
  Cd  Cd4  1  0.946808  0.750000  0.998788  1
  Cd  Cd5  1  0.946808  0.750000  0.501212  1
  Cd  Cd6  1  0.446808  0.501212  0.750000  1
  Cd  Cd7  1  0.446808  0.998788  0.750000  1
  F  F8  1  0.750000  0.037030  0.537030  1
  F  F9  1  0.250000  0.962970  0.037030  1
  F  F10  1  0.250000  0.537030  0.462970  1
  F  F11  1  0.750000  0.462970  0.962970  1
  F  F12  1  0.250000  0.962970  0.462970  1
  F  F13  1  0.750000  0.037030  0.962970  1
  F  F14  1  0.750000  0.462970  0.537030  1
  F  F15  1  0.250000  0.537030  0.037030  1
  F  F16  1  0.328482  0.250000  0.250000  1
  F  F17  1  0.828482  0.250000  0.250000  1
  F  F18  1  0.671518  0.750000  0.750000  1
  F  F19  1  0.171518  0.750000  0.750000  1
  O  O20  1  0.750000  0.750000  0.250000  1
  O  O21  1  0.250000  0.250000  0.750000  1
