# generated using pymatgen
data_V2CoP2(H4O7)2
_symmetry_space_group_name_H-M   'P 1'
_cell_length_a   6.35070498
_cell_length_b   6.35070498
_cell_length_c   8.08359790
_cell_angle_alpha   113.12972436
_cell_angle_beta   113.12972429
_cell_angle_gamma   89.99999996
_symmetry_Int_Tables_number   1
_chemical_formula_structural   V2CoP2(H4O7)2
_chemical_formula_sum   'V2 Co1 P2 H8 O14'
_cell_volume   271.08866411
_cell_formula_units_Z   1
loop_
 _symmetry_equiv_pos_site_id
 _symmetry_equiv_pos_as_xyz
  1  'x, y, z'
loop_
 _atom_site_type_symbol
 _atom_site_label
 _atom_site_symmetry_multiplicity
 _atom_site_fract_x
 _atom_site_fract_y
 _atom_site_fract_z
 _atom_site_occupancy
  H  H0  1  0.112507  0.298526  0.879387  1
  H  H1  1  0.580861  0.112507  0.879387  1
  H  H2  1  0.298526  0.766880  0.879387  1
  H  H3  1  0.766880  0.580861  0.879387  1
  H  H4  1  0.887493  0.701474  0.120613  1
  H  H5  1  0.233120  0.419139  0.120613  1
  H  H6  1  0.419139  0.887493  0.120613  1
  H  H7  1  0.701474  0.233120  0.120613  1
  O  O8  1  0.623351  0.339613  0.637723  1
  O  O9  1  0.339613  0.014373  0.637723  1
  O  O10  1  0.298111  0.623351  0.637723  1
  O  O11  1  0.376649  0.660387  0.362277  1
  O  O12  1  0.701889  0.376649  0.362277  1
  O  O13  1  0.660387  0.985627  0.362277  1
  O  O14  1  0.985627  0.701889  0.362277  1
  O  O15  1  0.182095  0.269837  1.000000  1
  O  O16  1  0.730163  0.182095  0.000000  1
  O  O17  1  0.269837  0.817905  1.000000  1
  O  O18  1  0.817905  0.730163  0.000000  1
  O  O19  1  0.155958  0.155958  0.311917  1
  O  O20  1  0.014373  0.298111  0.637723  1
  O  O21  1  0.844042  0.844042  0.688083  1
  P  P22  1  0.250000  0.750000  0.500000  1
  P  P23  1  0.750000  0.250000  0.500000  1
  V  V24  1  0.722067  0.722067  0.444133  1
  V  V25  1  0.277933  0.277933  0.555867  1
  Co  Co26  1  0.000000  0.000000  0.000000  1
