# generated using pymatgen
data_Fe2P3(HO3)3
_symmetry_space_group_name_H-M   'P 1'
_cell_length_a   8.15984662
_cell_length_b   8.15984662
_cell_length_c   7.48913517
_cell_angle_alpha   90.00000000
_cell_angle_beta   90.00000000
_cell_angle_gamma   120.00000002
_symmetry_Int_Tables_number   1
_chemical_formula_structural   Fe2P3(HO3)3
_chemical_formula_sum   'Fe4 P6 H6 O18'
_cell_volume   431.84340492
_cell_formula_units_Z   2
loop_
 _symmetry_equiv_pos_site_id
 _symmetry_equiv_pos_as_xyz
  1  'x, y, z'
loop_
 _atom_site_type_symbol
 _atom_site_label
 _atom_site_symmetry_multiplicity
 _atom_site_fract_x
 _atom_site_fract_y
 _atom_site_fract_z
 _atom_site_occupancy
  H  H0  1  0.818384  0.838487  0.750000  1
  H  H1  1  0.979897  0.818384  0.250000  1
  H  H2  1  0.838487  0.020103  0.250000  1
  H  H3  1  0.161513  0.979897  0.750000  1
  H  H4  1  0.020103  0.181616  0.750000  1
  H  H5  1  0.181616  0.161513  0.250000  1
  O  O6  1  0.565374  0.837883  0.421636  1
  O  O7  1  0.727492  0.565374  0.921636  1
  O  O8  1  0.837883  0.272508  0.921636  1
  O  O9  1  0.162117  0.727492  0.421636  1
  O  O10  1  0.512734  0.382737  0.250000  1
  O  O11  1  0.129997  0.512734  0.750000  1
  O  O12  1  0.382737  0.870003  0.750000  1
  O  O13  1  0.617263  0.129997  0.250000  1
  O  O14  1  0.870003  0.487266  0.250000  1
  O  O15  1  0.487266  0.617263  0.750000  1
  O  O16  1  0.565374  0.837883  0.078364  1
  O  O17  1  0.727492  0.565374  0.578364  1
  O  O18  1  0.837883  0.272508  0.578364  1
  O  O19  1  0.162117  0.727492  0.078364  1
  O  O20  1  0.272508  0.434626  0.078364  1
  O  O21  1  0.434626  0.162117  0.578364  1
  O  O22  1  0.434626  0.162117  0.921636  1
  O  O23  1  0.272508  0.434626  0.421636  1
  P  P24  1  0.357216  0.047076  0.750000  1
  P  P25  1  0.310140  0.357216  0.250000  1
  P  P26  1  0.047076  0.689860  0.250000  1
  P  P27  1  0.952924  0.310140  0.750000  1
  P  P28  1  0.689860  0.642784  0.750000  1
  P  P29  1  0.642784  0.952924  0.250000  1
  Fe  Fe30  1  0.333333  0.666667  0.950792  1
  Fe  Fe31  1  0.666667  0.333333  0.450792  1
  Fe  Fe32  1  0.666667  0.333333  0.049208  1
  Fe  Fe33  1  0.333333  0.666667  0.549208  1
