# generated using pymatgen
data_BaInCo4O7
_symmetry_space_group_name_H-M   'P 1'
_cell_length_a   6.29517733
_cell_length_b   6.29517733
_cell_length_c   10.30448229
_cell_angle_alpha   90.00000000
_cell_angle_beta   90.00000000
_cell_angle_gamma   119.99999996
_symmetry_Int_Tables_number   1
_chemical_formula_structural   BaInCo4O7
_chemical_formula_sum   'Ba2 In2 Co8 O14'
_cell_volume   353.64925343
_cell_formula_units_Z   2
loop_
 _symmetry_equiv_pos_site_id
 _symmetry_equiv_pos_as_xyz
  1  'x, y, z'
loop_
 _atom_site_type_symbol
 _atom_site_label
 _atom_site_symmetry_multiplicity
 _atom_site_fract_x
 _atom_site_fract_y
 _atom_site_fract_z
 _atom_site_occupancy
  O  O0  1  0.832088  0.167912  0.999084  1
  O  O1  1  0.664177  0.832088  0.499084  1
  O  O2  1  0.167912  0.335823  0.499084  1
  O  O3  1  0.832088  0.664177  0.999084  1
  O  O4  1  0.335823  0.167912  0.999084  1
  O  O5  1  0.167912  0.832088  0.499084  1
  O  O6  1  0.000000  0.000000  0.748040  1
  O  O7  1  0.000000  0.000000  0.248040  1
  O  O8  1  0.499523  0.500477  0.254369  1
  O  O9  1  0.999047  0.499523  0.754369  1
  O  O10  1  0.500477  0.000953  0.754369  1
  O  O11  1  0.499523  0.999047  0.254369  1
  O  O12  1  0.500477  0.499523  0.754369  1
  O  O13  1  0.000953  0.500477  0.254369  1
  Co  Co14  1  0.829800  0.170200  0.186512  1
  Co  Co15  1  0.659601  0.829800  0.686512  1
  Co  Co16  1  0.170200  0.340399  0.686512  1
  Co  Co17  1  0.829800  0.659601  0.186512  1
  Co  Co18  1  0.340399  0.170200  0.186512  1
  Co  Co19  1  0.170200  0.829800  0.686512  1
  Co  Co20  1  0.000000  0.000000  0.938885  1
  Co  Co21  1  0.000000  0.000000  0.438885  1
  In  In22  1  0.666667  0.333333  0.875260  1
  In  In23  1  0.333333  0.666667  0.375260  1
  Ba  Ba24  1  0.666667  0.333333  0.494620  1
  Ba  Ba25  1  0.333333  0.666667  0.994620  1
