# generated using pymatgen
data_CsB5(H2O3)4
_symmetry_space_group_name_H-M   'P 1'
_cell_length_a   7.24615242
_cell_length_b   11.69589231
_cell_length_c   14.08106781
_cell_angle_alpha   92.07225591
_cell_angle_beta   90.00000000
_cell_angle_gamma   90.00000000
_symmetry_Int_Tables_number   1
_chemical_formula_structural   CsB5(H2O3)4
_chemical_formula_sum   'Cs4 B20 H32 O48'
_cell_volume   1192.59313001
_cell_formula_units_Z   4
loop_
 _symmetry_equiv_pos_site_id
 _symmetry_equiv_pos_as_xyz
  1  'x, y, z'
loop_
 _atom_site_type_symbol
 _atom_site_label
 _atom_site_symmetry_multiplicity
 _atom_site_fract_x
 _atom_site_fract_y
 _atom_site_fract_z
 _atom_site_occupancy
  H  H0  1  0.747041  0.252819  0.344432  1
  H  H1  1  0.247041  0.747181  0.155568  1
  H  H2  1  0.252959  0.747181  0.655568  1
  H  H3  1  0.752959  0.252819  0.844432  1
  H  H4  1  0.699612  0.247732  0.455940  1
  H  H5  1  0.199612  0.752268  0.044060  1
  H  H6  1  0.300388  0.752268  0.544060  1
  H  H7  1  0.800388  0.247732  0.955940  1
  H  H8  1  0.967413  0.739660  0.318367  1
  H  H9  1  0.467413  0.260340  0.181633  1
  H  H10  1  0.032587  0.260340  0.681633  1
  H  H11  1  0.532587  0.739660  0.818367  1
  H  H12  1  0.746212  0.748938  0.329345  1
  H  H13  1  0.246212  0.251062  0.170655  1
  H  H14  1  0.253788  0.251062  0.670655  1
  H  H15  1  0.753788  0.748938  0.829345  1
  H  H16  1  0.874838  0.924657  0.311210  1
  H  H17  1  0.374838  0.075343  0.188790  1
  H  H18  1  0.125162  0.075343  0.688790  1
  H  H19  1  0.625162  0.924657  0.811210  1
  H  H20  1  0.728183  0.015957  0.930959  1
  H  H21  1  0.228183  0.984043  0.569041  1
  H  H22  1  0.271817  0.984043  0.069041  1
  H  H23  1  0.771817  0.015957  0.430959  1
  H  H24  1  0.189037  0.565710  0.106235  1
  H  H25  1  0.689037  0.434290  0.393765  1
  H  H26  1  0.810963  0.434290  0.893765  1
  H  H27  1  0.310963  0.565710  0.606235  1
  H  H28  1  0.430764  0.484028  0.143023  1
  H  H29  1  0.930764  0.515972  0.356977  1
  H  H30  1  0.569236  0.515972  0.856977  1
  H  H31  1  0.069236  0.484028  0.643023  1
  B  B32  1  0.863130  0.066253  0.235339  1
  B  B33  1  0.363130  0.933747  0.264661  1
  B  B34  1  0.136870  0.933747  0.764661  1
  B  B35  1  0.636870  0.066253  0.735339  1
  B  B36  1  0.815075  0.056064  0.066074  1
  B  B37  1  0.315075  0.943936  0.433926  1
  B  B38  1  0.184925  0.943936  0.933926  1
  B  B39  1  0.684925  0.056064  0.566074  1
  B  B40  1  0.032207  0.428282  0.129724  1
  B  B41  1  0.532207  0.571718  0.370276  1
  B  B42  1  0.967793  0.571718  0.870276  1
  B  B43  1  0.467793  0.428282  0.629724  1
  B  B44  1  0.702581  0.443633  0.146603  1
  B  B45  1  0.202581  0.556367  0.353397  1
  B  B46  1  0.297419  0.556367  0.853397  1
  B  B47  1  0.797419  0.443633  0.646603  1
  B  B48  1  0.847282  0.248927  0.148670  1
  B  B49  1  0.347282  0.751073  0.351330  1
  B  B50  1  0.152718  0.751073  0.851330  1
  B  B51  1  0.652718  0.248927  0.648670  1
  O  O52  1  0.686265  0.293854  0.398477  1
  O  O53  1  0.186265  0.706146  0.101523  1
  O  O54  1  0.313735  0.706146  0.601523  1
  O  O55  1  0.813735  0.293854  0.898477  1
  O  O56  1  0.856869  0.784671  0.301665  1
  O  O57  1  0.356869  0.215329  0.198335  1
  O  O58  1  0.143131  0.215329  0.698335  1
  O  O59  1  0.643131  0.784671  0.801665  1
  O  O60  1  0.878050  0.010926  0.319435  1
  O  O61  1  0.378050  0.989074  0.180565  1
  O  O62  1  0.121950  0.989074  0.680565  1
  O  O63  1  0.621950  0.010926  0.819435  1
  O  O64  1  0.773941  0.983930  0.990665  1
  O  O65  1  0.273941  0.016070  0.509335  1
  O  O66  1  0.226059  0.016070  0.009335  1
  O  O67  1  0.726059  0.983930  0.490665  1
  O  O68  1  0.198919  0.480307  0.113686  1
  O  O69  1  0.698919  0.519693  0.386314  1
  O  O70  1  0.801081  0.519693  0.886314  1
  O  O71  1  0.301081  0.480307  0.613686  1
  O  O72  1  0.556305  0.517155  0.146984  1
  O  O73  1  0.056305  0.482845  0.353016  1
  O  O74  1  0.443695  0.482845  0.853016  1
  O  O75  1  0.943695  0.517155  0.646984  1
  O  O76  1  0.852152  0.001858  0.150762  1
  O  O77  1  0.352152  0.998142  0.349238  1
  O  O78  1  0.147848  0.998142  0.849238  1
  O  O79  1  0.647848  0.001858  0.650762  1
  O  O80  1  0.874103  0.495140  0.134429  1
  O  O81  1  0.374103  0.504860  0.365571  1
  O  O82  1  0.125897  0.504860  0.865571  1
  O  O83  1  0.625897  0.495140  0.634429  1
  O  O84  1  0.857587  0.183438  0.236730  1
  O  O85  1  0.357587  0.816562  0.263270  1
  O  O86  1  0.142413  0.816562  0.763270  1
  O  O87  1  0.642413  0.183438  0.736730  1
  O  O88  1  0.816486  0.172997  0.063113  1
  O  O89  1  0.316486  0.827003  0.436887  1
  O  O90  1  0.183514  0.827003  0.936887  1
  O  O91  1  0.683514  0.172997  0.563113  1
  O  O92  1  0.024343  0.311847  0.136454  1
  O  O93  1  0.524343  0.688153  0.363546  1
  O  O94  1  0.975657  0.688153  0.863546  1
  O  O95  1  0.475657  0.311847  0.636454  1
  O  O96  1  0.687610  0.328101  0.156676  1
  O  O97  1  0.187610  0.671899  0.343324  1
  O  O98  1  0.312390  0.671899  0.843324  1
  O  O99  1  0.812390  0.328101  0.656676  1
  Cs  Cs100  1  0.734724  0.746630  0.085162  1
  Cs  Cs101  1  0.234724  0.253370  0.414838  1
  Cs  Cs102  1  0.265276  0.253370  0.914838  1
  Cs  Cs103  1  0.765276  0.746630  0.585162  1
