# generated using pymatgen
data_Cd4P2Br3
_symmetry_space_group_name_H-M   'P 1'
_cell_length_a   12.66163068
_cell_length_b   12.66163068
_cell_length_c   12.66163068
_cell_angle_alpha   90.00000000
_cell_angle_beta   90.00000000
_cell_angle_gamma   90.00000000
_symmetry_Int_Tables_number   1
_chemical_formula_structural   Cd4P2Br3
_chemical_formula_sum   'Cd32 P16 Br24'
_cell_volume   2029.87327164
_cell_formula_units_Z   8
loop_
 _symmetry_equiv_pos_site_id
 _symmetry_equiv_pos_as_xyz
  1  'x, y, z'
loop_
 _atom_site_type_symbol
 _atom_site_label
 _atom_site_symmetry_multiplicity
 _atom_site_fract_x
 _atom_site_fract_y
 _atom_site_fract_z
 _atom_site_occupancy
  P  P0  1  0.109331  0.109331  0.109331  1
  P  P1  1  0.390669  0.890669  0.609331  1
  P  P2  1  0.609331  0.390669  0.890669  1
  P  P3  1  0.890669  0.609331  0.390669  1
  P  P4  1  0.890669  0.890669  0.890669  1
  P  P5  1  0.609331  0.109331  0.390669  1
  P  P6  1  0.390669  0.609331  0.109331  1
  P  P7  1  0.109331  0.390669  0.609331  1
  P  P8  1  0.449785  0.449785  0.449785  1
  P  P9  1  0.050215  0.550215  0.949785  1
  P  P10  1  0.949785  0.050215  0.550215  1
  P  P11  1  0.550215  0.949785  0.050215  1
  P  P12  1  0.550215  0.550215  0.550215  1
  P  P13  1  0.949785  0.449785  0.050215  1
  P  P14  1  0.050215  0.949785  0.449785  1
  P  P15  1  0.449785  0.050215  0.949785  1
  Br  Br16  1  0.183889  0.434269  0.269086  1
  Br  Br17  1  0.269086  0.183889  0.434269  1
  Br  Br18  1  0.434269  0.269086  0.183889  1
  Br  Br19  1  0.065731  0.730914  0.683889  1
  Br  Br20  1  0.769086  0.316111  0.565731  1
  Br  Br21  1  0.565731  0.769086  0.316111  1
  Br  Br22  1  0.230914  0.816111  0.934269  1
  Br  Br23  1  0.730914  0.683889  0.065731  1
  Br  Br24  1  0.934269  0.230914  0.816111  1
  Br  Br25  1  0.683889  0.065731  0.730914  1
  Br  Br26  1  0.816111  0.934269  0.230914  1
  Br  Br27  1  0.316111  0.565731  0.769086  1
  Br  Br28  1  0.816111  0.565731  0.730914  1
  Br  Br29  1  0.730914  0.816111  0.565731  1
  Br  Br30  1  0.565731  0.730914  0.816111  1
  Br  Br31  1  0.934269  0.269086  0.316111  1
  Br  Br32  1  0.230914  0.683889  0.434269  1
  Br  Br33  1  0.434269  0.230914  0.683889  1
  Br  Br34  1  0.769086  0.183889  0.065731  1
  Br  Br35  1  0.269086  0.316111  0.934269  1
  Br  Br36  1  0.065731  0.769086  0.183889  1
  Br  Br37  1  0.316111  0.934269  0.269086  1
  Br  Br38  1  0.183889  0.065731  0.769086  1
  Br  Br39  1  0.683889  0.434269  0.230914  1
  Cd  Cd40  1  0.036124  0.995502  0.254507  1
  Cd  Cd41  1  0.254507  0.036124  0.995502  1
  Cd  Cd42  1  0.995502  0.254507  0.036124  1
  Cd  Cd43  1  0.504498  0.745493  0.536124  1
  Cd  Cd44  1  0.754507  0.463876  0.004498  1
  Cd  Cd45  1  0.004498  0.754507  0.463876  1
  Cd  Cd46  1  0.245493  0.963876  0.495502  1
  Cd  Cd47  1  0.745493  0.536124  0.504498  1
  Cd  Cd48  1  0.495502  0.245493  0.963876  1
  Cd  Cd49  1  0.536124  0.504498  0.745493  1
  Cd  Cd50  1  0.963876  0.495502  0.245493  1
  Cd  Cd51  1  0.463876  0.004498  0.754507  1
  Cd  Cd52  1  0.963876  0.004498  0.745493  1
  Cd  Cd53  1  0.745493  0.963876  0.004498  1
  Cd  Cd54  1  0.004498  0.745493  0.963876  1
  Cd  Cd55  1  0.495502  0.254507  0.463876  1
  Cd  Cd56  1  0.245493  0.536124  0.995502  1
  Cd  Cd57  1  0.995502  0.245493  0.536124  1
  Cd  Cd58  1  0.754507  0.036124  0.504498  1
  Cd  Cd59  1  0.254507  0.463876  0.495502  1
  Cd  Cd60  1  0.504498  0.754507  0.036124  1
  Cd  Cd61  1  0.463876  0.495502  0.254507  1
  Cd  Cd62  1  0.036124  0.504498  0.754507  1
  Cd  Cd63  1  0.536124  0.995502  0.245493  1
  Cd  Cd64  1  0.223494  0.223494  0.223494  1
  Cd  Cd65  1  0.276506  0.776506  0.723494  1
  Cd  Cd66  1  0.723494  0.276506  0.776506  1
  Cd  Cd67  1  0.776506  0.723494  0.276506  1
  Cd  Cd68  1  0.776506  0.776506  0.776506  1
  Cd  Cd69  1  0.723494  0.223494  0.276506  1
  Cd  Cd70  1  0.276506  0.723494  0.223494  1
  Cd  Cd71  1  0.223494  0.276506  0.723494  1
