# generated using pymatgen
data_Co7(AsO6)2
_symmetry_space_group_name_H-M   'P 1'
_cell_length_a   5.91170370
_cell_length_b   8.59864184
_cell_length_c   10.52008744
_cell_angle_alpha   114.12177184
_cell_angle_beta   106.31823569
_cell_angle_gamma   89.99999998
_symmetry_Int_Tables_number   1
_chemical_formula_structural   Co7(AsO6)2
_chemical_formula_sum   'Co14 As4 O24'
_cell_volume   464.36378375
_cell_formula_units_Z   2
loop_
 _symmetry_equiv_pos_site_id
 _symmetry_equiv_pos_as_xyz
  1  'x, y, z'
loop_
 _atom_site_type_symbol
 _atom_site_label
 _atom_site_symmetry_multiplicity
 _atom_site_fract_x
 _atom_site_fract_y
 _atom_site_fract_z
 _atom_site_occupancy
  O  O0  1  0.206030  0.428824  0.850756  1
  O  O1  1  0.355273  0.571176  0.149244  1
  O  O2  1  0.293971  0.078068  0.149245  1
  O  O3  1  0.144727  0.921933  0.850756  1
  O  O4  1  0.793971  0.571176  0.149244  1
  O  O5  1  0.644726  0.428824  0.850756  1
  O  O6  1  0.706030  0.921933  0.850756  1
  O  O7  1  0.855273  0.078068  0.149244  1
  O  O8  1  0.007375  0.742466  0.500000  1
  O  O9  1  0.507376  0.257535  0.500000  1
  O  O10  1  0.492625  0.742466  0.500000  1
  O  O11  1  0.992625  0.257535  0.500000  1
  O  O12  1  0.671676  0.406669  0.343351  1
  O  O13  1  0.328325  0.593330  0.656649  1
  O  O14  1  0.828325  0.563317  0.656649  1
  O  O15  1  0.171676  0.436682  0.343351  1
  O  O16  1  0.491583  0.273021  0.983167  1
  O  O17  1  0.508416  0.726978  0.016834  1
  O  O18  1  0.830864  0.049672  0.661728  1
  O  O19  1  0.169137  0.950329  0.338272  1
  O  O20  1  0.669136  0.887945  0.338273  1
  O  O21  1  0.008417  0.789855  0.016833  1
  O  O22  1  0.991584  0.210145  0.983167  1
  O  O23  1  0.330863  0.112056  0.661728  1
  Co  Co24  1  0.664485  0.644362  0.328969  1
  Co  Co25  1  0.335516  0.355637  0.671031  1
  Co  Co26  1  0.835515  0.815394  0.671030  1
  Co  Co27  1  0.164484  0.184606  0.328969  1
  Co  Co28  1  0.338469  0.838469  0.176938  1
  Co  Co29  1  0.161531  0.161531  0.823062  1
  Co  Co30  1  0.661530  0.161531  0.823062  1
  Co  Co31  1  0.838468  0.838469  0.176938  1
  Co  Co32  1  0.500000  1.000000  0.500000  1
  Co  Co33  1  0.072350  0.444854  0.144700  1
  Co  Co34  1  0.427650  0.800155  0.855300  1
  Co  Co35  1  0.572349  0.199845  0.144700  1
  Co  Co36  1  0.927651  0.555146  0.855300  1
  Co  Co37  1  0.000000  1.000000  0.500000  1
  As  As38  1  0.000000  0.000000  0.000000  1
  As  As39  1  0.500000  0.500001  0.000000  1
  As  As40  1  0.750000  0.371815  0.500000  1
  As  As41  1  0.249999  0.628184  0.500000  1
