# generated using pymatgen
data_KHoH8RuC6(N3O2)2
_symmetry_space_group_name_H-M   'P 1'
_cell_length_a   7.45880051
_cell_length_b   7.45880051
_cell_length_c   14.19037703
_cell_angle_alpha   90.00000000
_cell_angle_beta   90.00000000
_cell_angle_gamma   120.01520055
_symmetry_Int_Tables_number   1
_chemical_formula_structural   KHoH8RuC6(N3O2)2
_chemical_formula_sum   'K2 Ho2 H16 Ru2 C12 N12 O8'
_cell_volume   683.59048354
_cell_formula_units_Z   2
loop_
 _symmetry_equiv_pos_site_id
 _symmetry_equiv_pos_as_xyz
  1  'x, y, z'
loop_
 _atom_site_type_symbol
 _atom_site_label
 _atom_site_symmetry_multiplicity
 _atom_site_fract_x
 _atom_site_fract_y
 _atom_site_fract_z
 _atom_site_occupancy
  H  H0  1  0.790288  0.209712  0.547049  1
  H  H1  1  0.209712  0.790288  0.452951  1
  H  H2  1  0.790288  0.209712  0.952951  1
  H  H3  1  0.899729  0.100271  0.593943  1
  H  H4  1  0.100271  0.899729  0.093943  1
  H  H5  1  0.100271  0.899729  0.406057  1
  H  H6  1  0.899729  0.100271  0.906057  1
  H  H7  1  0.209712  0.790288  0.047049  1
  H  H8  1  0.032562  0.621691  0.193634  1
  H  H9  1  0.967438  0.378309  0.693634  1
  H  H10  1  0.621691  0.032562  0.693634  1
  H  H11  1  0.378309  0.967438  0.193634  1
  H  H12  1  0.032562  0.621691  0.306366  1
  H  H13  1  0.967438  0.378309  0.806366  1
  H  H14  1  0.378309  0.967438  0.306366  1
  H  H15  1  0.621691  0.032562  0.806366  1
  C  C16  1  0.257092  0.355378  0.089431  1
  C  C17  1  0.355378  0.257092  0.589431  1
  C  C18  1  0.742908  0.644622  0.589431  1
  C  C19  1  0.644622  0.742908  0.089431  1
  C  C20  1  0.358404  0.641596  0.561749  1
  C  C21  1  0.641596  0.358404  0.061749  1
  C  C22  1  0.641596  0.358404  0.438251  1
  C  C23  1  0.358404  0.641596  0.938251  1
  C  C24  1  0.257092  0.355378  0.410569  1
  C  C25  1  0.742908  0.644622  0.910569  1
  C  C26  1  0.644622  0.742908  0.410569  1
  C  C27  1  0.355378  0.257092  0.910569  1
  N  N28  1  0.275098  0.121907  0.855049  1
  N  N29  1  0.878093  0.724902  0.644951  1
  N  N30  1  0.121907  0.275098  0.144951  1
  N  N31  1  0.275098  0.121907  0.644951  1
  N  N32  1  0.724902  0.878093  0.144951  1
  N  N33  1  0.279200  0.720800  0.896708  1
  N  N34  1  0.720800  0.279200  0.396708  1
  N  N35  1  0.720800  0.279200  0.103292  1
  N  N36  1  0.279200  0.720800  0.603292  1
  N  N37  1  0.878093  0.724902  0.855049  1
  N  N38  1  0.724902  0.878093  0.355049  1
  N  N39  1  0.121907  0.275098  0.355049  1
  O  O40  1  0.825764  0.174236  0.891664  1
  O  O41  1  0.536030  0.963174  0.750000  1
  O  O42  1  0.174236  0.825764  0.108336  1
  O  O43  1  0.825764  0.174236  0.608336  1
  O  O44  1  0.963174  0.536030  0.250000  1
  O  O45  1  0.463970  0.036826  0.250000  1
  O  O46  1  0.036826  0.463970  0.750000  1
  O  O47  1  0.174236  0.825764  0.391664  1
  K  K48  1  0.538510  0.461490  0.250000  1
  K  K49  1  0.461490  0.538510  0.750000  1
  Ru  Ru50  1  0.500000  0.500000  0.500000  1
  Ru  Ru51  1  0.500000  0.500000  0.000000  1
  Ho  Ho52  1  0.830892  0.169108  0.250000  1
  Ho  Ho53  1  0.169108  0.830892  0.750000  1
