# generated using pymatgen
data_BaGe2S5
_symmetry_space_group_name_H-M   'P 1'
_cell_length_a   10.76610128
_cell_length_b   10.76610129
_cell_length_c   10.76610128
_cell_angle_alpha   60.00000002
_cell_angle_beta   60.00000000
_cell_angle_gamma   60.00000000
_symmetry_Int_Tables_number   1
_chemical_formula_structural   BaGe2S5
_chemical_formula_sum   'Ba4 Ge8 S20'
_cell_volume   882.38960980
_cell_formula_units_Z   4
loop_
 _symmetry_equiv_pos_site_id
 _symmetry_equiv_pos_as_xyz
  1  'x, y, z'
loop_
 _atom_site_type_symbol
 _atom_site_label
 _atom_site_symmetry_multiplicity
 _atom_site_fract_x
 _atom_site_fract_y
 _atom_site_fract_z
 _atom_site_occupancy
  S  S0  1  0.951963  0.951963  0.298037  1
  S  S1  1  0.701963  0.701963  0.048037  1
  S  S2  1  0.298037  0.951963  0.951963  1
  S  S3  1  0.951963  0.298037  0.951963  1
  S  S4  1  0.298037  0.951963  0.298037  1
  S  S5  1  0.951963  0.298037  0.298037  1
  S  S6  1  0.048037  0.048037  0.701963  1
  S  S7  1  0.048037  0.701963  0.048037  1
  S  S8  1  0.701963  0.048037  0.701963  1
  S  S9  1  0.048037  0.701963  0.701963  1
  S  S10  1  0.701963  0.048037  0.048037  1
  S  S11  1  0.298037  0.298037  0.951963  1
  S  S12  1  0.290558  0.290558  0.290558  1
  S  S13  1  0.709442  0.709442  0.371674  1
  S  S14  1  0.371674  0.709442  0.709442  1
  S  S15  1  0.709442  0.371674  0.709442  1
  S  S16  1  0.628326  0.290558  0.290558  1
  S  S17  1  0.290558  0.628326  0.290558  1
  S  S18  1  0.290558  0.290558  0.628326  1
  S  S19  1  0.709442  0.709442  0.709442  1
  Ge  Ge20  1  0.792001  0.792001  0.792001  1
  Ge  Ge21  1  0.207999  0.207999  0.876004  1
  Ge  Ge22  1  0.207999  0.876004  0.207999  1
  Ge  Ge23  1  0.876004  0.207999  0.207999  1
  Ge  Ge24  1  0.792001  0.123996  0.792001  1
  Ge  Ge25  1  0.123996  0.792001  0.792001  1
  Ge  Ge26  1  0.792001  0.792001  0.123996  1
  Ge  Ge27  1  0.207999  0.207999  0.207999  1
  Ba  Ba28  1  0.500000  0.000000  0.500000  1
  Ba  Ba29  1  0.000000  0.500000  0.500000  1
  Ba  Ba30  1  0.500000  0.500000  0.000000  1
  Ba  Ba31  1  0.500000  0.500000  0.500000  1
