# generated using pymatgen
data_Sn2OF5
_symmetry_space_group_name_H-M   'P 1'
_cell_length_a   5.78034932
_cell_length_b   5.78034932
_cell_length_c   8.34883766
_cell_angle_alpha   98.86619072
_cell_angle_beta   108.83663537
_cell_angle_gamma   108.12241806
_symmetry_Int_Tables_number   1
_chemical_formula_structural   Sn2OF5
_chemical_formula_sum   'Sn4 O2 F10'
_cell_volume   240.66083948
_cell_formula_units_Z   2
loop_
 _symmetry_equiv_pos_site_id
 _symmetry_equiv_pos_as_xyz
  1  'x, y, z'
loop_
 _atom_site_type_symbol
 _atom_site_label
 _atom_site_symmetry_multiplicity
 _atom_site_fract_x
 _atom_site_fract_y
 _atom_site_fract_z
 _atom_site_occupancy
  O  O0  1  0.694003  0.194003  0.500000  1
  O  O1  1  0.305997  0.805997  0.500000  1
  F  F2  1  0.351009  0.796192  0.147201  1
  F  F3  1  0.648991  0.203808  0.852799  1
  F  F4  1  0.778228  0.723445  0.501673  1
  F  F5  1  0.221772  0.276555  0.498327  1
  F  F6  1  0.158122  0.602341  0.760463  1
  F  F7  1  0.841878  0.397659  0.239537  1
  F  F8  1  0.676100  0.708925  0.803016  1
  F  F9  1  0.905909  0.873084  0.196984  1
  F  F10  1  0.323900  0.291075  0.196984  1
  F  F11  1  0.094091  0.126916  0.803016  1
  Sn  Sn12  1  0.500000  0.500000  0.000000  1
  Sn  Sn13  1  0.000000  0.500000  0.500000  1
  Sn  Sn14  1  0.297167  0.025857  0.323024  1
  Sn  Sn15  1  0.702833  0.974143  0.676976  1
