# generated using pymatgen
data_H7NF4
_symmetry_space_group_name_H-M   'P 1'
_cell_length_a   6.09674686
_cell_length_b   6.09674704
_cell_length_c   6.09674625
_cell_angle_alpha   78.30622245
_cell_angle_beta   78.30622223
_cell_angle_gamma   78.30622229
_symmetry_Int_Tables_number   1
_chemical_formula_structural   H7NF4
_chemical_formula_sum   'H14 N2 F8'
_cell_volume   214.20060210
_cell_formula_units_Z   2
loop_
 _symmetry_equiv_pos_site_id
 _symmetry_equiv_pos_as_xyz
  1  'x, y, z'
loop_
 _atom_site_type_symbol
 _atom_site_label
 _atom_site_symmetry_multiplicity
 _atom_site_fract_x
 _atom_site_fract_y
 _atom_site_fract_z
 _atom_site_occupancy
  F  F0  1  0.237726  0.237726  0.237726  1
  F  F1  1  0.737726  0.737726  0.737726  1
  F  F2  1  0.569646  0.946321  0.261783  1
  F  F3  1  0.261783  0.569646  0.946321  1
  F  F4  1  0.946321  0.261783  0.569646  1
  F  F5  1  0.446321  0.069646  0.761783  1
  F  F6  1  0.761783  0.446321  0.069646  1
  F  F7  1  0.069646  0.761783  0.446321  1
  N  N8  1  0.000135  0.000135  0.000135  1
  N  N9  1  0.500135  0.500135  0.500135  1
  H  H10  1  0.433345  0.068200  0.250622  1
  H  H11  1  0.250622  0.433345  0.068200  1
  H  H12  1  0.068200  0.250622  0.433345  1
  H  H13  1  0.568200  0.933345  0.750622  1
  H  H14  1  0.750622  0.568200  0.933345  1
  H  H15  1  0.933345  0.750622  0.568200  1
  H  H16  1  0.093215  0.839612  0.987377  1
  H  H17  1  0.987377  0.093215  0.839612  1
  H  H18  1  0.839612  0.987377  0.093215  1
  H  H19  1  0.339612  0.593215  0.487377  1
  H  H20  1  0.487377  0.339612  0.593215  1
  H  H21  1  0.593215  0.487377  0.339612  1
  H  H22  1  0.082520  0.082520  0.082520  1
  H  H23  1  0.582520  0.582520  0.582520  1
