# generated using pymatgen
data_Na4GeSe4
_symmetry_space_group_name_H-M   'P 1'
_cell_length_a   7.22912656
_cell_length_b   9.54941634
_cell_length_c   28.91710840
_cell_angle_alpha   90.00000000
_cell_angle_beta   90.00000000
_cell_angle_gamma   90.00000000
_symmetry_Int_Tables_number   1
_chemical_formula_structural   Na4GeSe4
_chemical_formula_sum   'Na32 Ge8 Se32'
_cell_volume   1996.26190590
_cell_formula_units_Z   8
loop_
 _symmetry_equiv_pos_site_id
 _symmetry_equiv_pos_as_xyz
  1  'x, y, z'
loop_
 _atom_site_type_symbol
 _atom_site_label
 _atom_site_symmetry_multiplicity
 _atom_site_fract_x
 _atom_site_fract_y
 _atom_site_fract_z
 _atom_site_occupancy
  Na  Na0  1  0.531102  0.750000  0.860159  1
  Na  Na1  1  0.031102  0.250000  0.639841  1
  Na  Na2  1  0.468898  0.250000  0.139841  1
  Na  Na3  1  0.968898  0.750000  0.360159  1
  Na  Na4  1  0.548759  0.250000  0.895816  1
  Na  Na5  1  0.048759  0.750000  0.604184  1
  Na  Na6  1  0.451241  0.750000  0.104184  1
  Na  Na7  1  0.951241  0.250000  0.395816  1
  Na  Na8  1  0.406343  0.442974  0.756321  1
  Na  Na9  1  0.906343  0.557026  0.743679  1
  Na  Na10  1  0.593657  0.942974  0.243679  1
  Na  Na11  1  0.093657  0.057026  0.256321  1
  Na  Na12  1  0.593657  0.557026  0.243679  1
  Na  Na13  1  0.093657  0.442974  0.256321  1
  Na  Na14  1  0.406343  0.057026  0.756321  1
  Na  Na15  1  0.906343  0.942974  0.743679  1
  Na  Na16  1  0.244009  0.453935  0.523458  1
  Na  Na17  1  0.744009  0.546065  0.976542  1
  Na  Na18  1  0.755991  0.953935  0.476542  1
  Na  Na19  1  0.255991  0.046065  0.023458  1
  Na  Na20  1  0.755991  0.546065  0.476542  1
  Na  Na21  1  0.255991  0.453935  0.023458  1
  Na  Na22  1  0.244009  0.046065  0.523458  1
  Na  Na23  1  0.744009  0.953935  0.976542  1
  Na  Na24  1  0.570484  0.498753  0.634096  1
  Na  Na25  1  0.070484  0.501247  0.865904  1
  Na  Na26  1  0.429516  -0.001247  0.365904  1
  Na  Na27  1  0.929516  1.001247  0.134096  1
  Na  Na28  1  0.429516  0.501247  0.365904  1
  Na  Na29  1  0.929516  0.498753  0.134096  1
  Na  Na30  1  0.570484  1.001247  0.634096  1
  Na  Na31  1  0.070484  -0.001247  0.865904  1
  Ge  Ge32  1  0.821108  0.250000  0.790388  1
  Ge  Ge33  1  0.321108  0.750000  0.709612  1
  Ge  Ge34  1  0.178892  0.750000  0.209612  1
  Ge  Ge35  1  0.678892  0.250000  0.290388  1
  Ge  Ge36  1  0.708198  0.250000  0.544464  1
  Ge  Ge37  1  0.208198  0.750000  0.955536  1
  Ge  Ge38  1  0.291802  0.750000  0.455536  1
  Ge  Ge39  1  0.791802  0.250000  0.044464  1
  Se  Se40  1  0.718405  0.250000  0.711239  1
  Se  Se41  1  0.218405  0.750000  0.788761  1
  Se  Se42  1  0.281595  0.750000  0.288761  1
  Se  Se43  1  0.781595  0.250000  0.211239  1
  Se  Se44  1  0.649124  0.750000  0.695928  1
  Se  Se45  1  0.149124  0.250000  0.804072  1
  Se  Se46  1  0.350876  0.250000  0.304072  1
  Se  Se47  1  0.850876  0.750000  0.195928  1
  Se  Se48  1  0.197796  0.546450  0.673187  1
  Se  Se49  1  0.697796  0.453550  0.826813  1
  Se  Se50  1  0.802204  0.046450  0.326813  1
  Se  Se51  1  0.302204  0.953550  0.173187  1
  Se  Se52  1  0.802204  0.453550  0.326813  1
  Se  Se53  1  0.302204  0.546450  0.173187  1
  Se  Se54  1  0.197796  0.953550  0.673187  1
  Se  Se55  1  0.697796  0.046450  0.826813  1
  Se  Se56  1  0.359897  0.750000  0.536083  1
  Se  Se57  1  0.859897  0.250000  0.963917  1
  Se  Se58  1  0.640103  0.250000  0.463917  1
  Se  Se59  1  0.140103  0.750000  0.036083  1
  Se  Se60  1  0.418739  0.250000  0.584284  1
  Se  Se61  1  0.918739  0.750000  0.915716  1
  Se  Se62  1  0.581261  0.750000  0.415716  1
  Se  Se63  1  0.081261  0.250000  0.084284  1
  Se  Se64  1  0.377745  0.547318  0.930490  1
  Se  Se65  1  0.877745  0.452682  0.569510  1
  Se  Se66  1  0.622255  0.047318  0.069510  1
  Se  Se67  1  0.122255  0.952682  0.430490  1
  Se  Se68  1  0.622255  0.452682  0.069510  1
  Se  Se69  1  0.122255  0.547318  0.430490  1
  Se  Se70  1  0.377745  0.952682  0.930490  1
  Se  Se71  1  0.877745  0.047318  0.569510  1
