# generated using pymatgen
data_CaAl4Si2(HO6)2
_symmetry_space_group_name_H-M   'P 1'
_cell_length_a   5.15675008
_cell_length_b   5.15675008
_cell_length_c   19.41433003
_cell_angle_alpha   92.80169255
_cell_angle_beta   92.80169256
_cell_angle_gamma   120.04131438
_symmetry_Int_Tables_number   1
_chemical_formula_structural   CaAl4Si2(HO6)2
_chemical_formula_sum   'Ca2 Al8 Si4 H4 O24'
_cell_volume   444.77097457
_cell_formula_units_Z   2
loop_
 _symmetry_equiv_pos_site_id
 _symmetry_equiv_pos_as_xyz
  1  'x, y, z'
loop_
 _atom_site_type_symbol
 _atom_site_label
 _atom_site_symmetry_multiplicity
 _atom_site_fract_x
 _atom_site_fract_y
 _atom_site_fract_z
 _atom_site_occupancy
  H  H0  1  0.708076  0.017727  0.561901  1
  H  H1  1  0.017727  0.708076  0.061901  1
  H  H2  1  0.290182  0.976558  0.438734  1
  H  H3  1  0.976558  0.290182  0.938734  1
  O  O4  1  0.890349  0.015190  0.552615  1
  O  O5  1  0.015190  0.890349  0.052615  1
  O  O6  1  0.108750  0.978432  0.449163  1
  O  O7  1  0.978432  0.108750  0.949163  1
  O  O8  1  0.869563  0.663885  0.680729  1
  O  O9  1  0.663885  0.869563  0.180729  1
  O  O10  1  0.105429  0.320220  0.321403  1
  O  O11  1  0.320220  0.105429  0.821403  1
  O  O12  1  0.503767  0.073170  0.669635  1
  O  O13  1  0.073170  0.503767  0.169635  1
  O  O14  1  0.588253  0.484719  0.948556  1
  O  O15  1  0.484719  0.588253  0.448556  1
  O  O16  1  0.396475  0.516313  0.061388  1
  O  O17  1  0.516313  0.396475  0.561388  1
  O  O18  1  0.353277  0.863396  0.940467  1
  O  O19  1  0.863396  0.353277  0.440467  1
  O  O20  1  0.627458  0.126838  0.053287  1
  O  O21  1  0.126838  0.627458  0.553287  1
  O  O22  1  0.538723  0.737228  0.822364  1
  O  O23  1  0.737228  0.538723  0.322364  1
  O  O24  1  0.445382  0.279600  0.179263  1
  O  O25  1  0.279600  0.445382  0.679263  1
  O  O26  1  0.952689  0.512676  0.832359  1
  O  O27  1  0.512676  0.952689  0.332359  1
  Al  Al28  1  0.195139  0.708602  0.642431  1
  Al  Al29  1  0.708602  0.195139  0.142431  1
  Al  Al30  1  0.332499  0.167938  0.001003  1
  Al  Al31  1  0.167938  0.332499  0.501003  1
  Al  Al32  1  0.664451  0.834325  0.000868  1
  Al  Al33  1  0.834325  0.664451  0.500868  1
  Al  Al34  1  0.466987  0.608119  0.359562  1
  Al  Al35  1  0.608119  0.466987  0.859562  1
  Si  Si36  1  0.391554  0.538194  0.145721  1
  Si  Si37  1  0.538194  0.391554  0.645721  1
  Si  Si38  1  0.288920  0.805933  0.856115  1
  Si  Si39  1  0.805933  0.288920  0.356115  1
  Ca  Ca40  1  0.094050  0.907563  0.250837  1
  Ca  Ca41  1  0.907563  0.094050  0.750837  1
