# generated using pymatgen
data_Yb2O3
_symmetry_space_group_name_H-M   'P 1'
_cell_length_a   9.27083355
_cell_length_b   9.27083355
_cell_length_c   9.27083355
_cell_angle_alpha   109.47122064
_cell_angle_beta   109.47122064
_cell_angle_gamma   109.47122066
_symmetry_Int_Tables_number   1
_chemical_formula_structural   Yb2O3
_chemical_formula_sum   'Yb16 O24'
_cell_volume   613.38684829
_cell_formula_units_Z   8
loop_
 _symmetry_equiv_pos_site_id
 _symmetry_equiv_pos_as_xyz
  1  'x, y, z'
loop_
 _atom_site_type_symbol
 _atom_site_label
 _atom_site_symmetry_multiplicity
 _atom_site_fract_x
 _atom_site_fract_y
 _atom_site_fract_z
 _atom_site_occupancy
  O  O0  1  0.029412  0.493697  0.761160  1
  O  O1  1  0.232536  0.268251  0.738840  1
  O  O2  1  0.267464  0.006303  0.035715  1
  O  O3  1  0.231749  0.464285  0.470588  1
  O  O4  1  0.464285  0.470588  0.231749  1
  O  O5  1  0.761160  0.029412  0.493697  1
  O  O6  1  0.268251  0.738840  0.232536  1
  O  O7  1  0.035715  0.267464  0.006303  1
  O  O8  1  0.493697  0.761160  0.029412  1
  O  O9  1  0.738840  0.232536  0.268251  1
  O  O10  1  0.006303  0.035715  0.267464  1
  O  O11  1  0.470588  0.231749  0.464285  1
  O  O12  1  0.970588  0.506303  0.238840  1
  O  O13  1  0.767464  0.731749  0.261160  1
  O  O14  1  0.732536  0.993697  0.964285  1
  O  O15  1  0.768251  0.535715  0.529412  1
  O  O16  1  0.529412  0.768251  0.535715  1
  O  O17  1  0.993697  0.964285  0.732536  1
  O  O18  1  0.261160  0.767464  0.731749  1
  O  O19  1  0.506303  0.238840  0.970588  1
  O  O20  1  0.964285  0.732536  0.993697  1
  O  O21  1  0.731749  0.261160  0.767464  1
  O  O22  1  0.238840  0.970588  0.506303  1
  O  O23  1  0.535715  0.529412  0.768251  1
  Yb  Yb24  1  0.250000  0.719717  0.469717  1
  Yb  Yb25  1  0.030283  0.750000  0.780283  1
  Yb  Yb26  1  0.780283  0.030283  0.750000  1
  Yb  Yb27  1  0.469717  0.250000  0.719717  1
  Yb  Yb28  1  0.719717  0.469717  0.250000  1
  Yb  Yb29  1  0.750000  0.780283  0.030283  1
  Yb  Yb30  1  0.750000  0.280283  0.530283  1
  Yb  Yb31  1  0.969717  0.250000  0.219717  1
  Yb  Yb32  1  0.219717  0.969717  0.250000  1
  Yb  Yb33  1  0.530283  0.750000  0.280283  1
  Yb  Yb34  1  0.280283  0.530283  0.750000  1
  Yb  Yb35  1  0.250000  0.219717  0.969717  1
  Yb  Yb36  1  0.000000  0.500000  0.000000  1
  Yb  Yb37  1  0.500000  0.000000  0.000000  1
  Yb  Yb38  1  0.000000  0.000000  0.500000  1
  Yb  Yb39  1  0.500000  0.500000  0.500000  1
