# generated using pymatgen
data_La(SiP3)2
_symmetry_space_group_name_H-M   'P 1'
_cell_length_a   10.20243324
_cell_length_b   10.45976225
_cell_length_c   15.06258463
_cell_angle_alpha   90.00000000
_cell_angle_beta   109.79574712
_cell_angle_gamma   90.00000000
_symmetry_Int_Tables_number   1
_chemical_formula_structural   La(SiP3)2
_chemical_formula_sum   'La8 Si16 P48'
_cell_volume   1512.41602806
_cell_formula_units_Z   8
loop_
 _symmetry_equiv_pos_site_id
 _symmetry_equiv_pos_as_xyz
  1  'x, y, z'
loop_
 _atom_site_type_symbol
 _atom_site_label
 _atom_site_symmetry_multiplicity
 _atom_site_fract_x
 _atom_site_fract_y
 _atom_site_fract_z
 _atom_site_occupancy
  Si  Si0  1  0.741384  0.177366  0.161181  1
  Si  Si1  1  0.487507  0.718406  0.330062  1
  Si  Si2  1  0.512493  0.218406  0.669938  1
  Si  Si3  1  0.842556  0.718406  0.330062  1
  Si  Si4  1  0.157444  0.218406  0.669938  1
  Si  Si5  1  0.493280  0.885098  0.643395  1
  Si  Si6  1  0.506720  0.385098  0.356605  1
  Si  Si7  1  0.150115  0.885098  0.643395  1
  Si  Si8  1  0.849885  0.385098  0.356605  1
  Si  Si9  1  0.258616  0.677366  0.838819  1
  Si  Si10  1  0.419797  0.177366  0.161181  1
  Si  Si11  1  0.580203  0.677366  0.838819  1
  Si  Si12  1  0.104209  0.358425  0.867190  1
  Si  Si13  1  0.895791  0.858425  0.132810  1
  Si  Si14  1  0.762981  0.358425  0.867190  1
  Si  Si15  1  0.237019  0.858425  0.132810  1
  P  P16  1  0.398461  0.385457  0.466620  1
  P  P17  1  0.726809  0.403245  0.453618  1
  P  P18  1  0.273191  0.903245  0.546382  1
  P  P19  1  0.542201  0.278278  0.084401  1
  P  P20  1  0.457799  0.778278  0.915599  1
  P  P21  1  0.422443  0.356222  0.844886  1
  P  P22  1  0.577557  0.856222  0.155114  1
  P  P23  1  0.656123  0.852966  0.312247  1
  P  P24  1  0.008724  0.353755  0.708398  1
  P  P25  1  0.991276  0.853755  0.291602  1
  P  P26  1  0.699674  0.353755  0.708398  1
  P  P27  1  0.300326  0.853755  0.291602  1
  P  P28  1  0.171059  0.171710  0.941388  1
  P  P29  1  0.828941  0.671710  0.058612  1
  P  P30  1  0.770329  0.171710  0.941388  1
  P  P31  1  0.229671  0.671710  0.058612  1
  P  P32  1  0.860902  0.177920  0.313136  1
  P  P33  1  0.139098  0.677920  0.686864  1
  P  P34  1  0.452235  0.177920  0.313136  1
  P  P35  1  0.547765  0.677920  0.686864  1
  P  P36  1  0.050160  0.188197  0.515739  1
  P  P37  1  0.949840  0.688197  0.484261  1
  P  P38  1  0.465579  0.188197  0.515739  1
  P  P39  1  0.534421  0.688197  0.484261  1
  P  P40  1  0.170779  0.037010  0.755128  1
  P  P41  1  0.829221  0.537010  0.244872  1
  P  P42  1  0.584349  0.037010  0.755128  1
  P  P43  1  0.415651  0.537010  0.244872  1
  P  P44  1  0.068159  0.385457  0.466620  1
  P  P45  1  0.931841  0.885457  0.533380  1
  P  P46  1  0.343877  0.352966  0.687753  1
  P  P47  1  0.601539  0.885457  0.533380  1
  P  P48  1  0.882239  0.252925  0.083880  1
  P  P49  1  0.117761  0.752925  0.916120  1
  P  P50  1  0.201641  0.252925  0.083880  1
  P  P51  1  0.798359  0.752925  0.916120  1
  P  P52  1  0.299797  0.478847  0.906001  1
  P  P53  1  0.700203  0.978847  0.093999  1
  P  P54  1  0.182377  0.379188  0.364754  1
  P  P55  1  0.393796  0.978847  0.093999  1
  P  P56  1  0.969028  0.462610  0.938056  1
  P  P57  1  0.030972  0.962610  0.061944  1
  P  P58  1  0.925155  0.638942  0.850310  1
  P  P59  1  0.074845  0.138942  0.149690  1
  P  P60  1  0.845271  0.207710  0.690541  1
  P  P61  1  0.154729  0.707710  0.309459  1
  P  P62  1  0.817623  0.879188  0.635246  1
  P  P63  1  0.606204  0.478847  0.906001  1
  La  La64  1  0.541264  0.575684  0.082529  1
  La  La65  1  0.458736  0.075684  0.917471  1
  La  La66  1  0.265874  0.614340  0.531748  1
  La  La67  1  0.734126  0.114340  0.468252  1
  La  La68  1  0.189751  0.095695  0.379502  1
  La  La69  1  0.810249  0.595695  0.620498  1
  La  La70  1  0.081092  0.500260  0.162184  1
  La  La71  1  0.918908  1.000260  0.837816  1
