# generated using pymatgen
data_CaAl2Si2(H2O5)2
_symmetry_space_group_name_H-M   'P 1'
_cell_length_a   5.94010461
_cell_length_b   8.85450524
_cell_length_c   13.20509922
_cell_angle_alpha   90.00000000
_cell_angle_beta   90.00000000
_cell_angle_gamma   90.00000000
_symmetry_Int_Tables_number   1
_chemical_formula_structural   CaAl2Si2(H2O5)2
_chemical_formula_sum   'Ca4 Al8 Si8 H16 O40'
_cell_volume   694.54447570
_cell_formula_units_Z   4
loop_
 _symmetry_equiv_pos_site_id
 _symmetry_equiv_pos_as_xyz
  1  'x, y, z'
loop_
 _atom_site_type_symbol
 _atom_site_label
 _atom_site_symmetry_multiplicity
 _atom_site_fract_x
 _atom_site_fract_y
 _atom_site_fract_z
 _atom_site_occupancy
  Ca  Ca0  1  0.754934  0.082149  0.251577  1
  Ca  Ca1  1  0.254934  0.582149  0.248423  1
  Ca  Ca2  1  0.754934  0.417851  0.751577  1
  Ca  Ca3  1  0.254934  0.917851  0.748423  1
  Al  Al4  1  0.506229  1.000196  0.000163  1
  Al  Al5  1  0.506858  0.499740  0.999990  1
  Al  Al6  1  0.006229  -0.000196  0.999837  1
  Al  Al7  1  0.006858  0.999740  0.500010  1
  Al  Al8  1  0.506858  0.000260  0.499990  1
  Al  Al9  1  0.006858  0.500260  0.000010  1
  Al  Al10  1  0.506229  0.499804  0.500163  1
  Al  Al11  1  0.006229  0.500196  0.499837  1
  Si  Si12  1  0.756140  0.729568  0.131191  1
  Si  Si13  1  0.756319  0.773140  0.865288  1
  Si  Si14  1  0.256319  0.226860  0.134712  1
  Si  Si15  1  0.256140  0.229568  0.368809  1
  Si  Si16  1  0.256140  0.270432  0.868809  1
  Si  Si17  1  0.256319  0.273140  0.634712  1
  Si  Si18  1  0.756319  0.726860  0.365288  1
  Si  Si19  1  0.756140  0.770432  0.631191  1
  H  H20  1  0.754279  0.380947  0.170910  1
  H  H21  1  0.256007  0.680217  0.599829  1
  H  H22  1  0.744584  0.449805  0.283879  1
  H  H23  1  0.757480  0.281522  0.028061  1
  H  H24  1  0.256007  0.819783  0.099829  1
  H  H25  1  0.254279  0.880947  0.329090  1
  H  H26  1  0.756007  0.180217  0.900171  1
  H  H27  1  0.257480  0.718478  0.971939  1
  H  H28  1  0.757480  0.218478  0.528061  1
  H  H29  1  0.257480  0.781522  0.471939  1
  H  H30  1  0.744584  0.050195  0.783879  1
  H  H31  1  0.254279  0.619053  0.829090  1
  H  H32  1  0.244584  0.949805  0.216121  1
  H  H33  1  0.756007  0.319783  0.400171  1
  H  H34  1  0.244584  0.550195  0.716121  1
  H  H35  1  0.754279  0.119053  0.670910  1
  O  O36  1  0.256256  0.115707  0.566029  1
  O  O37  1  0.757138  0.110700  0.550810  1
  O  O38  1  0.034125  0.119069  0.121598  1
  O  O39  1  0.528571  0.628450  0.115728  1
  O  O40  1  0.028571  0.371550  0.884272  1
  O  O41  1  0.534125  0.880931  0.878402  1
  O  O42  1  0.528571  0.871550  0.615728  1
  O  O43  1  0.755940  0.886804  0.062363  1
  O  O44  1  0.755756  0.799334  0.248451  1
  O  O45  1  0.984669  0.629464  0.115445  1
  O  O46  1  0.255940  0.386804  0.437637  1
  O  O47  1  0.257138  0.610700  0.949190  1
  O  O48  1  0.756256  0.884293  0.433971  1
  O  O49  1  0.484669  0.370536  0.884555  1
  O  O50  1  0.756256  0.615707  0.933971  1
  O  O51  1  0.979028  0.620088  0.378899  1
  O  O52  1  0.256408  0.879163  0.037783  1
  O  O53  1  0.254280  0.644492  0.754101  1
  O  O54  1  0.034125  0.380931  0.621598  1
  O  O55  1  0.755756  0.700666  0.748451  1
  O  O56  1  0.028571  0.128450  0.384272  1
  O  O57  1  0.754280  0.144492  0.745899  1
  O  O58  1  0.254280  0.855508  0.254101  1
  O  O59  1  0.256256  0.384293  0.066029  1
  O  O60  1  0.534125  0.619069  0.378402  1
  O  O61  1  0.255756  0.200666  0.751549  1
  O  O62  1  0.484669  0.129464  0.384555  1
  O  O63  1  0.979028  0.879912  0.878899  1
  O  O64  1  0.984669  0.870536  0.615445  1
  O  O65  1  0.757138  0.389300  0.050810  1
  O  O66  1  0.756408  0.120837  0.962217  1
  O  O67  1  0.754280  0.355508  0.245899  1
  O  O68  1  0.256408  0.620837  0.537783  1
  O  O69  1  0.257138  0.889300  0.449190  1
  O  O70  1  0.479028  0.379912  0.621101  1
  O  O71  1  0.755940  0.613196  0.562363  1
  O  O72  1  0.255756  0.299334  0.251549  1
  O  O73  1  0.756408  0.379163  0.462217  1
  O  O74  1  0.479028  0.120088  0.121101  1
  O  O75  1  0.255940  0.113196  0.937637  1
