# generated using pymatgen
data_Sb8(PbS5)3
_symmetry_space_group_name_H-M   'P 1'
_cell_length_a   8.97682028
_cell_length_b   8.97682027
_cell_length_c   18.19712253
_cell_angle_alpha   85.56737840
_cell_angle_beta   85.56737841
_cell_angle_gamma   81.59494424
_symmetry_Int_Tables_number   1
_chemical_formula_structural   Sb8(PbS5)3
_chemical_formula_sum   'Sb16 Pb6 S30'
_cell_volume   1443.05469487
_cell_formula_units_Z   2
loop_
 _symmetry_equiv_pos_site_id
 _symmetry_equiv_pos_as_xyz
  1  'x, y, z'
loop_
 _atom_site_type_symbol
 _atom_site_label
 _atom_site_symmetry_multiplicity
 _atom_site_fract_x
 _atom_site_fract_y
 _atom_site_fract_z
 _atom_site_occupancy
  S  S0  1  0.183863  0.816137  0.250000  1
  S  S1  1  0.816137  0.183863  0.750000  1
  S  S2  1  0.934289  0.196237  0.342355  1
  S  S3  1  0.803763  0.065711  0.157645  1
  S  S4  1  0.065711  0.803763  0.657645  1
  S  S5  1  0.196237  0.934289  0.842355  1
  S  S6  1  0.111083  0.829600  0.036518  1
  S  S7  1  0.170400  0.888917  0.463482  1
  S  S8  1  0.888917  0.170400  0.963482  1
  S  S9  1  0.829600  0.111083  0.536518  1
  S  S10  1  0.950937  0.427996  0.097187  1
  S  S11  1  0.572004  0.049063  0.402813  1
  S  S12  1  0.049063  0.572004  0.902813  1
  S  S13  1  0.427996  0.950937  0.597187  1
  S  S14  1  0.605877  0.449846  0.411196  1
  S  S15  1  0.550154  0.394123  0.088804  1
  S  S16  1  0.394123  0.550154  0.588804  1
  S  S17  1  0.449846  0.605877  0.911196  1
  S  S18  1  0.946478  0.596150  0.336971  1
  S  S19  1  0.403850  0.053522  0.163029  1
  S  S20  1  0.053522  0.403850  0.663029  1
  S  S21  1  0.596150  0.946478  0.836971  1
  S  S22  1  0.294151  0.234027  0.962749  1
  S  S23  1  0.765973  0.705849  0.537251  1
  S  S24  1  0.705849  0.765973  0.037251  1
  S  S25  1  0.234027  0.294151  0.462749  1
  S  S26  1  0.399833  0.309559  0.751304  1
  S  S27  1  0.690441  0.600167  0.748696  1
  S  S28  1  0.600167  0.690441  0.248696  1
  S  S29  1  0.309559  0.399833  0.251304  1
  Sb  Sb30  1  0.038471  0.139537  0.072929  1
  Sb  Sb31  1  0.860463  0.961529  0.427071  1
  Sb  Sb32  1  0.961529  0.860463  0.927071  1
  Sb  Sb33  1  0.139537  0.038471  0.572929  1
  Sb  Sb34  1  0.882193  0.395650  0.434641  1
  Sb  Sb35  1  0.604350  0.117807  0.065359  1
  Sb  Sb36  1  0.117807  0.604350  0.565359  1
  Sb  Sb37  1  0.395650  0.882193  0.934641  1
  Sb  Sb38  1  0.236893  0.504057  0.999058  1
  Sb  Sb39  1  0.495943  0.763107  0.500942  1
  Sb  Sb40  1  0.763107  0.495943  0.000942  1
  Sb  Sb41  1  0.504057  0.236893  0.499058  1
  Sb  Sb42  1  0.224599  0.588656  0.341556  1
  Sb  Sb43  1  0.411344  0.775401  0.158444  1
  Sb  Sb44  1  0.775401  0.411344  0.658444  1
  Sb  Sb45  1  0.588656  0.224599  0.841556  1
  Pb  Pb46  1  0.881930  0.738457  0.162135  1
  Pb  Pb47  1  0.261543  0.118070  0.337865  1
  Pb  Pb48  1  0.118070  0.261543  0.837865  1
  Pb  Pb49  1  0.738457  0.881930  0.662135  1
  Pb  Pb50  1  0.625374  0.374626  0.250000  1
  Pb  Pb51  1  0.374626  0.625374  0.750000  1
