# generated using pymatgen
data_KCeGeSe4
_symmetry_space_group_name_H-M   'P 1'
_cell_length_a   6.95072752
_cell_length_b   7.10503733
_cell_length_c   9.14972910
_cell_angle_alpha   90.00000000
_cell_angle_beta   107.88257702
_cell_angle_gamma   90.00000000
_symmetry_Int_Tables_number   1
_chemical_formula_structural   KCeGeSe4
_chemical_formula_sum   'K2 Ce2 Ge2 Se8'
_cell_volume   430.03061623
_cell_formula_units_Z   2
loop_
 _symmetry_equiv_pos_site_id
 _symmetry_equiv_pos_as_xyz
  1  'x, y, z'
loop_
 _atom_site_type_symbol
 _atom_site_label
 _atom_site_symmetry_multiplicity
 _atom_site_fract_x
 _atom_site_fract_y
 _atom_site_fract_z
 _atom_site_occupancy
  K  K0  1  0.242922  0.724614  0.936917  1
  K  K1  1  0.757078  0.224614  0.063083  1
  Ge  Ge2  1  0.717729  0.745417  0.319254  1
  Ge  Ge3  1  0.282271  0.245417  0.680746  1
  Se  Se4  1  0.920651  0.748730  0.154838  1
  Se  Se5  1  0.079349  0.248730  0.845162  1
  Se  Se6  1  0.489685  0.970488  0.713715  1
  Se  Se7  1  0.925123  0.805098  0.576370  1
  Se  Se8  1  0.074877  0.305098  0.423630  1
  Se  Se9  1  0.468304  0.989109  0.271865  1
  Se  Se10  1  0.531696  0.489109  0.728135  1
  Se  Se11  1  0.510315  0.470488  0.286285  1
  Ce  Ce12  1  0.731769  0.211834  0.553513  1
  Ce  Ce13  1  0.268231  0.711834  0.446487  1
