# generated using pymatgen
data_H2C(NO)2
_symmetry_space_group_name_H-M   'P 1'
_cell_length_a   7.06759259
_cell_length_b   7.07283238
_cell_length_c   11.42018232
_cell_angle_alpha   91.37245960
_cell_angle_beta   90.00000000
_cell_angle_gamma   90.00000000
_symmetry_Int_Tables_number   1
_chemical_formula_structural   H2C(NO)2
_chemical_formula_sum   'H16 C8 N16 O16'
_cell_volume   570.70713380
_cell_formula_units_Z   8
loop_
 _symmetry_equiv_pos_site_id
 _symmetry_equiv_pos_as_xyz
  1  'x, y, z'
loop_
 _atom_site_type_symbol
 _atom_site_label
 _atom_site_symmetry_multiplicity
 _atom_site_fract_x
 _atom_site_fract_y
 _atom_site_fract_z
 _atom_site_occupancy
  H  H0  1  0.653828  0.258814  0.636157  1
  H  H1  1  0.153828  0.241186  0.863843  1
  H  H2  1  0.346172  0.741186  0.363843  1
  H  H3  1  0.846172  0.758814  0.136157  1
  H  H4  1  0.702322  0.058076  0.545682  1
  H  H5  1  0.202322  0.441924  0.954318  1
  H  H6  1  0.297678  0.941924  0.454318  1
  H  H7  1  0.797678  0.558076  0.045682  1
  H  H8  1  0.696243  0.088134  0.930905  1
  H  H9  1  0.196243  0.411866  0.569095  1
  H  H10  1  0.303757  0.911866  0.069095  1
  H  H11  1  0.803757  0.588134  0.430905  1
  H  H12  1  0.801807  0.053688  0.068067  1
  H  H13  1  0.301807  0.446312  0.431933  1
  H  H14  1  0.198193  0.946312  0.931933  1
  H  H15  1  0.698193  0.553688  0.568067  1
  C  C16  1  0.826577  0.231788  0.361908  1
  C  C17  1  0.326577  0.268212  0.138092  1
  C  C18  1  0.173423  0.768212  0.638092  1
  C  C19  1  0.740788  0.812157  0.973565  1
  C  C20  1  0.759212  0.312157  0.473565  1
  C  C21  1  0.259212  0.187843  0.026435  1
  C  C22  1  0.240788  0.687843  0.526435  1
  C  C23  1  0.673423  0.731788  0.861908  1
  N  N24  1  0.701580  0.201093  0.558779  1
  N  N25  1  0.201580  0.298907  0.941221  1
  N  N26  1  0.298420  0.798907  0.441221  1
  N  N27  1  0.798420  0.701093  0.058779  1
  N  N28  1  0.753064  0.999048  0.990220  1
  N  N29  1  0.133756  0.646893  0.732566  1
  N  N30  1  0.366244  0.146893  0.232566  1
  N  N31  1  0.866244  0.353107  0.267434  1
  N  N32  1  0.650165  0.536286  0.840391  1
  N  N33  1  0.150165  0.963714  0.659609  1
  N  N34  1  0.349835  0.463714  0.159609  1
  N  N35  1  0.849835  0.036286  0.340391  1
  N  N36  1  0.746936  0.499048  0.490220  1
  N  N37  1  0.246936  0.000952  0.009780  1
  N  N38  1  0.253064  0.500952  0.509780  1
  N  N39  1  0.633756  0.853107  0.767434  1
  O  O40  1  0.664526  0.799671  0.663862  1
  O  O41  1  0.164526  0.700329  0.836138  1
  O  O42  1  0.335474  0.200329  0.336138  1
  O  O43  1  0.835474  0.299671  0.163862  1
  O  O44  1  0.571987  0.016471  0.790661  1
  O  O45  1  0.071987  0.483529  0.709339  1
  O  O46  1  0.428013  0.983529  0.209339  1
  O  O47  1  0.928013  0.516471  0.290661  1
  O  O48  1  0.703243  0.422712  0.917481  1
  O  O49  1  0.203243  0.077288  0.582519  1
  O  O50  1  0.296757  0.577288  0.082519  1
  O  O51  1  0.796757  0.922712  0.417481  1
  O  O52  1  0.569569  0.477686  0.748333  1
  O  O53  1  0.069569  0.022314  0.751667  1
  O  O54  1  0.430431  0.522314  0.251667  1
  O  O55  1  0.930431  0.977686  0.248333  1
