# generated using pymatgen
data_Ba7(ClF6)2
_symmetry_space_group_name_H-M   'P 1'
_cell_length_a   10.78348367
_cell_length_b   10.78348353
_cell_length_c   4.23942116
_cell_angle_alpha   90.00000000
_cell_angle_beta   90.00000000
_cell_angle_gamma   120.00000044
_symmetry_Int_Tables_number   1
_chemical_formula_structural   Ba7(ClF6)2
_chemical_formula_sum   'Ba7 Cl2 F12'
_cell_volume   426.92870636
_cell_formula_units_Z   1
loop_
 _symmetry_equiv_pos_site_id
 _symmetry_equiv_pos_as_xyz
  1  'x, y, z'
loop_
 _atom_site_type_symbol
 _atom_site_label
 _atom_site_symmetry_multiplicity
 _atom_site_fract_x
 _atom_site_fract_y
 _atom_site_fract_z
 _atom_site_occupancy
  Ba  Ba0  1  0.303623  0.890363  0.750000  1
  Ba  Ba1  1  0.109637  0.413260  0.750000  1
  Ba  Ba2  1  0.586740  0.696377  0.750000  1
  Ba  Ba3  1  0.398925  0.284735  0.250000  1
  Ba  Ba4  1  0.000000  0.000000  0.750000  1
  Ba  Ba5  1  0.885811  0.601075  0.250000  1
  Ba  Ba6  1  0.715265  0.114189  0.250000  1
  Cl  Cl7  1  0.333333  0.666667  0.250000  1
  Cl  Cl8  1  0.666667  0.333333  0.750000  1
  F  F9  1  0.094549  0.880515  0.250000  1
  F  F10  1  0.062729  0.635313  0.750000  1
  F  F11  1  0.119485  0.214034  0.250000  1
  F  F12  1  0.572583  0.937271  0.750000  1
  F  F13  1  0.364687  0.427417  0.750000  1
  F  F14  1  0.277013  0.117725  0.750000  1
  F  F15  1  0.785966  0.905451  0.250000  1
  F  F16  1  0.608299  0.561795  0.250000  1
  F  F17  1  0.438205  0.046505  0.250000  1
  F  F18  1  0.840712  0.722987  0.750000  1
  F  F19  1  0.953495  0.391701  0.250000  1
  F  F20  1  0.882275  0.159288  0.750000  1
