# generated using pymatgen
data_Ge2S3I2
_symmetry_space_group_name_H-M   'P 1'
_cell_length_a   11.22519646
_cell_length_b   11.22519616
_cell_length_c   9.96135067
_cell_angle_alpha   90.00000000
_cell_angle_beta   90.00000000
_cell_angle_gamma   120.00000086
_symmetry_Int_Tables_number   1
_chemical_formula_structural   Ge2S3I2
_chemical_formula_sum   'Ge8 S12 I8'
_cell_volume   1087.01802727
_cell_formula_units_Z   4
loop_
 _symmetry_equiv_pos_site_id
 _symmetry_equiv_pos_as_xyz
  1  'x, y, z'
loop_
 _atom_site_type_symbol
 _atom_site_label
 _atom_site_symmetry_multiplicity
 _atom_site_fract_x
 _atom_site_fract_y
 _atom_site_fract_z
 _atom_site_occupancy
  Ge  Ge0  1  0.186689  0.718281  0.229617  1
  Ge  Ge1  1  0.718281  0.531592  0.770383  1
  Ge  Ge2  1  0.281719  0.468408  0.229617  1
  Ge  Ge3  1  0.333333  0.666667  0.945069  1
  Ge  Ge4  1  0.666667  0.333333  0.054931  1
  Ge  Ge5  1  0.813311  0.281719  0.770383  1
  Ge  Ge6  1  0.531592  0.813311  0.229617  1
  Ge  Ge7  1  0.468408  0.186689  0.770383  1
  S  S8  1  0.547363  0.827298  1.005320  1
  S  S9  1  0.881056  0.491966  0.685893  1
  S  S10  1  0.610910  0.118944  0.685893  1
  S  S11  1  0.389090  0.881056  0.314107  1
  S  S12  1  0.452637  0.172703  -0.005320  1
  S  S13  1  0.720066  0.547363  -0.005320  1
  S  S14  1  0.172703  0.720066  1.005320  1
  S  S15  1  0.508034  0.389090  0.685893  1
  S  S16  1  0.491966  0.610910  0.314107  1
  S  S17  1  0.279934  0.452637  1.005320  1
  S  S18  1  0.118944  0.508034  0.314107  1
  S  S19  1  0.827298  0.279934  -0.005320  1
  I  I20  1  0.333333  0.666667  0.691805  1
  I  I21  1  0.230142  1.012843  0.688293  1
  I  I22  1  0.666667  0.333333  0.308195  1
  I  I23  1  0.217299  0.230142  0.311707  1
  I  I24  1  0.782701  0.769858  0.688293  1
  I  I25  1  1.012843  0.782701  0.311707  1
  I  I26  1  0.769858  -0.012843  0.311707  1
  I  I27  1  -0.012843  0.217299  0.688293  1
