# generated using pymatgen
data_Sb3(BrF8)2
_symmetry_space_group_name_H-M   'P 1'
_cell_length_a   7.86225635
_cell_length_b   7.88231433
_cell_length_c   14.81219115
_cell_angle_alpha   93.90291036
_cell_angle_beta   90.00000000
_cell_angle_gamma   119.91585821
_symmetry_Int_Tables_number   1
_chemical_formula_structural   Sb3(BrF8)2
_chemical_formula_sum   'Sb6 Br4 F32'
_cell_volume   793.18634389
_cell_formula_units_Z   2
loop_
 _symmetry_equiv_pos_site_id
 _symmetry_equiv_pos_as_xyz
  1  'x, y, z'
loop_
 _atom_site_type_symbol
 _atom_site_label
 _atom_site_symmetry_multiplicity
 _atom_site_fract_x
 _atom_site_fract_y
 _atom_site_fract_z
 _atom_site_occupancy
  F  F0  1  0.348355  0.164784  0.516882  1
  F  F1  1  0.183571  0.835216  0.983118  1
  F  F2  1  0.651645  0.835216  0.483118  1
  F  F3  1  0.816429  0.164784  0.016882  1
  F  F4  1  0.407211  0.192226  0.704559  1
  F  F5  1  0.214985  0.807774  0.795441  1
  F  F6  1  0.592789  0.807774  0.295441  1
  F  F7  1  0.785015  0.192226  0.204559  1
  F  F8  1  0.172241  0.369263  0.709385  1
  F  F9  1  0.802977  0.630737  0.790615  1
  F  F10  1  0.211367  0.334338  0.024438  1
  F  F11  1  0.877029  0.665662  0.475562  1
  F  F12  1  0.788633  0.665662  0.975562  1
  F  F13  1  0.122971  0.334338  0.524438  1
  F  F14  1  0.514788  0.709021  0.076961  1
  F  F15  1  0.805767  0.290979  0.423039  1
  F  F16  1  0.485212  0.290979  0.923039  1
  F  F17  1  0.194233  0.709021  0.576961  1
  F  F18  1  0.564306  0.402034  0.099576  1
  F  F19  1  0.162272  0.597966  0.400424  1
  F  F20  1  0.435694  0.597966  0.900424  1
  F  F21  1  0.837728  0.402034  0.599576  1
  F  F22  1  0.986907  0.017075  0.120509  1
  F  F23  1  0.969833  0.982925  0.379491  1
  F  F24  1  0.013093  0.982925  0.879491  1
  F  F25  1  0.030167  0.017075  0.620509  1
  F  F26  1  0.031861  0.517833  0.109003  1
  F  F27  1  0.514028  0.482167  0.390997  1
  F  F28  1  0.968139  0.482167  0.890997  1
  F  F29  1  0.485972  0.517833  0.609003  1
  F  F30  1  0.197023  0.369263  0.209385  1
  F  F31  1  0.827759  0.630737  0.290615  1
  Br  Br32  1  0.266307  0.863144  0.203419  1
  Br  Br33  1  0.403164  0.136856  0.296581  1
  Br  Br34  1  0.733693  0.136856  0.796581  1
  Br  Br35  1  0.596836  0.863144  0.703419  1
  Sb  Sb36  1  0.728583  0.742196  0.378795  1
  Sb  Sb37  1  0.986387  0.257804  0.121205  1
  Sb  Sb38  1  0.013613  0.742196  0.878795  1
  Sb  Sb39  1  0.271417  0.257804  0.621205  1
  Sb  Sb40  1  0.500000  0.500000  0.000000  1
  Sb  Sb41  1  0.000000  0.500000  0.500000  1
