# generated using pymatgen
data_Zr6Ni(SnH5)2
_symmetry_space_group_name_H-M   'P 1'
_cell_length_a   8.16474681
_cell_length_b   8.16474682
_cell_length_c   7.36734552
_cell_angle_alpha   90.00000000
_cell_angle_beta   90.00000000
_cell_angle_gamma   120.00000001
_symmetry_Int_Tables_number   1
_chemical_formula_structural   Zr6Ni(SnH5)2
_chemical_formula_sum   'Zr12 Ni2 Sn4 H20'
_cell_volume   425.33107512
_cell_formula_units_Z   2
loop_
 _symmetry_equiv_pos_site_id
 _symmetry_equiv_pos_as_xyz
  1  'x, y, z'
loop_
 _atom_site_type_symbol
 _atom_site_label
 _atom_site_symmetry_multiplicity
 _atom_site_fract_x
 _atom_site_fract_y
 _atom_site_fract_z
 _atom_site_occupancy
  H  H0  1  0.000000  0.000000  0.500000  1
  H  H1  1  0.000000  0.000000  0.000000  1
  H  H2  1  0.273279  0.000000  0.500000  1
  H  H3  1  0.726721  0.726721  0.000000  1
  H  H4  1  0.000000  0.273279  0.000000  1
  H  H5  1  0.000000  0.273279  0.500000  1
  H  H6  1  0.726721  0.726721  0.500000  1
  H  H7  1  0.273279  0.000000  0.000000  1
  H  H8  1  0.297115  0.401480  0.750000  1
  H  H9  1  0.598520  0.895636  0.750000  1
  H  H10  1  0.104364  0.702885  0.750000  1
  H  H11  1  0.702885  0.104364  0.250000  1
  H  H12  1  0.895636  0.598520  0.250000  1
  H  H13  1  0.401480  0.297115  0.250000  1
  H  H14  1  0.239258  0.121558  0.750000  1
  H  H15  1  0.878442  0.117700  0.750000  1
  H  H16  1  0.882300  0.760742  0.750000  1
  H  H17  1  0.760742  0.882300  0.250000  1
  H  H18  1  0.121558  0.239258  0.250000  1
  H  H19  1  0.117700  0.878442  0.250000  1
  Ni  Ni20  1  0.000000  0.000000  0.750000  1
  Ni  Ni21  1  0.000000  0.000000  0.250000  1
  Zr  Zr22  1  0.952528  0.368152  0.250000  1
  Zr  Zr23  1  0.368152  0.952528  0.750000  1
  Zr  Zr24  1  0.415624  0.047472  0.250000  1
  Zr  Zr25  1  0.631848  0.584376  0.250000  1
  Zr  Zr26  1  0.741442  0.000000  0.500000  1
  Zr  Zr27  1  0.258558  0.258558  0.000000  1
  Zr  Zr28  1  0.000000  0.741442  0.000000  1
  Zr  Zr29  1  0.000000  0.741442  0.500000  1
  Zr  Zr30  1  0.258558  0.258558  0.500000  1
  Zr  Zr31  1  0.741442  0.000000  0.000000  1
  Zr  Zr32  1  0.047472  0.415624  0.750000  1
  Zr  Zr33  1  0.584376  0.631848  0.750000  1
  Sn  Sn34  1  0.333333  0.666667  0.040436  1
  Sn  Sn35  1  0.333333  0.666667  0.459564  1
  Sn  Sn36  1  0.666667  0.333333  0.959564  1
  Sn  Sn37  1  0.666667  0.333333  0.540436  1
