# generated using pymatgen
data_U2Co3O8
_symmetry_space_group_name_H-M   'P 1'
_cell_length_a   5.15873548
_cell_length_b   6.14342751
_cell_length_c   10.39852682
_cell_angle_alpha   90.00000000
_cell_angle_beta   90.00000000
_cell_angle_gamma   90.00000000
_symmetry_Int_Tables_number   1
_chemical_formula_structural   U2Co3O8
_chemical_formula_sum   'U4 Co6 O16'
_cell_volume   329.55341314
_cell_formula_units_Z   2
loop_
 _symmetry_equiv_pos_site_id
 _symmetry_equiv_pos_as_xyz
  1  'x, y, z'
loop_
 _atom_site_type_symbol
 _atom_site_label
 _atom_site_symmetry_multiplicity
 _atom_site_fract_x
 _atom_site_fract_y
 _atom_site_fract_z
 _atom_site_occupancy
  O  O0  1  0.681783  0.499999  0.402717  1
  O  O1  1  0.181782  0.000000  0.097283  1
  O  O2  1  0.318218  0.499999  0.597283  1
  O  O3  1  0.818218  0.000000  0.902717  1
  O  O4  1  0.797699  0.499999  0.912001  1
  O  O5  1  0.297698  0.000000  0.587999  1
  O  O6  1  0.202302  0.499999  0.087999  1
  O  O7  1  0.702301  0.000000  0.412001  1
  O  O8  1  0.294291  0.232836  0.849075  1
  O  O9  1  0.794291  0.267165  0.650925  1
  O  O10  1  0.794291  0.732836  0.650925  1
  O  O11  1  0.294291  0.767164  0.849075  1
  O  O12  1  0.205707  0.732836  0.349075  1
  O  O13  1  0.705708  0.232836  0.150925  1
  O  O14  1  0.205707  0.267165  0.349075  1
  O  O15  1  0.705708  0.767164  0.150925  1
  Co  Co16  1  0.500000  0.000000  0.000000  1
  Co  Co17  1  0.000000  0.499999  0.500000  1
  Co  Co18  1  0.500000  0.237691  0.500000  1
  Co  Co19  1  0.000000  0.262309  0.000000  1
  Co  Co20  1  0.500000  0.762310  0.500000  1
  Co  Co21  1  0.000000  0.737690  0.000000  1
  U  U22  1  0.457759  0.499999  0.233397  1
  U  U23  1  0.957759  0.000000  0.266603  1
  U  U24  1  0.542240  0.499999  0.766602  1
  U  U25  1  0.042240  0.000000  0.733397  1
