# generated using pymatgen
data_AlH18C3(N3F2)3
_symmetry_space_group_name_H-M   'P 1'
_cell_length_a   14.07811746
_cell_length_b   14.07811746
_cell_length_c   14.07811746
_cell_angle_alpha   90.00000000
_cell_angle_beta   90.00000000
_cell_angle_gamma   90.00000000
_symmetry_Int_Tables_number   1
_chemical_formula_structural   AlH18C3(N3F2)3
_chemical_formula_sum   'Al8 H144 C24 N72 F48'
_cell_volume   2790.18984136
_cell_formula_units_Z   8
loop_
 _symmetry_equiv_pos_site_id
 _symmetry_equiv_pos_as_xyz
  1  'x, y, z'
loop_
 _atom_site_type_symbol
 _atom_site_label
 _atom_site_symmetry_multiplicity
 _atom_site_fract_x
 _atom_site_fract_y
 _atom_site_fract_z
 _atom_site_occupancy
  H  H0  1  0.900541  0.814022  0.531249  1
  H  H1  1  0.531249  0.900541  0.814022  1
  H  H2  1  0.814022  0.531249  0.900541  1
  H  H3  1  0.685978  0.468751  0.400541  1
  H  H4  1  0.031249  0.599459  0.185978  1
  H  H5  1  0.185978  0.031249  0.599459  1
  H  H6  1  0.968751  0.099459  0.314022  1
  H  H7  1  0.468751  0.400541  0.685978  1
  H  H8  1  0.314022  0.968751  0.099459  1
  H  H9  1  0.400541  0.685978  0.468751  1
  H  H10  1  0.099459  0.314022  0.968751  1
  H  H11  1  0.599459  0.185978  0.031249  1
  H  H12  1  0.099459  0.185978  0.468751  1
  H  H13  1  0.468751  0.099459  0.185978  1
  H  H14  1  0.185978  0.468751  0.099459  1
  H  H15  1  0.314022  0.531249  0.599459  1
  H  H16  1  0.968751  0.400541  0.814022  1
  H  H17  1  0.814022  0.968751  0.400541  1
  H  H18  1  0.031249  0.900541  0.685978  1
  H  H19  1  0.531249  0.599459  0.314022  1
  H  H20  1  0.685978  0.031249  0.900541  1
  H  H21  1  0.599459  0.314022  0.531249  1
  H  H22  1  0.900541  0.685978  0.031249  1
  H  H23  1  0.400541  0.814022  0.968751  1
  H  H24  1  0.901140  0.690939  0.515099  1
  H  H25  1  0.515099  0.901140  0.690939  1
  H  H26  1  0.690939  0.515099  0.901140  1
  H  H27  1  0.809061  0.484901  0.401140  1
  H  H28  1  0.015099  0.598860  0.309061  1
  H  H29  1  0.309061  0.015099  0.598860  1
  H  H30  1  0.984901  0.098860  0.190939  1
  H  H31  1  0.484901  0.401140  0.809061  1
  H  H32  1  0.190939  0.984901  0.098860  1
  H  H33  1  0.401140  0.809061  0.484901  1
  H  H34  1  0.098860  0.190939  0.984901  1
  H  H35  1  0.598860  0.309061  0.015099  1
  H  H36  1  0.098860  0.309061  0.484901  1
  H  H37  1  0.484901  0.098860  0.309061  1
  H  H38  1  0.309061  0.484901  0.098860  1
  H  H39  1  0.190939  0.515099  0.598860  1
  H  H40  1  0.984901  0.401140  0.690939  1
  H  H41  1  0.690939  0.984901  0.401140  1
  H  H42  1  0.015099  0.901140  0.809061  1
  H  H43  1  0.515099  0.598860  0.190939  1
  H  H44  1  0.809061  0.015099  0.901140  1
  H  H45  1  0.598860  0.190939  0.515099  1
  H  H46  1  0.901140  0.809061  0.015099  1
  H  H47  1  0.401140  0.690939  0.984901  1
  H  H48  1  0.649327  0.837386  0.539193  1
  H  H49  1  0.539193  0.649327  0.837386  1
  H  H50  1  0.837386  0.539193  0.649327  1
  H  H51  1  0.662614  0.460807  0.149327  1
  H  H52  1  0.039193  0.850673  0.162614  1
  H  H53  1  0.162614  0.039193  0.850673  1
  H  H54  1  0.960807  0.350673  0.337386  1
  H  H55  1  0.460807  0.149327  0.662614  1
  H  H56  1  0.337386  0.960807  0.350673  1
  H  H57  1  0.149327  0.662614  0.460807  1
  H  H58  1  0.350673  0.337386  0.960807  1
  H  H59  1  0.850673  0.162614  0.039193  1
  H  H60  1  0.350673  0.162614  0.460807  1
  H  H61  1  0.460807  0.350673  0.162614  1
  H  H62  1  0.162614  0.460807  0.350673  1
  H  H63  1  0.337386  0.539193  0.850673  1
  H  H64  1  0.960807  0.149327  0.837386  1
  H  H65  1  0.837386  0.960807  0.149327  1
  H  H66  1  0.039193  0.649327  0.662614  1
  H  H67  1  0.539193  0.850673  0.337386  1
  H  H68  1  0.662614  0.039193  0.649327  1
  H  H69  1  0.850673  0.337386  0.539193  1
  H  H70  1  0.649327  0.662614  0.039193  1
  H  H71  1  0.149327  0.837386  0.960807  1
  H  H72  1  0.760304  0.892367  0.546265  1
  H  H73  1  0.546265  0.760304  0.892367  1
  H  H74  1  0.892367  0.546265  0.760304  1
  H  H75  1  0.607633  0.453735  0.260304  1
  H  H76  1  0.046265  0.739696  0.107633  1
  H  H77  1  0.107633  0.046265  0.739696  1
  H  H78  1  0.953735  0.239696  0.392367  1
  H  H79  1  0.453735  0.260304  0.607633  1
  H  H80  1  0.392367  0.953735  0.239696  1
  H  H81  1  0.260304  0.607633  0.453735  1
  H  H82  1  0.239696  0.392367  0.953735  1
  H  H83  1  0.739696  0.107633  0.046265  1
  H  H84  1  0.239696  0.107633  0.453735  1
  H  H85  1  0.453735  0.239696  0.107633  1
  H  H86  1  0.107633  0.453735  0.239696  1
  H  H87  1  0.392367  0.546265  0.739696  1
  H  H88  1  0.953735  0.260304  0.892367  1
  H  H89  1  0.892367  0.953735  0.260304  1
  H  H90  1  0.046265  0.760304  0.607633  1
  H  H91  1  0.546265  0.739696  0.392367  1
  H  H92  1  0.607633  0.046265  0.760304  1
  H  H93  1  0.739696  0.392367  0.546265  1
  H  H94  1  0.760304  0.607633  0.046265  1
  H  H95  1  0.260304  0.892367  0.953735  1
  H  H96  1  0.651283  0.661147  0.512341  1
  H  H97  1  0.512341  0.651283  0.661147  1
  H  H98  1  0.661147  0.512341  0.651283  1
  H  H99  1  0.838853  0.487659  0.151283  1
  H  H100  1  0.012341  0.848717  0.338853  1
  H  H101  1  0.338853  0.012341  0.848717  1
  H  H102  1  0.987659  0.348717  0.161147  1
  H  H103  1  0.487659  0.151283  0.838853  1
  H  H104  1  0.161147  0.987659  0.348717  1
  H  H105  1  0.151283  0.838853  0.487659  1
  H  H106  1  0.348717  0.161147  0.987659  1
  H  H107  1  0.848717  0.338853  0.012341  1
  H  H108  1  0.348717  0.338853  0.487659  1
  H  H109  1  0.487659  0.348717  0.338853  1
  H  H110  1  0.338853  0.487659  0.348717  1
  H  H111  1  0.161147  0.512341  0.848717  1
  H  H112  1  0.987659  0.151283  0.661147  1
  H  H113  1  0.661147  0.987659  0.151283  1
  H  H114  1  0.012341  0.651283  0.838853  1
  H  H115  1  0.512341  0.848717  0.161147  1
  H  H116  1  0.838853  0.012341  0.651283  1
  H  H117  1  0.848717  0.161147  0.512341  1
  H  H118  1  0.651283  0.838853  0.012341  1
  H  H119  1  0.151283  0.661147  0.987659  1
  H  H120  1  0.764073  0.608894  0.506203  1
  H  H121  1  0.506203  0.764073  0.608894  1
  H  H122  1  0.608894  0.506203  0.764073  1
  H  H123  1  0.891106  0.493797  0.264073  1
  H  H124  1  0.006203  0.735927  0.391106  1
  H  H125  1  0.391106  0.006203  0.735927  1
  H  H126  1  0.993797  0.235927  0.108894  1
  H  H127  1  0.493797  0.264073  0.891106  1
  H  H128  1  0.108894  0.993797  0.235927  1
  H  H129  1  0.264073  0.891106  0.493797  1
  H  H130  1  0.235927  0.108894  0.993797  1
  H  H131  1  0.735927  0.391106  0.006203  1
  H  H132  1  0.235927  0.391106  0.493797  1
  H  H133  1  0.493797  0.235927  0.391106  1
  H  H134  1  0.391106  0.493797  0.235927  1
  H  H135  1  0.108894  0.506203  0.735927  1
  H  H136  1  0.993797  0.264073  0.608894  1
  H  H137  1  0.608894  0.993797  0.264073  1
  H  H138  1  0.006203  0.764073  0.891106  1
  H  H139  1  0.506203  0.735927  0.108894  1
  H  H140  1  0.891106  0.006203  0.764073  1
  H  H141  1  0.735927  0.108894  0.506203  1
  H  H142  1  0.764073  0.891106  0.006203  1
  H  H143  1  0.264073  0.608894  0.993797  1
  C  C144  1  0.768569  0.750434  0.529344  1
  C  C145  1  0.529344  0.768569  0.750434  1
  C  C146  1  0.750434  0.529344  0.768569  1
  C  C147  1  0.749566  0.470656  0.268569  1
  C  C148  1  0.029344  0.731431  0.249566  1
  C  C149  1  0.249566  0.029344  0.731431  1
  C  C150  1  0.970656  0.231431  0.250434  1
  C  C151  1  0.470656  0.268569  0.749566  1
  C  C152  1  0.250434  0.970656  0.231431  1
  C  C153  1  0.268569  0.749566  0.470656  1
  C  C154  1  0.231431  0.250434  0.970656  1
  C  C155  1  0.731431  0.249566  0.029344  1
  C  C156  1  0.231431  0.249566  0.470656  1
  C  C157  1  0.470656  0.231431  0.249566  1
  C  C158  1  0.249566  0.470656  0.231431  1
  C  C159  1  0.250434  0.529344  0.731431  1
  C  C160  1  0.970656  0.268569  0.750434  1
  C  C161  1  0.750434  0.970656  0.268569  1
  C  C162  1  0.029344  0.768569  0.749566  1
  C  C163  1  0.529344  0.731431  0.250434  1
  C  C164  1  0.749566  0.029344  0.768569  1
  C  C165  1  0.731431  0.250434  0.529344  1
  C  C166  1  0.768569  0.749566  0.029344  1
  C  C167  1  0.268569  0.750434  0.970656  1
  N  N168  1  0.863598  0.751876  0.526302  1
  N  N169  1  0.526302  0.863598  0.751876  1
  N  N170  1  0.751876  0.526302  0.863598  1
  N  N171  1  0.748124  0.473698  0.363598  1
  N  N172  1  0.026302  0.636402  0.248124  1
  N  N173  1  0.248124  0.026302  0.636402  1
  N  N174  1  0.973698  0.136402  0.251876  1
  N  N175  1  0.473698  0.363598  0.748124  1
  N  N176  1  0.251876  0.973698  0.136402  1
  N  N177  1  0.363598  0.748124  0.473698  1
  N  N178  1  0.136402  0.251876  0.973698  1
  N  N179  1  0.636402  0.248124  0.026302  1
  N  N180  1  0.136402  0.248124  0.473698  1
  N  N181  1  0.473698  0.136402  0.248124  1
  N  N182  1  0.248124  0.473698  0.136402  1
  N  N183  1  0.251876  0.526302  0.636402  1
  N  N184  1  0.973698  0.363598  0.751876  1
  N  N185  1  0.751876  0.973698  0.363598  1
  N  N186  1  0.026302  0.863598  0.748124  1
  N  N187  1  0.526302  0.636402  0.251876  1
  N  N188  1  0.748124  0.026302  0.863598  1
  N  N189  1  0.636402  0.251876  0.526302  1
  N  N190  1  0.863598  0.748124  0.026302  1
  N  N191  1  0.363598  0.751876  0.973698  1
  N  N192  1  0.721489  0.831363  0.545974  1
  N  N193  1  0.545974  0.721489  0.831363  1
  N  N194  1  0.831363  0.545974  0.721489  1
  N  N195  1  0.668637  0.454026  0.221489  1
  N  N196  1  0.045974  0.778511  0.168637  1
  N  N197  1  0.168637  0.045974  0.778511  1
  N  N198  1  0.954026  0.278511  0.331363  1
  N  N199  1  0.454026  0.221489  0.668637  1
  N  N200  1  0.331363  0.954026  0.278511  1
  N  N201  1  0.221489  0.668637  0.454026  1
  N  N202  1  0.278511  0.331363  0.954026  1
  N  N203  1  0.778511  0.168637  0.045974  1
  N  N204  1  0.278511  0.168637  0.454026  1
  N  N205  1  0.454026  0.278511  0.168637  1
  N  N206  1  0.168637  0.454026  0.278511  1
  N  N207  1  0.331363  0.545974  0.778511  1
  N  N208  1  0.954026  0.221489  0.831363  1
  N  N209  1  0.831363  0.954026  0.221489  1
  N  N210  1  0.045974  0.721489  0.668637  1
  N  N211  1  0.545974  0.778511  0.331363  1
  N  N212  1  0.668637  0.045974  0.721489  1
  N  N213  1  0.778511  0.331363  0.545974  1
  N  N214  1  0.721489  0.668637  0.045974  1
  N  N215  1  0.221489  0.831363  0.954026  1
  N  N216  1  0.723489  0.667722  0.517560  1
  N  N217  1  0.517560  0.723489  0.667722  1
  N  N218  1  0.667722  0.517560  0.723489  1
  N  N219  1  0.832278  0.482440  0.223489  1
  N  N220  1  0.017560  0.776511  0.332278  1
  N  N221  1  0.332278  0.017560  0.776511  1
  N  N222  1  0.982440  0.276511  0.167722  1
  N  N223  1  0.482440  0.223489  0.832278  1
  N  N224  1  0.167722  0.982440  0.276511  1
  N  N225  1  0.223489  0.832278  0.482440  1
  N  N226  1  0.276511  0.167722  0.982440  1
  N  N227  1  0.776511  0.332278  0.017560  1
  N  N228  1  0.276511  0.332278  0.482440  1
  N  N229  1  0.482440  0.276511  0.332278  1
  N  N230  1  0.332278  0.482440  0.276511  1
  N  N231  1  0.167722  0.517560  0.776511  1
  N  N232  1  0.982440  0.223489  0.667722  1
  N  N233  1  0.667722  0.982440  0.223489  1
  N  N234  1  0.017560  0.723489  0.832278  1
  N  N235  1  0.517560  0.776511  0.167722  1
  N  N236  1  0.832278  0.017560  0.723489  1
  N  N237  1  0.776511  0.167722  0.517560  1
  N  N238  1  0.723489  0.832278  0.017560  1
  N  N239  1  0.223489  0.667722  0.982440  1
  F  F240  1  0.029667  0.625556  0.024801  1
  F  F241  1  0.024801  0.029667  0.625556  1
  F  F242  1  0.625556  0.024801  0.029667  1
  F  F243  1  0.874444  0.975199  0.529667  1
  F  F244  1  0.524801  0.470333  0.374444  1
  F  F245  1  0.374444  0.524801  0.470333  1
  F  F246  1  0.475199  0.970333  0.125556  1
  F  F247  1  0.975199  0.529667  0.874444  1
  F  F248  1  0.125556  0.475199  0.970333  1
  F  F249  1  0.529667  0.874444  0.975199  1
  F  F250  1  0.970333  0.125556  0.475199  1
  F  F251  1  0.470333  0.374444  0.524801  1
  F  F252  1  0.970333  0.374444  0.975199  1
  F  F253  1  0.975199  0.970333  0.374444  1
  F  F254  1  0.374444  0.975199  0.970333  1
  F  F255  1  0.125556  0.024801  0.470333  1
  F  F256  1  0.475199  0.529667  0.625556  1
  F  F257  1  0.625556  0.475199  0.529667  1
  F  F258  1  0.524801  0.029667  0.874444  1
  F  F259  1  0.024801  0.470333  0.125556  1
  F  F260  1  0.874444  0.524801  0.029667  1
  F  F261  1  0.470333  0.125556  0.024801  1
  F  F262  1  0.029667  0.874444  0.524801  1
  F  F263  1  0.529667  0.625556  0.475199  1
  F  F264  1  0.021979  0.626496  0.472358  1
  F  F265  1  0.472358  0.021979  0.626496  1
  F  F266  1  0.626496  0.472358  0.021979  1
  F  F267  1  0.873504  0.527642  0.521979  1
  F  F268  1  0.972358  0.478021  0.373504  1
  F  F269  1  0.373504  0.972358  0.478021  1
  F  F270  1  0.027642  0.978021  0.126496  1
  F  F271  1  0.527642  0.521979  0.873504  1
  F  F272  1  0.126496  0.027642  0.978021  1
  F  F273  1  0.521979  0.873504  0.527642  1
  F  F274  1  0.978021  0.126496  0.027642  1
  F  F275  1  0.478021  0.373504  0.972358  1
  F  F276  1  0.978021  0.373504  0.527642  1
  F  F277  1  0.527642  0.978021  0.373504  1
  F  F278  1  0.373504  0.527642  0.978021  1
  F  F279  1  0.126496  0.472358  0.478021  1
  F  F280  1  0.027642  0.521979  0.626496  1
  F  F281  1  0.626496  0.027642  0.521979  1
  F  F282  1  0.972358  0.021979  0.873504  1
  F  F283  1  0.472358  0.478021  0.126496  1
  F  F284  1  0.873504  0.972358  0.021979  1
  F  F285  1  0.478021  0.126496  0.472358  1
  F  F286  1  0.021979  0.873504  0.972358  1
  F  F287  1  0.521979  0.626496  0.027642  1
  Al  Al288  1  0.000000  0.500000  0.000000  1
  Al  Al289  1  0.000000  0.000000  0.500000  1
  Al  Al290  1  0.500000  0.000000  0.000000  1
  Al  Al291  1  0.500000  0.500000  0.500000  1
  Al  Al292  1  0.000000  0.500000  0.500000  1
  Al  Al293  1  0.500000  0.000000  0.500000  1
  Al  Al294  1  0.500000  0.500000  0.000000  1
  Al  Al295  1  0.000000  0.000000  0.000000  1
