# generated using pymatgen
data_Pr2I5
_symmetry_space_group_name_H-M   'P 1'
_cell_length_a   4.36479316
_cell_length_b   9.41697288
_cell_length_c   15.00303334
_cell_angle_alpha   94.67338554
_cell_angle_beta   90.00000000
_cell_angle_gamma   90.00000000
_symmetry_Int_Tables_number   1
_chemical_formula_structural   Pr2I5
_chemical_formula_sum   'Pr4 I10'
_cell_volume   614.62153851
_cell_formula_units_Z   2
loop_
 _symmetry_equiv_pos_site_id
 _symmetry_equiv_pos_as_xyz
  1  'x, y, z'
loop_
 _atom_site_type_symbol
 _atom_site_label
 _atom_site_symmetry_multiplicity
 _atom_site_fract_x
 _atom_site_fract_y
 _atom_site_fract_z
 _atom_site_occupancy
  I  I0  1  0.750000  0.365633  0.715022  1
  I  I1  1  0.250000  0.634367  0.284978  1
  I  I2  1  0.750000  0.866341  0.071145  1
  I  I3  1  0.250000  0.133659  0.928855  1
  I  I4  1  0.250000  0.319151  0.485329  1
  I  I5  1  0.750000  0.680849  0.514671  1
  I  I6  1  0.250000  0.934714  0.691535  1
  I  I7  1  0.750000  0.065286  0.308465  1
  I  I8  1  0.250000  0.652144  0.875019  1
  I  I9  1  0.750000  0.347856  0.124981  1
  Pr  Pr10  1  0.750000  0.897635  0.848748  1
  Pr  Pr11  1  0.250000  0.102365  0.151252  1
  Pr  Pr12  1  0.750000  0.414000  0.342481  1
  Pr  Pr13  1  0.250000  0.586000  0.657519  1
