# generated using pymatgen
data_K2Ta15O32
_symmetry_space_group_name_H-M   'P 1'
_cell_length_a   12.88920425
_cell_length_b   12.88920424
_cell_length_c   12.88920425
_cell_angle_alpha   35.56374783
_cell_angle_beta   35.56374783
_cell_angle_gamma   35.56374786
_symmetry_Int_Tables_number   1
_chemical_formula_structural   K2Ta15O32
_chemical_formula_sum   'K2 Ta15 O32'
_cell_volume   647.37276211
_cell_formula_units_Z   1
loop_
 _symmetry_equiv_pos_site_id
 _symmetry_equiv_pos_as_xyz
  1  'x, y, z'
loop_
 _atom_site_type_symbol
 _atom_site_label
 _atom_site_symmetry_multiplicity
 _atom_site_fract_x
 _atom_site_fract_y
 _atom_site_fract_z
 _atom_site_occupancy
  O  O0  1  0.737573  0.324674  0.534394  1
  O  O1  1  0.324674  0.534394  0.737573  1
  O  O2  1  0.534394  0.737573  0.324674  1
  O  O3  1  0.262427  0.675326  0.465606  1
  O  O4  1  0.675326  0.465606  0.262427  1
  O  O5  1  0.465606  0.262427  0.675326  1
  O  O6  1  0.151277  0.032247  0.445114  1
  O  O7  1  0.032247  0.445114  0.151277  1
  O  O8  1  0.445114  0.151277  0.032247  1
  O  O9  1  0.848723  0.967753  0.554886  1
  O  O10  1  0.967753  0.554886  0.848723  1
  O  O11  1  0.554886  0.848723  0.967753  1
  O  O12  1  0.263163  0.263163  0.263163  1
  O  O13  1  0.736837  0.736837  0.736837  1
  O  O14  1  0.960252  0.140422  0.700675  1
  O  O15  1  0.140422  0.700675  0.960252  1
  O  O16  1  0.700675  0.960252  0.140422  1
  O  O17  1  0.259612  0.169442  0.570829  1
  O  O18  1  0.570829  0.259612  0.169442  1
  O  O19  1  0.169442  0.570829  0.259612  1
  O  O20  1  0.740388  0.830558  0.429171  1
  O  O21  1  0.429171  0.740388  0.830558  1
  O  O22  1  0.830558  0.429171  0.740388  1
  O  O23  1  0.154759  0.457838  0.571072  1
  O  O24  1  0.571072  0.154759  0.457838  1
  O  O25  1  0.457838  0.571072  0.154759  1
  O  O26  1  0.845241  0.542162  0.428928  1
  O  O27  1  0.428928  0.845241  0.542162  1
  O  O28  1  0.542162  0.428928  0.845241  1
  O  O29  1  0.299325  0.039748  0.859578  1
  O  O30  1  0.859578  0.299325  0.039748  1
  O  O31  1  0.039748  0.859578  0.299325  1
  K  K32  1  0.859462  0.859462  0.859462  1
  K  K33  1  0.140538  0.140538  0.140538  1
  Ta  Ta34  1  0.500000  0.500000  0.500000  1
  Ta  Ta35  1  0.974521  0.298249  0.429304  1
  Ta  Ta36  1  0.298249  0.429304  0.974521  1
  Ta  Ta37  1  0.429304  0.974521  0.298249  1
  Ta  Ta38  1  0.025479  0.701751  0.570696  1
  Ta  Ta39  1  0.701751  0.570696  0.025479  1
  Ta  Ta40  1  0.570696  0.025479  0.701751  1
  Ta  Ta41  1  0.771254  0.185724  0.946554  1
  Ta  Ta42  1  0.185724  0.946554  0.771254  1
  Ta  Ta43  1  0.946554  0.771254  0.185724  1
  Ta  Ta44  1  0.228746  0.814276  0.053446  1
  Ta  Ta45  1  0.814276  0.053446  0.228746  1
  Ta  Ta46  1  0.053446  0.228746  0.814276  1
  Ta  Ta47  1  0.637346  0.637346  0.637346  1
  Ta  Ta48  1  0.362654  0.362654  0.362654  1
