# generated using pymatgen
data_KH18RuN6(ClO2)4
_symmetry_space_group_name_H-M   'P 1'
_cell_length_a   10.12632766
_cell_length_b   10.12632766
_cell_length_c   10.12632765
_cell_angle_alpha   41.42625256
_cell_angle_beta   41.42625254
_cell_angle_gamma   41.42625256
_symmetry_Int_Tables_number   1
_chemical_formula_structural   KH18RuN6(ClO2)4
_chemical_formula_sum   'K1 H18 Ru1 N6 Cl4 O8'
_cell_volume   410.73907619
_cell_formula_units_Z   1
loop_
 _symmetry_equiv_pos_site_id
 _symmetry_equiv_pos_as_xyz
  1  'x, y, z'
loop_
 _atom_site_type_symbol
 _atom_site_label
 _atom_site_symmetry_multiplicity
 _atom_site_fract_x
 _atom_site_fract_y
 _atom_site_fract_z
 _atom_site_occupancy
  H  H0  1  0.801539  0.362916  0.030042  1
  H  H1  1  0.198461  0.969958  0.637084  1
  H  H2  1  0.969958  0.637084  0.198461  1
  H  H3  1  0.637084  0.198461  0.969958  1
  H  H4  1  0.362916  0.030042  0.801539  1
  H  H5  1  0.030042  0.801539  0.362916  1
  H  H6  1  0.030042  0.362916  0.801539  1
  H  H7  1  0.188407  0.561794  0.188407  1
  H  H8  1  0.188407  0.188407  0.561794  1
  H  H9  1  0.561794  0.188407  0.188407  1
  H  H10  1  0.438206  0.811593  0.811593  1
  H  H11  1  0.801539  0.030042  0.362916  1
  H  H12  1  0.811593  0.811593  0.438206  1
  H  H13  1  0.198461  0.637084  0.969958  1
  H  H14  1  0.969958  0.198461  0.637084  1
  H  H15  1  0.637084  0.969958  0.198461  1
  H  H16  1  0.362916  0.801539  0.030042  1
  H  H17  1  0.811593  0.438206  0.811593  1
  N  N18  1  0.900746  0.900746  0.326555  1
  N  N19  1  0.099254  0.673445  0.099254  1
  N  N20  1  0.900746  0.326555  0.900746  1
  N  N21  1  0.326555  0.900746  0.900746  1
  N  N22  1  0.673445  0.099254  0.099254  1
  N  N23  1  0.099254  0.099254  0.673445  1
  O  O24  1  0.685566  0.685566  0.018988  1
  O  O25  1  0.685566  0.018988  0.685566  1
  O  O26  1  0.018988  0.685566  0.685566  1
  O  O27  1  0.981012  0.314434  0.314434  1
  O  O28  1  0.867237  0.867237  0.867237  1
  O  O29  1  0.314434  0.981012  0.314434  1
  O  O30  1  0.314434  0.314434  0.981012  1
  O  O31  1  0.132763  0.132763  0.132763  1
  Cl  Cl32  1  0.814766  0.814766  0.814766  1
  Cl  Cl33  1  0.185234  0.185234  0.185234  1
  Cl  Cl34  1  0.623182  0.623182  0.623182  1
  Cl  Cl35  1  0.376818  0.376818  0.376818  1
  K  K36  1  0.500000  0.500000  0.500000  1
  Ru  Ru37  1  0.000000  0.000000  0.000000  1
