# generated using pymatgen
data_Nb2GeTe4
_symmetry_space_group_name_H-M   'P 1'
_cell_length_a   6.54705045
_cell_length_b   8.00733699
_cell_length_c   15.89108832
_cell_angle_alpha   90.00000000
_cell_angle_beta   97.53325074
_cell_angle_gamma   90.00000000
_symmetry_Int_Tables_number   1
_chemical_formula_structural   Nb2GeTe4
_chemical_formula_sum   'Nb8 Ge4 Te16'
_cell_volume   825.89102266
_cell_formula_units_Z   4
loop_
 _symmetry_equiv_pos_site_id
 _symmetry_equiv_pos_as_xyz
  1  'x, y, z'
loop_
 _atom_site_type_symbol
 _atom_site_label
 _atom_site_symmetry_multiplicity
 _atom_site_fract_x
 _atom_site_fract_y
 _atom_site_fract_z
 _atom_site_occupancy
  Ge  Ge0  1  0.000013  0.625597  0.249852  1
  Ge  Ge1  1  0.499987  0.125597  0.250148  1
  Ge  Ge2  1  0.999987  0.374403  0.750148  1
  Ge  Ge3  1  0.500013  0.874403  0.749852  1
  Nb  Nb4  1  0.107386  0.034373  0.749959  1
  Nb  Nb5  1  0.392614  0.534373  0.750041  1
  Nb  Nb6  1  0.892614  0.965627  0.250041  1
  Nb  Nb7  1  0.607386  0.465627  0.249959  1
  Nb  Nb8  1  0.392725  0.785479  0.250037  1
  Nb  Nb9  1  0.107275  0.285479  0.249963  1
  Nb  Nb10  1  0.607275  0.214521  0.749963  1
  Nb  Nb11  1  0.892725  0.714521  0.750037  1
  Te  Te12  1  0.751178  0.989799  0.629414  1
  Te  Te13  1  0.748822  0.489799  0.870586  1
  Te  Te14  1  0.248822  0.010201  0.370586  1
  Te  Te15  1  0.251178  0.510201  0.129414  1
  Te  Te16  1  0.249119  0.759297  0.870555  1
  Te  Te17  1  0.250881  0.259297  0.629445  1
  Te  Te18  1  0.750881  0.240703  0.129445  1
  Te  Te19  1  0.749119  0.740703  0.370555  1
  Te  Te20  1  0.672235  0.489754  0.629545  1
  Te  Te21  1  0.827765  0.989754  0.870455  1
  Te  Te22  1  0.327765  0.510246  0.370455  1
  Te  Te23  1  0.172235  0.010246  0.129545  1
  Te  Te24  1  0.328084  0.258836  0.870575  1
  Te  Te25  1  0.171916  0.758836  0.629425  1
  Te  Te26  1  0.671916  0.741164  0.129425  1
  Te  Te27  1  0.828084  0.241164  0.370575  1
