# generated using pymatgen
data_Hg7(PO5)2
_symmetry_space_group_name_H-M   'P 1'
_cell_length_a   6.38375346
_cell_length_b   9.99412576
_cell_length_c   10.21306912
_cell_angle_alpha   90.00000000
_cell_angle_beta   90.00000000
_cell_angle_gamma   95.78043884
_symmetry_Int_Tables_number   1
_chemical_formula_structural   Hg7(PO5)2
_chemical_formula_sum   'Hg14 P4 O20'
_cell_volume   648.28090914
_cell_formula_units_Z   2
loop_
 _symmetry_equiv_pos_site_id
 _symmetry_equiv_pos_as_xyz
  1  'x, y, z'
loop_
 _atom_site_type_symbol
 _atom_site_label
 _atom_site_symmetry_multiplicity
 _atom_site_fract_x
 _atom_site_fract_y
 _atom_site_fract_z
 _atom_site_occupancy
  O  O0  1  0.679724  0.226861  0.432887  1
  O  O1  1  0.320276  0.273139  0.932887  1
  O  O2  1  0.320276  0.773139  0.567113  1
  O  O3  1  0.679724  0.726861  0.067113  1
  O  O4  1  0.723012  0.337781  0.906407  1
  O  O5  1  0.276988  0.162219  0.406407  1
  O  O6  1  0.276988  0.662219  0.093593  1
  O  O7  1  0.723012  0.837781  0.593593  1
  O  O8  1  0.460649  0.003729  0.657532  1
  O  O9  1  0.539351  0.496271  0.157532  1
  O  O10  1  0.539351  0.996271  0.342468  1
  O  O11  1  0.460649  0.503729  0.842468  1
  O  O12  1  0.813026  0.063202  0.033184  1
  O  O13  1  0.186974  0.436798  0.533184  1
  O  O14  1  0.186974  0.936798  0.966816  1
  O  O15  1  0.813026  0.563202  0.466816  1
  O  O16  1  0.498371  0.292715  0.708486  1
  O  O17  1  0.501629  0.207285  0.208486  1
  O  O18  1  0.498371  0.792715  0.791514  1
  O  O19  1  0.501629  0.707285  0.291514  1
  P  P20  1  0.499569  0.352601  0.851180  1
  P  P21  1  0.500431  0.147399  0.351180  1
  P  P22  1  0.500431  0.647399  0.148820  1
  P  P23  1  0.499569  0.852601  0.648820  1
  Hg  Hg24  1  0.500000  0.000000  0.000000  1
  Hg  Hg25  1  0.500000  0.500000  0.500000  1
  Hg  Hg26  1  0.190843  0.190713  0.616792  1
  Hg  Hg27  1  0.809157  0.309287  0.116792  1
  Hg  Hg28  1  0.809157  0.809287  0.383208  1
  Hg  Hg29  1  0.190843  0.690713  0.883208  1
  Hg  Hg30  1  0.015670  0.088168  0.849447  1
  Hg  Hg31  1  0.984330  0.411832  0.349447  1
  Hg  Hg32  1  0.984330  0.911832  0.150553  1
  Hg  Hg33  1  0.015670  0.588168  0.650553  1
  Hg  Hg34  1  0.761158  0.148341  0.639418  1
  Hg  Hg35  1  0.238842  0.351659  0.139418  1
  Hg  Hg36  1  0.238842  0.851659  0.360582  1
  Hg  Hg37  1  0.761158  0.648341  0.860582  1
