# generated using pymatgen
data_Tl4Sn5S12
_symmetry_space_group_name_H-M   'P 1'
_cell_length_a   7.50399246
_cell_length_b   9.87483602
_cell_length_c   17.36787746
_cell_angle_alpha   104.99746174
_cell_angle_beta   90.12190139
_cell_angle_gamma   111.92491341
_symmetry_Int_Tables_number   1
_chemical_formula_structural   Tl4Sn5S12
_chemical_formula_sum   'Tl8 Sn10 S24'
_cell_volume   1146.19862997
_cell_formula_units_Z   2
loop_
 _symmetry_equiv_pos_site_id
 _symmetry_equiv_pos_as_xyz
  1  'x, y, z'
loop_
 _atom_site_type_symbol
 _atom_site_label
 _atom_site_symmetry_multiplicity
 _atom_site_fract_x
 _atom_site_fract_y
 _atom_site_fract_z
 _atom_site_occupancy
  S  S0  1  0.471583  0.676086  0.521906  1
  S  S1  1  0.528417  0.323914  0.478094  1
  S  S2  1  0.012132  0.707556  0.545553  1
  S  S3  1  0.987868  0.292444  0.454447  1
  S  S4  1  0.730512  0.762640  0.721501  1
  S  S5  1  0.269488  0.237360  0.278499  1
  S  S6  1  0.330362  0.443291  0.672821  1
  S  S7  1  0.669638  0.556709  0.327179  1
  S  S8  1  0.881979  0.051497  0.592704  1
  S  S9  1  0.118021  0.948503  0.407296  1
  S  S10  1  0.810437  0.439525  0.670682  1
  S  S11  1  0.189563  0.560475  0.329318  1
  S  S12  1  0.210461  0.152304  0.798137  1
  S  S13  1  0.789539  0.847696  0.201863  1
  S  S14  1  0.337429  0.914260  0.908014  1
  S  S15  1  0.662571  0.085740  0.091986  1
  S  S16  1  0.693425  0.163802  0.803253  1
  S  S17  1  0.306575  0.836198  0.196747  1
  S  S18  1  0.961895  0.679608  0.007984  1
  S  S19  1  0.038105  0.320392  0.992016  1
  S  S20  1  0.469958  0.678771  0.016852  1
  S  S21  1  0.530042  0.321229  0.983148  1
  S  S22  1  0.170354  0.082022  0.087592  1
  S  S23  1  0.829646  0.917978  0.912408  1
  Sn  Sn24  1  0.683147  0.574369  0.582497  1
  Sn  Sn25  1  0.316853  0.425631  0.417503  1
  Sn  Sn26  1  0.017771  0.323590  0.597244  1
  Sn  Sn27  1  0.982229  0.676410  0.402756  1
  Sn  Sn28  1  0.884462  0.031798  0.729986  1
  Sn  Sn29  1  0.115538  0.968202  0.270014  1
  Sn  Sn30  1  0.687589  0.127358  0.947510  1
  Sn  Sn31  1  0.312411  0.872642  0.052490  1
  Sn  Sn32  1  0.184713  0.119321  0.942123  1
  Sn  Sn33  1  0.815287  0.880679  0.057877  1
  Tl  Tl34  1  0.312608  0.761628  0.701983  1
  Tl  Tl35  1  0.687392  0.238372  0.298017  1
  Tl  Tl36  1  0.101407  0.462544  0.854664  1
  Tl  Tl37  1  0.898593  0.537456  0.145336  1
  Tl  Tl38  1  0.417406  0.152875  0.612654  1
  Tl  Tl39  1  0.582594  0.847125  0.387346  1
  Tl  Tl40  1  0.624624  0.517411  0.856832  1
  Tl  Tl41  1  0.375376  0.482589  0.143168  1
