# generated using pymatgen
data_RbH6C2S2NO4
_symmetry_space_group_name_H-M   'P 1'
_cell_length_a   7.97608426
_cell_length_b   8.73856067
_cell_length_c   12.54172117
_cell_angle_alpha   90.00000000
_cell_angle_beta   107.16494797
_cell_angle_gamma   90.00000000
_symmetry_Int_Tables_number   1
_chemical_formula_structural   RbH6C2S2NO4
_chemical_formula_sum   'Rb4 H24 C8 S8 N4 O16'
_cell_volume   835.21613765
_cell_formula_units_Z   4
loop_
 _symmetry_equiv_pos_site_id
 _symmetry_equiv_pos_as_xyz
  1  'x, y, z'
loop_
 _atom_site_type_symbol
 _atom_site_label
 _atom_site_symmetry_multiplicity
 _atom_site_fract_x
 _atom_site_fract_y
 _atom_site_fract_z
 _atom_site_occupancy
  H  H0  1  0.232131  0.794019  0.910905  1
  H  H1  1  0.767869  0.294019  0.589095  1
  H  H2  1  0.767869  0.205981  0.089095  1
  H  H3  1  0.232131  0.705981  0.410905  1
  H  H4  1  0.007878  0.793334  0.825221  1
  H  H5  1  0.992122  0.293334  0.674779  1
  H  H6  1  0.992122  0.206666  0.174779  1
  H  H7  1  0.007878  0.706666  0.325221  1
  H  H8  1  0.059192  0.848606  0.970394  1
  H  H9  1  0.940808  0.348606  0.529606  1
  H  H10  1  0.940808  0.151394  0.029606  1
  H  H11  1  0.059192  0.651394  0.470394  1
  H  H12  1  0.148252  0.101859  0.546597  1
  H  H13  1  0.851748  0.601859  0.953403  1
  H  H14  1  0.851748  0.898141  0.453403  1
  H  H15  1  0.148252  0.398141  0.046597  1
  H  H16  1  0.088854  0.404650  0.896032  1
  H  H17  1  0.911146  0.904650  0.603968  1
  H  H18  1  0.911146  0.595350  0.103968  1
  H  H19  1  0.088854  0.095350  0.396032  1
  H  H20  1  0.264613  0.523313  0.979257  1
  H  H21  1  0.735387  0.023313  0.520743  1
  H  H22  1  0.735387  0.476687  0.020743  1
  H  H23  1  0.264613  0.976687  0.479257  1
  C  C24  1  0.196401  0.086741  0.473975  1
  C  C25  1  0.896263  0.150982  0.104330  1
  C  C26  1  0.896263  0.349018  0.604330  1
  C  C27  1  0.103737  0.849018  0.895670  1
  C  C28  1  0.196401  0.413259  0.973975  1
  C  C29  1  0.803599  0.913259  0.526025  1
  C  C30  1  0.803599  0.586741  0.026025  1
  C  C31  1  0.103737  0.650982  0.395670  1
  N  N32  1  0.737698  0.895121  0.032311  1
  N  N33  1  0.737698  0.604879  0.532311  1
  N  N34  1  0.262302  0.104879  0.967689  1
  N  N35  1  0.262302  0.395121  0.467689  1
  O  O36  1  0.520870  0.771909  0.409269  1
  O  O37  1  0.050138  0.614033  0.664677  1
  O  O38  1  0.050138  0.885967  0.164677  1
  O  O39  1  0.949862  0.385967  0.335323  1
  O  O40  1  0.431785  0.301624  0.887719  1
  O  O41  1  0.568215  0.801624  0.612281  1
  O  O42  1  0.568215  0.698376  0.112281  1
  O  O43  1  0.431785  0.198376  0.387719  1
  O  O44  1  0.479130  0.271909  0.090731  1
  O  O45  1  0.949862  0.114033  0.835323  1
  O  O46  1  0.520870  0.728091  0.909269  1
  O  O47  1  0.479130  0.228091  0.590731  1
  O  O48  1  0.810934  0.959566  0.241642  1
  O  O49  1  0.189066  0.040434  0.758358  1
  O  O50  1  0.810934  0.540434  0.741642  1
  O  O51  1  0.189066  0.459566  0.258358  1
  S  S52  1  0.355104  0.267959  0.978114  1
  S  S53  1  0.644896  0.767959  0.521886  1
  S  S54  1  0.644896  0.732041  0.021886  1
  S  S55  1  0.355104  0.232041  0.478114  1
  S  S56  1  0.122416  0.458712  0.355492  1
  S  S57  1  0.877584  0.958712  0.144508  1
  S  S58  1  0.877584  0.541288  0.644508  1
  S  S59  1  0.122416  0.041288  0.855492  1
  Rb  Rb60  1  0.425507  0.970726  0.208933  1
  Rb  Rb61  1  0.574493  0.470726  0.291067  1
  Rb  Rb62  1  0.574493  0.029274  0.791067  1
  Rb  Rb63  1  0.425507  0.529274  0.708933  1
