# generated using pymatgen
data_TaCl5
_symmetry_space_group_name_H-M   'P 1'
_cell_length_a   6.46547716
_cell_length_b   13.66970703
_cell_length_c   13.66970703
_cell_angle_alpha   87.20151683
_cell_angle_beta   88.67992041
_cell_angle_gamma   88.67992043
_symmetry_Int_Tables_number   1
_chemical_formula_structural   TaCl5
_chemical_formula_sum   'Ta6 Cl30'
_cell_volume   1206.09323770
_cell_formula_units_Z   6
loop_
 _symmetry_equiv_pos_site_id
 _symmetry_equiv_pos_as_xyz
  1  'x, y, z'
loop_
 _atom_site_type_symbol
 _atom_site_label
 _atom_site_symmetry_multiplicity
 _atom_site_fract_x
 _atom_site_fract_y
 _atom_site_fract_z
 _atom_site_occupancy
  Cl  Cl0  1  0.258860  0.333345  0.523199  1
  Cl  Cl1  1  0.741140  0.476801  0.666655  1
  Cl  Cl2  1  0.741140  0.666655  0.476801  1
  Cl  Cl3  1  0.258860  0.523199  0.333345  1
  Cl  Cl4  1  0.693826  0.202861  0.566996  1
  Cl  Cl5  1  0.306174  0.433004  0.797139  1
  Cl  Cl6  1  0.794562  0.048491  0.048491  1
  Cl  Cl7  1  0.205438  0.951509  0.951509  1
  Cl  Cl8  1  0.774669  0.235174  0.871033  1
  Cl  Cl9  1  0.225331  0.128967  0.764826  1
  Cl  Cl10  1  0.225331  0.764826  0.128967  1
  Cl  Cl11  1  0.774669  0.871033  0.235174  1
  Cl  Cl12  1  0.203227  0.188901  0.999246  1
  Cl  Cl13  1  0.796773  0.000754  0.811099  1
  Cl  Cl14  1  0.796773  0.811099  0.000754  1
  Cl  Cl15  1  0.203227  0.999246  0.188901  1
  Cl  Cl16  1  0.277521  0.285692  0.285692  1
  Cl  Cl17  1  0.722479  0.714308  0.714308  1
  Cl  Cl18  1  0.257731  0.462849  0.099208  1
  Cl  Cl19  1  0.742269  0.900792  0.537151  1
  Cl  Cl20  1  0.742269  0.537151  0.900792  1
  Cl  Cl21  1  0.257731  0.099208  0.462849  1
  Cl  Cl22  1  0.692992  0.332674  0.143118  1
  Cl  Cl23  1  0.307008  0.856882  0.667326  1
  Cl  Cl24  1  0.307008  0.667326  0.856882  1
  Cl  Cl25  1  0.692992  0.143118  0.332674  1
  Cl  Cl26  1  0.674228  0.380502  0.380502  1
  Cl  Cl27  1  0.325772  0.619498  0.619498  1
  Cl  Cl28  1  0.693826  0.566996  0.202861  1
  Cl  Cl29  1  0.306174  0.797139  0.433004  1
  Ta  Ta30  1  0.475914  0.227026  0.439098  1
  Ta  Ta31  1  0.524086  0.560902  0.772974  1
  Ta  Ta32  1  0.524086  0.772974  0.560902  1
  Ta  Ta33  1  0.475914  0.439098  0.227026  1
  Ta  Ta34  1  0.000000  0.893953  0.106047  1
  Ta  Ta35  1  0.000000  0.106047  0.893953  1
