# generated using pymatgen
data_In2Se3
_symmetry_space_group_name_H-M   'P 1'
_cell_length_a   4.13504635
_cell_length_b   4.13504635
_cell_length_c   8.92363858
_cell_angle_alpha   76.60337571
_cell_angle_beta   76.60337571
_cell_angle_gamma   60.00000404
_symmetry_Int_Tables_number   1
_chemical_formula_structural   In2Se3
_chemical_formula_sum   'In2 Se3'
_cell_volume   127.32304678
_cell_formula_units_Z   1
loop_
 _symmetry_equiv_pos_site_id
 _symmetry_equiv_pos_as_xyz
  1  'x, y, z'
loop_
 _atom_site_type_symbol
 _atom_site_label
 _atom_site_symmetry_multiplicity
 _atom_site_fract_x
 _atom_site_fract_y
 _atom_site_fract_z
 _atom_site_occupancy
  In  In0  1  0.000120  0.000120  0.999641  1
  In  In1  1  0.414180  0.414180  0.757461  1
  Se  Se2  1  0.806946  0.806946  0.579162  1
  Se  Se3  1  0.606130  0.606130  0.181609  1
  Se  Se4  1  0.207624  0.207624  0.377127  1
