# generated using pymatgen
data_Cs4ZrO4
_symmetry_space_group_name_H-M   'P 1'
_cell_length_a   7.30367406
_cell_length_b   7.28816240
_cell_length_c   20.23922995
_cell_angle_alpha   90.00000000
_cell_angle_beta   90.00000000
_cell_angle_gamma   113.28976819
_symmetry_Int_Tables_number   1
_chemical_formula_structural   Cs4ZrO4
_chemical_formula_sum   'Cs16 Zr4 O16'
_cell_volume   989.55653154
_cell_formula_units_Z   4
loop_
 _symmetry_equiv_pos_site_id
 _symmetry_equiv_pos_as_xyz
  1  'x, y, z'
loop_
 _atom_site_type_symbol
 _atom_site_label
 _atom_site_symmetry_multiplicity
 _atom_site_fract_x
 _atom_site_fract_y
 _atom_site_fract_z
 _atom_site_occupancy
  O  O0  1  0.964324  0.594029  0.905345  1
  O  O1  1  0.535676  0.405971  0.405345  1
  O  O2  1  0.035676  0.405971  0.094655  1
  O  O3  1  0.464324  0.594029  0.594655  1
  O  O4  1  0.021221  1.000982  0.167080  1
  O  O5  1  0.478779  -0.000982  0.667080  1
  O  O6  1  0.978779  -0.000982  0.832920  1
  O  O7  1  0.521221  1.000982  0.332920  1
  O  O8  1  0.360936  0.209378  0.048311  1
  O  O9  1  0.139064  0.790622  0.548311  1
  O  O10  1  0.639064  0.790622  0.951689  1
  O  O11  1  0.860936  0.209378  0.451689  1
  O  O12  1  0.395664  0.427717  0.189668  1
  O  O13  1  0.104336  0.572283  0.689668  1
  O  O14  1  0.604336  0.572283  0.810332  1
  O  O15  1  0.895664  0.427717  0.310332  1
  Zr  Zr16  1  0.701137  0.254601  0.377410  1
  Zr  Zr17  1  0.798863  0.745399  0.877410  1
  Zr  Zr18  1  0.298863  0.745399  0.622590  1
  Zr  Zr19  1  0.201137  0.254601  0.122590  1
  Cs  Cs20  1  0.276166  0.340174  0.918332  1
  Cs  Cs21  1  0.223834  0.659826  0.418332  1
  Cs  Cs22  1  0.723834  0.659826  0.081668  1
  Cs  Cs23  1  0.776166  0.340174  0.581668  1
  Cs  Cs24  1  0.683484  0.185517  0.189753  1
  Cs  Cs25  1  0.816516  0.814483  0.689753  1
  Cs  Cs26  1  0.316516  0.814483  0.810247  1
  Cs  Cs27  1  0.183484  0.185517  0.310247  1
  Cs  Cs28  1  0.677472  0.698380  0.284018  1
  Cs  Cs29  1  0.822528  0.301620  0.784018  1
  Cs  Cs30  1  0.322528  0.301620  0.715982  1
  Cs  Cs31  1  0.177472  0.698380  0.215982  1
  Cs  Cs32  1  0.750439  0.220300  0.985722  1
  Cs  Cs33  1  0.749561  0.779700  0.485722  1
  Cs  Cs34  1  0.249561  0.779700  0.014278  1
  Cs  Cs35  1  0.250439  0.220300  0.514278  1
