# generated using pymatgen
data_Pu(SiOs)2
_symmetry_space_group_name_H-M   'P 1'
_cell_length_a   4.12970722
_cell_length_b   4.12970723
_cell_length_c   5.64205043
_cell_angle_alpha   111.46764400
_cell_angle_beta   111.46764409
_cell_angle_gamma   90.00000009
_symmetry_Int_Tables_number   1
_chemical_formula_structural   Pu(SiOs)2
_chemical_formula_sum   'Pu1 Si2 Os2'
_cell_volume   82.33181068
_cell_formula_units_Z   1
loop_
 _symmetry_equiv_pos_site_id
 _symmetry_equiv_pos_as_xyz
  1  'x, y, z'
loop_
 _atom_site_type_symbol
 _atom_site_label
 _atom_site_symmetry_multiplicity
 _atom_site_fract_x
 _atom_site_fract_y
 _atom_site_fract_z
 _atom_site_occupancy
  Si  Si0  1  0.623192  0.623192  0.246383  1
  Si  Si1  1  0.376808  0.376808  0.753617  1
  Os  Os2  1  0.750000  0.250000  0.500000  1
  Os  Os3  1  0.250000  0.750000  0.500000  1
  Pu  Pu4  1  0.000000  0.000000  0.000000  1
