# generated using pymatgen
data_S7(N3O4)2
_symmetry_space_group_name_H-M   'P 1'
_cell_length_a   5.16461517
_cell_length_b   12.14275608
_cell_length_c   12.14275608
_cell_angle_alpha   90.00000000
_cell_angle_beta   90.00000000
_cell_angle_gamma   90.00000000
_symmetry_Int_Tables_number   1
_chemical_formula_structural   S7(N3O4)2
_chemical_formula_sum   'S14 N12 O16'
_cell_volume   761.50456091
_cell_formula_units_Z   2
loop_
 _symmetry_equiv_pos_site_id
 _symmetry_equiv_pos_as_xyz
  1  'x, y, z'
loop_
 _atom_site_type_symbol
 _atom_site_label
 _atom_site_symmetry_multiplicity
 _atom_site_fract_x
 _atom_site_fract_y
 _atom_site_fract_z
 _atom_site_occupancy
  S  S0  1  0.297284  0.755603  0.744397  1
  S  S1  1  0.884360  0.211498  0.538040  1
  S  S2  1  0.404093  0.500000  0.000000  1
  S  S3  1  0.115640  0.711498  0.961960  1
  S  S4  1  0.702716  0.255603  0.755603  1
  S  S5  1  0.115640  0.538040  0.788502  1
  S  S6  1  0.702716  0.744397  0.244397  1
  S  S7  1  0.115640  0.288502  0.038040  1
  S  S8  1  0.884360  0.961960  0.288502  1
  S  S9  1  0.297284  0.244397  0.255603  1
  S  S10  1  0.884360  0.788502  0.461960  1
  S  S11  1  0.595907  0.000000  0.500000  1
  S  S12  1  0.884360  0.038040  0.711498  1
  S  S13  1  0.115640  0.461960  0.211498  1
  N  N14  1  0.791812  0.921263  0.421263  1
  N  N15  1  0.757086  0.290500  0.634977  1
  N  N16  1  0.242914  0.365023  0.290500  1
  N  N17  1  0.208188  0.421263  0.078737  1
  N  N18  1  0.242914  0.790500  0.865023  1
  N  N19  1  0.208188  0.578737  0.921263  1
  N  N20  1  0.791812  0.078737  0.578737  1
  N  N21  1  0.242914  0.634977  0.709500  1
  N  N22  1  0.242914  0.209500  0.134977  1
  N  N23  1  0.757086  0.134977  0.790500  1
  N  N24  1  0.757086  0.865023  0.209500  1
  N  N25  1  0.757086  0.709500  0.365023  1
  O  O26  1  0.752611  0.233928  0.437257  1
  O  O27  1  0.752611  0.937257  0.733928  1
  O  O28  1  0.247389  0.266072  0.937257  1
  O  O29  1  0.160871  0.954543  0.280632  1
  O  O30  1  0.839129  0.719368  0.954543  1
  O  O31  1  0.160871  0.045457  0.719368  1
  O  O32  1  0.752611  0.766072  0.562743  1
  O  O33  1  0.839129  0.545457  0.780632  1
  O  O34  1  0.752611  0.062743  0.266072  1
  O  O35  1  0.247389  0.562743  0.233928  1
  O  O36  1  0.247389  0.437257  0.766072  1
  O  O37  1  0.160871  0.780632  0.454543  1
  O  O38  1  0.839129  0.280632  0.045457  1
  O  O39  1  0.247389  0.733928  0.062743  1
  O  O40  1  0.160871  0.219368  0.545457  1
  O  O41  1  0.839129  0.454543  0.219368  1
