# generated using pymatgen
data_SmTiO3
_symmetry_space_group_name_H-M   'P 1'
_cell_length_a   5.44300398
_cell_length_b   5.73805134
_cell_length_c   7.78869726
_cell_angle_alpha   90.00000000
_cell_angle_beta   90.00000000
_cell_angle_gamma   90.00000000
_symmetry_Int_Tables_number   1
_chemical_formula_structural   SmTiO3
_chemical_formula_sum   'Sm4 Ti4 O12'
_cell_volume   243.25843315
_cell_formula_units_Z   4
loop_
 _symmetry_equiv_pos_site_id
 _symmetry_equiv_pos_as_xyz
  1  'x, y, z'
loop_
 _atom_site_type_symbol
 _atom_site_label
 _atom_site_symmetry_multiplicity
 _atom_site_fract_x
 _atom_site_fract_y
 _atom_site_fract_z
 _atom_site_occupancy
  Sm  Sm0  1  0.517737  0.567124  0.250000  1
  Sm  Sm1  1  0.017737  0.932876  0.750000  1
  Sm  Sm2  1  0.982263  0.067124  0.250000  1
  Sm  Sm3  1  0.482263  0.432876  0.750000  1
  Ti  Ti4  1  0.000000  0.500000  0.500000  1
  Ti  Ti5  1  0.000000  0.500000  0.000000  1
  Ti  Ti6  1  0.500000  0.000000  0.500000  1
  Ti  Ti7  1  0.500000  0.000000  0.000000  1
  O  O8  1  0.803945  0.799500  0.448335  1
  O  O9  1  0.303945  0.700500  0.948335  1
  O  O10  1  0.696055  0.299500  0.448335  1
  O  O11  1  0.602850  0.031587  0.750000  1
  O  O12  1  0.803945  0.799500  0.051665  1
  O  O13  1  0.303945  0.700500  0.551665  1
  O  O14  1  0.196055  0.200500  0.948335  1
  O  O15  1  0.696055  0.299500  0.051665  1
  O  O16  1  0.397150  0.968413  0.250000  1
  O  O17  1  0.196055  0.200500  0.551665  1
  O  O18  1  0.102850  0.468413  0.250000  1
  O  O19  1  0.897150  0.531587  0.750000  1
