# generated using pymatgen
data_K2ReH9
_symmetry_space_group_name_H-M   'P 1'
_cell_length_a   9.59372716
_cell_length_b   9.59372729
_cell_length_c   5.60434314
_cell_angle_alpha   90.00000000
_cell_angle_beta   90.00000000
_cell_angle_gamma   119.99999954
_symmetry_Int_Tables_number   1
_chemical_formula_structural   K2ReH9
_chemical_formula_sum   'K6 Re3 H27'
_cell_volume   446.71453575
_cell_formula_units_Z   3
loop_
 _symmetry_equiv_pos_site_id
 _symmetry_equiv_pos_as_xyz
  1  'x, y, z'
loop_
 _atom_site_type_symbol
 _atom_site_label
 _atom_site_symmetry_multiplicity
 _atom_site_fract_x
 _atom_site_fract_y
 _atom_site_fract_z
 _atom_site_occupancy
  Re  Re0  1  0.000000  0.000000  0.000000  1
  Re  Re1  1  0.333333  0.666667  0.500000  1
  Re  Re2  1  0.666667  0.333333  0.500000  1
  K  K3  1  0.589591  0.000000  0.000000  1
  K  K4  1  0.410409  0.410409  0.000000  1
  K  K5  1  0.000000  0.589591  0.000000  1
  K  K6  1  0.260612  0.000000  0.500000  1
  K  K7  1  0.739388  0.739388  0.500000  1
  K  K8  1  0.000000  0.260612  0.500000  1
  H  H9  1  0.175718  0.000000  0.000000  1
  H  H10  1  0.824282  0.824282  0.000000  1
  H  H11  1  0.000000  0.175718  0.000000  1
  H  H12  1  0.872991  0.000000  0.213882  1
  H  H13  1  0.127009  0.127009  0.786118  1
  H  H14  1  0.000000  0.872991  0.786118  1
  H  H15  1  0.000000  0.872991  0.213882  1
  H  H16  1  0.127009  0.127009  0.213882  1
  H  H17  1  0.872991  0.000000  0.786118  1
  H  H18  1  0.142830  0.631498  0.500000  1
  H  H19  1  0.488668  0.857170  0.500000  1
  H  H20  1  0.368502  0.511332  0.500000  1
  H  H21  1  0.511332  0.368502  0.500000  1
  H  H22  1  0.857170  0.488668  0.500000  1
  H  H23  1  0.631498  0.142830  0.500000  1
  H  H24  1  0.223654  0.531629  0.719835  1
  H  H25  1  0.307975  0.776346  0.280165  1
  H  H26  1  0.468371  0.692025  0.280165  1
  H  H27  1  0.468371  0.692025  0.719835  1
  H  H28  1  0.307975  0.776346  0.719835  1
  H  H29  1  0.692025  0.468371  0.280165  1
  H  H30  1  0.776346  0.307975  0.280165  1
  H  H31  1  0.531629  0.223654  0.280165  1
  H  H32  1  0.223654  0.531629  0.280165  1
  H  H33  1  0.531629  0.223654  0.719835  1
  H  H34  1  0.692025  0.468371  0.719835  1
  H  H35  1  0.776346  0.307975  0.719835  1
