# generated using pymatgen
data_PdBr2
_symmetry_space_group_name_H-M   'P 1'
_cell_length_a   4.79578097
_cell_length_b   6.64543259
_cell_length_c   27.29482806
_cell_angle_alpha   88.96755890
_cell_angle_beta   90.00000000
_cell_angle_gamma   90.00000000
_symmetry_Int_Tables_number   1
_chemical_formula_structural   PdBr2
_chemical_formula_sum   'Pd8 Br16'
_cell_volume   869.74601609
_cell_formula_units_Z   8
loop_
 _symmetry_equiv_pos_site_id
 _symmetry_equiv_pos_as_xyz
  1  'x, y, z'
loop_
 _atom_site_type_symbol
 _atom_site_label
 _atom_site_symmetry_multiplicity
 _atom_site_fract_x
 _atom_site_fract_y
 _atom_site_fract_z
 _atom_site_occupancy
  Br  Br0  1  0.600176  0.379394  0.813677  1
  Br  Br1  1  0.100176  0.620606  0.686323  1
  Br  Br2  1  0.399824  0.620606  0.186323  1
  Br  Br3  1  0.899824  0.379394  0.313677  1
  Br  Br4  1  0.600176  0.879394  0.313677  1
  Br  Br5  1  0.100176  0.120606  0.186323  1
  Br  Br6  1  0.399824  0.120606  0.686323  1
  Br  Br7  1  0.899824  0.879394  0.813677  1
  Br  Br8  1  0.899824  0.870606  0.936323  1
  Br  Br9  1  0.399824  0.129394  0.563677  1
  Br  Br10  1  0.100176  0.129394  0.063677  1
  Br  Br11  1  0.600176  0.870606  0.436323  1
  Br  Br12  1  0.899824  0.370606  0.436323  1
  Br  Br13  1  0.399824  0.629394  0.063677  1
  Br  Br14  1  0.100176  0.629394  0.563677  1
  Br  Br15  1  0.600176  0.370606  0.936323  1
  Pd  Pd16  1  0.750000  0.125000  0.375000  1
  Pd  Pd17  1  0.250000  0.875000  0.125000  1
  Pd  Pd18  1  0.250000  0.875000  0.625000  1
  Pd  Pd19  1  0.750000  0.125000  0.875000  1
  Pd  Pd20  1  0.750000  0.625000  0.375000  1
  Pd  Pd21  1  0.250000  0.375000  0.125000  1
  Pd  Pd22  1  0.250000  0.375000  0.625000  1
  Pd  Pd23  1  0.750000  0.625000  0.875000  1
