# generated using pymatgen
data_BaCoBP2HO9
_symmetry_space_group_name_H-M   'P 1'
_cell_length_a   5.37706395
_cell_length_b   8.12680209
_cell_length_c   8.36860860
_cell_angle_alpha   88.55590532
_cell_angle_beta   79.39134005
_cell_angle_gamma   87.04546917
_symmetry_Int_Tables_number   1
_chemical_formula_structural   BaCoBP2HO9
_chemical_formula_sum   'Ba2 Co2 B2 P4 H2 O18'
_cell_volume   358.91986255
_cell_formula_units_Z   2
loop_
 _symmetry_equiv_pos_site_id
 _symmetry_equiv_pos_as_xyz
  1  'x, y, z'
loop_
 _atom_site_type_symbol
 _atom_site_label
 _atom_site_symmetry_multiplicity
 _atom_site_fract_x
 _atom_site_fract_y
 _atom_site_fract_z
 _atom_site_occupancy
  H  H0  1  0.729285  0.945801  0.453818  1
  H  H1  1  0.270715  0.054199  0.546182  1
  B  B2  1  0.887047  0.743852  0.547815  1
  B  B3  1  0.112953  0.256148  0.452185  1
  O  O4  1  0.958388  0.863278  0.660516  1
  O  O5  1  0.041612  0.136722  0.339484  1
  O  O6  1  0.753836  0.797215  0.945537  1
  O  O7  1  0.246164  0.202785  0.054463  1
  O  O8  1  0.271379  0.173297  0.557921  1
  O  O9  1  0.728621  0.826703  0.442079  1
  O  O10  1  0.446879  0.620085  0.194064  1
  O  O11  1  0.553121  0.379915  0.805936  1
  O  O12  1  0.018934  0.427918  0.795054  1
  O  O13  1  0.981066  0.572082  0.204946  1
  O  O14  1  0.131183  0.674260  0.458061  1
  O  O15  1  0.868817  0.325740  0.541939  1
  O  O16  1  0.266289  0.387400  0.359252  1
  O  O17  1  0.733711  0.612600  0.640748  1
  O  O18  1  0.089177  0.912605  0.137108  1
  O  O19  1  0.910823  0.087395  0.862892  1
  O  O20  1  0.489729  0.016631  0.222542  1
  O  O21  1  0.510271  0.983369  0.777458  1
  P  P22  1  0.774794  0.941086  0.817379  1
  P  P23  1  0.225206  0.058914  0.182621  1
  P  P24  1  0.800795  0.431412  0.698723  1
  P  P25  1  0.199205  0.568588  0.301277  1
  Co  Co26  1  0.726394  0.800278  0.197321  1
  Co  Co27  1  0.273606  0.199722  0.802679  1
  Ba  Ba28  1  0.277106  0.689911  0.884714  1
  Ba  Ba29  1  0.722894  0.310089  0.115286  1
