# generated using pymatgen
data_Tl5Se3
_symmetry_space_group_name_H-M   'P 1'
_cell_length_a   8.59451633
_cell_length_b   8.59451633
_cell_length_c   12.81879083
_cell_angle_alpha   90.00000000
_cell_angle_beta   90.00000000
_cell_angle_gamma   90.00000000
_symmetry_Int_Tables_number   1
_chemical_formula_structural   Tl5Se3
_chemical_formula_sum   'Tl20 Se12'
_cell_volume   946.86909813
_cell_formula_units_Z   4
loop_
 _symmetry_equiv_pos_site_id
 _symmetry_equiv_pos_as_xyz
  1  'x, y, z'
loop_
 _atom_site_type_symbol
 _atom_site_label
 _atom_site_symmetry_multiplicity
 _atom_site_fract_x
 _atom_site_fract_y
 _atom_site_fract_z
 _atom_site_occupancy
  Se  Se0  1  0.250000  0.250000  0.502677  1
  Se  Se1  1  0.750000  0.750000  0.997323  1
  Se  Se2  1  0.750000  0.750000  0.497323  1
  Se  Se3  1  0.250000  0.250000  0.002677  1
  Se  Se4  1  0.091919  0.591919  0.750000  1
  Se  Se5  1  0.908081  0.091919  0.750000  1
  Se  Se6  1  0.591919  0.408081  0.750000  1
  Se  Se7  1  0.408081  0.908081  0.750000  1
  Se  Se8  1  0.908081  0.408081  0.250000  1
  Se  Se9  1  0.091919  0.908081  0.250000  1
  Se  Se10  1  0.408081  0.591919  0.250000  1
  Se  Se11  1  0.591919  0.091919  0.250000  1
  Tl  Tl12  1  0.396853  0.594959  0.597793  1
  Tl  Tl13  1  0.896853  0.405041  0.902207  1
  Tl  Tl14  1  0.594959  0.103147  0.597793  1
  Tl  Tl15  1  0.905041  0.396853  0.597793  1
  Tl  Tl16  1  0.250000  0.250000  0.255716  1
  Tl  Tl17  1  0.750000  0.750000  0.244284  1
  Tl  Tl18  1  0.750000  0.750000  0.744284  1
  Tl  Tl19  1  0.250000  0.250000  0.755716  1
  Tl  Tl20  1  0.103147  0.905041  0.597793  1
  Tl  Tl21  1  0.094960  0.896853  0.902207  1
  Tl  Tl22  1  0.405041  0.603147  0.902207  1
  Tl  Tl23  1  0.603147  0.094960  0.902207  1
  Tl  Tl24  1  0.094960  0.603147  0.402207  1
  Tl  Tl25  1  0.405041  0.896853  0.402207  1
  Tl  Tl26  1  0.103147  0.594959  0.097793  1
  Tl  Tl27  1  0.603147  0.405041  0.402207  1
  Tl  Tl28  1  0.896853  0.094960  0.402207  1
  Tl  Tl29  1  0.905041  0.103147  0.097793  1
  Tl  Tl30  1  0.594959  0.396853  0.097793  1
  Tl  Tl31  1  0.396853  0.905041  0.097793  1
