# generated using pymatgen
data_Sn5BF13
_symmetry_space_group_name_H-M   'P 1'
_cell_length_a   7.77187216
_cell_length_b   13.97232903
_cell_length_c   14.45969020
_cell_angle_alpha   118.53908364
_cell_angle_beta   90.00000000
_cell_angle_gamma   90.00000000
_symmetry_Int_Tables_number   1
_chemical_formula_structural   Sn5BF13
_chemical_formula_sum   'Sn20 B4 F52'
_cell_volume   1379.40236012
_cell_formula_units_Z   4
loop_
 _symmetry_equiv_pos_site_id
 _symmetry_equiv_pos_as_xyz
  1  'x, y, z'
loop_
 _atom_site_type_symbol
 _atom_site_label
 _atom_site_symmetry_multiplicity
 _atom_site_fract_x
 _atom_site_fract_y
 _atom_site_fract_z
 _atom_site_occupancy
  B  B0  1  0.312599  0.298184  0.360918  1
  B  B1  1  0.812599  0.201816  0.139082  1
  B  B2  1  0.687401  0.701816  0.639082  1
  B  B3  1  0.187401  0.798184  0.860918  1
  F  F4  1  0.491183  0.937609  0.134813  1
  F  F5  1  0.991183  0.562391  0.365187  1
  F  F6  1  0.508817  0.062391  0.865187  1
  F  F7  1  0.008817  0.437609  0.634813  1
  F  F8  1  0.304562  0.018293  0.318298  1
  F  F9  1  0.804562  0.481707  0.181702  1
  F  F10  1  0.695438  0.981707  0.681702  1
  F  F11  1  0.195438  0.518293  0.818298  1
  F  F12  1  0.132732  0.812304  0.174746  1
  F  F13  1  0.632732  0.687696  0.325254  1
  F  F14  1  0.867268  0.187696  0.825254  1
  F  F15  1  0.367268  0.312304  0.674746  1
  F  F16  1  0.509049  0.117564  0.492687  1
  F  F17  1  0.009049  0.382436  0.007313  1
  F  F18  1  0.490951  0.882436  0.507313  1
  F  F19  1  0.990951  0.617564  0.992687  1
  F  F20  1  0.133107  0.937720  0.454132  1
  F  F21  1  0.633107  0.562280  0.045868  1
  F  F22  1  0.866893  0.062280  0.545868  1
  F  F23  1  0.366893  0.437720  0.954132  1
  F  F24  1  0.092898  0.606431  0.180666  1
  F  F25  1  0.592898  0.893569  0.319334  1
  F  F26  1  0.907102  0.393569  0.819334  1
  F  F27  1  0.407102  0.106431  0.680666  1
  F  F28  1  0.468570  0.475463  0.174357  1
  F  F29  1  0.968570  0.024537  0.325643  1
  F  F30  1  0.531430  0.524537  0.825643  1
  F  F31  1  0.031430  0.975463  0.674357  1
  F  F32  1  0.356873  0.276217  0.012136  1
  F  F33  1  0.856873  0.223783  0.487864  1
  F  F34  1  0.643127  0.723783  0.987864  1
  F  F35  1  0.143127  0.776217  0.512136  1
  F  F36  1  0.345170  0.610970  0.376007  1
  F  F37  1  0.845170  0.889030  0.123993  1
  F  F38  1  0.654830  0.389030  0.623993  1
  F  F39  1  0.154830  0.110970  0.876007  1
  F  F40  1  0.457830  0.309636  0.425371  1
  F  F41  1  0.957830  0.190364  0.074629  1
  F  F42  1  0.542170  0.690364  0.574629  1
  F  F43  1  0.042170  0.809636  0.925371  1
  F  F44  1  0.161552  0.288968  0.412728  1
  F  F45  1  0.661552  0.211032  0.087272  1
  F  F46  1  0.838448  0.711032  0.587272  1
  F  F47  1  0.338448  0.788968  0.912728  1
  F  F48  1  0.297973  0.392359  0.347715  1
  F  F49  1  0.797973  0.107641  0.152285  1
  F  F50  1  0.702027  0.607641  0.652285  1
  F  F51  1  0.202027  0.892359  0.847715  1
  F  F52  1  0.330923  0.203971  0.262710  1
  F  F53  1  0.830923  0.296029  0.237290  1
  F  F54  1  0.669077  0.796029  0.737290  1
  F  F55  1  0.169077  0.703971  0.762710  1
  Sn  Sn56  1  0.398234  0.795583  0.352308  1
  Sn  Sn57  1  0.898234  0.704417  0.147692  1
  Sn  Sn58  1  0.601766  0.204417  0.647692  1
  Sn  Sn59  1  0.101766  0.295583  0.852308  1
  Sn  Sn60  1  0.092221  0.111241  0.480406  1
  Sn  Sn61  1  0.592221  0.388759  0.019594  1
  Sn  Sn62  1  0.907779  0.888759  0.519594  1
  Sn  Sn63  1  0.407779  0.611241  0.980406  1
  Sn  Sn64  1  0.081316  0.452394  0.183456  1
  Sn  Sn65  1  0.581316  0.047606  0.316544  1
  Sn  Sn66  1  0.918684  0.547606  0.816544  1
  Sn  Sn67  1  0.418684  0.952394  0.683456  1
  Sn  Sn68  1  0.334271  0.117940  0.993801  1
  Sn  Sn69  1  0.834271  0.382060  0.506199  1
  Sn  Sn70  1  0.665729  0.882060  0.006199  1
  Sn  Sn71  1  0.165729  0.617940  0.493801  1
  Sn  Sn72  1  0.116931  0.967747  0.178109  1
  Sn  Sn73  1  0.616931  0.532253  0.321891  1
  Sn  Sn74  1  0.883069  0.032253  0.821891  1
  Sn  Sn75  1  0.383069  0.467747  0.678109  1
