# generated using pymatgen
data_H4NClO
_symmetry_space_group_name_H-M   'P 1'
_cell_length_a   6.08395334
_cell_length_b   6.99918824
_cell_length_c   7.24389086
_cell_angle_alpha   113.82187993
_cell_angle_beta   90.00000000
_cell_angle_gamma   90.00000000
_symmetry_Int_Tables_number   1
_chemical_formula_structural   H4NClO
_chemical_formula_sum   'H16 N4 Cl4 O4'
_cell_volume   282.18518711
_cell_formula_units_Z   4
loop_
 _symmetry_equiv_pos_site_id
 _symmetry_equiv_pos_as_xyz
  1  'x, y, z'
loop_
 _atom_site_type_symbol
 _atom_site_label
 _atom_site_symmetry_multiplicity
 _atom_site_fract_x
 _atom_site_fract_y
 _atom_site_fract_z
 _atom_site_occupancy
  H  H0  1  0.516129  0.054295  0.312707  1
  H  H1  1  0.016129  0.445705  0.187293  1
  H  H2  1  0.483871  0.945705  0.687293  1
  H  H3  1  0.983871  0.554295  0.812707  1
  H  H4  1  0.843793  0.899032  0.274358  1
  H  H5  1  0.343793  0.600968  0.225642  1
  H  H6  1  0.156207  0.100968  0.725642  1
  H  H7  1  0.656207  0.399032  0.774358  1
  H  H8  1  0.963945  0.140132  0.356831  1
  H  H9  1  0.463945  0.359868  0.143169  1
  H  H10  1  0.036055  0.859868  0.643169  1
  H  H11  1  0.536055  0.640132  0.856831  1
  H  H12  1  0.680318  0.547487  0.632482  1
  H  H13  1  0.180318  0.952513  0.867518  1
  H  H14  1  0.319682  0.452513  0.367518  1
  H  H15  1  0.819682  0.047487  0.132482  1
  N  N16  1  0.169846  0.950433  0.722791  1
  N  N17  1  0.669846  0.549567  0.777209  1
  N  N18  1  0.330154  0.450433  0.222791  1
  N  N19  1  0.830154  0.049567  0.277209  1
  O  O20  1  0.640677  0.149165  0.388852  1
  O  O21  1  0.359323  0.850835  0.611148  1
  O  O22  1  0.140677  0.350835  0.111148  1
  O  O23  1  0.859323  0.649165  0.888852  1
  Cl  Cl24  1  0.680286  0.158082  0.898831  1
  Cl  Cl25  1  0.180286  0.341918  0.601169  1
  Cl  Cl26  1  0.319714  0.841918  0.101169  1
  Cl  Cl27  1  0.819714  0.658082  0.398831  1
