# generated using pymatgen
data_Sr(InS2)2
_symmetry_space_group_name_H-M   'P 1'
_cell_length_a   12.52278177
_cell_length_b   12.52278177
_cell_length_c   12.58713486
_cell_angle_alpha   106.02531890
_cell_angle_beta   106.02531888
_cell_angle_gamma   116.42580088
_symmetry_Int_Tables_number   1
_chemical_formula_structural   Sr(InS2)2
_chemical_formula_sum   'Sr8 In16 S32'
_cell_volume   1505.47395315
_cell_formula_units_Z   8
loop_
 _symmetry_equiv_pos_site_id
 _symmetry_equiv_pos_as_xyz
  1  'x, y, z'
loop_
 _atom_site_type_symbol
 _atom_site_label
 _atom_site_symmetry_multiplicity
 _atom_site_fract_x
 _atom_site_fract_y
 _atom_site_fract_z
 _atom_site_occupancy
  S  S0  1  0.184186  0.682076  0.827931  1
  S  S1  1  0.854145  0.856255  0.672069  1
  S  S2  1  0.317924  0.815814  0.672069  1
  S  S3  1  0.143745  0.145855  0.827931  1
  S  S4  1  0.815814  0.317924  0.172069  1
  S  S5  1  0.145855  0.143745  0.327931  1
  S  S6  1  0.682076  0.184186  0.327931  1
  S  S7  1  0.856255  0.854145  0.172069  1
  S  S8  1  0.836438  0.341067  0.688464  1
  S  S9  1  0.652603  0.647974  0.811536  1
  S  S10  1  0.658933  0.163562  0.811536  1
  S  S11  1  0.352026  0.347397  0.688464  1
  S  S12  1  0.163562  0.658933  0.311536  1
  S  S13  1  0.347397  0.352026  0.188464  1
  S  S14  1  0.341067  0.836438  0.188464  1
  S  S15  1  0.647974  0.652603  0.311536  1
  S  S16  1  0.411474  0.588097  0.998014  1
  S  S17  1  0.590084  0.913460  0.501986  1
  S  S18  1  0.411903  0.588526  0.501986  1
  S  S19  1  0.086540  0.409916  0.998014  1
  S  S20  1  0.588526  0.411903  0.001986  1
  S  S21  1  0.409916  0.086540  0.498014  1
  S  S22  1  0.588097  0.411474  0.498014  1
  S  S23  1  0.913460  0.590084  0.001986  1
  S  S24  1  0.410885  0.086383  0.001316  1
  S  S25  1  0.085067  0.909570  0.498684  1
  S  S26  1  0.913617  0.589115  0.498684  1
  S  S27  1  0.090430  0.914933  0.001316  1
  S  S28  1  0.589115  0.913617  0.998684  1
  S  S29  1  0.914933  0.090430  0.501316  1
  S  S30  1  0.086383  0.410885  0.501316  1
  S  S31  1  0.909570  0.085067  0.998684  1
  Sr  Sr32  1  0.125000  0.875000  0.750000  1
  Sr  Sr33  1  0.875000  0.125000  0.250000  1
  Sr  Sr34  1  0.625000  0.375000  0.750000  1
  Sr  Sr35  1  0.375000  0.625000  0.250000  1
  Sr  Sr36  1  0.871591  0.128409  0.750000  1
  Sr  Sr37  1  0.378409  0.621591  0.750000  1
  Sr  Sr38  1  0.128409  0.871591  0.250000  1
  Sr  Sr39  1  0.621591  0.378409  0.250000  1
  In  In40  1  0.462141  0.963355  0.607410  1
  In  In41  1  0.355945  0.354730  0.892590  1
  In  In42  1  0.036645  0.537859  0.892590  1
  In  In43  1  0.645270  0.644055  0.607410  1
  In  In44  1  0.537859  0.036645  0.392590  1
  In  In45  1  0.644055  0.645270  0.107410  1
  In  In46  1  0.963355  0.462141  0.107410  1
  In  In47  1  0.354730  0.355945  0.392590  1
  In  In48  1  0.139621  0.137190  0.525462  1
  In  In49  1  0.611728  0.114159  0.974538  1
  In  In50  1  0.862810  0.860379  0.974538  1
  In  In51  1  0.885841  0.388272  0.525462  1
  In  In52  1  0.860379  0.862810  0.474538  1
  In  In53  1  0.388272  0.885841  0.025462  1
  In  In54  1  0.137190  0.139621  0.025462  1
  In  In55  1  0.114159  0.611728  0.474538  1
