# generated using pymatgen
data_Re6P13
_symmetry_space_group_name_H-M   'P 1'
_cell_length_a   9.52365872
_cell_length_b   9.52365871
_cell_length_c   9.52365871
_cell_angle_alpha   111.74815798
_cell_angle_beta   111.74815798
_cell_angle_gamma   111.74815800
_symmetry_Int_Tables_number   1
_chemical_formula_structural   Re6P13
_chemical_formula_sum   'Re12 P26'
_cell_volume   602.42486084
_cell_formula_units_Z   2
loop_
 _symmetry_equiv_pos_site_id
 _symmetry_equiv_pos_as_xyz
  1  'x, y, z'
loop_
 _atom_site_type_symbol
 _atom_site_label
 _atom_site_symmetry_multiplicity
 _atom_site_fract_x
 _atom_site_fract_y
 _atom_site_fract_z
 _atom_site_occupancy
  P  P0  1  0.368704  0.368704  0.368704  1
  P  P1  1  0.631296  0.631296  0.631296  1
  P  P2  1  0.003168  0.963821  0.196306  1
  P  P3  1  0.196306  0.003168  0.963821  1
  P  P4  1  0.963821  0.196306  0.003168  1
  P  P5  1  0.996832  0.036179  0.803694  1
  P  P6  1  0.803694  0.996832  0.036179  1
  P  P7  1  0.036179  0.803694  0.996832  1
  P  P8  1  0.008105  0.379573  0.795210  1
  P  P9  1  0.795210  0.008105  0.379573  1
  P  P10  1  0.379573  0.795210  0.008105  1
  P  P11  1  0.991895  0.620427  0.204790  1
  P  P12  1  0.204790  0.991895  0.620427  1
  P  P13  1  0.620427  0.204790  0.991895  1
  P  P14  1  0.226228  0.403247  0.612394  1
  P  P15  1  0.612394  0.226228  0.403247  1
  P  P16  1  0.403247  0.612394  0.226228  1
  P  P17  1  0.773772  0.596753  0.387605  1
  P  P18  1  0.387605  0.773772  0.596753  1
  P  P19  1  0.596753  0.387605  0.773772  1
  P  P20  1  0.611504  0.603568  1.000032  1
  P  P21  1  1.000032  0.611504  0.603568  1
  P  P22  1  0.603568  1.000032  0.611504  1
  P  P23  1  0.388496  0.396432  -0.000032  1
  P  P24  1  -0.000032  0.388496  0.396432  1
  P  P25  1  0.396432  -0.000032  0.388496  1
  Re  Re26  1  0.910318  0.820801  0.330766  1
  Re  Re27  1  0.330766  0.910318  0.820801  1
  Re  Re28  1  0.820801  0.330766  0.910318  1
  Re  Re29  1  0.089682  0.179199  0.669234  1
  Re  Re30  1  0.669234  0.089682  0.179199  1
  Re  Re31  1  0.179199  0.669234  0.089682  1
  Re  Re32  1  0.730406  0.834437  0.502539  1
  Re  Re33  1  0.502539  0.730406  0.834437  1
  Re  Re34  1  0.834437  0.502539  0.730406  1
  Re  Re35  1  0.269594  0.165563  0.497461  1
  Re  Re36  1  0.497461  0.269594  0.165563  1
  Re  Re37  1  0.165563  0.497461  0.269594  1
