# generated using pymatgen
data_CuSe3Br
_symmetry_space_group_name_H-M   'P 1'
_cell_length_a   4.94085052
_cell_length_b   7.61121410
_cell_length_c   14.47165791
_cell_angle_alpha   90.00000000
_cell_angle_beta   90.00000000
_cell_angle_gamma   90.00000000
_symmetry_Int_Tables_number   1
_chemical_formula_structural   CuSe3Br
_chemical_formula_sum   'Cu4 Se12 Br4'
_cell_volume   544.21930260
_cell_formula_units_Z   4
loop_
 _symmetry_equiv_pos_site_id
 _symmetry_equiv_pos_as_xyz
  1  'x, y, z'
loop_
 _atom_site_type_symbol
 _atom_site_label
 _atom_site_symmetry_multiplicity
 _atom_site_fract_x
 _atom_site_fract_y
 _atom_site_fract_z
 _atom_site_occupancy
  Cu  Cu0  1  0.204097  0.750000  0.250000  1
  Cu  Cu1  1  0.795903  0.250000  0.750000  1
  Cu  Cu2  1  0.204097  0.750000  0.750000  1
  Cu  Cu3  1  0.795903  0.250000  0.250000  1
  Se  Se4  1  0.081475  0.347041  0.373160  1
  Se  Se5  1  0.081475  0.152959  0.126840  1
  Se  Se6  1  0.171561  0.767681  0.500000  1
  Se  Se7  1  0.081475  0.347041  0.626840  1
  Se  Se8  1  0.918525  0.652959  0.373160  1
  Se  Se9  1  0.828439  0.232319  0.500000  1
  Se  Se10  1  0.918525  0.652959  0.626840  1
  Se  Se11  1  0.081475  0.152959  0.873160  1
  Se  Se12  1  0.171561  0.732319  0.000000  1
  Se  Se13  1  0.918525  0.847041  0.126840  1
  Se  Se14  1  0.828439  0.267681  0.000000  1
  Se  Se15  1  0.918525  0.847041  0.873160  1
  Br  Br16  1  0.500000  0.500000  0.190599  1
  Br  Br17  1  0.500000  0.000000  0.309401  1
  Br  Br18  1  0.500000  0.000000  0.690599  1
  Br  Br19  1  0.500000  0.500000  0.809401  1
