# generated using pymatgen
data_CeZrF7
_symmetry_space_group_name_H-M   'P 1'
_cell_length_a   5.92210750
_cell_length_b   6.35347910
_cell_length_c   8.57900888
_cell_angle_alpha   102.30233509
_cell_angle_beta   90.00000000
_cell_angle_gamma   90.00000000
_symmetry_Int_Tables_number   1
_chemical_formula_structural   CeZrF7
_chemical_formula_sum   'Ce2 Zr2 F14'
_cell_volume   315.38132396
_cell_formula_units_Z   2
loop_
 _symmetry_equiv_pos_site_id
 _symmetry_equiv_pos_as_xyz
  1  'x, y, z'
loop_
 _atom_site_type_symbol
 _atom_site_label
 _atom_site_symmetry_multiplicity
 _atom_site_fract_x
 _atom_site_fract_y
 _atom_site_fract_z
 _atom_site_occupancy
  F  F0  1  0.424055  0.946427  0.974562  1
  F  F1  1  0.924055  0.053573  0.025438  1
  F  F2  1  0.473262  0.560295  0.729499  1
  F  F3  1  0.973262  0.439705  0.270501  1
  F  F4  1  0.745593  0.743092  0.519416  1
  F  F5  1  0.245593  0.256908  0.480584  1
  F  F6  1  0.999849  0.536840  0.740911  1
  F  F7  1  0.499849  0.463160  0.259089  1
  F  F8  1  0.532346  0.119277  0.716161  1
  F  F9  1  0.032346  0.880723  0.283839  1
  F  F10  1  0.537738  0.943278  0.286928  1
  F  F11  1  0.037738  0.056722  0.713072  1
  F  F12  1  0.753879  0.642835  0.033921  1
  F  F13  1  0.253879  0.357165  0.966079  1
  Zr  Zr14  1  0.251766  0.310668  0.722990  1
  Zr  Zr15  1  0.751766  0.689332  0.277010  1
  Ce  Ce16  1  0.241312  0.157795  0.186111  1
  Ce  Ce17  1  0.741312  0.842205  0.813889  1
