# generated using pymatgen
data_GaP3(HO5)2
_symmetry_space_group_name_H-M   'P 1'
_cell_length_a   7.44596293
_cell_length_b   8.81575304
_cell_length_c   11.82968195
_cell_angle_alpha   90.00000000
_cell_angle_beta   102.70264928
_cell_angle_gamma   90.00000000
_symmetry_Int_Tables_number   1
_chemical_formula_structural   GaP3(HO5)2
_chemical_formula_sum   'Ga4 P12 H8 O40'
_cell_volume   757.51542455
_cell_formula_units_Z   4
loop_
 _symmetry_equiv_pos_site_id
 _symmetry_equiv_pos_as_xyz
  1  'x, y, z'
loop_
 _atom_site_type_symbol
 _atom_site_label
 _atom_site_symmetry_multiplicity
 _atom_site_fract_x
 _atom_site_fract_y
 _atom_site_fract_z
 _atom_site_occupancy
  H  H0  1  0.145880  0.679423  0.885953  1
  H  H1  1  0.354120  0.179423  0.614047  1
  H  H2  1  0.854120  0.320577  0.114047  1
  H  H3  1  0.645880  0.820577  0.385953  1
  H  H4  1  0.717345  0.141931  0.445628  1
  H  H5  1  0.782655  0.641931  0.054372  1
  H  H6  1  0.282654  0.858069  0.554372  1
  H  H7  1  0.217345  0.358069  0.945628  1
  O  O8  1  0.137995  0.743623  0.953764  1
  O  O9  1  0.362005  0.243623  0.546236  1
  O  O10  1  0.862005  0.256377  0.046236  1
  O  O11  1  0.637995  0.756377  0.453764  1
  O  O12  1  0.690203  0.083906  0.896836  1
  O  O13  1  0.809797  0.583906  0.603164  1
  O  O14  1  0.309797  0.916094  0.103164  1
  O  O15  1  0.190203  0.416094  0.396836  1
  O  O16  1  0.177911  0.578727  0.753393  1
  O  O17  1  0.322089  0.078727  0.746607  1
  O  O18  1  0.822089  0.421273  0.246607  1
  O  O19  1  0.677911  0.921273  0.253393  1
  O  O20  1  0.617688  0.221274  0.315403  1
  O  O21  1  0.882312  0.721274  0.184597  1
  O  O22  1  0.382312  0.778726  0.684597  1
  O  O23  1  0.117688  0.278726  0.815403  1
  O  O24  1  0.437190  0.855827  0.921687  1
  O  O25  1  0.062810  0.355827  0.578313  1
  O  O26  1  0.562810  0.144173  0.078313  1
  O  O27  1  0.937190  0.644173  0.421687  1
  O  O28  1  0.732198  0.775870  0.828984  1
  O  O29  1  0.767802  0.275870  0.671016  1
  O  O30  1  0.267802  0.224130  0.171016  1
  O  O31  1  0.232198  0.724130  0.328984  1
  O  O32  1  0.629584  0.010105  0.664023  1
  O  O33  1  0.870416  0.510105  0.835977  1
  O  O34  1  0.370416  0.989895  0.335977  1
  O  O35  1  0.129584  0.489895  0.164023  1
  O  O36  1  0.157000  0.025882  0.910710  1
  O  O37  1  0.343000  0.525882  0.589290  1
  O  O38  1  0.843000  0.974118  0.089290  1
  O  O39  1  0.657000  0.474118  0.410710  1
  O  O40  1  0.797492  0.084116  0.510239  1
  O  O41  1  0.702508  0.584116  0.989761  1
  O  O42  1  0.202508  0.915884  0.489761  1
  O  O43  1  0.297492  0.415884  0.010239  1
  O  O44  1  0.977035  0.041375  0.706093  1
  O  O45  1  0.522965  0.541375  0.793907  1
  O  O46  1  0.022965  0.958625  0.293907  1
  O  O47  1  0.477035  0.458625  0.206093  1
  P  P48  1  0.272969  0.881352  0.975497  1
  P  P49  1  0.227031  0.381352  0.524503  1
  P  P50  1  0.727032  0.118648  0.024503  1
  P  P51  1  0.772968  0.618648  0.475497  1
  P  P52  1  0.150975  0.112726  0.792217  1
  P  P53  1  0.349025  0.612726  0.707783  1
  P  P54  1  0.849025  0.887274  0.207783  1
  P  P55  1  0.650975  0.387274  0.292217  1
  P  P56  1  0.779830  0.110806  0.637584  1
  P  P57  1  0.720170  0.610806  0.862416  1
  P  P58  1  0.220170  0.889194  0.362416  1
  P  P59  1  0.279830  0.389194  0.137584  1
  Ga  Ga60  1  0.544085  0.933471  0.794541  1
  Ga  Ga61  1  0.955915  0.433471  0.705459  1
  Ga  Ga62  1  0.455915  0.066529  0.205459  1
  Ga  Ga63  1  0.044085  0.566529  0.294541  1
