# generated using pymatgen
data_Tb2InPd2
_symmetry_space_group_name_H-M   'P 1'
_cell_length_a   3.75127026
_cell_length_b   7.75748533
_cell_length_c   7.75748533
_cell_angle_alpha   90.00000000
_cell_angle_beta   90.00000000
_cell_angle_gamma   90.00000000
_symmetry_Int_Tables_number   1
_chemical_formula_structural   Tb2InPd2
_chemical_formula_sum   'Tb4 In2 Pd4'
_cell_volume   225.74611236
_cell_formula_units_Z   2
loop_
 _symmetry_equiv_pos_site_id
 _symmetry_equiv_pos_as_xyz
  1  'x, y, z'
loop_
 _atom_site_type_symbol
 _atom_site_label
 _atom_site_symmetry_multiplicity
 _atom_site_fract_x
 _atom_site_fract_y
 _atom_site_fract_z
 _atom_site_occupancy
  Pd  Pd0  1  0.000000  0.127692  0.372308  1
  Pd  Pd1  1  0.000000  0.372308  0.872308  1
  Pd  Pd2  1  0.000000  0.627692  0.127692  1
  Pd  Pd3  1  0.000000  0.872308  0.627692  1
  In  In4  1  0.000000  0.000000  0.000000  1
  In  In5  1  0.000000  0.500000  0.500000  1
  Tb  Tb6  1  0.500000  0.826067  0.326067  1
  Tb  Tb7  1  0.500000  0.673933  0.826067  1
  Tb  Tb8  1  0.500000  0.326067  0.173933  1
  Tb  Tb9  1  0.500000  0.173933  0.673933  1
