# generated using pymatgen
data_P4(SeO2)3
_symmetry_space_group_name_H-M   'P 1'
_cell_length_a   8.89458369
_cell_length_b   10.26143304
_cell_length_c   13.29265540
_cell_angle_alpha   90.37393950
_cell_angle_beta   90.00000000
_cell_angle_gamma   90.00000000
_symmetry_Int_Tables_number   1
_chemical_formula_structural   P4(SeO2)3
_chemical_formula_sum   'P16 Se12 O24'
_cell_volume   1213.21043738
_cell_formula_units_Z   4
loop_
 _symmetry_equiv_pos_site_id
 _symmetry_equiv_pos_as_xyz
  1  'x, y, z'
loop_
 _atom_site_type_symbol
 _atom_site_label
 _atom_site_symmetry_multiplicity
 _atom_site_fract_x
 _atom_site_fract_y
 _atom_site_fract_z
 _atom_site_occupancy
  O  O0  1  0.137194  0.978324  0.196934  1
  O  O1  1  0.637194  0.521676  0.803066  1
  O  O2  1  0.862806  0.021676  0.803066  1
  O  O3  1  0.362806  0.478324  0.196934  1
  O  O4  1  0.879119  0.916134  0.266723  1
  O  O5  1  0.379119  0.583866  0.733277  1
  O  O6  1  0.120881  0.083866  0.733277  1
  O  O7  1  0.620881  0.416134  0.266723  1
  O  O8  1  0.076307  0.021207  0.382290  1
  O  O9  1  0.576307  0.478793  0.617710  1
  O  O10  1  0.923693  0.978793  0.617710  1
  O  O11  1  0.423693  0.521207  0.382290  1
  O  O12  1  0.155436  0.852731  0.669743  1
  O  O13  1  0.655436  0.647269  0.330257  1
  O  O14  1  0.100682  0.209055  0.260618  1
  O  O15  1  0.600682  0.290946  0.739382  1
  O  O16  1  0.899318  0.790945  0.739382  1
  O  O17  1  0.399318  0.709055  0.260618  1
  O  O18  1  0.905100  0.105660  0.146294  1
  O  O19  1  0.344564  0.352731  0.669743  1
  O  O20  1  0.405100  0.394340  0.853706  1
  O  O21  1  0.094900  0.894340  0.853706  1
  O  O22  1  0.594900  0.605660  0.146294  1
  O  O23  1  0.844564  0.147269  0.330257  1
  P  P24  1  0.438023  0.400683  0.296140  1
  P  P25  1  0.938023  0.099317  0.703860  1
  P  P26  1  0.561977  0.599317  0.703860  1
  P  P27  1  0.061977  0.900683  0.296140  1
  P  P28  1  0.519074  0.330124  0.633215  1
  P  P29  1  0.980926  0.830124  0.633215  1
  P  P30  1  0.480926  0.669876  0.366785  1
  P  P31  1  0.588405  0.378663  0.843325  1
  P  P32  1  0.911595  0.878663  0.843325  1
  P  P33  1  0.411595  0.621337  0.156675  1
  P  P34  1  0.796129  0.051070  0.236380  1
  P  P35  1  0.296129  0.448930  0.763620  1
  P  P36  1  0.203871  0.948930  0.763620  1
  P  P37  1  0.703871  0.551070  0.236380  1
  P  P38  1  0.088405  0.121337  0.156675  1
  P  P39  1  0.019074  0.169877  0.366785  1
  Se  Se40  1  0.698577  0.305832  0.964571  1
  Se  Se41  1  0.198577  0.194168  0.035429  1
  Se  Se42  1  0.301423  0.694168  0.035429  1
  Se  Se43  1  0.801423  0.805832  0.964571  1
  Se  Se44  1  0.050664  0.298265  0.482789  1
  Se  Se45  1  0.550664  0.201735  0.517212  1
  Se  Se46  1  0.949336  0.701735  0.517212  1
  Se  Se47  1  0.449336  0.798265  0.482789  1
  Se  Se48  1  0.572809  0.041953  0.202846  1
  Se  Se49  1  0.072809  0.458047  0.797154  1
  Se  Se50  1  0.427191  0.958047  0.797154  1
  Se  Se51  1  0.927191  0.541953  0.202846  1
