# generated using pymatgen
data_CaCrH2O5
_symmetry_space_group_name_H-M   'P 1'
_cell_length_a   8.03782926
_cell_length_b   8.28130497
_cell_length_c   12.82124175
_cell_angle_alpha   90.00000000
_cell_angle_beta   90.00000000
_cell_angle_gamma   90.00000000
_symmetry_Int_Tables_number   1
_chemical_formula_structural   CaCrH2O5
_chemical_formula_sum   'Ca8 Cr8 H16 O40'
_cell_volume   853.42948691
_cell_formula_units_Z   8
loop_
 _symmetry_equiv_pos_site_id
 _symmetry_equiv_pos_as_xyz
  1  'x, y, z'
loop_
 _atom_site_type_symbol
 _atom_site_label
 _atom_site_symmetry_multiplicity
 _atom_site_fract_x
 _atom_site_fract_y
 _atom_site_fract_z
 _atom_site_occupancy
  H  H0  1  0.567438  0.339476  0.034771  1
  H  H1  1  0.067438  0.160525  0.965228  1
  H  H2  1  0.432562  0.839475  0.465228  1
  H  H3  1  0.932562  0.660524  0.534771  1
  H  H4  1  0.432562  0.660524  0.965228  1
  H  H5  1  0.932562  0.839475  0.034771  1
  H  H6  1  0.567438  0.160525  0.534771  1
  H  H7  1  0.067438  0.339476  0.465228  1
  H  H8  1  0.479363  0.336085  0.144405  1
  H  H9  1  0.979363  0.163915  0.855595  1
  H  H10  1  0.520637  0.836085  0.355595  1
  H  H11  1  0.020637  0.663915  0.644405  1
  H  H12  1  0.520637  0.663915  0.855595  1
  H  H13  1  0.020637  0.836085  0.144405  1
  H  H14  1  0.479363  0.163915  0.644405  1
  H  H15  1  0.979363  0.336085  0.355595  1
  O  O16  1  0.494422  0.777026  0.599638  1
  O  O17  1  0.707303  0.054515  0.987230  1
  O  O18  1  0.792697  0.945485  0.487231  1
  O  O19  1  0.292697  0.554515  0.512769  1
  O  O20  1  0.792697  0.554515  0.987230  1
  O  O21  1  0.292697  0.945485  0.012769  1
  O  O22  1  0.207304  0.054515  0.512769  1
  O  O23  1  0.707303  0.445486  0.487231  1
  O  O24  1  0.005578  0.222974  0.099637  1
  O  O25  1  0.505579  0.277027  0.900362  1
  O  O26  1  0.994422  0.722973  0.400363  1
  O  O27  1  0.207304  0.445486  0.012769  1
  O  O28  1  0.994422  0.777026  0.900362  1
  O  O29  1  0.494422  0.722973  0.099637  1
  O  O30  1  0.005578  0.277027  0.599638  1
  O  O31  1  0.505579  0.222974  0.400363  1
  O  O32  1  0.283839  0.326304  0.204235  1
  O  O33  1  0.783838  0.173696  0.795765  1
  O  O34  1  0.716161  0.826304  0.295765  1
  O  O35  1  0.216161  0.673696  0.704235  1
  O  O36  1  0.716161  0.673696  0.795765  1
  O  O37  1  0.216161  0.826304  0.204235  1
  O  O38  1  0.283839  0.173696  0.704235  1
  O  O39  1  0.783838  0.326304  0.295765  1
  O  O40  1  0.025857  0.527076  0.185731  1
  O  O41  1  0.525857  0.972924  0.814269  1
  O  O42  1  0.974143  0.027077  0.314270  1
  O  O43  1  0.474144  0.472924  0.685731  1
  O  O44  1  0.974143  0.472924  0.814269  1
  O  O45  1  0.474144  0.027077  0.185731  1
  O  O46  1  0.025857  0.972924  0.685731  1
  O  O47  1  0.525857  0.527076  0.314270  1
  O  O48  1  0.090686  0.347054  0.389483  1
  O  O49  1  0.590685  0.152946  0.610517  1
  O  O50  1  0.909314  0.847054  0.110517  1
  O  O51  1  0.409314  0.652946  0.889482  1
  O  O52  1  0.909314  0.652946  0.610517  1
  O  O53  1  0.409314  0.847054  0.389483  1
  O  O54  1  0.590685  0.347054  0.110517  1
  O  O55  1  0.090686  0.152946  0.889482  1
  Ca  Ca56  1  0.264987  0.097185  0.330736  1
  Ca  Ca57  1  0.764986  0.402814  0.669263  1
  Ca  Ca58  1  0.735013  0.597186  0.169263  1
  Ca  Ca59  1  0.235013  0.902814  0.830736  1
  Ca  Ca60  1  0.735013  0.902814  0.669263  1
  Ca  Ca61  1  0.235013  0.597186  0.330736  1
  Ca  Ca62  1  0.264987  0.402814  0.830736  1
  Ca  Ca63  1  0.764986  0.097185  0.169263  1
  Cr  Cr64  1  0.128811  0.380360  0.123246  1
  Cr  Cr65  1  0.628811  0.119640  0.876754  1
  Cr  Cr66  1  0.871188  0.880360  0.376754  1
  Cr  Cr67  1  0.371188  0.619639  0.623246  1
  Cr  Cr68  1  0.871188  0.619639  0.876754  1
  Cr  Cr69  1  0.371188  0.880360  0.123246  1
  Cr  Cr70  1  0.128811  0.119640  0.623246  1
  Cr  Cr71  1  0.628811  0.380360  0.376754  1
