# generated using pymatgen
data_Ba2GdCl7
_symmetry_space_group_name_H-M   'P 1'
_cell_length_a   6.95889814
_cell_length_b   10.69881846
_cell_length_c   15.76147239
_cell_angle_alpha   90.00000000
_cell_angle_beta   90.00000000
_cell_angle_gamma   90.76492135
_symmetry_Int_Tables_number   1
_chemical_formula_structural   Ba2GdCl7
_chemical_formula_sum   'Ba8 Gd4 Cl28'
_cell_volume   1173.36837793
_cell_formula_units_Z   4
loop_
 _symmetry_equiv_pos_site_id
 _symmetry_equiv_pos_as_xyz
  1  'x, y, z'
loop_
 _atom_site_type_symbol
 _atom_site_label
 _atom_site_symmetry_multiplicity
 _atom_site_fract_x
 _atom_site_fract_y
 _atom_site_fract_z
 _atom_site_occupancy
  Cl  Cl0  1  0.709582  0.530705  0.140902  1
  Cl  Cl1  1  0.290418  0.969295  0.640902  1
  Cl  Cl2  1  0.290418  0.469295  0.859098  1
  Cl  Cl3  1  0.709582  0.030705  0.359098  1
  Cl  Cl4  1  0.131216  0.376076  0.071087  1
  Cl  Cl5  1  0.868784  0.123924  0.571087  1
  Cl  Cl6  1  0.868784  0.623924  0.928913  1
  Cl  Cl7  1  0.131216  0.876076  0.428913  1
  Cl  Cl8  1  0.699317  0.290124  0.959520  1
  Cl  Cl9  1  0.300683  0.209876  0.459520  1
  Cl  Cl10  1  0.300683  0.709876  0.040480  1
  Cl  Cl11  1  0.699317  0.790124  0.540480  1
  Cl  Cl12  1  0.000775  0.571056  0.396067  1
  Cl  Cl13  1  0.999225  0.928944  0.896067  1
  Cl  Cl14  1  0.999225  0.428944  0.603933  1
  Cl  Cl15  1  0.000775  0.071056  0.103933  1
  Cl  Cl16  1  0.510523  0.803007  0.241941  1
  Cl  Cl17  1  0.489477  0.696993  0.741941  1
  Cl  Cl18  1  0.489477  0.196993  0.758059  1
  Cl  Cl19  1  0.510523  0.303007  0.258059  1
  Cl  Cl20  1  0.000963  0.795165  0.226079  1
  Cl  Cl21  1  0.999037  0.704835  0.726079  1
  Cl  Cl22  1  0.999037  0.204835  0.773921  1
  Cl  Cl23  1  0.000963  0.295165  0.273921  1
  Cl  Cl24  1  0.512484  0.584987  0.395220  1
  Cl  Cl25  1  0.487516  0.915013  0.895220  1
  Cl  Cl26  1  0.487516  0.415013  0.604780  1
  Cl  Cl27  1  0.512484  0.084987  0.104780  1
  Ba  Ba28  1  0.732532  0.824412  0.060728  1
  Ba  Ba29  1  0.267468  0.675588  0.560728  1
  Ba  Ba30  1  0.267468  0.175588  0.939272  1
  Ba  Ba31  1  0.732532  0.324412  0.439272  1
  Ba  Ba32  1  0.267768  0.049914  0.279367  1
  Ba  Ba33  1  0.732232  0.450086  0.779367  1
  Ba  Ba34  1  0.732232  0.950086  0.720633  1
  Ba  Ba35  1  0.267768  0.549914  0.220633  1
  Gd  Gd36  1  0.783244  0.283003  0.127271  1
  Gd  Gd37  1  0.216756  0.216997  0.627271  1
  Gd  Gd38  1  0.216756  0.716997  0.872729  1
  Gd  Gd39  1  0.783244  0.783003  0.372729  1
