# generated using pymatgen
data_CrH36C12S6(ClO2)3
_symmetry_space_group_name_H-M   'P 1'
_cell_length_a   9.58978528
_cell_length_b   9.58978529
_cell_length_c   9.58978529
_cell_angle_alpha   68.37154611
_cell_angle_beta   68.37154616
_cell_angle_gamma   68.37154615
_symmetry_Int_Tables_number   1
_chemical_formula_structural   CrH36C12S6(ClO2)3
_chemical_formula_sum   'Cr1 H36 C12 S6 Cl3 O6'
_cell_volume   733.94270781
_cell_formula_units_Z   1
loop_
 _symmetry_equiv_pos_site_id
 _symmetry_equiv_pos_as_xyz
  1  'x, y, z'
loop_
 _atom_site_type_symbol
 _atom_site_label
 _atom_site_symmetry_multiplicity
 _atom_site_fract_x
 _atom_site_fract_y
 _atom_site_fract_z
 _atom_site_occupancy
  H  H0  1  0.801455  0.073449  0.598356  1
  H  H1  1  0.073449  0.598356  0.801455  1
  H  H2  1  0.598356  0.801454  0.073449  1
  H  H3  1  0.198545  0.926551  0.401644  1
  H  H4  1  0.926551  0.401644  0.198545  1
  H  H5  1  0.401644  0.198546  0.926551  1
  H  H6  1  0.927730  0.044240  0.711350  1
  H  H7  1  0.044239  0.711350  0.927731  1
  H  H8  1  0.711350  0.927730  0.044240  1
  H  H9  1  0.072270  0.955760  0.288650  1
  H  H10  1  0.955760  0.288650  0.072269  1
  H  H11  1  0.288650  0.072270  0.955760  1
  H  H12  1  0.973019  0.148995  0.505931  1
  H  H13  1  0.148996  0.505931  0.973019  1
  H  H14  1  0.505931  0.973018  0.148996  1
  H  H15  1  0.640958  0.432019  0.989470  1
  H  H16  1  0.851004  0.494069  0.026982  1
  H  H17  1  0.494069  0.026982  0.851004  1
  H  H18  1  0.010529  0.359042  0.567981  1
  H  H19  1  0.359042  0.567981  0.010530  1
  H  H20  1  0.567981  0.010530  0.359043  1
  H  H21  1  0.989471  0.640958  0.432018  1
  H  H22  1  0.301262  0.134247  0.525097  1
  H  H23  1  0.525098  0.301262  0.134246  1
  H  H24  1  0.134247  0.525097  0.301262  1
  H  H25  1  0.698738  0.865753  0.474903  1
  H  H26  1  0.474903  0.698739  0.865753  1
  H  H27  1  0.865753  0.474903  0.698739  1
  H  H28  1  0.223445  0.040992  0.728721  1
  H  H29  1  0.728722  0.223446  0.040992  1
  H  H30  1  0.040992  0.728722  0.223445  1
  H  H31  1  0.776555  0.959008  0.271279  1
  H  H32  1  0.271278  0.776554  0.959009  1
  H  H33  1  0.959008  0.271278  0.776555  1
  H  H34  1  0.432019  0.989470  0.640957  1
  H  H35  1  0.026981  0.851004  0.494069  1
  C  C36  1  0.917303  0.358616  0.677185  1
  C  C37  1  0.358615  0.677185  0.917303  1
  C  C38  1  0.677184  0.917303  0.358616  1
  C  C39  1  0.082697  0.641384  0.322815  1
  C  C40  1  0.387152  0.120027  0.876883  1
  C  C41  1  0.876883  0.387152  0.120027  1
  C  C42  1  0.120027  0.876883  0.387153  1
  C  C43  1  0.612848  0.879973  0.123117  1
  C  C44  1  0.123117  0.612848  0.879973  1
  C  C45  1  0.879973  0.123117  0.612848  1
  C  C46  1  0.641384  0.322815  0.082697  1
  C  C47  1  0.322816  0.082697  0.641384  1
  O  O48  1  0.722360  0.416468  0.515571  1
  O  O49  1  0.416468  0.515571  0.722360  1
  O  O50  1  0.515571  0.722360  0.416468  1
  O  O51  1  0.277640  0.583532  0.484428  1
  O  O52  1  0.583532  0.484429  0.277640  1
  O  O53  1  0.484428  0.277640  0.583533  1
  S  S54  1  0.765976  0.299977  0.666484  1
  S  S55  1  0.299977  0.666484  0.765976  1
  S  S56  1  0.666485  0.765976  0.299977  1
  S  S57  1  0.234023  0.700023  0.333515  1
  S  S58  1  0.700024  0.333516  0.234024  1
  S  S59  1  0.333515  0.234024  0.700023  1
  Cl  Cl60  1  0.746734  0.746734  0.746733  1
  Cl  Cl61  1  0.253266  0.253266  0.253266  1
  Cl  Cl62  1  0.000000  0.000000  0.000000  1
  Cr  Cr63  1  0.500001  0.500000  0.500000  1
