# generated using pymatgen
data_TlPb2Cl5
_symmetry_space_group_name_H-M   'P 1'
_cell_length_a   8.09239638
_cell_length_b   9.04336491
_cell_length_c   12.78297754
_cell_angle_alpha   90.05272535
_cell_angle_beta   90.00000000
_cell_angle_gamma   90.00000000
_symmetry_Int_Tables_number   1
_chemical_formula_structural   TlPb2Cl5
_chemical_formula_sum   'Tl4 Pb8 Cl20'
_cell_volume   935.48977369
_cell_formula_units_Z   4
loop_
 _symmetry_equiv_pos_site_id
 _symmetry_equiv_pos_as_xyz
  1  'x, y, z'
loop_
 _atom_site_type_symbol
 _atom_site_label
 _atom_site_symmetry_multiplicity
 _atom_site_fract_x
 _atom_site_fract_y
 _atom_site_fract_z
 _atom_site_occupancy
  Cl  Cl0  1  0.846689  0.223275  0.312824  1
  Cl  Cl1  1  0.346689  0.776725  0.187176  1
  Cl  Cl2  1  0.153311  0.776725  0.687176  1
  Cl  Cl3  1  0.653311  0.223275  0.812824  1
  Cl  Cl4  1  0.815438  0.771629  0.281939  1
  Cl  Cl5  1  0.315438  0.228371  0.218061  1
  Cl  Cl6  1  0.184562  0.228371  0.718061  1
  Cl  Cl7  1  0.684562  0.771629  0.781939  1
  Cl  Cl8  1  0.673828  0.463345  0.082721  1
  Cl  Cl9  1  0.173828  0.536655  0.417279  1
  Cl  Cl10  1  0.326172  0.536655  0.917279  1
  Cl  Cl11  1  0.826172  0.463345  0.582721  1
  Cl  Cl12  1  0.835297  0.039837  0.600048  1
  Cl  Cl13  1  0.335297  0.960163  0.899952  1
  Cl  Cl14  1  0.164703  0.960163  0.399952  1
  Cl  Cl15  1  0.664703  0.039837  0.100048  1
  Cl  Cl16  1  0.954887  0.783410  0.001939  1
  Cl  Cl17  1  0.454887  0.216590  0.498061  1
  Cl  Cl18  1  0.045113  0.216590  0.998061  1
  Cl  Cl19  1  0.545113  0.783410  0.501939  1
  Tl  Tl20  1  0.953504  0.487539  0.831624  1
  Tl  Tl21  1  0.453504  0.512461  0.668376  1
  Tl  Tl22  1  0.046496  0.512461  0.168376  1
  Tl  Tl23  1  0.546496  0.487539  0.331624  1
  Pb  Pb24  1  0.503838  0.992262  0.324645  1
  Pb  Pb25  1  0.003838  0.007738  0.175355  1
  Pb  Pb26  1  0.496162  0.007738  0.675355  1
  Pb  Pb27  1  0.996162  0.992262  0.824645  1
  Pb  Pb28  1  0.561938  0.747476  0.004594  1
  Pb  Pb29  1  0.061938  0.252524  0.495406  1
  Pb  Pb30  1  0.438062  0.252524  0.995406  1
  Pb  Pb31  1  0.938062  0.747476  0.504594  1
