# generated using pymatgen
data_Cs3Cr2Br9
_symmetry_space_group_name_H-M   'P 1'
_cell_length_a   7.78956420
_cell_length_b   7.78956420
_cell_length_c   19.42099684
_cell_angle_alpha   90.00000000
_cell_angle_beta   90.00000000
_cell_angle_gamma   120.00000001
_symmetry_Int_Tables_number   1
_chemical_formula_structural   Cs3Cr2Br9
_chemical_formula_sum   'Cs6 Cr4 Br18'
_cell_volume   1020.53633353
_cell_formula_units_Z   2
loop_
 _symmetry_equiv_pos_site_id
 _symmetry_equiv_pos_as_xyz
  1  'x, y, z'
loop_
 _atom_site_type_symbol
 _atom_site_label
 _atom_site_symmetry_multiplicity
 _atom_site_fract_x
 _atom_site_fract_y
 _atom_site_fract_z
 _atom_site_occupancy
  Cr  Cr0  1  0.333333  0.666667  0.663369  1
  Cr  Cr1  1  0.666667  0.333333  0.163369  1
  Cr  Cr2  1  0.666667  0.333333  0.336631  1
  Cr  Cr3  1  0.333333  0.666667  0.836631  1
  Br  Br4  1  0.820207  0.640413  0.405802  1
  Br  Br5  1  0.179793  0.359587  0.905802  1
  Br  Br6  1  0.179793  0.820207  0.905802  1
  Br  Br7  1  0.179793  0.359587  0.594198  1
  Br  Br8  1  0.640413  0.820207  0.905802  1
  Br  Br9  1  0.359587  0.179793  0.405802  1
  Br  Br10  1  0.038733  0.519366  0.750000  1
  Br  Br11  1  0.820207  0.179793  0.405802  1
  Br  Br12  1  0.519366  0.038733  0.250000  1
  Br  Br13  1  0.480634  0.519366  0.750000  1
  Br  Br14  1  0.519366  0.480634  0.250000  1
  Br  Br15  1  0.961267  0.480634  0.250000  1
  Br  Br16  1  0.359587  0.179793  0.094198  1
  Br  Br17  1  0.480634  0.961267  0.750000  1
  Br  Br18  1  0.820207  0.640413  0.094198  1
  Br  Br19  1  0.179793  0.820207  0.594198  1
  Br  Br20  1  0.640413  0.820207  0.594198  1
  Br  Br21  1  0.820207  0.179793  0.094198  1
  Cs  Cs22  1  0.666667  0.333333  0.929823  1
  Cs  Cs23  1  0.333333  0.666667  0.429823  1
  Cs  Cs24  1  0.666667  0.333333  0.570177  1
  Cs  Cs25  1  0.333333  0.666667  0.070177  1
  Cs  Cs26  1  0.000000  0.000000  0.750000  1
  Cs  Cs27  1  0.000000  0.000000  0.250000  1
