# generated using pymatgen
data_Sm10Se19
_symmetry_space_group_name_H-M   'P 1'
_cell_length_a   9.24002589
_cell_length_b   9.24002589
_cell_length_c   16.89414563
_cell_angle_alpha   90.00000000
_cell_angle_beta   90.00000000
_cell_angle_gamma   90.00000000
_symmetry_Int_Tables_number   1
_chemical_formula_structural   Sm10Se19
_chemical_formula_sum   'Sm20 Se38'
_cell_volume   1442.38969091
_cell_formula_units_Z   2
loop_
 _symmetry_equiv_pos_site_id
 _symmetry_equiv_pos_as_xyz
  1  'x, y, z'
loop_
 _atom_site_type_symbol
 _atom_site_label
 _atom_site_symmetry_multiplicity
 _atom_site_fract_x
 _atom_site_fract_y
 _atom_site_fract_z
 _atom_site_occupancy
  Se  Se0  1  0.750000  0.750000  0.750000  1
  Se  Se1  1  0.250000  0.250000  0.250000  1
  Se  Se2  1  0.173265  0.529496  0.749957  1
  Se  Se3  1  0.470504  0.673265  0.249957  1
  Se  Se4  1  0.029496  0.826735  0.249957  1
  Se  Se5  1  0.326735  0.970504  0.749957  1
  Se  Se6  1  0.826735  0.470504  0.250043  1
  Se  Se7  1  0.529496  0.326735  0.750043  1
  Se  Se8  1  0.970504  0.173265  0.750043  1
  Se  Se9  1  0.673265  0.029496  0.250043  1
  Se  Se10  1  0.652392  0.548889  0.929565  1
  Se  Se11  1  0.451111  0.152392  0.429565  1
  Se  Se12  1  0.048889  0.347608  0.429565  1
  Se  Se13  1  0.847608  0.951111  0.929565  1
  Se  Se14  1  0.347608  0.451111  0.070435  1
  Se  Se15  1  0.548889  0.847608  0.570435  1
  Se  Se16  1  0.951111  0.652392  0.570435  1
  Se  Se17  1  0.152392  0.048889  0.070435  1
  Se  Se18  1  0.649507  0.552642  0.437147  1
  Se  Se19  1  0.447358  0.149507  0.937147  1
  Se  Se20  1  0.120420  0.563215  0.250657  1
  Se  Se21  1  0.436785  0.620420  0.750657  1
  Se  Se22  1  0.063215  0.879580  0.750657  1
  Se  Se23  1  0.379580  0.936785  0.250657  1
  Se  Se24  1  0.879580  0.436785  0.749343  1
  Se  Se25  1  0.563215  0.379580  0.249343  1
  Se  Se26  1  0.936785  0.120420  0.249343  1
  Se  Se27  1  0.620420  0.063215  0.749343  1
  Se  Se28  1  0.750000  0.250000  0.064000  1
  Se  Se29  1  0.750000  0.250000  0.564000  1
  Se  Se30  1  0.250000  0.750000  0.936000  1
  Se  Se31  1  0.250000  0.750000  0.436000  1
  Se  Se32  1  0.149507  0.052642  0.562853  1
  Se  Se33  1  0.947358  0.649507  0.062853  1
  Se  Se34  1  0.552642  0.850493  0.062853  1
  Se  Se35  1  0.350493  0.447358  0.562853  1
  Se  Se36  1  0.850493  0.947358  0.437147  1
  Se  Se37  1  0.052642  0.350493  0.937147  1
  Sm  Sm38  1  0.553036  0.852883  0.393617  1
  Sm  Sm39  1  0.147117  0.053036  0.893617  1
  Sm  Sm40  1  0.352883  0.446964  0.893617  1
  Sm  Sm41  1  0.946964  0.647117  0.393617  1
  Sm  Sm42  1  0.446964  0.147117  0.606383  1
  Sm  Sm43  1  0.852883  0.946964  0.106383  1
  Sm  Sm44  1  0.647117  0.553036  0.106383  1
  Sm  Sm45  1  0.053036  0.352883  0.606383  1
  Sm  Sm46  1  0.542950  0.847550  0.880452  1
  Sm  Sm47  1  0.152450  0.042950  0.380452  1
  Sm  Sm48  1  0.347550  0.457050  0.380452  1
  Sm  Sm49  1  0.957050  0.652450  0.880452  1
  Sm  Sm50  1  0.457050  0.152450  0.119548  1
  Sm  Sm51  1  0.847550  0.957050  0.619548  1
  Sm  Sm52  1  0.652450  0.542950  0.619548  1
  Sm  Sm53  1  0.042950  0.347550  0.119548  1
  Sm  Sm54  1  0.250000  0.750000  0.117033  1
  Sm  Sm55  1  0.250000  0.750000  0.617033  1
  Sm  Sm56  1  0.750000  0.250000  0.882967  1
  Sm  Sm57  1  0.750000  0.250000  0.382967  1
