# generated using pymatgen
data_Ho5(Ge5Ir2)2
_symmetry_space_group_name_H-M   'P 1'
_cell_length_a   4.35966371
_cell_length_b   13.84245097
_cell_length_c   13.84245097
_cell_angle_alpha   90.00000000
_cell_angle_beta   90.00000000
_cell_angle_gamma   90.00000000
_symmetry_Int_Tables_number   1
_chemical_formula_structural   Ho5(Ge5Ir2)2
_chemical_formula_sum   'Ho10 Ge20 Ir8'
_cell_volume   835.37019933
_cell_formula_units_Z   2
loop_
 _symmetry_equiv_pos_site_id
 _symmetry_equiv_pos_as_xyz
  1  'x, y, z'
loop_
 _atom_site_type_symbol
 _atom_site_label
 _atom_site_symmetry_multiplicity
 _atom_site_fract_x
 _atom_site_fract_y
 _atom_site_fract_z
 _atom_site_occupancy
  Ge  Ge0  1  0.500000  0.979502  0.148802  1
  Ge  Ge1  1  0.500000  0.020498  0.851198  1
  Ge  Ge2  1  0.500000  0.148802  0.020498  1
  Ge  Ge3  1  0.500000  0.851198  0.979502  1
  Ge  Ge4  1  0.500000  0.648802  0.479502  1
  Ge  Ge5  1  0.500000  0.520498  0.648802  1
  Ge  Ge6  1  0.500000  0.479502  0.351198  1
  Ge  Ge7  1  0.500000  0.351198  0.520498  1
  Ge  Ge8  1  0.000000  0.297175  0.366245  1
  Ge  Ge9  1  0.000000  0.702825  0.633755  1
  Ge  Ge10  1  0.000000  0.366245  0.702825  1
  Ge  Ge11  1  0.000000  0.633755  0.297175  1
  Ge  Ge12  1  0.000000  0.866245  0.797175  1
  Ge  Ge13  1  0.000000  0.202825  0.866245  1
  Ge  Ge14  1  0.000000  0.797175  0.133755  1
  Ge  Ge15  1  0.000000  0.133755  0.202825  1
  Ge  Ge16  1  0.000000  0.896290  0.396290  1
  Ge  Ge17  1  0.000000  0.603710  0.896290  1
  Ge  Ge18  1  0.000000  0.103710  0.603710  1
  Ge  Ge19  1  0.000000  0.396290  0.103710  1
  Ho  Ho20  1  0.000000  0.000000  0.000000  1
  Ho  Ho21  1  0.000000  0.500000  0.500000  1
  Ho  Ho22  1  0.500000  0.204411  0.704411  1
  Ho  Ho23  1  0.500000  0.295589  0.204411  1
  Ho  Ho24  1  0.500000  0.704411  0.795589  1
  Ho  Ho25  1  0.500000  0.795589  0.295589  1
  Ho  Ho26  1  0.000000  0.403027  0.903027  1
  Ho  Ho27  1  0.000000  0.096973  0.403027  1
  Ho  Ho28  1  0.000000  0.596973  0.096973  1
  Ho  Ho29  1  0.000000  0.903027  0.596973  1
  Ir  Ir30  1  0.000000  0.273297  0.548437  1
  Ir  Ir31  1  0.000000  0.451563  0.273297  1
  Ir  Ir32  1  0.000000  0.548437  0.726703  1
  Ir  Ir33  1  0.000000  0.726703  0.451563  1
  Ir  Ir34  1  0.000000  0.773297  0.951563  1
  Ir  Ir35  1  0.000000  0.226703  0.048437  1
  Ir  Ir36  1  0.000000  0.048437  0.773297  1
  Ir  Ir37  1  0.000000  0.951563  0.226703  1
