# generated using pymatgen
data_Rb4CdBr6
_symmetry_space_group_name_H-M   'P 1'
_cell_length_a   9.46668655
_cell_length_b   9.46668676
_cell_length_c   9.46668649
_cell_angle_alpha   89.43793490
_cell_angle_beta   89.43793486
_cell_angle_gamma   89.43793757
_symmetry_Int_Tables_number   1
_chemical_formula_structural   Rb4CdBr6
_chemical_formula_sum   'Rb8 Cd2 Br12'
_cell_volume   848.26532004
_cell_formula_units_Z   2
loop_
 _symmetry_equiv_pos_site_id
 _symmetry_equiv_pos_as_xyz
  1  'x, y, z'
loop_
 _atom_site_type_symbol
 _atom_site_label
 _atom_site_symmetry_multiplicity
 _atom_site_fract_x
 _atom_site_fract_y
 _atom_site_fract_z
 _atom_site_occupancy
  Rb  Rb0  1  0.126368  0.750000  0.373632  1
  Rb  Rb1  1  0.373632  0.126368  0.750000  1
  Rb  Rb2  1  0.873632  0.250000  0.626368  1
  Rb  Rb3  1  0.750000  0.750000  0.750000  1
  Rb  Rb4  1  0.626368  0.873632  0.250000  1
  Rb  Rb5  1  0.750000  0.373632  0.126368  1
  Rb  Rb6  1  0.250000  0.626368  0.873632  1
  Rb  Rb7  1  0.250000  0.250000  0.250000  1
  Cd  Cd8  1  0.500000  0.500000  0.500000  1
  Cd  Cd9  1  0.000000  0.000000  0.000000  1
  Br  Br10  1  0.068879  0.287564  0.941139  1
  Br  Br11  1  0.287564  0.941139  0.068879  1
  Br  Br12  1  0.787564  0.568879  0.441139  1
  Br  Br13  1  0.712436  0.058861  0.931121  1
  Br  Br14  1  0.568879  0.441139  0.787564  1
  Br  Br15  1  0.558861  0.212436  0.431121  1
  Br  Br16  1  0.212436  0.431121  0.558861  1
  Br  Br17  1  0.431121  0.558861  0.212436  1
  Br  Br18  1  0.931121  0.712436  0.058861  1
  Br  Br19  1  0.441139  0.787564  0.568879  1
  Br  Br20  1  0.941139  0.068879  0.287564  1
  Br  Br21  1  0.058861  0.931121  0.712436  1
