# generated using pymatgen
data_Cs3Fe2Cl9
_symmetry_space_group_name_H-M   'P 1'
_cell_length_a   7.48319751
_cell_length_b   7.48319750
_cell_length_c   18.15905992
_cell_angle_alpha   90.00000000
_cell_angle_beta   90.00000000
_cell_angle_gamma   119.99999999
_symmetry_Int_Tables_number   1
_chemical_formula_structural   Cs3Fe2Cl9
_chemical_formula_sum   'Cs6 Fe4 Cl18'
_cell_volume   880.64000256
_cell_formula_units_Z   2
loop_
 _symmetry_equiv_pos_site_id
 _symmetry_equiv_pos_as_xyz
  1  'x, y, z'
loop_
 _atom_site_type_symbol
 _atom_site_label
 _atom_site_symmetry_multiplicity
 _atom_site_fract_x
 _atom_site_fract_y
 _atom_site_fract_z
 _atom_site_occupancy
  Cl  Cl0  1  0.640445  0.820222  0.591637  1
  Cl  Cl1  1  0.640445  0.820222  0.908363  1
  Cl  Cl2  1  0.179778  0.359555  0.591637  1
  Cl  Cl3  1  0.179778  0.820222  0.908363  1
  Cl  Cl4  1  0.820222  0.179778  0.408363  1
  Cl  Cl5  1  0.820222  0.640445  0.408363  1
  Cl  Cl6  1  0.520709  0.041418  0.250000  1
  Cl  Cl7  1  0.479291  0.520709  0.750000  1
  Cl  Cl8  1  0.041418  0.520709  0.750000  1
  Cl  Cl9  1  0.958582  0.479291  0.250000  1
  Cl  Cl10  1  0.179778  0.359555  0.908363  1
  Cl  Cl11  1  0.479291  0.958582  0.750000  1
  Cl  Cl12  1  0.820222  0.640445  0.091637  1
  Cl  Cl13  1  0.179778  0.820222  0.591637  1
  Cl  Cl14  1  0.520709  0.479291  0.250000  1
  Cl  Cl15  1  0.359555  0.179778  0.091637  1
  Cl  Cl16  1  0.820222  0.179778  0.091637  1
  Cl  Cl17  1  0.359555  0.179778  0.408363  1
  Fe  Fe18  1  0.333333  0.666667  0.845508  1
  Fe  Fe19  1  0.666667  0.333333  0.345508  1
  Fe  Fe20  1  0.666667  0.333333  0.154492  1
  Fe  Fe21  1  0.333333  0.666667  0.654492  1
  Cs  Cs22  1  0.666667  0.333333  0.916707  1
  Cs  Cs23  1  0.333333  0.666667  0.416707  1
  Cs  Cs24  1  0.666667  0.333333  0.583293  1
  Cs  Cs25  1  0.333333  0.666667  0.083293  1
  Cs  Cs26  1  0.000000  0.000000  0.750000  1
  Cs  Cs27  1  0.000000  0.000000  0.250000  1
