# generated using pymatgen
data_KH9O5
_symmetry_space_group_name_H-M   'P 1'
_cell_length_a   7.15753936
_cell_length_b   7.17209484
_cell_length_c   11.29377561
_cell_angle_alpha   90.00000000
_cell_angle_beta   90.00000000
_cell_angle_gamma   99.18241583
_symmetry_Int_Tables_number   1
_chemical_formula_structural   KH9O5
_chemical_formula_sum   'K4 H36 O20'
_cell_volume   572.33143163
_cell_formula_units_Z   4
loop_
 _symmetry_equiv_pos_site_id
 _symmetry_equiv_pos_as_xyz
  1  'x, y, z'
loop_
 _atom_site_type_symbol
 _atom_site_label
 _atom_site_symmetry_multiplicity
 _atom_site_fract_x
 _atom_site_fract_y
 _atom_site_fract_z
 _atom_site_occupancy
  H  H0  1  0.965875  0.621224  0.907092  1
  H  H1  1  0.034125  0.878776  0.407092  1
  H  H2  1  0.034125  0.378776  0.092908  1
  H  H3  1  0.965875  0.121224  0.592908  1
  H  H4  1  0.907251  0.396652  0.907746  1
  H  H5  1  0.092749  0.103348  0.407746  1
  H  H6  1  0.092749  0.603348  0.092254  1
  H  H7  1  0.907251  0.896652  0.592254  1
  H  H8  1  0.078127  0.012108  0.756269  1
  H  H9  1  0.921873  0.487892  0.256269  1
  H  H10  1  0.921873  0.987892  0.243731  1
  H  H11  1  0.078127  0.512108  0.743731  1
  H  H12  1  0.137389  0.927524  0.880008  1
  H  H13  1  0.862611  0.572476  0.380008  1
  H  H14  1  0.762101  0.103745  0.900643  1
  H  H15  1  0.862611  0.072476  0.119992  1
  H  H16  1  0.663275  0.241405  0.054679  1
  H  H17  1  0.336725  0.258595  0.554679  1
  H  H18  1  0.336725  0.758595  0.945321  1
  H  H19  1  0.663275  0.741405  0.445321  1
  H  H20  1  0.457049  0.162195  0.100877  1
  H  H21  1  0.542951  0.337805  0.600877  1
  H  H22  1  0.542951  0.837805  0.899123  1
  H  H23  1  0.457049  0.662195  0.399123  1
  H  H24  1  0.016687  0.659177  0.534571  1
  H  H25  1  0.983313  0.840823  0.034571  1
  H  H26  1  0.983313  0.340823  0.465429  1
  H  H27  1  0.016687  0.159177  0.965429  1
  H  H28  1  0.762466  0.533511  0.732491  1
  H  H29  1  0.237534  0.966489  0.232491  1
  H  H30  1  0.237534  0.466489  0.267509  1
  H  H31  1  0.762466  0.033511  0.767509  1
  H  H32  1  0.762101  0.603745  0.599357  1
  H  H33  1  0.237899  0.896255  0.099357  1
  H  H34  1  0.237899  0.396255  0.400643  1
  H  H35  1  0.137389  0.427524  0.619992  1
  O  O36  1  0.906980  0.511715  0.855706  1
  O  O37  1  0.093020  0.988285  0.355706  1
  O  O38  1  0.093020  0.488285  0.144294  1
  O  O39  1  0.906980  0.011715  0.644294  1
  O  O40  1  0.180512  0.023500  0.816863  1
  O  O41  1  0.819488  0.476500  0.316863  1
  O  O42  1  0.819488  0.976500  0.183137  1
  O  O43  1  0.180512  0.523500  0.683137  1
  O  O44  1  0.539655  0.278393  0.071819  1
  O  O45  1  0.460345  0.221607  0.571819  1
  O  O46  1  0.460345  0.721607  0.928181  1
  O  O47  1  0.539655  0.778393  0.428181  1
  O  O48  1  0.676491  0.041885  0.836049  1
  O  O49  1  0.323509  0.458115  0.336049  1
  O  O50  1  0.323509  0.958115  0.163951  1
  O  O51  1  0.676491  0.541885  0.663951  1
  O  O52  1  0.915760  0.217623  0.001160  1
  O  O53  1  0.084240  0.282377  0.501160  1
  O  O54  1  0.084240  0.782377  0.998840  1
  O  O55  1  0.915760  0.717623  0.498840  1
  K  K56  1  0.431581  0.349823  0.839085  1
  K  K57  1  0.568419  0.150177  0.339085  1
  K  K58  1  0.568419  0.650177  0.160915  1
  K  K59  1  0.431581  0.849823  0.660915  1
