# generated using pymatgen
data_BH7N2
_symmetry_space_group_name_H-M   'P 1'
_cell_length_a   5.19486774
_cell_length_b   9.68516442
_cell_length_c   12.73873474
_cell_angle_alpha   90.00000000
_cell_angle_beta   90.00000000
_cell_angle_gamma   90.00000000
_symmetry_Int_Tables_number   1
_chemical_formula_structural   BH7N2
_chemical_formula_sum   'B8 H56 N16'
_cell_volume   640.92584888
_cell_formula_units_Z   8
loop_
 _symmetry_equiv_pos_site_id
 _symmetry_equiv_pos_as_xyz
  1  'x, y, z'
loop_
 _atom_site_type_symbol
 _atom_site_label
 _atom_site_symmetry_multiplicity
 _atom_site_fract_x
 _atom_site_fract_y
 _atom_site_fract_z
 _atom_site_occupancy
  H  H0  1  0.356137  0.721532  0.657089  1
  H  H1  1  0.356137  0.778468  0.342911  1
  H  H2  1  0.143863  0.221532  0.842911  1
  H  H3  1  0.143863  0.278468  0.157089  1
  H  H4  1  0.643863  0.278468  0.342911  1
  H  H5  1  0.643863  0.221532  0.657089  1
  H  H6  1  0.856137  0.778468  0.157089  1
  H  H7  1  0.856137  0.721532  0.842911  1
  H  H8  1  0.488075  0.590093  0.594721  1
  H  H9  1  0.488075  0.909907  0.405279  1
  H  H10  1  0.011925  0.090093  0.905279  1
  H  H11  1  0.011925  0.409907  0.094721  1
  H  H12  1  0.511925  0.409907  0.405279  1
  H  H13  1  0.511925  0.090093  0.594721  1
  H  H14  1  0.988075  0.909907  0.094721  1
  H  H15  1  0.988075  0.590093  0.905279  1
  H  H16  1  0.020712  0.568883  0.709120  1
  H  H17  1  0.020712  0.931117  0.290880  1
  H  H18  1  0.479288  0.068883  0.790880  1
  H  H19  1  0.030433  0.608907  0.580432  1
  H  H20  1  0.479288  0.431117  0.209120  1
  H  H21  1  0.979288  0.068883  0.709120  1
  H  H22  1  0.520712  0.931117  0.209120  1
  H  H23  1  0.520712  0.568883  0.790880  1
  H  H24  1  0.736964  0.332902  0.819759  1
  H  H25  1  0.736964  0.167098  0.180241  1
  H  H26  1  0.763036  0.832902  0.680241  1
  H  H27  1  0.763036  0.667098  0.319759  1
  H  H28  1  0.263036  0.667098  0.180241  1
  H  H29  1  0.263036  0.832902  0.819759  1
  H  H30  1  0.236964  0.167098  0.319759  1
  H  H31  1  0.236964  0.332902  0.680241  1
  H  H32  1  0.781759  0.390322  0.970640  1
  H  H33  1  0.781759  0.109678  0.029360  1
  H  H34  1  0.718241  0.890322  0.529360  1
  H  H35  1  0.718241  0.609678  0.470640  1
  H  H36  1  0.218241  0.609678  0.029360  1
  H  H37  1  0.218241  0.890322  0.970640  1
  H  H38  1  0.281759  0.109678  0.470640  1
  H  H39  1  0.281759  0.390322  0.529360  1
  H  H40  1  0.424090  0.358648  0.912546  1
  H  H41  1  0.424090  0.141352  0.087454  1
  H  H42  1  0.075910  0.858648  0.587454  1
  H  H43  1  0.075910  0.641352  0.412546  1
  H  H44  1  0.575910  0.641352  0.087454  1
  H  H45  1  0.575910  0.858648  0.912546  1
  H  H46  1  0.924090  0.141352  0.412546  1
  H  H47  1  0.924090  0.358648  0.587454  1
  H  H48  1  0.530433  0.608907  0.919568  1
  H  H49  1  0.530433  0.891093  0.080432  1
  H  H50  1  0.969567  0.108907  0.580432  1
  H  H51  1  0.969567  0.391093  0.419568  1
  H  H52  1  0.469567  0.391093  0.080432  1
  H  H53  1  0.469567  0.108907  0.919568  1
  H  H54  1  0.030433  0.891093  0.419568  1
  H  H55  1  0.979288  0.431117  0.290880  1
  B  B56  1  0.643731  0.396716  0.892639  1
  B  B57  1  0.643731  0.103284  0.107361  1
  B  B58  1  0.856269  0.896716  0.607361  1
  B  B59  1  0.856269  0.603284  0.392639  1
  B  B60  1  0.356269  0.603284  0.107361  1
  B  B61  1  0.356269  0.896716  0.892639  1
  B  B62  1  0.143731  0.103284  0.392639  1
  B  B63  1  0.143731  0.396716  0.607361  1
  N  N64  1  0.124767  0.555197  0.639055  1
  N  N65  1  0.124767  0.944803  0.360945  1
  N  N66  1  0.375233  0.055197  0.860945  1
  N  N67  1  0.375233  0.444803  0.139055  1
  N  N68  1  0.875233  0.444803  0.360945  1
  N  N69  1  0.875233  0.055197  0.639055  1
  N  N70  1  0.624767  0.944803  0.139055  1
  N  N71  1  0.624767  0.555197  0.860945  1
  N  N72  1  0.875921  0.615979  0.841837  1
  N  N73  1  0.875921  0.884021  0.158163  1
  N  N74  1  0.624079  0.115979  0.658163  1
  N  N75  1  0.624079  0.384021  0.341837  1
  N  N76  1  0.124079  0.384021  0.158163  1
  N  N77  1  0.124079  0.115979  0.841837  1
  N  N78  1  0.375921  0.884021  0.341837  1
  N  N79  1  0.375921  0.615979  0.658163  1
