# generated using pymatgen
data_NpSi
_symmetry_space_group_name_H-M   'P 1'
_cell_length_a   2.57272811
_cell_length_b   5.47006032
_cell_length_c   9.53907050
_cell_angle_alpha   90.00000000
_cell_angle_beta   90.00000000
_cell_angle_gamma   90.00000000
_symmetry_Int_Tables_number   1
_chemical_formula_structural   NpSi
_chemical_formula_sum   'Np4 Si4'
_cell_volume   134.24312880
_cell_formula_units_Z   4
loop_
 _symmetry_equiv_pos_site_id
 _symmetry_equiv_pos_as_xyz
  1  'x, y, z'
loop_
 _atom_site_type_symbol
 _atom_site_label
 _atom_site_symmetry_multiplicity
 _atom_site_fract_x
 _atom_site_fract_y
 _atom_site_fract_z
 _atom_site_occupancy
  Si  Si0  1  0.250000  0.804226  0.509365  1
  Si  Si1  1  0.750000  0.195774  0.490635  1
  Si  Si2  1  0.750000  0.304226  0.990635  1
  Si  Si3  1  0.250000  0.695774  0.009365  1
  Np  Np4  1  0.250000  0.432997  0.729342  1
  Np  Np5  1  0.750000  0.567003  0.270658  1
  Np  Np6  1  0.750000  0.932997  0.770658  1
  Np  Np7  1  0.250000  0.067003  0.229342  1
