# generated using pymatgen
data_Li3Bi2(PO4)3
_symmetry_space_group_name_H-M   'P 1'
_cell_length_a   8.92839824
_cell_length_b   9.75653487
_cell_length_c   8.92828145
_cell_angle_alpha   90.00338351
_cell_angle_beta   59.99820302
_cell_angle_gamma   117.23235350
_symmetry_Int_Tables_number   1
_chemical_formula_structural   Li3Bi2(PO4)3
_chemical_formula_sum   'Li6 Bi4 P6 O24'
_cell_volume   571.84174874
_cell_formula_units_Z   2
loop_
 _symmetry_equiv_pos_site_id
 _symmetry_equiv_pos_as_xyz
  1  'x, y, z'
loop_
 _atom_site_type_symbol
 _atom_site_label
 _atom_site_symmetry_multiplicity
 _atom_site_fract_x
 _atom_site_fract_y
 _atom_site_fract_z
 _atom_site_occupancy
  Li  Li0  1  0.929605  0.864800  0.333241  1
  Li  Li1  1  0.070395  0.135199  0.666759  1
  Li  Li2  1  0.801977  0.135152  0.262796  1
  Li  Li3  1  0.398000  0.135164  0.935235  1
  Li  Li4  1  0.602002  0.864836  0.064765  1
  Li  Li5  1  0.198021  0.864847  0.737204  1
  O  O6  1  0.679725  0.184517  0.856531  1
  O  O7  1  0.041043  0.184552  0.463715  1
  O  O8  1  0.091414  0.267154  0.160738  1
  O  O9  1  0.210588  0.088459  0.200051  1
  O  O10  1  0.789411  0.911541  0.799949  1
  O  O11  1  0.908580  0.732847  0.839259  1
  O  O12  1  0.958955  0.815447  0.536286  1
  O  O13  1  0.322170  0.911491  0.877859  1
  O  O14  1  0.804398  0.383732  1.010605  1
  O  O15  1  0.711451  0.911512  0.410650  1
  O  O16  1  0.605637  0.616292  0.815031  1
  O  O17  1  0.195604  0.616260  -0.010611  1
  O  O18  1  0.351659  0.815471  0.504813  1
  O  O19  1  0.571959  0.732816  0.252209  1
  O  O20  1  0.985019  0.732828  0.175789  1
  O  O21  1  0.431197  0.616310  0.579395  1
  O  O22  1  0.568797  0.383680  0.420614  1
  O  O23  1  0.320276  0.815483  0.143467  1
  O  O24  1  0.428039  0.267185  0.747800  1
  O  O25  1  0.648341  0.184529  0.495188  1
  O  O26  1  0.014992  0.267175  0.824203  1
  O  O27  1  0.394348  0.383699  0.184974  1
  O  O28  1  0.288549  0.088488  0.589351  1
  O  O29  1  0.677832  0.088510  0.122139  1
  P  P30  1  0.798017  0.235735  0.950002  1
  P  P31  1  0.512247  0.764294  0.437701  1
  P  P32  1  0.487760  0.235714  0.562282  1
  P  P33  1  0.201975  0.764273  0.050008  1
  P  P34  1  0.814283  0.764293  0.748053  1
  P  P35  1  0.185735  0.235715  0.251946  1
  Bi  Bi36  1  0.689216  0.033812  0.655383  1
  Bi  Bi37  1  0.695352  0.543000  0.152326  1
  Bi  Bi38  1  0.304648  0.457001  0.847674  1
  Bi  Bi39  1  0.310784  0.966189  0.344616  1
