# generated using pymatgen
data_Ba(SbS2)2
_symmetry_space_group_name_H-M   'P 1'
_cell_length_a   8.38088722
_cell_length_b   9.05291885
_cell_length_c   20.88952442
_cell_angle_alpha   100.32012245
_cell_angle_beta   90.00000000
_cell_angle_gamma   90.00000000
_symmetry_Int_Tables_number   1
_chemical_formula_structural   Ba(SbS2)2
_chemical_formula_sum   'Ba8 Sb16 S32'
_cell_volume   1559.27884364
_cell_formula_units_Z   8
loop_
 _symmetry_equiv_pos_site_id
 _symmetry_equiv_pos_as_xyz
  1  'x, y, z'
loop_
 _atom_site_type_symbol
 _atom_site_label
 _atom_site_symmetry_multiplicity
 _atom_site_fract_x
 _atom_site_fract_y
 _atom_site_fract_z
 _atom_site_occupancy
  S  S0  1  0.848111  0.344895  0.536195  1
  S  S1  1  0.348111  0.655105  0.963805  1
  S  S2  1  0.151889  0.655105  0.463805  1
  S  S3  1  0.651889  0.344895  0.036195  1
  S  S4  1  0.164411  0.502517  0.650557  1
  S  S5  1  0.664411  0.497483  0.849443  1
  S  S6  1  0.835589  0.497483  0.349443  1
  S  S7  1  0.335589  0.502517  0.150557  1
  S  S8  1  0.328900  0.258712  0.773174  1
  S  S9  1  0.828900  0.741288  0.726826  1
  S  S10  1  0.671100  0.741288  0.226826  1
  S  S11  1  0.171100  0.258712  0.273174  1
  S  S12  1  0.656624  0.073845  0.847508  1
  S  S13  1  0.156624  0.926155  0.652492  1
  S  S14  1  0.343376  0.926155  0.152492  1
  S  S15  1  0.843376  0.073845  0.347508  1
  S  S16  1  0.346212  0.766511  0.782552  1
  S  S17  1  0.846212  0.233489  0.717448  1
  S  S18  1  0.653788  0.233489  0.217448  1
  S  S19  1  0.153788  0.766511  0.282552  1
  S  S20  1  0.505010  0.368589  0.427075  1
  S  S21  1  0.005010  0.631411  0.072925  1
  S  S22  1  0.494990  0.631411  0.572925  1
  S  S23  1  0.994990  0.368589  0.927075  1
  S  S24  1  0.710964  0.965985  0.064774  1
  S  S25  1  0.210964  0.034015  0.435226  1
  S  S26  1  0.289036  0.034015  0.935226  1
  S  S27  1  0.789036  0.965985  0.564774  1
  S  S28  1  0.945588  0.776583  0.915146  1
  S  S29  1  0.445588  0.223417  0.584854  1
  S  S30  1  0.054412  0.223417  0.084854  1
  S  S31  1  0.554412  0.776583  0.415146  1
  Sb  Sb32  1  -0.007687  0.157121  0.614997  1
  Sb  Sb33  1  0.492313  0.842879  0.885003  1
  Sb  Sb34  1  1.007687  0.842879  0.385003  1
  Sb  Sb35  1  0.507687  0.157121  0.114997  1
  Sb  Sb36  1  0.699431  0.573345  0.468938  1
  Sb  Sb37  1  0.199431  0.426655  0.031062  1
  Sb  Sb38  1  0.300569  0.426655  0.531062  1
  Sb  Sb39  1  0.800569  0.573345  0.968938  1
  Sb  Sb40  1  0.655917  0.147033  0.497805  1
  Sb  Sb41  1  0.155917  0.852967  0.002195  1
  Sb  Sb42  1  0.344083  0.852967  0.502195  1
  Sb  Sb43  1  0.844083  0.147033  0.997805  1
  Sb  Sb44  1  0.981579  0.701810  0.623283  1
  Sb  Sb45  1  0.481579  0.298190  0.876717  1
  Sb  Sb46  1  0.018421  0.298190  0.376717  1
  Sb  Sb47  1  0.518421  0.701810  0.123283  1
  Ba  Ba48  1  0.948296  0.483084  0.202567  1
  Ba  Ba49  1  0.448296  0.516916  0.297433  1
  Ba  Ba50  1  0.051704  0.516916  0.797433  1
  Ba  Ba51  1  0.551704  0.483084  0.702567  1
  Ba  Ba52  1  0.545906  0.982110  0.694951  1
  Ba  Ba53  1  0.045906  0.017890  0.805049  1
  Ba  Ba54  1  0.454094  0.017890  0.305049  1
  Ba  Ba55  1  0.954094  0.982110  0.194951  1
