# generated using pymatgen
data_MnGeO3
_symmetry_space_group_name_H-M   'P 1'
_cell_length_a   5.66945284
_cell_length_b   5.66945283
_cell_length_c   5.66945283
_cell_angle_alpha   53.52742367
_cell_angle_beta   53.52742368
_cell_angle_gamma   53.52742375
_symmetry_Int_Tables_number   1
_chemical_formula_structural   MnGeO3
_chemical_formula_sum   'Mn2 Ge2 O6'
_cell_volume   109.34308061
_cell_formula_units_Z   2
loop_
 _symmetry_equiv_pos_site_id
 _symmetry_equiv_pos_as_xyz
  1  'x, y, z'
loop_
 _atom_site_type_symbol
 _atom_site_label
 _atom_site_symmetry_multiplicity
 _atom_site_fract_x
 _atom_site_fract_y
 _atom_site_fract_z
 _atom_site_occupancy
  O  O0  1  0.041856  0.795358  0.439481  1
  O  O1  1  0.795358  0.439481  0.041856  1
  O  O2  1  0.439481  0.041856  0.795358  1
  O  O3  1  0.958144  0.204642  0.560519  1
  O  O4  1  0.560519  0.958144  0.204642  1
  O  O5  1  0.204642  0.560519  0.958144  1
  Mn  Mn6  1  0.364354  0.364354  0.364354  1
  Mn  Mn7  1  0.635646  0.635646  0.635646  1
  Ge  Ge8  1  0.156760  0.156760  0.156760  1
  Ge  Ge9  1  0.843240  0.843240  0.843240  1
