# generated using pymatgen
data_Na2LiAlH6
_symmetry_space_group_name_H-M   'P 1'
_cell_length_a   5.18307549
_cell_length_b   5.23501971
_cell_length_c   7.36093592
_cell_angle_alpha   90.00000000
_cell_angle_beta   89.97915773
_cell_angle_gamma   90.00000000
_symmetry_Int_Tables_number   1
_chemical_formula_structural   Na2LiAlH6
_chemical_formula_sum   'Na4 Li2 Al2 H12'
_cell_volume   199.72795869
_cell_formula_units_Z   2
loop_
 _symmetry_equiv_pos_site_id
 _symmetry_equiv_pos_as_xyz
  1  'x, y, z'
loop_
 _atom_site_type_symbol
 _atom_site_label
 _atom_site_symmetry_multiplicity
 _atom_site_fract_x
 _atom_site_fract_y
 _atom_site_fract_z
 _atom_site_occupancy
  H  H0  1  0.700164  0.231916  0.464420  1
  H  H1  1  0.799836  0.731916  0.035580  1
  H  H2  1  0.299836  0.768084  0.535580  1
  H  H3  1  0.200164  0.268084  0.964420  1
  H  H4  1  0.731798  0.202926  0.031504  1
  H  H5  1  0.768202  0.702926  0.468496  1
  H  H6  1  0.268202  0.797074  0.968496  1
  H  H7  1  0.231798  0.297074  0.531504  1
  H  H8  1  0.063447  0.016512  0.235119  1
  H  H9  1  0.436553  0.516512  0.264881  1
  H  H10  1  0.936553  0.983488  0.764881  1
  H  H11  1  0.563447  0.483488  0.735119  1
  Li  Li12  1  0.000000  0.000000  0.500000  1
  Li  Li13  1  0.500000  0.500000  0.000000  1
  Na  Na14  1  0.494422  0.025992  0.750217  1
  Na  Na15  1  0.005578  0.525992  0.749783  1
  Na  Na16  1  0.505578  0.974008  0.249783  1
  Na  Na17  1  0.994422  0.474008  0.250217  1
  Al  Al18  1  0.000000  0.000000  0.000000  1
  Al  Al19  1  0.500000  0.500000  0.500000  1
