# generated using pymatgen
data_Na3VP8O23
_symmetry_space_group_name_H-M   'P 1'
_cell_length_a   12.17756545
_cell_length_b   12.17756545
_cell_length_c   12.17756545
_cell_angle_alpha   90.00000000
_cell_angle_beta   90.00000000
_cell_angle_gamma   90.00000000
_symmetry_Int_Tables_number   1
_chemical_formula_structural   Na3VP8O23
_chemical_formula_sum   'Na12 V4 P32 O92'
_cell_volume   1805.84893455
_cell_formula_units_Z   4
loop_
 _symmetry_equiv_pos_site_id
 _symmetry_equiv_pos_as_xyz
  1  'x, y, z'
loop_
 _atom_site_type_symbol
 _atom_site_label
 _atom_site_symmetry_multiplicity
 _atom_site_fract_x
 _atom_site_fract_y
 _atom_site_fract_z
 _atom_site_occupancy
  O  O0  1  0.662388  0.662388  0.662388  1
  O  O1  1  0.912388  0.587612  0.412388  1
  O  O2  1  0.587612  0.412388  0.912388  1
  O  O3  1  0.412388  0.912388  0.587612  1
  O  O4  1  0.162388  0.837612  0.337612  1
  O  O5  1  0.837612  0.337612  0.162388  1
  O  O6  1  0.337612  0.162388  0.837612  1
  O  O7  1  0.087612  0.087612  0.087612  1
  O  O8  1  0.436619  0.511299  0.682126  1
  O  O9  1  0.936619  0.988701  0.317874  1
  O  O10  1  0.511299  0.682126  0.436619  1
  O  O11  1  0.488701  0.182126  0.063381  1
  O  O12  1  0.682126  0.436619  0.511299  1
  O  O13  1  0.817874  0.563381  0.011299  1
  O  O14  1  0.186619  0.932126  0.738701  1
  O  O15  1  0.686619  0.567874  0.261299  1
  O  O16  1  0.813381  0.432126  0.761299  1
  O  O17  1  0.567874  0.261299  0.686619  1
  O  O18  1  0.761299  0.813381  0.432126  1
  O  O19  1  0.261299  0.686619  0.567874  1
  O  O20  1  0.932126  0.738701  0.186619  1
  O  O21  1  0.738701  0.186619  0.932126  1
  O  O22  1  0.432126  0.761299  0.813381  1
  O  O23  1  0.067874  0.238701  0.313381  1
  O  O24  1  0.238701  0.313381  0.067874  1
  O  O25  1  0.317874  0.936619  0.988701  1
  O  O26  1  0.182126  0.063381  0.488701  1
  O  O27  1  0.011299  0.817874  0.563381  1
  O  O28  1  0.988701  0.317874  0.936619  1
  O  O29  1  0.063381  0.488701  0.182126  1
  O  O30  1  0.563381  0.011299  0.817874  1
  O  O31  1  0.313381  0.067874  0.238701  1
  O  O32  1  0.625000  0.233890  0.483890  1
  O  O33  1  0.766110  0.983890  0.875000  1
  O  O34  1  0.740310  0.325296  0.345481  1
  O  O35  1  0.483890  0.625000  0.233890  1
  O  O36  1  0.233890  0.483890  0.625000  1
  O  O37  1  0.516110  0.125000  0.266110  1
  O  O38  1  0.983890  0.875000  0.766110  1
  O  O39  1  0.733890  0.016110  0.375000  1
  O  O40  1  0.266110  0.516110  0.125000  1
  O  O41  1  0.875000  0.766110  0.983890  1
  O  O42  1  0.375000  0.733890  0.016110  1
  O  O43  1  0.125000  0.266110  0.516110  1
  O  O44  1  0.325296  0.345481  0.740310  1
  O  O45  1  0.825296  0.154519  0.259690  1
  O  O46  1  0.345481  0.740310  0.325296  1
  O  O47  1  0.654519  0.240310  0.174704  1
  O  O48  1  0.040718  0.120483  0.635760  1
  O  O49  1  0.290718  0.614240  0.870483  1
  O  O50  1  0.790718  0.885760  0.129517  1
  O  O51  1  0.385760  0.370483  0.209282  1
  O  O52  1  0.614240  0.870483  0.290718  1
  O  O53  1  0.129517  0.790718  0.885760  1
  O  O54  1  0.370483  0.209282  0.385760  1
  O  O55  1  0.635760  0.040718  0.120483  1
  O  O56  1  0.120483  0.635760  0.040718  1
  O  O57  1  0.379517  0.364240  0.540718  1
  O  O58  1  0.135760  0.459282  0.879517  1
  O  O59  1  0.879517  0.135760  0.459282  1
  O  O60  1  0.864240  0.959282  0.620483  1
  O  O61  1  0.364240  0.540718  0.379517  1
  O  O62  1  0.620483  0.864240  0.959282  1
  O  O63  1  0.540718  0.379517  0.364240  1
  O  O64  1  0.959282  0.620483  0.864240  1
  O  O65  1  0.459282  0.879517  0.135760  1
  O  O66  1  0.870483  0.290718  0.614240  1
  O  O67  1  0.629517  0.709282  0.114240  1
  O  O68  1  0.885760  0.129517  0.790718  1
  O  O69  1  0.114240  0.629517  0.709282  1
  O  O70  1  0.209282  0.385760  0.370483  1
  O  O71  1  0.709282  0.114240  0.629517  1
  O  O72  1  0.424704  0.009690  0.404519  1
  O  O73  1  0.674704  0.845481  0.759690  1
  O  O74  1  0.174704  0.654519  0.240310  1
  O  O75  1  0.154519  0.259690  0.825296  1
  O  O76  1  0.845481  0.759690  0.674704  1
  O  O77  1  0.240310  0.174704  0.654519  1
  O  O78  1  0.259690  0.825296  0.154519  1
  O  O79  1  0.404519  0.424704  0.009690  1
  O  O80  1  0.009690  0.404519  0.424704  1
  O  O81  1  0.490310  0.595481  0.924704  1
  O  O82  1  0.904519  0.075296  0.990310  1
  O  O83  1  0.990310  0.904519  0.075296  1
  O  O84  1  0.095481  0.575296  0.509690  1
  O  O85  1  0.595481  0.924704  0.490310  1
  O  O86  1  0.509690  0.095481  0.575296  1
  O  O87  1  0.924704  0.490310  0.595481  1
  O  O88  1  0.575296  0.509690  0.095481  1
  O  O89  1  0.075296  0.990310  0.904519  1
  O  O90  1  0.759690  0.674704  0.845481  1
  O  O91  1  0.016110  0.375000  0.733890  1
  Na  Na92  1  0.375000  0.955570  0.794430  1
  Na  Na93  1  0.875000  0.544430  0.205570  1
  Na  Na94  1  0.044430  0.294430  0.125000  1
  Na  Na95  1  0.955570  0.794430  0.375000  1
  Na  Na96  1  0.205570  0.875000  0.544430  1
  Na  Na97  1  0.294430  0.125000  0.044430  1
  Na  Na98  1  0.455570  0.705570  0.625000  1
  Na  Na99  1  0.794430  0.375000  0.955570  1
  Na  Na100  1  0.705570  0.625000  0.455570  1
  Na  Na101  1  0.544430  0.205570  0.875000  1
  Na  Na102  1  0.625000  0.455570  0.705570  1
  Na  Na103  1  0.125000  0.044430  0.294430  1
  P  P104  1  0.068528  0.359027  0.854002  1
  P  P105  1  0.895998  0.390973  0.681472  1
  P  P106  1  0.359027  0.854002  0.068528  1
  P  P107  1  0.859027  0.645998  0.931472  1
  P  P108  1  0.640973  0.354002  0.431472  1
  P  P109  1  0.645998  0.931472  0.859027  1
  P  P110  1  0.431472  0.640973  0.354002  1
  P  P111  1  0.931472  0.859027  0.645998  1
  P  P112  1  0.854002  0.068528  0.359027  1
  P  P113  1  0.604002  0.609027  0.181472  1
  P  P114  1  0.354002  0.431472  0.640973  1
  P  P115  1  0.145998  0.568528  0.140973  1
  P  P116  1  0.818528  0.104002  0.890973  1
  P  P117  1  0.395998  0.109027  0.318528  1
  P  P118  1  0.104002  0.890973  0.818528  1
  P  P119  1  0.681472  0.895998  0.390973  1
  P  P120  1  0.318528  0.395998  0.109027  1
  P  P121  1  0.890973  0.818528  0.104002  1
  P  P122  1  0.390973  0.681472  0.895998  1
  P  P123  1  0.140973  0.145998  0.568528  1
  P  P124  1  0.181472  0.604002  0.609027  1
  P  P125  1  0.109027  0.318528  0.395998  1
  P  P126  1  0.609027  0.181472  0.604002  1
  P  P127  1  0.017305  0.017305  0.017305  1
  P  P128  1  0.267305  0.232695  0.767305  1
  P  P129  1  0.767305  0.267305  0.232695  1
  P  P130  1  0.232695  0.767305  0.267305  1
  P  P131  1  0.482695  0.982695  0.517305  1
  P  P132  1  0.517305  0.482695  0.982695  1
  P  P133  1  0.982695  0.517305  0.482695  1
  P  P134  1  0.732695  0.732695  0.732695  1
  P  P135  1  0.568528  0.140973  0.145998  1
  V  V136  1  0.875000  0.125000  0.625000  1
  V  V137  1  0.125000  0.625000  0.875000  1
  V  V138  1  0.625000  0.875000  0.125000  1
  V  V139  1  0.375000  0.375000  0.375000  1
