# generated using pymatgen
data_PrFeGe2O7
_symmetry_space_group_name_H-M   'P 1'
_cell_length_a   6.70565703
_cell_length_b   7.37089452
_cell_length_c   11.78042140
_cell_angle_alpha   96.38827719
_cell_angle_beta   90.00000000
_cell_angle_gamma   90.00000000
_symmetry_Int_Tables_number   1
_chemical_formula_structural   PrFeGe2O7
_chemical_formula_sum   'Pr4 Fe4 Ge8 O28'
_cell_volume   578.65177488
_cell_formula_units_Z   4
loop_
 _symmetry_equiv_pos_site_id
 _symmetry_equiv_pos_as_xyz
  1  'x, y, z'
loop_
 _atom_site_type_symbol
 _atom_site_label
 _atom_site_symmetry_multiplicity
 _atom_site_fract_x
 _atom_site_fract_y
 _atom_site_fract_z
 _atom_site_occupancy
  O  O0  1  0.311565  0.532963  0.686560  1
  O  O1  1  0.811565  0.967037  0.813440  1
  O  O2  1  0.688435  0.467037  0.313440  1
  O  O3  1  0.188435  0.032963  0.186560  1
  O  O4  1  0.046517  0.833472  0.625468  1
  O  O5  1  0.546517  0.666528  0.874532  1
  O  O6  1  0.953483  0.166528  0.374532  1
  O  O7  1  0.453483  0.333472  0.125468  1
  O  O8  1  0.502486  0.174805  0.920467  1
  O  O9  1  0.002486  0.325195  0.579533  1
  O  O10  1  0.497514  0.825195  0.079533  1
  O  O11  1  0.997514  0.674805  0.420467  1
  O  O12  1  0.165076  0.912813  0.923371  1
  O  O13  1  0.665076  0.587187  0.576629  1
  O  O14  1  0.834924  0.087187  0.076629  1
  O  O15  1  0.334924  0.412813  0.423371  1
  O  O16  1  0.825992  0.426334  0.017152  1
  O  O17  1  0.325992  0.073666  0.482848  1
  O  O18  1  0.174008  0.573666  0.982848  1
  O  O19  1  0.674008  0.926334  0.517152  1
  O  O20  1  0.109131  0.439319  0.220529  1
  O  O21  1  0.609131  0.060681  0.279471  1
  O  O22  1  0.890869  0.560681  0.779471  1
  O  O23  1  0.390869  0.939319  0.720529  1
  O  O24  1  0.375637  0.740633  0.305414  1
  O  O25  1  0.875637  0.759367  0.194586  1
  O  O26  1  0.624363  0.259367  0.694586  1
  O  O27  1  0.124363  0.240633  0.805414  1
  Fe  Fe28  1  0.100863  0.980306  0.768295  1
  Fe  Fe29  1  0.399137  0.480306  0.268295  1
  Fe  Fe30  1  0.899137  0.019694  0.231705  1
  Fe  Fe31  1  0.600863  0.519694  0.731705  1
  Ge  Ge32  1  0.341705  0.743697  0.960073  1
  Ge  Ge33  1  0.088779  0.422910  0.720533  1
  Ge  Ge34  1  0.158295  0.243697  0.460073  1
  Ge  Ge35  1  0.658295  0.256303  0.039927  1
  Ge  Ge36  1  0.911221  0.577090  0.279467  1
  Ge  Ge37  1  0.411221  0.922910  0.220533  1
  Ge  Ge38  1  0.588779  0.077090  0.779467  1
  Ge  Ge39  1  0.841705  0.756303  0.539927  1
  Pr  Pr40  1  0.352523  0.763409  0.524043  1
  Pr  Pr41  1  0.852523  0.736591  0.975957  1
  Pr  Pr42  1  0.647477  0.236591  0.475957  1
  Pr  Pr43  1  0.147477  0.263409  0.024043  1
