# generated using pymatgen
data_Dy2C3
_symmetry_space_group_name_H-M   'P 1'
_cell_length_a   7.13381739
_cell_length_b   7.13381739
_cell_length_c   7.13381740
_cell_angle_alpha   109.47122063
_cell_angle_beta   109.47122062
_cell_angle_gamma   109.47122065
_symmetry_Int_Tables_number   1
_chemical_formula_structural   Dy2C3
_chemical_formula_sum   'Dy8 C12'
_cell_volume   279.47571425
_cell_formula_units_Z   4
loop_
 _symmetry_equiv_pos_site_id
 _symmetry_equiv_pos_as_xyz
  1  'x, y, z'
loop_
 _atom_site_type_symbol
 _atom_site_label
 _atom_site_symmetry_multiplicity
 _atom_site_fract_x
 _atom_site_fract_y
 _atom_site_fract_z
 _atom_site_occupancy
  C  C0  1  0.750000  0.793695  0.043695  1
  C  C1  1  0.750000  0.956305  0.206305  1
  C  C2  1  0.293695  0.250000  0.543695  1
  C  C3  1  0.543695  0.293695  0.250000  1
  C  C4  1  0.206305  0.750000  0.956305  1
  C  C5  1  0.956305  0.206305  0.750000  1
  C  C6  1  0.250000  0.706305  0.456305  1
  C  C7  1  0.706305  0.456305  0.250000  1
  C  C8  1  0.250000  0.543695  0.293695  1
  C  C9  1  0.456305  0.250000  0.706305  1
  C  C10  1  0.043695  0.750000  0.793695  1
  C  C11  1  0.793695  0.043695  0.750000  1
  Dy  Dy12  1  0.601162  0.601162  0.601162  1
  Dy  Dy13  1  0.398838  0.500000  0.000000  1
  Dy  Dy14  1  0.500000  0.000000  0.398838  1
  Dy  Dy15  1  0.000000  0.398838  0.500000  1
  Dy  Dy16  1  0.500000  0.000000  0.898838  1
  Dy  Dy17  1  0.000000  0.898838  0.500000  1
  Dy  Dy18  1  0.898838  0.500000  0.000000  1
  Dy  Dy19  1  0.101162  0.101162  0.101162  1
