# generated using pymatgen
data_VIn2O5
_symmetry_space_group_name_H-M   'P 1'
_cell_length_a   3.56929039
_cell_length_b   7.32687262
_cell_length_c   14.98459887
_cell_angle_alpha   90.00000000
_cell_angle_beta   90.00000000
_cell_angle_gamma   90.00000000
_symmetry_Int_Tables_number   1
_chemical_formula_structural   VIn2O5
_chemical_formula_sum   'V4 In8 O20'
_cell_volume   391.87327418
_cell_formula_units_Z   4
loop_
 _symmetry_equiv_pos_site_id
 _symmetry_equiv_pos_as_xyz
  1  'x, y, z'
loop_
 _atom_site_type_symbol
 _atom_site_label
 _atom_site_symmetry_multiplicity
 _atom_site_fract_x
 _atom_site_fract_y
 _atom_site_fract_z
 _atom_site_occupancy
  O  O0  1  0.249999  0.435262  0.958652  1
  O  O1  1  0.750001  0.564737  0.041348  1
  O  O2  1  0.249999  0.935263  0.541348  1
  O  O3  1  0.750001  0.064738  0.458652  1
  O  O4  1  0.249999  0.732577  0.176282  1
  O  O5  1  0.750001  0.267423  0.823718  1
  O  O6  1  0.249999  0.232577  0.323718  1
  O  O7  1  0.750001  0.767422  0.676282  1
  O  O8  1  0.249999  0.369526  0.151487  1
  O  O9  1  0.750001  0.630475  0.848514  1
  O  O10  1  0.249999  0.869526  0.348513  1
  O  O11  1  0.750001  0.130475  0.651487  1
  O  O12  1  0.750001  0.058471  0.175744  1
  O  O13  1  0.249999  0.941529  0.824256  1
  O  O14  1  0.750001  0.558471  0.324256  1
  O  O15  1  0.249999  0.441530  0.675744  1
  O  O16  1  0.249999  0.845300  0.004537  1
  O  O17  1  0.249999  0.345300  0.495463  1
  O  O18  1  0.750001  0.154700  0.995463  1
  O  O19  1  0.750001  0.654701  0.504536  1
  V  V20  1  0.249999  0.604473  0.074829  1
  V  V21  1  0.750001  0.395527  0.925171  1
  V  V22  1  0.249999  0.104474  0.425170  1
  V  V23  1  0.750001  0.895527  0.574829  1
  In  In24  1  0.249999  0.603559  0.418196  1
  In  In25  1  0.750001  0.896440  0.918196  1
  In  In26  1  0.249999  0.103559  0.081804  1
  In  In27  1  0.750001  0.396441  0.581804  1
  In  In28  1  0.249999  0.674205  0.760646  1
  In  In29  1  0.750001  0.325796  0.239353  1
  In  In30  1  0.249999  0.174204  0.739353  1
  In  In31  1  0.750001  0.825796  0.260646  1
