# generated using pymatgen
data_Bi2Te4Cl7
_symmetry_space_group_name_H-M   'P 1'
_cell_length_a   8.98363442
_cell_length_b   16.83373706
_cell_length_c   23.44742091
_cell_angle_alpha   90.00000000
_cell_angle_beta   90.00000000
_cell_angle_gamma   90.00000000
_symmetry_Int_Tables_number   1
_chemical_formula_structural   Bi2Te4Cl7
_chemical_formula_sum   'Bi16 Te32 Cl56'
_cell_volume   3545.90984427
_cell_formula_units_Z   8
loop_
 _symmetry_equiv_pos_site_id
 _symmetry_equiv_pos_as_xyz
  1  'x, y, z'
loop_
 _atom_site_type_symbol
 _atom_site_label
 _atom_site_symmetry_multiplicity
 _atom_site_fract_x
 _atom_site_fract_y
 _atom_site_fract_z
 _atom_site_occupancy
  Cl  Cl0  1  0.982393  0.004642  0.216739  1
  Cl  Cl1  1  0.482393  0.995358  0.283261  1
  Cl  Cl2  1  0.517607  0.504642  0.783261  1
  Cl  Cl3  1  0.017607  0.495358  0.716739  1
  Cl  Cl4  1  0.846521  0.977322  0.354747  1
  Cl  Cl5  1  0.346521  0.022678  0.145253  1
  Cl  Cl6  1  0.653479  0.477322  0.645253  1
  Cl  Cl7  1  0.153479  0.522678  0.854747  1
  Cl  Cl8  1  0.176820  0.862547  0.308856  1
  Cl  Cl9  1  0.676820  0.137453  0.191144  1
  Cl  Cl10  1  0.323180  0.362547  0.691144  1
  Cl  Cl11  1  0.823180  0.637453  0.808856  1
  Cl  Cl12  1  0.418588  0.702215  0.199415  1
  Cl  Cl13  1  0.918588  0.297785  0.300585  1
  Cl  Cl14  1  0.081412  0.202215  0.800585  1
  Cl  Cl15  1  0.581412  0.797785  0.699415  1
  Cl  Cl16  1  0.370763  0.832983  0.082175  1
  Cl  Cl17  1  0.870763  0.167017  0.417825  1
  Cl  Cl18  1  0.129237  0.332983  0.917825  1
  Cl  Cl19  1  0.629237  0.667017  0.582175  1
  Cl  Cl20  1  0.674957  0.873957  0.170687  1
  Cl  Cl21  1  0.174957  0.126043  0.329313  1
  Cl  Cl22  1  0.825043  0.373957  0.829313  1
  Cl  Cl23  1  0.325043  0.626043  0.670687  1
  Cl  Cl24  1  0.559222  0.808642  0.314320  1
  Cl  Cl25  1  0.059222  0.191358  0.185680  1
  Cl  Cl26  1  0.940778  0.308642  0.685680  1
  Cl  Cl27  1  0.440778  0.691358  0.814320  1
  Cl  Cl28  1  0.632881  0.657777  0.416922  1
  Cl  Cl29  1  0.132881  0.342223  0.083078  1
  Cl  Cl30  1  0.867119  0.157777  0.583078  1
  Cl  Cl31  1  0.367119  0.842223  0.916922  1
  Cl  Cl32  1  0.300382  0.635068  0.337503  1
  Cl  Cl33  1  0.800382  0.364932  0.162497  1
  Cl  Cl34  1  0.199618  0.135068  0.662497  1
  Cl  Cl35  1  0.699618  0.864932  0.837503  1
  Cl  Cl36  1  0.002684  0.495980  0.271653  1
  Cl  Cl37  1  0.502684  0.504020  0.228347  1
  Cl  Cl38  1  0.497316  0.995980  0.728347  1
  Cl  Cl39  1  0.997316  0.004020  0.771653  1
  Cl  Cl40  1  0.800216  0.631540  0.177362  1
  Cl  Cl41  1  0.300216  0.368460  0.322638  1
  Cl  Cl42  1  0.699784  0.131540  0.822638  1
  Cl  Cl43  1  0.199784  0.868460  0.677362  1
  Cl  Cl44  1  0.147213  0.544702  0.131360  1
  Cl  Cl45  1  0.647213  0.455298  0.368640  1
  Cl  Cl46  1  0.352787  0.044702  0.868640  1
  Cl  Cl47  1  0.852787  0.955298  0.631360  1
  Cl  Cl48  1  0.897869  0.704175  0.310771  1
  Cl  Cl49  1  0.397869  0.295825  0.189229  1
  Cl  Cl50  1  0.602131  0.204175  0.689229  1
  Cl  Cl51  1  0.102131  0.795825  0.810771  1
  Cl  Cl52  1  0.060580  0.803452  0.175491  1
  Cl  Cl53  1  0.560580  0.196548  0.324509  1
  Cl  Cl54  1  0.439420  0.303452  0.824509  1
  Cl  Cl55  1  0.939420  0.696548  0.675491  1
  Te  Te56  1  0.868216  0.186513  0.047847  1
  Te  Te57  1  0.368216  0.813487  0.452153  1
  Te  Te58  1  0.631784  0.686513  0.952153  1
  Te  Te59  1  0.131784  0.313487  0.547847  1
  Te  Te60  1  0.122774  0.141258  0.981258  1
  Te  Te61  1  0.622774  0.858742  0.518742  1
  Te  Te62  1  0.377226  0.641258  0.018742  1
  Te  Te63  1  0.877226  0.358742  0.481258  1
  Te  Te64  1  0.161482  0.993696  0.025162  1
  Te  Te65  1  0.661482  0.006304  0.474838  1
  Te  Te66  1  0.338518  0.493696  0.974838  1
  Te  Te67  1  0.838518  0.506304  0.525162  1
  Te  Te68  1  0.011951  0.927663  0.932440  1
  Te  Te69  1  0.511951  0.072337  0.567560  1
  Te  Te70  1  0.488049  0.427663  0.067560  1
  Te  Te71  1  0.988049  0.572337  0.432440  1
  Te  Te72  1  0.716488  0.971788  0.963283  1
  Te  Te73  1  0.216488  0.028212  0.536717  1
  Te  Te74  1  0.783512  0.471788  0.036717  1
  Te  Te75  1  0.283512  0.528212  0.463283  1
  Te  Te76  1  0.753298  0.031178  0.068624  1
  Te  Te77  1  0.253298  0.968822  0.431376  1
  Te  Te78  1  0.746702  0.531178  0.931376  1
  Te  Te79  1  0.246702  0.468822  0.568624  1
  Te  Te80  1  0.050282  0.766470  0.973274  1
  Te  Te81  1  0.550282  0.233530  0.526726  1
  Te  Te82  1  0.449718  0.266470  0.026726  1
  Te  Te83  1  0.949718  0.733530  0.473274  1
  Te  Te84  1  0.814469  0.741441  0.041309  1
  Te  Te85  1  0.314469  0.258559  0.458691  1
  Te  Te86  1  0.685531  0.241441  0.958691  1
  Te  Te87  1  0.185531  0.758559  0.541309  1
  Bi  Bi88  1  0.915428  0.874428  0.265855  1
  Bi  Bi89  1  0.415428  0.125572  0.234145  1
  Bi  Bi90  1  0.584572  0.374428  0.734145  1
  Bi  Bi91  1  0.084572  0.625572  0.765855  1
  Bi  Bi92  1  0.391089  0.859751  0.189151  1
  Bi  Bi93  1  0.891089  0.140249  0.310849  1
  Bi  Bi94  1  0.108911  0.359751  0.810849  1
  Bi  Bi95  1  0.608911  0.640249  0.689151  1
  Bi  Bi96  1  0.576012  0.656358  0.307474  1
  Bi  Bi97  1  0.076012  0.343642  0.192526  1
  Bi  Bi98  1  0.923988  0.156358  0.692526  1
  Bi  Bi99  1  0.423988  0.843642  0.807474  1
  Bi  Bi100  1  0.058397  0.625867  0.218948  1
  Bi  Bi101  1  0.558397  0.374133  0.281052  1
  Bi  Bi102  1  0.441603  0.125867  0.781052  1
  Bi  Bi103  1  0.941603  0.874133  0.718948  1
