# generated using pymatgen
data_Th2Ta2O9
_symmetry_space_group_name_H-M   'P 1'
_cell_length_a   7.47353118
_cell_length_b   9.78327582
_cell_length_c   9.78327582
_cell_angle_alpha   106.66450955
_cell_angle_beta   90.00000000
_cell_angle_gamma   90.00000000
_symmetry_Int_Tables_number   1
_chemical_formula_structural   Th2Ta2O9
_chemical_formula_sum   'Th8 Ta8 O36'
_cell_volume   685.26743740
_cell_formula_units_Z   4
loop_
 _symmetry_equiv_pos_site_id
 _symmetry_equiv_pos_as_xyz
  1  'x, y, z'
loop_
 _atom_site_type_symbol
 _atom_site_label
 _atom_site_symmetry_multiplicity
 _atom_site_fract_x
 _atom_site_fract_y
 _atom_site_fract_z
 _atom_site_occupancy
  O  O0  1  0.500000  0.176188  0.176188  1
  O  O1  1  0.000000  0.823812  0.823812  1
  O  O2  1  0.500000  0.817797  0.817797  1
  O  O3  1  0.000000  0.182203  0.182203  1
  O  O4  1  0.500000  0.431072  0.431072  1
  O  O5  1  0.000000  0.568928  0.568928  1
  O  O6  1  0.250000  0.026940  0.973060  1
  O  O7  1  0.750000  0.973060  0.026940  1
  O  O8  1  0.198569  0.490871  0.292409  1
  O  O9  1  0.698569  0.509129  0.707591  1
  O  O10  1  0.801431  0.292409  0.490871  1
  O  O11  1  0.301431  0.707591  0.509129  1
  O  O12  1  0.979867  0.791767  0.371133  1
  O  O13  1  0.479867  0.208233  0.628867  1
  O  O14  1  0.020133  0.371133  0.791767  1
  O  O15  1  0.520133  0.628867  0.208233  1
  O  O16  1  0.031063  0.852527  0.101153  1
  O  O17  1  0.531063  0.147473  0.898847  1
  O  O18  1  0.968937  0.101153  0.852527  1
  O  O19  1  0.468937  0.898847  0.147473  1
  O  O20  1  0.282964  0.966492  0.669677  1
  O  O21  1  0.782964  0.033508  0.330323  1
  O  O22  1  0.717036  0.669677  0.966492  1
  O  O23  1  0.217036  0.330323  0.033508  1
  O  O24  1  0.703482  0.978054  0.657497  1
  O  O25  1  0.203482  0.021946  0.342503  1
  O  O26  1  0.296518  0.657497  0.978054  1
  O  O27  1  0.796518  0.342503  0.021946  1
  O  O28  1  0.000201  0.107032  0.583135  1
  O  O29  1  0.500201  0.892968  0.416865  1
  O  O30  1  0.999799  0.583135  0.107032  1
  O  O31  1  0.499798  0.416865  0.892968  1
  O  O32  1  0.679004  0.697127  0.543546  1
  O  O33  1  0.179004  0.302873  0.456454  1
  O  O34  1  0.320996  0.543546  0.697127  1
  O  O35  1  0.820996  0.456454  0.302873  1
  Ta  Ta36  1  0.500000  0.991305  0.991305  1
  Ta  Ta37  1  0.000000  0.008695  0.008695  1
  Ta  Ta38  1  0.250000  0.505397  0.494603  1
  Ta  Ta39  1  0.750000  0.494603  0.505397  1
  Ta  Ta40  1  0.498567  0.854582  0.600345  1
  Ta  Ta41  1  -0.001433  0.145418  0.399655  1
  Ta  Ta42  1  0.501433  0.600345  0.854582  1
  Ta  Ta43  1  1.001433  0.399655  0.145418  1
  Th  Th44  1  0.250000  0.206674  0.793326  1
  Th  Th45  1  0.750000  0.793326  0.206674  1
  Th  Th46  1  0.250000  0.761422  0.238578  1
  Th  Th47  1  0.750000  0.238578  0.761422  1
  Th  Th48  1  0.512618  0.389883  0.134453  1
  Th  Th49  1  0.012618  0.610117  0.865548  1
  Th  Th50  1  0.487382  0.134453  0.389883  1
  Th  Th51  1  0.987382  0.865548  0.610117  1
