# generated using pymatgen
data_KI3F16
_symmetry_space_group_name_H-M   'P 1'
_cell_length_a   14.02255660
_cell_length_b   14.00626920
_cell_length_c   14.17130941
_cell_angle_alpha   90.00000000
_cell_angle_beta   90.00000000
_cell_angle_gamma   90.07285753
_symmetry_Int_Tables_number   1
_chemical_formula_structural   KI3F16
_chemical_formula_sum   'K8 I24 F128'
_cell_volume   2783.29538927
_cell_formula_units_Z   8
loop_
 _symmetry_equiv_pos_site_id
 _symmetry_equiv_pos_as_xyz
  1  'x, y, z'
loop_
 _atom_site_type_symbol
 _atom_site_label
 _atom_site_symmetry_multiplicity
 _atom_site_fract_x
 _atom_site_fract_y
 _atom_site_fract_z
 _atom_site_occupancy
  F  F0  1  0.598784  0.545765  0.372235  1
  F  F1  1  0.401216  0.954235  0.872235  1
  F  F2  1  0.401216  0.454235  0.627765  1
  F  F3  1  0.598784  0.045765  0.127766  1
  F  F4  1  0.574317  0.543130  0.183784  1
  F  F5  1  0.425683  0.956870  0.683784  1
  F  F6  1  0.425683  0.456870  0.816216  1
  F  F7  1  0.574317  0.043130  0.316216  1
  F  F8  1  0.386759  0.500771  0.205327  1
  F  F9  1  0.613241  0.999229  0.705327  1
  F  F10  1  0.613241  0.499229  0.794673  1
  F  F11  1  0.386759  0.000771  0.294673  1
  F  F12  1  0.407635  0.504060  0.396357  1
  F  F13  1  0.592365  0.995940  0.896357  1
  F  F14  1  0.592365  0.495940  0.603643  1
  F  F15  1  0.407635  0.004060  0.103643  1
  F  F16  1  0.514338  0.412689  0.287478  1
  F  F17  1  0.485662  0.087311  0.787478  1
  F  F18  1  0.485662  0.587311  0.712522  1
  F  F19  1  0.514338  0.912689  0.212522  1
  F  F20  1  0.443415  0.606921  0.013187  1
  F  F21  1  0.556585  0.893079  0.513187  1
  F  F22  1  0.556585  0.393079  0.986813  1
  F  F23  1  0.443415  0.106921  0.486813  1
  F  F24  1  0.419878  0.797275  0.031444  1
  F  F25  1  0.580122  0.702725  0.531444  1
  F  F26  1  0.580122  0.202725  0.968556  1
  F  F27  1  0.419878  0.297275  0.468556  1
  F  F28  1  0.611163  0.823889  0.031487  1
  F  F29  1  0.388837  0.676111  0.531487  1
  F  F30  1  0.388837  0.176111  0.968513  1
  F  F31  1  0.611163  0.323889  0.468513  1
  F  F32  1  0.635996  0.629511  0.013333  1
  F  F33  1  0.364004  0.870489  0.513333  1
  F  F34  1  0.364004  0.370489  0.986667  1
  F  F35  1  0.635996  0.129511  0.486667  1
  F  F36  1  0.526511  0.725500  0.910406  1
  F  F37  1  0.473489  0.774500  0.410406  1
  F  F38  1  0.473489  0.274500  0.089594  1
  F  F39  1  0.526511  0.225500  0.589594  1
  F  F40  1  0.263880  0.685331  0.124837  1
  F  F41  1  0.736120  0.814669  0.624837  1
  F  F42  1  0.736120  0.314669  0.875163  1
  F  F43  1  0.263880  0.185331  0.375163  1
  F  F44  1  0.285468  0.657933  0.312801  1
  F  F45  1  0.714532  0.842067  0.812801  1
  F  F46  1  0.714532  0.342067  0.687199  1
  F  F47  1  0.285468  0.157933  0.187199  1
  F  F48  1  0.260925  0.844616  0.344126  1
  F  F49  1  0.739075  0.655384  0.844126  1
  F  F50  1  0.739075  0.155384  0.655874  1
  F  F51  1  0.260925  0.344616  0.155874  1
  F  F52  1  0.240687  0.875179  0.152199  1
  F  F53  1  0.759313  0.624821  0.652199  1
  F  F54  1  0.759313  0.124821  0.847801  1
  F  F55  1  0.240687  0.375179  0.347801  1
  F  F56  1  0.151661  0.750770  0.242106  1
  F  F57  1  0.848339  0.749230  0.742106  1
  F  F58  1  0.848339  0.249230  0.757894  1
  F  F59  1  0.151661  0.250770  0.257894  1
  F  F60  1  0.255330  0.629986  0.694430  1
  F  F61  1  0.744670  0.870014  0.194430  1
  F  F62  1  0.744670  0.370014  0.305570  1
  F  F63  1  0.255330  0.129986  0.805570  1
  F  F64  1  0.210078  0.818860  0.689506  1
  F  F65  1  0.789922  0.681140  0.189506  1
  F  F66  1  0.789922  0.181140  0.310494  1
  F  F67  1  0.210078  0.318860  0.810494  1
  F  F68  1  0.212979  0.824943  0.880373  1
  F  F69  1  0.787021  0.675057  0.380373  1
  F  F70  1  0.787021  0.175057  0.119627  1
  F  F71  1  0.212979  0.324943  0.619627  1
  F  F72  1  0.259375  0.634708  0.885165  1
  F  F73  1  0.740625  0.865292  0.385165  1
  F  F74  1  0.740625  0.365292  0.114835  1
  F  F75  1  0.259375  0.134708  0.614835  1
  F  F76  1  0.344227  0.753766  0.783072  1
  F  F77  1  0.655773  0.746234  0.283072  1
  F  F78  1  0.655773  0.246234  0.216928  1
  F  F79  1  0.344227  0.253766  0.716928  1
  F  F80  1  0.888142  0.509838  0.807539  1
  F  F81  1  0.111858  0.990162  0.307538  1
  F  F82  1  0.111858  0.490162  0.192462  1
  F  F83  1  0.888142  0.009838  0.692461  1
  F  F84  1  0.078985  0.538061  0.813466  1
  F  F85  1  0.921015  0.961939  0.313466  1
  F  F86  1  0.921015  0.461939  0.186534  1
  F  F87  1  0.078985  0.038061  0.686534  1
  F  F88  1  0.091305  0.501157  0.625372  1
  F  F89  1  0.908695  0.998843  0.125372  1
  F  F90  1  0.908695  0.498843  0.374628  1
  F  F91  1  0.091305  0.001157  0.874628  1
  F  F92  1  0.901686  0.470138  0.617365  1
  F  F93  1  0.098314  0.029862  0.117365  1
  F  F94  1  0.098314  0.529862  0.382635  1
  F  F95  1  0.901686  0.970138  0.882635  1
  F  F96  1  0.006882  0.395912  0.739284  1
  F  F97  1  0.993118  0.104088  0.239284  1
  F  F98  1  0.993118  0.604088  0.260716  1
  F  F99  1  0.006882  0.895912  0.760716  1
  F  F100  1  0.956316  0.662693  0.534115  1
  F  F101  1  0.043684  0.837307  0.034115  1
  F  F102  1  0.043684  0.337307  0.465885  1
  F  F103  1  0.956316  0.162693  0.965885  1
  F  F104  1  0.145250  0.701614  0.510275  1
  F  F105  1  0.854750  0.798386  0.010275  1
  F  F106  1  0.854750  0.298386  0.489725  1
  F  F107  1  0.145250  0.201614  0.989725  1
  F  F108  1  0.107101  0.892560  0.512660  1
  F  F109  1  0.892899  0.607440  0.012660  1
  F  F110  1  0.892899  0.107440  0.487340  1
  F  F111  1  0.107101  0.392560  0.987340  1
  F  F112  1  0.916880  0.851809  0.535835  1
  F  F113  1  0.083120  0.648191  0.035835  1
  F  F114  1  0.083120  0.148191  0.464165  1
  F  F115  1  0.916880  0.351809  0.964165  1
  F  F116  1  0.017322  0.774639  0.412005  1
  F  F117  1  0.982678  0.725361  0.912005  1
  F  F118  1  0.982678  0.225361  0.587995  1
  F  F119  1  0.017322  0.274639  0.087995  1
  F  F120  1  0.447397  0.695040  0.202997  1
  F  F121  1  0.552603  0.804960  0.702997  1
  F  F122  1  0.552603  0.304960  0.797003  1
  F  F123  1  0.447397  0.195040  0.297003  1
  F  F124  1  0.059259  0.689741  0.695338  1
  F  F125  1  0.940741  0.810259  0.195338  1
  F  F126  1  0.940741  0.310259  0.304662  1
  F  F127  1  0.059259  0.189741  0.804662  1
  K  K128  1  0.753072  0.985946  0.540670  1
  K  K129  1  0.246928  0.514054  0.040670  1
  K  K130  1  0.246928  0.014054  0.459330  1
  K  K131  1  0.753072  0.485946  0.959330  1
  K  K132  1  0.748838  0.981317  0.013547  1
  K  K133  1  0.251162  0.518683  0.513547  1
  K  K134  1  0.251162  0.018683  0.986453  1
  K  K135  1  0.748838  0.481317  0.486453  1
  I  I136  1  0.487296  0.543830  0.289125  1
  I  I137  1  0.512704  0.956170  0.789125  1
  I  I138  1  0.512704  0.456170  0.710875  1
  I  I139  1  0.487296  0.043830  0.210875  1
  I  I140  1  0.527251  0.712300  0.042537  1
  I  I141  1  0.472749  0.787700  0.542537  1
  I  I142  1  0.472749  0.287700  0.957463  1
  I  I143  1  0.527251  0.212300  0.457463  1
  I  I144  1  0.283639  0.768887  0.231542  1
  I  I145  1  0.716361  0.731113  0.731542  1
  I  I146  1  0.716361  0.231113  0.768458  1
  I  I147  1  0.283639  0.268887  0.268458  1
  I  I148  1  0.214253  0.722492  0.787222  1
  I  I149  1  0.785747  0.777508  0.287222  1
  I  I150  1  0.785747  0.277508  0.212778  1
  I  I151  1  0.214253  0.222492  0.712778  1
  I  I152  1  0.987422  0.525646  0.711862  1
  I  I153  1  0.012578  0.974354  0.211862  1
  I  I154  1  0.012578  0.474354  0.288138  1
  I  I155  1  0.987422  0.025646  0.788138  1
  I  I156  1  0.034270  0.776592  0.543348  1
  I  I157  1  0.965730  0.723408  0.043348  1
  I  I158  1  0.965730  0.223408  0.456652  1
  I  I159  1  0.034270  0.276592  0.956652  1
