# generated using pymatgen
data_La3AsI3
_symmetry_space_group_name_H-M   'P 1'
_cell_length_a   10.97376256
_cell_length_b   10.97376256
_cell_length_c   10.97376256
_cell_angle_alpha   109.47122062
_cell_angle_beta   109.47122062
_cell_angle_gamma   109.47122065
_symmetry_Int_Tables_number   1
_chemical_formula_structural   La3AsI3
_chemical_formula_sum   'La12 As4 I12'
_cell_volume   1017.29002599
_cell_formula_units_Z   4
loop_
 _symmetry_equiv_pos_site_id
 _symmetry_equiv_pos_as_xyz
  1  'x, y, z'
loop_
 _atom_site_type_symbol
 _atom_site_label
 _atom_site_symmetry_multiplicity
 _atom_site_fract_x
 _atom_site_fract_y
 _atom_site_fract_z
 _atom_site_occupancy
  As  As0  1  0.500000  0.000000  0.750000  1
  As  As1  1  0.000000  0.750000  0.500000  1
  As  As2  1  0.750000  0.500000  0.000000  1
  As  As3  1  0.750000  0.750000  0.750000  1
  I  I4  1  0.482619  0.491310  0.241310  1
  I  I5  1  0.241310  0.482619  0.491310  1
  I  I6  1  0.241310  0.258690  0.750000  1
  I  I7  1  0.491310  0.750000  0.008690  1
  I  I8  1  0.491310  0.241310  0.482619  1
  I  I9  1  0.750000  0.241310  0.258690  1
  I  I10  1  0.750000  0.008690  0.491310  1
  I  I11  1  0.008690  0.491310  0.750000  1
  I  I12  1  0.017381  0.258690  0.008690  1
  I  I13  1  0.258690  0.750000  0.241310  1
  I  I14  1  0.008690  0.017381  0.258690  1
  I  I15  1  0.258690  0.008690  0.017381  1
  La  La16  1  0.250000  0.984657  0.515343  1
  La  La17  1  0.765343  0.734657  0.250000  1
  La  La18  1  0.734657  0.250000  0.765343  1
  La  La19  1  0.984657  0.969313  0.734657  1
  La  La20  1  0.515343  0.765343  0.530687  1
  La  La21  1  0.530687  0.515343  0.765343  1
  La  La22  1  0.969313  0.734657  0.984657  1
  La  La23  1  0.734657  0.984657  0.969313  1
  La  La24  1  0.984657  0.515343  0.250000  1
  La  La25  1  0.515343  0.250000  0.984657  1
  La  La26  1  0.765343  0.530687  0.515343  1
  La  La27  1  0.250000  0.765343  0.734657  1
