# generated using pymatgen
data_Si5Ir3
_symmetry_space_group_name_H-M   'P 1'
_cell_length_a   6.46965142
_cell_length_b   10.50465706
_cell_length_c   14.30463606
_cell_angle_alpha   90.00000000
_cell_angle_beta   90.00000000
_cell_angle_gamma   96.85281895
_symmetry_Int_Tables_number   1
_chemical_formula_structural   Si5Ir3
_chemical_formula_sum   'Si40 Ir24'
_cell_volume   965.21888311
_cell_formula_units_Z   8
loop_
 _symmetry_equiv_pos_site_id
 _symmetry_equiv_pos_as_xyz
  1  'x, y, z'
loop_
 _atom_site_type_symbol
 _atom_site_label
 _atom_site_symmetry_multiplicity
 _atom_site_fract_x
 _atom_site_fract_y
 _atom_site_fract_z
 _atom_site_occupancy
  Si  Si0  1  0.139062  0.692368  0.719903  1
  Si  Si1  1  0.360938  0.807632  0.219903  1
  Si  Si2  1  0.860938  0.307632  0.280097  1
  Si  Si3  1  0.639062  0.192368  0.780097  1
  Si  Si4  1  0.973092  0.356121  0.748889  1
  Si  Si5  1  0.526908  0.143879  0.248889  1
  Si  Si6  1  0.026908  0.643879  0.251111  1
  Si  Si7  1  0.473092  0.856121  0.751111  1
  Si  Si8  1  0.947766  0.205054  0.511998  1
  Si  Si9  1  0.552234  0.294946  0.011998  1
  Si  Si10  1  0.052234  0.794946  0.488002  1
  Si  Si11  1  0.447766  0.705054  0.988002  1
  Si  Si12  1  0.456478  0.409114  0.849916  1
  Si  Si13  1  0.043522  0.090886  0.349916  1
  Si  Si14  1  0.543522  0.590886  0.150084  1
  Si  Si15  1  0.336586  0.664627  0.556924  1
  Si  Si16  1  0.956478  0.909114  0.650084  1
  Si  Si17  1  0.843128  0.490598  0.063336  1
  Si  Si18  1  0.343128  0.990598  0.436664  1
  Si  Si19  1  0.156872  0.509402  0.936664  1
  Si  Si20  1  0.748492  0.608769  0.887158  1
  Si  Si21  1  0.751508  0.891231  0.387158  1
  Si  Si22  1  0.251508  0.391231  0.112842  1
  Si  Si23  1  0.248492  0.108769  0.612842  1
  Si  Si24  1  0.140639  0.067370  0.841590  1
  Si  Si25  1  0.359361  0.432630  0.341590  1
  Si  Si26  1  0.859361  0.932630  0.158410  1
  Si  Si27  1  0.640639  0.567370  0.658410  1
  Si  Si28  1  0.832582  0.576515  0.490054  1
  Si  Si29  1  0.667418  0.923485  0.990054  1
  Si  Si30  1  0.167418  0.423485  0.509946  1
  Si  Si31  1  0.332582  0.076515  0.009946  1
  Si  Si32  1  0.463352  0.327651  0.609452  1
  Si  Si33  1  0.036648  0.172349  0.109452  1
  Si  Si34  1  0.536648  0.672349  0.390548  1
  Si  Si35  1  0.963352  0.827651  0.890548  1
  Si  Si36  1  0.836586  0.164627  0.943076  1
  Si  Si37  1  0.663414  0.335373  0.443076  1
  Si  Si38  1  0.163414  0.835373  0.056924  1
  Si  Si39  1  0.656872  0.009402  0.563336  1
  Ir  Ir40  1  0.260165  0.493399  0.664517  1
  Ir  Ir41  1  0.239835  0.006601  0.164517  1
  Ir  Ir42  1  0.739835  0.506601  0.335483  1
  Ir  Ir43  1  0.760165  0.993399  0.835483  1
  Ir  Ir44  1  0.396882  0.633284  0.833435  1
  Ir  Ir45  1  0.103118  0.866716  0.333435  1
  Ir  Ir46  1  0.603118  0.366716  0.166565  1
  Ir  Ir47  1  0.896882  0.133284  0.666565  1
  Ir  Ir48  1  0.691092  0.772791  0.543424  1
  Ir  Ir49  1  0.808908  0.727209  0.043424  1
  Ir  Ir50  1  0.308908  0.227209  0.456576  1
  Ir  Ir51  1  0.191092  0.272791  0.956576  1
  Ir  Ir52  1  0.792593  0.743998  0.747636  1
  Ir  Ir53  1  0.707407  0.756002  0.247636  1
  Ir  Ir54  1  0.207407  0.256002  0.252364  1
  Ir  Ir55  1  0.292593  0.243998  0.752364  1
  Ir  Ir56  1  0.329614  0.896617  0.906394  1
  Ir  Ir57  1  0.170386  0.603383  0.406394  1
  Ir  Ir58  1  0.670386  0.103383  0.093606  1
  Ir  Ir59  1  0.829614  0.396617  0.593606  1
  Ir  Ir60  1  0.183670  0.611189  0.098206  1
  Ir  Ir61  1  0.316330  0.888811  0.598206  1
  Ir  Ir62  1  0.816330  0.388811  0.901794  1
  Ir  Ir63  1  0.683670  0.111189  0.401794  1
