# generated using pymatgen
data_V3H4NO8
_symmetry_space_group_name_H-M   'P 1'
_cell_length_a   5.10078111
_cell_length_b   8.07730056
_cell_length_c   8.58243288
_cell_angle_alpha   90.00000000
_cell_angle_beta   90.00000000
_cell_angle_gamma   96.45067921
_symmetry_Int_Tables_number   1
_chemical_formula_structural   V3H4NO8
_chemical_formula_sum   'V6 H8 N2 O16'
_cell_volume   351.36221667
_cell_formula_units_Z   2
loop_
 _symmetry_equiv_pos_site_id
 _symmetry_equiv_pos_as_xyz
  1  'x, y, z'
loop_
 _atom_site_type_symbol
 _atom_site_label
 _atom_site_symmetry_multiplicity
 _atom_site_fract_x
 _atom_site_fract_y
 _atom_site_fract_z
 _atom_site_occupancy
  H  H0  1  0.458090  0.373474  0.346362  1
  H  H1  1  0.541910  0.626526  0.846362  1
  H  H2  1  0.541910  0.626526  0.653638  1
  H  H3  1  0.458090  0.373474  0.153638  1
  H  H4  1  0.500332  0.443779  0.750000  1
  H  H5  1  0.744743  0.432797  0.250000  1
  H  H6  1  0.255257  0.567203  0.750000  1
  H  H7  1  0.499668  0.556221  0.250000  1
  N  N8  1  0.543063  0.434450  0.250000  1
  N  N9  1  0.456937  0.565550  0.750000  1
  O  O10  1  0.063860  0.325422  0.063493  1
  O  O11  1  0.391951  0.079419  0.250000  1
  O  O12  1  0.936140  0.674578  0.563493  1
  O  O13  1  0.610316  0.221280  0.898855  1
  O  O14  1  0.610316  0.221280  0.601145  1
  O  O15  1  0.389684  0.778720  0.101145  1
  O  O16  1  0.178969  0.005085  0.587970  1
  O  O17  1  0.821031  0.994915  0.087970  1
  O  O18  1  0.821031  0.994915  0.412030  1
  O  O19  1  0.178969  0.005085  0.912030  1
  O  O20  1  0.920778  0.749778  0.250000  1
  O  O21  1  0.079222  0.250222  0.750000  1
  O  O22  1  0.063860  0.325422  0.436507  1
  O  O23  1  0.936140  0.674578  0.936507  1
  O  O24  1  0.389684  0.778720  0.398855  1
  O  O25  1  0.608049  0.920581  0.750000  1
  V  V26  1  0.577104  0.928088  0.250000  1
  V  V27  1  0.422896  0.071912  0.750000  1
  V  V28  1  0.061619  0.820765  0.054950  1
  V  V29  1  0.938381  0.179235  0.554950  1
  V  V30  1  0.938381  0.179235  0.945050  1
  V  V31  1  0.061619  0.820765  0.445050  1
