# generated using pymatgen
data_ZnH8SO8
_symmetry_space_group_name_H-M   'P 1'
_cell_length_a   6.06227151
_cell_length_b   7.93368644
_cell_length_c   13.57090516
_cell_angle_alpha   90.00000000
_cell_angle_beta   90.00000000
_cell_angle_gamma   89.74715314
_symmetry_Int_Tables_number   1
_chemical_formula_structural   ZnH8SO8
_chemical_formula_sum   'Zn4 H32 S4 O32'
_cell_volume   652.70208767
_cell_formula_units_Z   4
loop_
 _symmetry_equiv_pos_site_id
 _symmetry_equiv_pos_as_xyz
  1  'x, y, z'
loop_
 _atom_site_type_symbol
 _atom_site_label
 _atom_site_symmetry_multiplicity
 _atom_site_fract_x
 _atom_site_fract_y
 _atom_site_fract_z
 _atom_site_occupancy
  H  H0  1  0.923934  0.552099  0.900291  1
  H  H1  1  0.576066  0.947901  0.400291  1
  H  H2  1  0.076066  0.447901  0.099709  1
  H  H3  1  0.423934  0.052099  0.599709  1
  H  H4  1  0.799956  0.452106  0.813874  1
  H  H5  1  0.700044  0.047894  0.313874  1
  H  H6  1  0.200044  0.547894  0.186126  1
  H  H7  1  0.299956  0.952106  0.686126  1
  H  H8  1  0.366102  0.474299  0.916092  1
  H  H9  1  0.133898  0.025701  0.416092  1
  H  H10  1  0.633898  0.525701  0.083908  1
  H  H11  1  0.866102  0.974299  0.583908  1
  H  H12  1  0.451975  0.323728  0.984290  1
  H  H13  1  0.048025  0.176272  0.484290  1
  H  H14  1  0.548025  0.676272  0.015710  1
  H  H15  1  0.951975  0.823728  0.515710  1
  H  H16  1  0.697858  0.051571  0.915156  1
  H  H17  1  0.319272  0.279307  0.734968  1
  H  H18  1  0.302142  0.948429  0.084844  1
  H  H19  1  0.197858  0.551571  0.584844  1
  H  H20  1  0.692431  0.154168  0.813981  1
  H  H21  1  0.807569  0.345832  0.313981  1
  H  H22  1  0.307569  0.845832  0.186019  1
  H  H23  1  0.192431  0.654168  0.686019  1
  H  H24  1  0.084297  0.222385  0.692238  1
  H  H25  1  0.415703  0.277615  0.192238  1
  H  H26  1  0.915703  0.777615  0.307762  1
  H  H27  1  0.584297  0.722385  0.807762  1
  H  H28  1  0.819272  0.779307  0.765032  1
  H  H29  1  0.680728  0.720693  0.265032  1
  H  H30  1  0.180728  0.220693  0.234968  1
  H  H31  1  0.802142  0.448429  0.415156  1
  O  O32  1  0.187237  0.211368  0.748829  1
  O  O33  1  0.312763  0.288632  0.248829  1
  O  O34  1  0.812763  0.788632  0.251171  1
  O  O35  1  0.687237  0.711368  0.751171  1
  O  O36  1  0.882093  0.438896  0.875862  1
  O  O37  1  0.215323  0.917417  0.142978  1
  O  O38  1  0.715323  0.417417  0.357022  1
  O  O39  1  0.784677  0.082583  0.857022  1
  O  O40  1  0.395757  0.705831  0.905914  1
  O  O41  1  0.104243  0.794169  0.405914  1
  O  O42  1  0.604243  0.294169  0.094086  1
  O  O43  1  0.895757  0.205831  0.594086  1
  O  O44  1  0.135829  0.818072  0.785501  1
  O  O45  1  0.364171  0.681928  0.285501  1
  O  O46  1  0.864171  0.181928  0.214499  1
  O  O47  1  0.635829  0.318072  0.714499  1
  O  O48  1  0.865599  0.850515  0.575795  1
  O  O49  1  0.634401  0.649485  0.075795  1
  O  O50  1  0.134401  0.149485  0.424205  1
  O  O51  1  0.365599  0.350515  0.924205  1
  O  O52  1  0.006011  0.747011  0.949052  1
  O  O53  1  0.493989  0.752989  0.449052  1
  O  O54  1  0.993989  0.252989  0.050948  1
  O  O55  1  0.506011  0.247011  0.550948  1
  O  O56  1  0.250549  0.988839  0.928668  1
  O  O57  1  0.249451  0.511161  0.428668  1
  O  O58  1  0.749451  0.011161  0.071332  1
  O  O59  1  0.750549  0.488839  0.571332  1
  O  O60  1  0.382093  0.938896  0.624138  1
  O  O61  1  0.117907  0.561104  0.124138  1
  O  O62  1  0.617907  0.061104  0.375862  1
  O  O63  1  0.284677  0.582583  0.642978  1
  S  S64  1  0.196023  0.816852  0.891286  1
  S  S65  1  0.303977  0.683148  0.391286  1
  S  S66  1  0.803977  0.183148  0.108714  1
  S  S67  1  0.696023  0.316852  0.608714  1
  Zn  Zn68  1  0.074423  0.220165  0.895799  1
  Zn  Zn69  1  0.425577  0.279835  0.395799  1
  Zn  Zn70  1  0.925577  0.779835  0.104201  1
  Zn  Zn71  1  0.574423  0.720165  0.604201  1
