# generated using pymatgen
data_Ca2Os2O7
_symmetry_space_group_name_H-M   'P 1'
_cell_length_a   7.25692466
_cell_length_b   7.30664496
_cell_length_c   7.30664496
_cell_angle_alpha   61.63933980
_cell_angle_beta   60.22484701
_cell_angle_gamma   60.22484699
_symmetry_Int_Tables_number   1
_chemical_formula_structural   Ca2Os2O7
_chemical_formula_sum   'Ca4 Os4 O14'
_cell_volume   278.14538531
_cell_formula_units_Z   2
loop_
 _symmetry_equiv_pos_site_id
 _symmetry_equiv_pos_as_xyz
  1  'x, y, z'
loop_
 _atom_site_type_symbol
 _atom_site_label
 _atom_site_symmetry_multiplicity
 _atom_site_fract_x
 _atom_site_fract_y
 _atom_site_fract_z
 _atom_site_occupancy
  O  O0  1  0.318641  0.315724  0.450718  1
  O  O1  1  0.085083  0.684276  0.549282  1
  O  O2  1  0.181359  0.049282  0.184276  1
  O  O3  1  0.414917  0.950718  0.815724  1
  O  O4  1  0.681359  0.684276  0.549282  1
  O  O5  1  0.914917  0.315724  0.450718  1
  O  O6  1  0.818641  0.950718  0.815724  1
  O  O7  1  0.585083  0.049282  0.184276  1
  O  O8  1  0.250000  0.914058  0.585942  1
  O  O9  1  0.750000  0.085942  0.414058  1
  O  O10  1  0.403376  0.327790  0.865459  1
  O  O11  1  0.596624  0.672210  0.134541  1
  O  O12  1  0.096624  0.634541  0.172210  1
  O  O13  1  0.903376  0.365459  0.827790  1
  Ca  Ca14  1  0.000000  0.000000  0.000000  1
  Ca  Ca15  1  0.500000  0.500000  0.500000  1
  Ca  Ca16  1  0.500000  0.500000  0.000000  1
  Ca  Ca17  1  0.000000  0.500000  0.000000  1
  Os  Os18  1  0.500000  0.000000  0.500000  1
  Os  Os19  1  0.000000  0.000000  0.500000  1
  Os  Os20  1  0.000000  0.500000  0.500000  1
  Os  Os21  1  0.500000  0.000000  0.000000  1
