# generated using pymatgen
data_NaHO
_symmetry_space_group_name_H-M   'P 1'
_cell_length_a   3.44413712
_cell_length_b   3.41368265
_cell_length_c   6.05806812
_cell_angle_alpha   90.00000000
_cell_angle_beta   77.88201152
_cell_angle_gamma   90.00000000
_symmetry_Int_Tables_number   1
_chemical_formula_structural   NaHO
_chemical_formula_sum   'Na2 H2 O2'
_cell_volume   69.63876562
_cell_formula_units_Z   2
loop_
 _symmetry_equiv_pos_site_id
 _symmetry_equiv_pos_as_xyz
  1  'x, y, z'
loop_
 _atom_site_type_symbol
 _atom_site_label
 _atom_site_symmetry_multiplicity
 _atom_site_fract_x
 _atom_site_fract_y
 _atom_site_fract_z
 _atom_site_occupancy
  Na  Na0  1  0.309372  0.250000  0.830131  1
  Na  Na1  1  0.690628  0.750000  0.169869  1
  H  H2  1  0.108162  0.250000  0.388530  1
  H  H3  1  0.891838  0.750000  0.611470  1
  O  O4  1  0.179794  0.250000  0.224441  1
  O  O5  1  0.820206  0.750000  0.775559  1
