# generated using pymatgen
data_SiP
_symmetry_space_group_name_H-M   'P 1'
_cell_length_a   3.53057042
_cell_length_b   10.43413300
_cell_length_c   15.61111898
_cell_angle_alpha   90.00000000
_cell_angle_beta   90.00000000
_cell_angle_gamma   99.74036096
_symmetry_Int_Tables_number   1
_chemical_formula_structural   SiP
_chemical_formula_sum   'Si12 P12'
_cell_volume   566.79911102
_cell_formula_units_Z   12
loop_
 _symmetry_equiv_pos_site_id
 _symmetry_equiv_pos_as_xyz
  1  'x, y, z'
loop_
 _atom_site_type_symbol
 _atom_site_label
 _atom_site_symmetry_multiplicity
 _atom_site_fract_x
 _atom_site_fract_y
 _atom_site_fract_z
 _atom_site_occupancy
  Si  Si0  1  0.171220  0.342440  0.739958  1
  Si  Si1  1  0.828780  0.657560  0.239958  1
  Si  Si2  1  0.059875  0.119750  0.777154  1
  Si  Si3  1  0.940125  0.880250  0.277154  1
  Si  Si4  1  0.435655  0.871311  0.690249  1
  Si  Si5  1  0.564345  0.128689  0.190249  1
  Si  Si6  1  0.432729  0.865458  0.840902  1
  Si  Si7  1  0.567271  0.134542  0.340902  1
  Si  Si8  1  0.795349  0.590697  0.826923  1
  Si  Si9  1  0.204651  0.409303  0.326923  1
  Si  Si10  1  0.798329  0.596658  0.676289  1
  Si  Si11  1  0.201671  0.403342  0.176289  1
  P  P12  1  0.999877  0.999753  0.652361  1
  P  P13  1  0.000123  0.000247  0.152361  1
  P  P14  1  0.231142  0.462285  0.864849  1
  P  P15  1  0.768858  0.537715  0.364849  1
  P  P16  1  0.344823  0.689646  0.607114  1
  P  P17  1  0.655177  0.310354  0.107114  1
  P  P18  1  0.541425  0.082851  0.867356  1
  P  P19  1  0.458575  0.917149  0.367356  1
  P  P20  1  0.689655  0.379310  0.649762  1
  P  P21  1  0.310345  0.620690  0.149762  1
  P  P22  1  0.886197  0.772394  0.910044  1
  P  P23  1  0.113803  0.227606  0.410044  1
