# generated using pymatgen
data_CeMn2(GeO3)4
_symmetry_space_group_name_H-M   'P 1'
_cell_length_a   4.96901239
_cell_length_b   9.98867038
_cell_length_c   9.98867038
_cell_angle_alpha   90.00000000
_cell_angle_beta   90.00000000
_cell_angle_gamma   90.00000000
_symmetry_Int_Tables_number   1
_chemical_formula_structural   CeMn2(GeO3)4
_chemical_formula_sum   'Ce2 Mn4 Ge8 O24'
_cell_volume   495.77593638
_cell_formula_units_Z   2
loop_
 _symmetry_equiv_pos_site_id
 _symmetry_equiv_pos_as_xyz
  1  'x, y, z'
loop_
 _atom_site_type_symbol
 _atom_site_label
 _atom_site_symmetry_multiplicity
 _atom_site_fract_x
 _atom_site_fract_y
 _atom_site_fract_z
 _atom_site_occupancy
  O  O0  1  0.256016  0.563672  0.666564  1
  O  O1  1  0.256016  0.936328  0.833437  1
  O  O2  1  0.256016  0.666564  0.936328  1
  O  O3  1  0.256016  0.833437  0.563672  1
  O  O4  1  0.743983  0.666564  0.563672  1
  O  O5  1  0.743983  0.936328  0.666564  1
  O  O6  1  0.743983  0.563672  0.833437  1
  O  O7  1  0.743983  0.833437  0.936328  1
  O  O8  1  0.743983  0.436327  0.333436  1
  O  O9  1  0.743983  0.063673  0.166564  1
  O  O10  1  0.743983  0.333436  0.063673  1
  O  O11  1  0.743983  0.166564  0.436327  1
  O  O12  1  0.256016  0.333436  0.436327  1
  O  O13  1  0.256016  0.063673  0.333436  1
  O  O14  1  0.173020  0.629988  0.370013  1
  O  O15  1  0.173020  0.129987  0.629988  1
  O  O16  1  0.173020  0.370013  0.870012  1
  O  O17  1  0.173020  0.870012  0.129987  1
  O  O18  1  0.826982  0.629988  0.129987  1
  O  O19  1  0.256016  0.436327  0.166564  1
  O  O20  1  0.826982  0.370013  0.629988  1
  O  O21  1  0.826982  0.129987  0.870012  1
  O  O22  1  0.256016  0.166564  0.063673  1
  O  O23  1  0.826982  0.870012  0.370013  1
  Mn  Mn24  1  0.500000  0.500000  0.000000  1
  Mn  Mn25  1  0.500000  0.000000  0.500000  1
  Mn  Mn26  1  0.500000  0.500000  0.500000  1
  Mn  Mn27  1  0.500000  0.000000  0.000000  1
  Ge  Ge28  1  0.000000  0.250000  0.975964  1
  Ge  Ge29  1  0.000000  0.975964  0.250000  1
  Ge  Ge30  1  0.000000  0.250000  0.524035  1
  Ge  Ge31  1  0.000000  0.475965  0.750000  1
  Ge  Ge32  1  0.000000  0.750000  0.475965  1
  Ge  Ge33  1  0.000000  0.750000  0.024035  1
  Ge  Ge34  1  0.000000  0.024035  0.750000  1
  Ge  Ge35  1  0.000000  0.524035  0.250000  1
  Ce  Ce36  1  0.500000  0.750000  0.750000  1
  Ce  Ce37  1  0.500000  0.250000  0.250000  1
