# generated using pymatgen
data_GdH12(ClO2)3
_symmetry_space_group_name_H-M   'P 1'
_cell_length_a   6.59862425
_cell_length_b   7.91967397
_cell_length_c   9.68469677
_cell_angle_alpha   93.03870514
_cell_angle_beta   90.00000000
_cell_angle_gamma   90.00000000
_symmetry_Int_Tables_number   1
_chemical_formula_structural   GdH12(ClO2)3
_chemical_formula_sum   'Gd2 H24 Cl6 O12'
_cell_volume   505.40049284
_cell_formula_units_Z   2
loop_
 _symmetry_equiv_pos_site_id
 _symmetry_equiv_pos_as_xyz
  1  'x, y, z'
loop_
 _atom_site_type_symbol
 _atom_site_label
 _atom_site_symmetry_multiplicity
 _atom_site_fract_x
 _atom_site_fract_y
 _atom_site_fract_z
 _atom_site_occupancy
  H  H0  1  0.751757  0.491568  0.964672  1
  H  H1  1  0.751757  0.008432  0.535328  1
  H  H2  1  0.248243  0.508432  0.035328  1
  H  H3  1  0.248243  0.991568  0.464672  1
  H  H4  1  0.671355  0.662008  0.033421  1
  H  H5  1  0.671355  0.837992  0.466579  1
  H  H6  1  0.328645  0.337992  0.966579  1
  H  H7  1  0.328645  0.162008  0.533421  1
  H  H8  1  0.447837  0.647161  0.615090  1
  H  H9  1  0.447837  0.852839  0.884910  1
  H  H10  1  0.552163  0.352839  0.384910  1
  H  H11  1  0.552163  0.147161  0.115090  1
  H  H12  1  0.525090  0.481761  0.681601  1
  H  H13  1  0.525090  0.018239  0.818399  1
  H  H14  1  0.474910  0.518239  0.318399  1
  H  H15  1  0.474910  0.981761  0.181601  1
  H  H16  1  0.905130  0.110417  0.870330  1
  H  H17  1  0.905130  0.389583  0.629670  1
  H  H18  1  0.094870  0.889583  0.129670  1
  H  H19  1  0.094870  0.610417  0.370330  1
  H  H20  1  0.915139  0.588038  0.264687  1
  H  H21  1  0.915139  0.911962  0.235313  1
  H  H22  1  0.084861  0.411962  0.735313  1
  H  H23  1  0.084861  0.088038  0.764687  1
  O  O24  1  0.706154  0.606281  0.942768  1
  O  O25  1  0.706154  0.893719  0.557232  1
  O  O26  1  0.293846  0.393719  0.057232  1
  O  O27  1  0.293846  0.106281  0.442768  1
  O  O28  1  0.572331  0.589421  0.645751  1
  O  O29  1  0.572331  0.910579  0.854249  1
  O  O30  1  0.427669  0.410579  0.354249  1
  O  O31  1  0.427669  0.089421  0.145751  1
  O  O32  1  0.949184  0.043812  0.785842  1
  O  O33  1  0.949184  0.456188  0.714158  1
  O  O34  1  0.050816  0.956188  0.214158  1
  O  O35  1  0.050816  0.543812  0.285842  1
  Cl  Cl36  1  0.167989  0.758285  0.557282  1
  Cl  Cl37  1  0.167989  0.741715  0.942718  1
  Cl  Cl38  1  0.832011  0.241715  0.442718  1
  Cl  Cl39  1  0.832011  0.258285  0.057282  1
  Cl  Cl40  1  0.634195  0.750000  0.250000  1
  Cl  Cl41  1  0.365805  0.250000  0.750000  1
  Gd  Gd42  1  0.846656  0.750000  0.750000  1
  Gd  Gd43  1  0.153344  0.250000  0.250000  1
