# generated using pymatgen
data_HoSiIr
_symmetry_space_group_name_H-M   'P 1'
_cell_length_a   4.23296807
_cell_length_b   6.84553515
_cell_length_c   7.41959986
_cell_angle_alpha   90.00000000
_cell_angle_beta   90.00000000
_cell_angle_gamma   90.00000000
_symmetry_Int_Tables_number   1
_chemical_formula_structural   HoSiIr
_chemical_formula_sum   'Ho4 Si4 Ir4'
_cell_volume   214.99723847
_cell_formula_units_Z   4
loop_
 _symmetry_equiv_pos_site_id
 _symmetry_equiv_pos_as_xyz
  1  'x, y, z'
loop_
 _atom_site_type_symbol
 _atom_site_label
 _atom_site_symmetry_multiplicity
 _atom_site_fract_x
 _atom_site_fract_y
 _atom_site_fract_z
 _atom_site_occupancy
  Si  Si0  1  0.250000  0.797563  0.108743  1
  Si  Si1  1  0.250000  0.297563  0.391257  1
  Si  Si2  1  0.750000  0.202437  0.891257  1
  Si  Si3  1  0.750000  0.702437  0.608743  1
  Ho  Ho4  1  0.750000  0.499374  0.187625  1
  Ho  Ho5  1  0.250000  0.000626  0.687625  1
  Ho  Ho6  1  0.750000  0.999374  0.312375  1
  Ho  Ho7  1  0.250000  0.500626  0.812375  1
  Ir  Ir8  1  0.250000  0.657609  0.431300  1
  Ir  Ir9  1  0.250000  0.157609  0.068700  1
  Ir  Ir10  1  0.750000  0.842391  0.931300  1
  Ir  Ir11  1  0.750000  0.342391  0.568700  1
