# generated using pymatgen
data_Hf(Se2Cl3)2
_symmetry_space_group_name_H-M   'P 1'
_cell_length_a   11.12924653
_cell_length_b   11.10161761
_cell_length_c   11.10161761
_cell_angle_alpha   90.00000000
_cell_angle_beta   90.00000000
_cell_angle_gamma   90.00000000
_symmetry_Int_Tables_number   1
_chemical_formula_structural   Hf(Se2Cl3)2
_chemical_formula_sum   'Hf4 Se16 Cl24'
_cell_volume   1371.63415581
_cell_formula_units_Z   4
loop_
 _symmetry_equiv_pos_site_id
 _symmetry_equiv_pos_as_xyz
  1  'x, y, z'
loop_
 _atom_site_type_symbol
 _atom_site_label
 _atom_site_symmetry_multiplicity
 _atom_site_fract_x
 _atom_site_fract_y
 _atom_site_fract_z
 _atom_site_occupancy
  Cl  Cl0  1  0.136347  0.169179  0.945406  1
  Cl  Cl1  1  0.136347  0.330821  0.554594  1
  Cl  Cl2  1  0.636347  0.945406  0.330821  1
  Cl  Cl3  1  0.636347  0.554594  0.169179  1
  Cl  Cl4  1  0.863653  0.445406  0.669179  1
  Cl  Cl5  1  0.363653  0.830821  0.445406  1
  Cl  Cl6  1  0.363653  0.669179  0.054594  1
  Cl  Cl7  1  0.863653  0.054594  0.830821  1
  Cl  Cl8  1  0.863653  0.830821  0.054594  1
  Cl  Cl9  1  0.863653  0.669179  0.445406  1
  Cl  Cl10  1  0.363653  0.054594  0.669179  1
  Cl  Cl11  1  0.363653  0.445406  0.830821  1
  Cl  Cl12  1  0.136347  0.554594  0.330821  1
  Cl  Cl13  1  0.636347  0.169179  0.554594  1
  Cl  Cl14  1  0.636347  0.330821  0.945406  1
  Cl  Cl15  1  0.136347  0.945406  0.169179  1
  Cl  Cl16  1  0.113210  0.868267  0.868267  1
  Cl  Cl17  1  0.113210  0.631733  0.631733  1
  Cl  Cl18  1  0.613210  0.868267  0.631733  1
  Cl  Cl19  1  0.613210  0.631733  0.868267  1
  Cl  Cl20  1  0.886790  0.131733  0.131733  1
  Cl  Cl21  1  0.386790  0.368267  0.131733  1
  Cl  Cl22  1  0.386790  0.131733  0.368267  1
  Cl  Cl23  1  0.886790  0.368267  0.368267  1
  Se  Se24  1  0.500000  0.604792  0.395208  1
  Se  Se25  1  0.000000  0.104792  0.604792  1
  Se  Se26  1  0.000000  0.395208  0.895208  1
  Se  Se27  1  0.500000  0.895208  0.104792  1
  Se  Se28  1  0.500000  0.395208  0.604792  1
  Se  Se29  1  0.000000  0.895208  0.395208  1
  Se  Se30  1  0.000000  0.604792  0.104792  1
  Se  Se31  1  0.500000  0.104792  0.895208  1
  Se  Se32  1  0.420938  0.910265  0.910265  1
  Se  Se33  1  0.420938  0.589735  0.589735  1
  Se  Se34  1  0.920938  0.910265  0.589735  1
  Se  Se35  1  0.920938  0.589735  0.910265  1
  Se  Se36  1  0.579062  0.410265  0.410265  1
  Se  Se37  1  0.079062  0.089735  0.410265  1
  Se  Se38  1  0.079062  0.410265  0.089735  1
  Se  Se39  1  0.579062  0.089735  0.089735  1
  Hf  Hf40  1  0.000000  0.500000  0.500000  1
  Hf  Hf41  1  0.500000  0.000000  0.500000  1
  Hf  Hf42  1  0.500000  0.500000  0.000000  1
  Hf  Hf43  1  0.000000  0.000000  0.000000  1
