# generated using pymatgen
data_VH20S2(NO7)2
_symmetry_space_group_name_H-M   'P 1'
_cell_length_a   6.33923113
_cell_length_b   9.38330392
_cell_length_c   12.68560191
_cell_angle_alpha   90.00000000
_cell_angle_beta   90.00000000
_cell_angle_gamma   107.08137487
_symmetry_Int_Tables_number   1
_chemical_formula_structural   VH20S2(NO7)2
_chemical_formula_sum   'V2 H40 S4 N4 O28'
_cell_volume   721.29132093
_cell_formula_units_Z   2
loop_
 _symmetry_equiv_pos_site_id
 _symmetry_equiv_pos_as_xyz
  1  'x, y, z'
loop_
 _atom_site_type_symbol
 _atom_site_label
 _atom_site_symmetry_multiplicity
 _atom_site_fract_x
 _atom_site_fract_y
 _atom_site_fract_z
 _atom_site_occupancy
  H  H0  1  0.330467  0.521983  0.648971  1
  H  H1  1  0.669534  0.978018  0.148972  1
  H  H2  1  0.669534  0.478018  0.351029  1
  H  H3  1  0.330466  0.021983  0.851028  1
  H  H4  1  0.341076  0.397614  0.566083  1
  H  H5  1  0.658925  0.102387  0.066082  1
  H  H6  1  0.658925  0.602387  0.433917  1
  H  H7  1  0.341076  0.897614  0.933918  1
  H  H8  1  0.993908  0.355671  0.309112  1
  H  H9  1  0.006093  0.144328  0.809112  1
  H  H10  1  0.006093  0.644329  0.690888  1
  H  H11  1  0.993908  0.855671  0.190888  1
  H  H12  1  0.937494  0.230007  0.396923  1
  H  H13  1  0.062507  0.269994  0.896923  1
  H  H14  1  0.062507  0.769994  0.603077  1
  H  H15  1  0.937494  0.730007  0.103077  1
  H  H16  1  0.103144  0.755227  0.378030  1
  H  H17  1  0.896857  0.744774  0.878031  1
  H  H18  1  0.896857  0.244774  0.621969  1
  H  H19  1  0.801398  0.434952  0.829351  1
  H  H20  1  0.331170  0.725950  0.410959  1
  H  H21  1  0.668831  0.774049  0.910960  1
  H  H22  1  0.668831  0.274049  0.589041  1
  H  H23  1  0.331170  0.225950  0.089040  1
  H  H24  1  0.368395  0.663612  0.076042  1
  H  H25  1  0.631604  0.836388  0.576042  1
  H  H26  1  0.631604  0.336388  0.923959  1
  H  H27  1  0.368395  0.163612  0.423958  1
  H  H28  1  0.462877  0.567218  0.169845  1
  H  H29  1  0.537123  0.932782  0.669846  1
  H  H30  1  0.537124  0.432782  0.830155  1
  H  H31  1  0.462877  0.067218  0.330154  1
  H  H32  1  0.401892  0.724602  0.203226  1
  H  H33  1  0.598107  0.775398  0.703226  1
  H  H34  1  0.598108  0.275399  0.796774  1
  H  H35  1  0.401892  0.224602  0.296774  1
  H  H36  1  0.198603  0.565048  0.170649  1
  H  H37  1  0.801398  0.934952  0.670648  1
  H  H38  1  0.198603  0.065048  0.329352  1
  H  H39  1  0.103144  0.255227  0.121969  1
  N  N40  1  0.357893  0.631315  0.155194  1
  N  N41  1  0.642107  0.868685  0.655194  1
  N  N42  1  0.642107  0.368685  0.844806  1
  N  N43  1  0.357892  0.131316  0.344806  1
  O  O44  1  0.303720  0.492351  0.573963  1
  O  O45  1  0.696281  0.007649  0.073963  1
  O  O46  1  0.696281  0.507649  0.426037  1
  O  O47  1  0.303720  0.992351  0.926037  1
  O  O48  1  0.025928  0.334957  0.383104  1
  O  O49  1  0.974071  0.165042  0.883104  1
  O  O50  1  0.974071  0.665042  0.616896  1
  O  O51  1  0.025928  0.834958  0.116896  1
  O  O52  1  0.174600  0.676941  0.392469  1
  O  O53  1  0.825399  0.823059  0.892468  1
  O  O54  1  0.825399  0.323059  0.607531  1
  O  O55  1  0.174600  0.176941  0.107532  1
  O  O56  1  0.949609  0.885282  0.325008  1
  O  O57  1  0.050390  0.614719  0.825008  1
  O  O58  1  0.050390  0.114719  0.674992  1
  O  O59  1  0.949609  0.385281  0.174992  1
  O  O60  1  0.623669  0.783459  0.437238  1
  O  O61  1  0.376330  0.716542  0.937238  1
  O  O62  1  0.376330  0.216542  0.562762  1
  O  O63  1  0.623669  0.283459  0.062762  1
  O  O64  1  0.786847  0.051511  0.423666  1
  O  O65  1  0.213154  0.448488  0.923667  1
  O  O66  1  0.213154  0.948488  0.576334  1
  O  O67  1  0.786847  0.551511  0.076333  1
  O  O68  1  0.588441  0.910397  0.274262  1
  O  O69  1  0.411560  0.589602  0.774263  1
  O  O70  1  0.411560  0.089602  0.725738  1
  O  O71  1  0.588441  0.410397  0.225737  1
  S  S72  1  0.740103  0.909580  0.365281  1
  S  S73  1  0.259898  0.590420  0.865281  1
  S  S74  1  0.259898  0.090420  0.634719  1
  S  S75  1  0.740103  0.409580  0.134719  1
  V  V76  1  1.000000  0.500000  0.500000  1
  V  V77  1  0.000000  0.000000  0.000000  1
