# generated using pymatgen
data_Tl2GeTe3
_symmetry_space_group_name_H-M   'P 1'
_cell_length_a   8.55729218
_cell_length_b   8.77385207
_cell_length_c   22.00823541
_cell_angle_alpha   90.00000000
_cell_angle_beta   90.00000000
_cell_angle_gamma   90.00000000
_symmetry_Int_Tables_number   1
_chemical_formula_structural   Tl2GeTe3
_chemical_formula_sum   'Tl16 Ge8 Te24'
_cell_volume   1652.38746356
_cell_formula_units_Z   8
loop_
 _symmetry_equiv_pos_site_id
 _symmetry_equiv_pos_as_xyz
  1  'x, y, z'
loop_
 _atom_site_type_symbol
 _atom_site_label
 _atom_site_symmetry_multiplicity
 _atom_site_fract_x
 _atom_site_fract_y
 _atom_site_fract_z
 _atom_site_occupancy
  Ge  Ge0  1  0.826385  0.985225  0.831272  1
  Ge  Ge1  1  0.826385  0.985225  0.668728  1
  Ge  Ge2  1  0.326385  0.514775  0.831272  1
  Ge  Ge3  1  0.673615  0.485225  0.331272  1
  Ge  Ge4  1  0.173615  0.014775  0.168728  1
  Ge  Ge5  1  0.173615  0.014775  0.331272  1
  Ge  Ge6  1  0.673615  0.485225  0.168728  1
  Ge  Ge7  1  0.326385  0.514775  0.668728  1
  Te  Te8  1  0.485190  0.338491  0.593250  1
  Te  Te9  1  0.985190  0.161509  0.906750  1
  Te  Te10  1  0.014810  0.838491  0.406750  1
  Te  Te11  1  0.514810  0.661509  0.093250  1
  Te  Te12  1  0.514810  0.661509  0.406750  1
  Te  Te13  1  0.014810  0.838491  0.093250  1
  Te  Te14  1  0.985190  0.161509  0.593250  1
  Te  Te15  1  0.485190  0.338491  0.906750  1
  Te  Te16  1  0.625774  0.812513  0.610004  1
  Te  Te17  1  0.625774  0.812513  0.889996  1
  Te  Te18  1  0.125774  0.687487  0.610004  1
  Te  Te19  1  0.874226  0.312513  0.110004  1
  Te  Te20  1  0.374226  0.187487  0.389996  1
  Te  Te21  1  0.374226  0.187487  0.110004  1
  Te  Te22  1  0.874226  0.312513  0.389996  1
  Te  Te23  1  0.125774  0.687487  0.889996  1
  Te  Te24  1  0.997371  0.825604  0.750000  1
  Te  Te25  1  0.497370  0.674396  0.750000  1
  Te  Te26  1  0.502629  0.325604  0.250000  1
  Te  Te27  1  0.002629  0.174396  0.250000  1
  Te  Te28  1  0.668205  0.155169  0.750000  1
  Te  Te29  1  0.168205  0.344831  0.750000  1
  Te  Te30  1  0.831795  0.655169  0.250000  1
  Te  Te31  1  0.331795  0.844831  0.250000  1
  Tl  Tl32  1  0.770119  0.546100  0.507065  1
  Tl  Tl33  1  0.270119  0.953900  0.992935  1
  Tl  Tl34  1  0.729881  0.046100  0.492935  1
  Tl  Tl35  1  0.229881  0.453900  0.007065  1
  Tl  Tl36  1  0.229881  0.453900  0.492935  1
  Tl  Tl37  1  0.729881  0.046100  0.007065  1
  Tl  Tl38  1  0.270119  0.953900  0.507065  1
  Tl  Tl39  1  0.770119  0.546100  0.992935  1
  Tl  Tl40  1  0.822091  0.479063  0.668221  1
  Tl  Tl41  1  0.322091  0.020937  0.831779  1
  Tl  Tl42  1  0.677909  0.979063  0.331779  1
  Tl  Tl43  1  0.177909  0.520937  0.168221  1
  Tl  Tl44  1  0.177909  0.520937  0.331779  1
  Tl  Tl45  1  0.677909  0.979063  0.168221  1
  Tl  Tl46  1  0.322091  0.020937  0.668221  1
  Tl  Tl47  1  0.822091  0.479063  0.831779  1
