# generated using pymatgen
data_Ca3Ga4O9
_symmetry_space_group_name_H-M   'P 1'
_cell_length_a   5.37284329
_cell_length_b   11.17379282
_cell_length_c   11.17379282
_cell_angle_alpha   99.00450312
_cell_angle_beta   90.00000000
_cell_angle_gamma   90.00000000
_symmetry_Int_Tables_number   1
_chemical_formula_structural   Ca3Ga4O9
_chemical_formula_sum   'Ca9 Ga12 O27'
_cell_volume   662.55192794
_cell_formula_units_Z   3
loop_
 _symmetry_equiv_pos_site_id
 _symmetry_equiv_pos_as_xyz
  1  'x, y, z'
loop_
 _atom_site_type_symbol
 _atom_site_label
 _atom_site_symmetry_multiplicity
 _atom_site_fract_x
 _atom_site_fract_y
 _atom_site_fract_z
 _atom_site_occupancy
  O  O0  1  0.757597  0.000000  0.500000  1
  O  O1  1  0.757597  0.500000  0.000000  1
  O  O2  1  0.772412  0.754890  0.584869  1
  O  O3  1  0.772412  0.245110  0.415131  1
  O  O4  1  0.772412  0.415131  0.245110  1
  O  O5  1  0.772412  0.584869  0.754890  1
  O  O6  1  0.864916  0.728606  0.271394  1
  O  O7  1  0.864916  0.271394  0.728606  1
  O  O8  1  0.848069  0.023956  0.202885  1
  O  O9  1  0.848069  0.976044  0.797115  1
  O  O10  1  0.848069  0.797115  0.976044  1
  O  O11  1  0.848069  0.202885  0.023956  1
  O  O12  1  0.778018  0.500000  0.500000  1
  O  O13  1  0.336739  0.932999  0.653901  1
  O  O14  1  0.336739  0.067001  0.346099  1
  O  O15  1  0.336739  0.346099  0.067001  1
  O  O16  1  0.336739  0.653901  0.932999  1
  O  O17  1  0.401965  0.846148  0.153852  1
  O  O18  1  0.401965  0.153852  0.846148  1
  O  O19  1  0.358489  0.796173  0.404973  1
  O  O20  1  0.358489  0.203827  0.595027  1
  O  O21  1  0.267717  0.391910  0.391910  1
  O  O22  1  0.267717  0.608090  0.608090  1
  O  O23  1  0.338873  0.102840  0.102840  1
  O  O24  1  0.338873  0.897160  0.897160  1
  O  O25  1  0.358489  0.404973  0.796173  1
  O  O26  1  0.358489  0.595027  0.203827  1
  Ca  Ca27  1  0.997813  0.000000  0.000000  1
  Ca  Ca28  1  0.091817  0.402354  0.597646  1
  Ca  Ca29  1  0.091817  0.597646  0.402354  1
  Ca  Ca30  1  0.032059  0.338653  0.920334  1
  Ca  Ca31  1  0.032059  0.661347  0.079666  1
  Ca  Ca32  1  0.032059  0.079666  0.661347  1
  Ca  Ca33  1  0.032059  0.920334  0.338653  1
  Ca  Ca34  1  0.046072  0.240315  0.240315  1
  Ca  Ca35  1  0.046072  0.759685  0.759685  1
  Ga  Ga36  1  0.512936  0.984637  0.797117  1
  Ga  Ga37  1  0.512936  0.797117  0.984637  1
  Ga  Ga38  1  0.512936  0.202883  0.015363  1
  Ga  Ga39  1  0.512936  0.015363  0.202883  1
  Ga  Ga40  1  0.559298  0.535038  0.865866  1
  Ga  Ga41  1  0.559298  0.464962  0.134134  1
  Ga  Ga42  1  0.559298  0.134134  0.464962  1
  Ga  Ga43  1  0.559298  0.865866  0.535038  1
  Ga  Ga44  1  0.606511  0.388148  0.388148  1
  Ga  Ga45  1  0.606511  0.611852  0.611852  1
  Ga  Ga46  1  0.528152  0.262305  0.737695  1
  Ga  Ga47  1  0.528152  0.737695  0.262305  1
