# generated using pymatgen
data_CaCrO3
_symmetry_space_group_name_H-M   'P 1'
_cell_length_a   5.31962874
_cell_length_b   5.44217664
_cell_length_c   7.56502979
_cell_angle_alpha   89.99770726
_cell_angle_beta   90.00089708
_cell_angle_gamma   90.00021149
_symmetry_Int_Tables_number   1
_chemical_formula_structural   CaCrO3
_chemical_formula_sum   'Ca4 Cr4 O12'
_cell_volume   219.01033015
_cell_formula_units_Z   4
loop_
 _symmetry_equiv_pos_site_id
 _symmetry_equiv_pos_as_xyz
  1  'x, y, z'
loop_
 _atom_site_type_symbol
 _atom_site_label
 _atom_site_symmetry_multiplicity
 _atom_site_fract_x
 _atom_site_fract_y
 _atom_site_fract_z
 _atom_site_occupancy
  Ca  Ca0  1  0.990695  0.043366  0.250015  1
  Ca  Ca1  1  0.490711  0.456650  0.749977  1
  Ca  Ca2  1  0.509303  0.543336  0.250020  1
  Ca  Ca3  1  0.009299  0.956640  0.749982  1
  Cr  Cr4  1  0.500010  0.000015  0.000000  1
  Cr  Cr5  1  -0.000020  0.500004  0.000011  1
  Cr  Cr6  1  -0.000004  0.499989  0.500007  1
  Cr  Cr7  1  0.500005  0.000001  0.499993  1
  O  O8  1  0.924801  0.517781  0.749989  1
  O  O9  1  0.424803  0.982218  0.249994  1
  O  O10  1  0.575193  0.017781  0.750006  1
  O  O11  1  0.075205  0.482223  0.250010  1
  O  O12  1  0.709418  0.292823  0.460568  1
  O  O13  1  0.209400  0.207189  0.539433  1
  O  O14  1  0.790527  0.792871  0.039435  1
  O  O15  1  0.290550  0.707150  0.960554  1
  O  O16  1  0.709453  0.292853  0.039441  1
  O  O17  1  0.209472  0.207132  0.960563  1
  O  O18  1  0.290581  0.707173  0.539433  1
  O  O19  1  0.790595  0.792805  0.460566  1
