# generated using pymatgen
data_Eu2Si2O7
_symmetry_space_group_name_H-M   'P 1'
_cell_length_a   5.14600471
_cell_length_b   8.46794588
_cell_length_c   14.21016835
_cell_angle_alpha   90.00000000
_cell_angle_beta   90.00000000
_cell_angle_gamma   90.00000000
_symmetry_Int_Tables_number   1
_chemical_formula_structural   Eu2Si2O7
_chemical_formula_sum   'Eu8 Si8 O28'
_cell_volume   619.22356616
_cell_formula_units_Z   4
loop_
 _symmetry_equiv_pos_site_id
 _symmetry_equiv_pos_as_xyz
  1  'x, y, z'
loop_
 _atom_site_type_symbol
 _atom_site_label
 _atom_site_symmetry_multiplicity
 _atom_site_fract_x
 _atom_site_fract_y
 _atom_site_fract_z
 _atom_site_occupancy
  O  O0  1  0.855729  0.750860  0.902110  1
  O  O1  1  0.144271  0.250860  0.097890  1
  O  O2  1  0.644271  0.750860  0.402110  1
  O  O3  1  0.355729  0.250860  0.597890  1
  O  O4  1  0.287098  0.915833  0.955436  1
  O  O5  1  0.712902  0.415833  0.044564  1
  O  O6  1  0.212902  0.915833  0.455436  1
  O  O7  1  0.787098  0.415833  0.544564  1
  O  O8  1  0.289990  0.588043  0.954583  1
  O  O9  1  0.710010  0.088043  0.045417  1
  O  O10  1  0.210010  0.588043  0.454583  1
  O  O11  1  0.789990  0.088043  0.545417  1
  O  O12  1  0.053092  0.750586  0.079490  1
  O  O13  1  0.946908  0.250586  0.920510  1
  O  O14  1  0.446908  0.750586  0.579490  1
  O  O15  1  0.553092  0.250586  0.420510  1
  O  O16  1  0.478264  0.089378  0.270657  1
  O  O17  1  0.521736  0.589378  0.729343  1
  O  O18  1  0.021736  0.089378  0.770657  1
  O  O19  1  0.978264  0.589378  0.229343  1
  O  O20  1  0.479049  0.409539  0.269630  1
  O  O21  1  0.520951  0.909539  0.730370  1
  O  O22  1  0.020951  0.409539  0.769630  1
  O  O23  1  0.979049  0.909539  0.230370  1
  O  O24  1  0.065672  0.250516  0.345135  1
  O  O25  1  0.934328  0.750516  0.654865  1
  O  O26  1  0.434328  0.250516  0.845135  1
  O  O27  1  0.565672  0.750516  0.154865  1
  Si  Si28  1  0.123229  0.751292  0.963731  1
  Si  Si29  1  0.876771  0.251292  0.036269  1
  Si  Si30  1  0.376771  0.751292  0.463731  1
  Si  Si31  1  0.623229  0.251292  0.536269  1
  Si  Si32  1  0.874396  0.750012  0.177928  1
  Si  Si33  1  0.125604  0.250012  0.822072  1
  Si  Si34  1  0.625604  0.750012  0.677928  1
  Si  Si35  1  0.374396  0.250012  0.322072  1
  Eu  Eu36  1  0.841614  0.005906  0.374644  1
  Eu  Eu37  1  0.158386  0.505906  0.625356  1
  Eu  Eu38  1  0.658386  0.005906  0.874644  1
  Eu  Eu39  1  0.341614  0.505906  0.125356  1
  Eu  Eu40  1  0.840524  0.495344  0.373996  1
  Eu  Eu41  1  0.159476  0.995344  0.626004  1
  Eu  Eu42  1  0.659476  0.495344  0.873996  1
  Eu  Eu43  1  0.340524  0.995344  0.126004  1
