# generated using pymatgen
data_SbTeI
_symmetry_space_group_name_H-M   'P 1'
_cell_length_a   4.30020675
_cell_length_b   7.70530426
_cell_length_c   7.74258916
_cell_angle_alpha   92.68248823
_cell_angle_beta   106.15739199
_cell_angle_gamma   106.20518931
_symmetry_Int_Tables_number   1
_chemical_formula_structural   SbTeI
_chemical_formula_sum   'Sb2 Te2 I2'
_cell_volume   234.45808509
_cell_formula_units_Z   2
loop_
 _symmetry_equiv_pos_site_id
 _symmetry_equiv_pos_as_xyz
  1  'x, y, z'
loop_
 _atom_site_type_symbol
 _atom_site_label
 _atom_site_symmetry_multiplicity
 _atom_site_fract_x
 _atom_site_fract_y
 _atom_site_fract_z
 _atom_site_occupancy
  Sb  Sb0  1  0.625263  0.494698  0.756622  1
  Sb  Sb1  1  0.374737  0.505302  0.243378  1
  Te  Te2  1  0.913286  0.729729  0.096325  1
  Te  Te3  1  0.086714  0.270271  0.903675  1
  I  I4  1  0.205358  0.778304  0.633611  1
  I  I5  1  0.794642  0.221696  0.366389  1
