# generated using pymatgen
data_LaAs2
_symmetry_space_group_name_H-M   'P 1'
_cell_length_a   9.14267331
_cell_length_b   9.18703608
_cell_length_c   9.75411191
_cell_angle_alpha   118.07077082
_cell_angle_beta   117.92309186
_cell_angle_gamma   90.04519034
_symmetry_Int_Tables_number   1
_chemical_formula_structural   LaAs2
_chemical_formula_sum   'La8 As16'
_cell_volume   612.51354696
_cell_formula_units_Z   8
loop_
 _symmetry_equiv_pos_site_id
 _symmetry_equiv_pos_as_xyz
  1  'x, y, z'
loop_
 _atom_site_type_symbol
 _atom_site_label
 _atom_site_symmetry_multiplicity
 _atom_site_fract_x
 _atom_site_fract_y
 _atom_site_fract_z
 _atom_site_occupancy
  As  As0  1  0.114427  0.653414  0.252108  1
  As  As1  1  0.362319  0.401306  0.747892  1
  As  As2  1  0.860175  0.534938  0.248023  1
  As  As3  1  0.112152  0.286915  0.751977  1
  As  As4  1  0.054202  0.919994  0.255427  1
  As  As5  1  0.298774  0.664567  0.744573  1
  As  As6  1  0.741415  0.450907  0.497887  1
  As  As7  1  0.743528  0.953020  0.502113  1
  As  As8  1  0.873553  0.872731  0.745248  1
  As  As9  1  0.628305  0.127483  0.254752  1
  As  As10  1  0.748095  0.997633  0.954320  1
  As  As11  1  0.293775  0.043313  0.045680  1
  As  As12  1  0.457494  0.730850  0.254169  1
  As  As13  1  0.703325  0.476681  0.745831  1
  As  As14  1  0.504175  0.071542  0.761817  1
  As  As15  1  0.242358  0.309725  0.238183  1
  La  La16  1  0.118439  0.901644  0.603202  1
  La  La17  1  0.015236  0.298441  0.396798  1
  La  La18  1  0.493445  0.673367  0.559654  1
  La  La19  1  0.433791  0.113713  0.440346  1
  La  La20  1  0.473149  0.355105  0.083513  1
  La  La21  1  0.889637  0.271593  0.916487  1
  La  La22  1  0.091490  0.667073  0.917910  1
  La  La23  1  0.673580  0.749163  0.082090  1
