# generated using pymatgen
data_Co2Si(P2O7)2
_symmetry_space_group_name_H-M   'P 1'
_cell_length_a   5.02407682
_cell_length_b   8.91388430
_cell_length_c   12.42307933
_cell_angle_alpha   102.52651642
_cell_angle_beta   90.00000000
_cell_angle_gamma   106.36837262
_symmetry_Int_Tables_number   1
_chemical_formula_structural   Co2Si(P2O7)2
_chemical_formula_sum   'Co4 Si2 P8 O28'
_cell_volume   519.98877187
_cell_formula_units_Z   2
loop_
 _symmetry_equiv_pos_site_id
 _symmetry_equiv_pos_as_xyz
  1  'x, y, z'
loop_
 _atom_site_type_symbol
 _atom_site_label
 _atom_site_symmetry_multiplicity
 _atom_site_fract_x
 _atom_site_fract_y
 _atom_site_fract_z
 _atom_site_occupancy
  O  O0  1  0.023669  0.125607  0.831852  1
  O  O1  1  0.898062  0.874393  0.668148  1
  O  O2  1  0.976331  0.874393  0.168148  1
  O  O3  1  0.101938  0.125607  0.331852  1
  O  O4  1  0.237256  0.405144  0.953493  1
  O  O5  1  0.832113  0.594856  0.546507  1
  O  O6  1  0.762744  0.594856  0.046507  1
  O  O7  1  0.167887  0.405144  0.453493  1
  O  O8  1  0.270787  0.688604  0.131053  1
  O  O9  1  0.582184  0.311396  0.368947  1
  O  O10  1  0.729213  0.311396  0.868947  1
  O  O11  1  0.417816  0.688604  0.631053  1
  O  O12  1  0.874958  0.188095  0.017442  1
  O  O13  1  0.686863  0.811905  0.482558  1
  O  O14  1  0.388462  0.091670  0.678677  1
  O  O15  1  0.296791  0.908330  0.821323  1
  O  O16  1  0.611538  0.908330  0.321323  1
  O  O17  1  0.703209  0.091670  0.178677  1
  O  O18  1  0.792591  0.288011  0.620908  1
  O  O19  1  0.504579  0.711989  0.879092  1
  O  O20  1  0.207409  0.711989  0.379092  1
  O  O21  1  0.495421  0.288011  0.120908  1
  O  O22  1  0.996753  0.614208  0.795532  1
  O  O23  1  0.382545  0.385792  0.704468  1
  O  O24  1  0.003247  0.385792  0.204468  1
  O  O25  1  0.617455  0.614208  0.295532  1
  O  O26  1  0.313137  0.188095  0.517442  1
  O  O27  1  0.125042  0.811905  0.982558  1
  Si  Si28  1  0.849342  0.000000  0.250000  1
  Si  Si29  1  0.150658  0.000000  0.750000  1
  P  P30  1  0.030963  0.728635  0.084609  1
  P  P31  1  0.302328  0.271365  0.415391  1
  P  P32  1  0.765213  0.251948  0.135542  1
  P  P33  1  0.513265  0.748052  0.364458  1
  P  P34  1  0.234787  0.748052  0.864458  1
  P  P35  1  0.486735  0.251948  0.635542  1
  P  P36  1  0.969037  0.271365  0.915391  1
  P  P37  1  0.697672  0.728635  0.584609  1
  Co  Co38  1  0.397830  0.493393  0.129913  1
  Co  Co39  1  0.904437  0.506607  0.370087  1
  Co  Co40  1  0.602170  0.506607  0.870087  1
  Co  Co41  1  0.095563  0.493393  0.629913  1
