# generated using pymatgen
data_DyGePt
_symmetry_space_group_name_H-M   'P 1'
_cell_length_a   4.37360626
_cell_length_b   7.03361517
_cell_length_c   7.65154019
_cell_angle_alpha   90.00000000
_cell_angle_beta   90.00000000
_cell_angle_gamma   90.00000000
_symmetry_Int_Tables_number   1
_chemical_formula_structural   DyGePt
_chemical_formula_sum   'Dy4 Ge4 Pt4'
_cell_volume   235.37869427
_cell_formula_units_Z   4
loop_
 _symmetry_equiv_pos_site_id
 _symmetry_equiv_pos_as_xyz
  1  'x, y, z'
loop_
 _atom_site_type_symbol
 _atom_site_label
 _atom_site_symmetry_multiplicity
 _atom_site_fract_x
 _atom_site_fract_y
 _atom_site_fract_z
 _atom_site_occupancy
  Ge  Ge0  1  0.250000  0.810553  0.088350  1
  Ge  Ge1  1  0.250000  0.310553  0.411650  1
  Ge  Ge2  1  0.750000  0.189447  0.911650  1
  Ge  Ge3  1  0.750000  0.689447  0.588350  1
  Dy  Dy4  1  0.750000  0.502446  0.203467  1
  Dy  Dy5  1  0.250000  0.997554  0.703467  1
  Dy  Dy6  1  0.750000  0.002446  0.296533  1
  Dy  Dy7  1  0.250000  0.497554  0.796533  1
  Pt  Pt8  1  0.250000  0.705153  0.414969  1
  Pt  Pt9  1  0.250000  0.205153  0.085031  1
  Pt  Pt10  1  0.750000  0.794847  0.914969  1
  Pt  Pt11  1  0.750000  0.294847  0.585031  1
