# generated using pymatgen
data_CoH4(ClO)2
_symmetry_space_group_name_H-M   'P 1'
_cell_length_a   3.60349420
_cell_length_b   5.68606832
_cell_length_c   5.68606831
_cell_angle_alpha   97.46506443
_cell_angle_beta   96.90876781
_cell_angle_gamma   96.90876789
_symmetry_Int_Tables_number   1
_chemical_formula_structural   CoH4(ClO)2
_chemical_formula_sum   'Co1 H4 Cl2 O2'
_cell_volume   113.58112708
_cell_formula_units_Z   1
loop_
 _symmetry_equiv_pos_site_id
 _symmetry_equiv_pos_as_xyz
  1  'x, y, z'
loop_
 _atom_site_type_symbol
 _atom_site_label
 _atom_site_symmetry_multiplicity
 _atom_site_fract_x
 _atom_site_fract_y
 _atom_site_fract_z
 _atom_site_occupancy
  H  H0  1  0.845162  0.216047  0.602755  1
  H  H1  1  0.154838  0.397246  0.783953  1
  H  H2  1  0.845161  0.602755  0.216048  1
  H  H3  1  0.154839  0.783952  0.397245  1
  O  O4  1  1.000000  0.761390  0.238609  1
  O  O5  1  1.000000  0.238608  0.761392  1
  Cl  Cl6  1  0.583190  0.235164  0.235163  1
  Cl  Cl7  1  0.416808  0.764835  0.764835  1
  Co  Co8  1  0.000000  0.000000  0.000000  1
