# generated using pymatgen
data_Si3Ru2
_symmetry_space_group_name_H-M   'P 1'
_cell_length_a   5.57460302
_cell_length_b   9.01188438
_cell_length_c   11.14861353
_cell_angle_alpha   90.00000000
_cell_angle_beta   90.00000000
_cell_angle_gamma   90.00000000
_symmetry_Int_Tables_number   1
_chemical_formula_structural   Si3Ru2
_chemical_formula_sum   'Si24 Ru16'
_cell_volume   560.08045534
_cell_formula_units_Z   8
loop_
 _symmetry_equiv_pos_site_id
 _symmetry_equiv_pos_as_xyz
  1  'x, y, z'
loop_
 _atom_site_type_symbol
 _atom_site_label
 _atom_site_symmetry_multiplicity
 _atom_site_fract_x
 _atom_site_fract_y
 _atom_site_fract_z
 _atom_site_occupancy
  Si  Si0  1  0.605149  0.105356  0.631508  1
  Si  Si1  1  0.105149  0.394644  0.868492  1
  Si  Si2  1  0.894851  0.105356  0.368492  1
  Si  Si3  1  0.394851  0.394644  0.131508  1
  Si  Si4  1  0.394851  0.894644  0.368492  1
  Si  Si5  1  0.894851  0.605356  0.131508  1
  Si  Si6  1  0.105149  0.894644  0.631508  1
  Si  Si7  1  0.605149  0.605356  0.868492  1
  Si  Si8  1  0.913202  0.063482  0.820523  1
  Si  Si9  1  0.413202  0.436518  0.679477  1
  Si  Si10  1  0.586798  0.063482  0.179477  1
  Si  Si11  1  0.086798  0.436518  0.320523  1
  Si  Si12  1  0.086798  0.936518  0.179477  1
  Si  Si13  1  0.586798  0.563482  0.320523  1
  Si  Si14  1  0.413202  0.936518  0.820523  1
  Si  Si15  1  0.913202  0.563482  0.679477  1
  Si  Si16  1  0.555472  0.707599  0.573412  1
  Si  Si17  1  0.055472  0.792401  0.926588  1
  Si  Si18  1  0.944528  0.707599  0.426588  1
  Si  Si19  1  0.444528  0.792401  0.073412  1
  Si  Si20  1  0.444528  0.292401  0.426588  1
  Si  Si21  1  0.944528  0.207599  0.073412  1
  Si  Si22  1  0.055472  0.292401  0.573412  1
  Si  Si23  1  0.555472  0.207599  0.926588  1
  Ru  Ru24  1  0.750000  0.924819  0.500000  1
  Ru  Ru25  1  0.250000  0.575181  0.000000  1
  Ru  Ru26  1  0.250000  0.075181  0.500000  1
  Ru  Ru27  1  0.750000  0.424819  0.000000  1
  Ru  Ru28  1  0.750000  0.459172  0.500000  1
  Ru  Ru29  1  0.250000  0.040828  0.000000  1
  Ru  Ru30  1  0.250000  0.540828  0.500000  1
  Ru  Ru31  1  0.750000  0.959172  0.000000  1
  Ru  Ru32  1  0.763847  0.312640  0.745886  1
  Ru  Ru33  1  0.263847  0.187360  0.754114  1
  Ru  Ru34  1  0.736153  0.312640  0.254114  1
  Ru  Ru35  1  0.236153  0.187360  0.245886  1
  Ru  Ru36  1  0.236153  0.687360  0.254114  1
  Ru  Ru37  1  0.736153  0.812640  0.245886  1
  Ru  Ru38  1  0.263847  0.687360  0.745886  1
  Ru  Ru39  1  0.763847  0.812640  0.754114  1
