# generated using pymatgen
data_Na2Te2As
_symmetry_space_group_name_H-M   'P 1'
_cell_length_a   8.80608706
_cell_length_b   9.91581915
_cell_length_c   14.08409625
_cell_angle_alpha   90.00000000
_cell_angle_beta   90.00000000
_cell_angle_gamma   90.00000000
_symmetry_Int_Tables_number   1
_chemical_formula_structural   Na2Te2As
_chemical_formula_sum   'Na16 Te16 As8'
_cell_volume   1229.81718200
_cell_formula_units_Z   8
loop_
 _symmetry_equiv_pos_site_id
 _symmetry_equiv_pos_as_xyz
  1  'x, y, z'
loop_
 _atom_site_type_symbol
 _atom_site_label
 _atom_site_symmetry_multiplicity
 _atom_site_fract_x
 _atom_site_fract_y
 _atom_site_fract_z
 _atom_site_occupancy
  Na  Na0  1  0.838107  0.609016  0.879900  1
  Na  Na1  1  0.338107  0.390984  0.620100  1
  Na  Na2  1  0.661893  0.109016  0.120100  1
  Na  Na3  1  0.161893  0.890984  0.379900  1
  Na  Na4  1  0.174684  0.375491  0.873866  1
  Na  Na5  1  0.674684  0.624509  0.626134  1
  Na  Na6  1  0.325316  0.875491  0.126134  1
  Na  Na7  1  0.825316  0.124509  0.373866  1
  Na  Na8  1  0.018232  0.003067  0.941446  1
  Na  Na9  1  0.518232  0.996933  0.558554  1
  Na  Na10  1  0.481768  0.503067  0.058554  1
  Na  Na11  1  0.981768  0.496933  0.441446  1
  Na  Na12  1  0.573040  0.189412  0.812403  1
  Na  Na13  1  0.073040  0.810588  0.687597  1
  Na  Na14  1  0.926960  0.689412  0.187597  1
  Na  Na15  1  0.426960  0.310588  0.312403  1
  As  As16  1  0.150497  0.224483  0.189443  1
  As  As17  1  0.650497  0.775517  0.310557  1
  As  As18  1  0.349503  0.724483  0.810557  1
  As  As19  1  0.849503  0.275517  0.689443  1
  As  As20  1  0.975970  0.398438  0.115510  1
  As  As21  1  0.475970  0.601562  0.384490  1
  As  As22  1  0.524030  0.898438  0.884490  1
  As  As23  1  0.024030  0.101562  0.615510  1
  Te  Te24  1  0.986403  0.004389  0.183068  1
  Te  Te25  1  0.486403  0.995611  0.316932  1
  Te  Te26  1  0.513597  0.504389  0.816932  1
  Te  Te27  1  0.013597  0.495611  0.683068  1
  Te  Te28  1  0.853036  0.290839  0.964029  1
  Te  Te29  1  0.353036  0.709161  0.535971  1
  Te  Te30  1  0.646964  0.790839  0.035971  1
  Te  Te31  1  0.146964  0.209161  0.464029  1
  Te  Te32  1  0.767390  0.408914  0.250490  1
  Te  Te33  1  0.267390  0.591086  0.249510  1
  Te  Te34  1  0.732610  0.908914  0.749510  1
  Te  Te35  1  0.232610  0.091086  0.750490  1
  Te  Te36  1  0.333541  0.200531  0.042509  1
  Te  Te37  1  0.833541  0.799469  0.457491  1
  Te  Te38  1  0.166459  0.700531  0.957491  1
  Te  Te39  1  0.666459  0.299469  0.542509  1
