# generated using pymatgen
data_Cd(HO)2
_symmetry_space_group_name_H-M   'P 1'
_cell_length_a   3.27170060
_cell_length_b   5.83046739
_cell_length_c   6.44048217
_cell_angle_alpha   113.62049699
_cell_angle_beta   99.28747457
_cell_angle_gamma   101.80561092
_symmetry_Int_Tables_number   1
_chemical_formula_structural   Cd(HO)2
_chemical_formula_sum   'Cd2 H4 O4'
_cell_volume   106.04763195
_cell_formula_units_Z   2
loop_
 _symmetry_equiv_pos_site_id
 _symmetry_equiv_pos_as_xyz
  1  'x, y, z'
loop_
 _atom_site_type_symbol
 _atom_site_label
 _atom_site_symmetry_multiplicity
 _atom_site_fract_x
 _atom_site_fract_y
 _atom_site_fract_z
 _atom_site_occupancy
  H  H0  1  0.179772  0.695784  0.361597  1
  H  H1  1  0.818174  0.334187  0.638403  1
  H  H2  1  0.213354  0.615660  0.000000  1
  H  H3  1  0.768707  0.422245  1.000000  1
  O  O4  1  0.738952  0.157983  0.506740  1
  O  O5  1  0.232212  0.651243  0.493260  1
  O  O6  1  0.910821  0.603749  0.000000  1
  O  O7  1  0.561530  0.163037  0.000000  1
  Cd  Cd8  1  0.901737  0.933555  0.723998  1
  Cd  Cd9  1  0.177740  0.209557  0.276002  1
