# generated using pymatgen
data_CsSnCl3
_symmetry_space_group_name_H-M   'P 1'
_cell_length_a   5.84800315
_cell_length_b   7.91253333
_cell_length_c   16.35783798
_cell_angle_alpha   90.00000000
_cell_angle_beta   92.76613034
_cell_angle_gamma   90.00000000
_symmetry_Int_Tables_number   1
_chemical_formula_structural   CsSnCl3
_chemical_formula_sum   'Cs4 Sn4 Cl12'
_cell_volume   756.03645082
_cell_formula_units_Z   4
loop_
 _symmetry_equiv_pos_site_id
 _symmetry_equiv_pos_as_xyz
  1  'x, y, z'
loop_
 _atom_site_type_symbol
 _atom_site_label
 _atom_site_symmetry_multiplicity
 _atom_site_fract_x
 _atom_site_fract_y
 _atom_site_fract_z
 _atom_site_occupancy
  Cl  Cl0  1  0.691149  0.967269  0.124711  1
  Cl  Cl1  1  0.808851  0.467269  0.375289  1
  Cl  Cl2  1  0.308851  0.032731  0.875289  1
  Cl  Cl3  1  0.191149  0.532731  0.624711  1
  Cl  Cl4  1  0.234825  0.667018  0.045373  1
  Cl  Cl5  1  0.265175  0.167018  0.454627  1
  Cl  Cl6  1  0.765175  0.332982  0.954627  1
  Cl  Cl7  1  0.734825  0.832982  0.545373  1
  Cl  Cl8  1  0.732350  0.688859  0.753135  1
  Cl  Cl9  1  0.767650  0.188860  0.746865  1
  Cl  Cl10  1  0.267650  0.311140  0.246865  1
  Cl  Cl11  1  0.232350  0.811141  0.253135  1
  Sn  Sn12  1  0.244306  0.957432  0.113108  1
  Sn  Sn13  1  0.255694  0.457432  0.386892  1
  Sn  Sn14  1  0.755694  0.042568  0.886892  1
  Sn  Sn15  1  0.744306  0.542568  0.613108  1
  Cs  Cs16  1  0.748614  0.007226  0.347977  1
  Cs  Cs17  1  0.751386  0.507226  0.152023  1
  Cs  Cs18  1  0.251386  0.992774  0.652023  1
  Cs  Cs19  1  0.248614  0.492774  0.847977  1
