# generated using pymatgen
data_Se2NCl3
_symmetry_space_group_name_H-M   'P 1'
_cell_length_a   8.37821298
_cell_length_b   13.36754496
_cell_length_c   26.28343994
_cell_angle_alpha   90.00000000
_cell_angle_beta   90.00000000
_cell_angle_gamma   90.00000000
_symmetry_Int_Tables_number   1
_chemical_formula_structural   Se2NCl3
_chemical_formula_sum   'Se32 N16 Cl48'
_cell_volume   2943.64378489
_cell_formula_units_Z   16
loop_
 _symmetry_equiv_pos_site_id
 _symmetry_equiv_pos_as_xyz
  1  'x, y, z'
loop_
 _atom_site_type_symbol
 _atom_site_label
 _atom_site_symmetry_multiplicity
 _atom_site_fract_x
 _atom_site_fract_y
 _atom_site_fract_z
 _atom_site_occupancy
  N  N0  1  0.775191  0.351828  0.610250  1
  N  N1  1  0.275191  0.648172  0.889750  1
  N  N2  1  0.724809  0.851828  0.389750  1
  N  N3  1  0.224809  0.148172  0.110250  1
  N  N4  1  0.224809  0.648172  0.389750  1
  N  N5  1  0.724809  0.351828  0.110250  1
  N  N6  1  0.275191  0.148172  0.610250  1
  N  N7  1  0.775191  0.851828  0.889750  1
  N  N8  1  0.758328  0.835627  0.638237  1
  N  N9  1  0.258328  0.164373  0.861763  1
  N  N10  1  0.741672  0.335627  0.361763  1
  N  N11  1  0.241672  0.664373  0.138237  1
  N  N12  1  0.241672  0.164373  0.361763  1
  N  N13  1  0.741672  0.835627  0.138237  1
  N  N14  1  0.258328  0.664373  0.638237  1
  N  N15  1  0.758328  0.335627  0.861763  1
  Cl  Cl16  1  0.514564  0.899647  0.712571  1
  Cl  Cl17  1  0.296990  0.773438  0.541334  1
  Cl  Cl18  1  0.703010  0.726562  0.041334  1
  Cl  Cl19  1  0.203010  0.273438  0.458666  1
  Cl  Cl20  1  0.203010  0.773438  0.041334  1
  Cl  Cl21  1  0.703010  0.226562  0.458666  1
  Cl  Cl22  1  0.296990  0.273438  0.958666  1
  Cl  Cl23  1  0.796990  0.726562  0.541334  1
  Cl  Cl24  1  0.042111  0.970184  0.930035  1
  Cl  Cl25  1  0.014564  0.600353  0.712571  1
  Cl  Cl26  1  0.985436  0.899647  0.212571  1
  Cl  Cl27  1  0.485436  0.100353  0.287429  1
  Cl  Cl28  1  0.485436  0.600353  0.212571  1
  Cl  Cl29  1  0.985436  0.399647  0.287429  1
  Cl  Cl30  1  0.014564  0.100353  0.787429  1
  Cl  Cl31  1  0.796990  0.226562  0.958666  1
  Cl  Cl32  1  0.081782  0.404435  0.826387  1
  Cl  Cl33  1  0.581782  0.595565  0.673613  1
  Cl  Cl34  1  0.418218  0.904435  0.173613  1
  Cl  Cl35  1  0.918218  0.095565  0.326387  1
  Cl  Cl36  1  0.918218  0.595565  0.173613  1
  Cl  Cl37  1  0.418218  0.404435  0.326387  1
  Cl  Cl38  1  0.581782  0.095565  0.826387  1
  Cl  Cl39  1  0.081782  0.904435  0.673613  1
  Cl  Cl40  1  0.470417  0.912818  0.942405  1
  Cl  Cl41  1  0.970417  0.087182  0.557595  1
  Cl  Cl42  1  0.029583  0.412818  0.057595  1
  Cl  Cl43  1  0.529583  0.587182  0.442405  1
  Cl  Cl44  1  0.529583  0.087182  0.057595  1
  Cl  Cl45  1  0.029583  0.912818  0.442405  1
  Cl  Cl46  1  0.970417  0.587182  0.942405  1
  Cl  Cl47  1  0.470417  0.412818  0.557595  1
  Cl  Cl48  1  0.699920  0.199390  0.687254  1
  Cl  Cl49  1  0.199920  0.800610  0.812746  1
  Cl  Cl50  1  0.800080  0.699390  0.312746  1
  Cl  Cl51  1  0.300080  0.300610  0.187254  1
  Cl  Cl52  1  0.300080  0.800610  0.312746  1
  Cl  Cl53  1  0.800080  0.199390  0.187254  1
  Cl  Cl54  1  0.199920  0.300610  0.687254  1
  Cl  Cl55  1  0.699920  0.699390  0.812746  1
  Cl  Cl56  1  0.042111  0.470184  0.569965  1
  Cl  Cl57  1  0.542111  0.529816  0.930035  1
  Cl  Cl58  1  0.457889  0.970184  0.430035  1
  Cl  Cl59  1  0.957889  0.029816  0.069965  1
  Cl  Cl60  1  0.957889  0.529816  0.430035  1
  Cl  Cl61  1  0.457889  0.470184  0.069965  1
  Cl  Cl62  1  0.542111  0.029816  0.569965  1
  Cl  Cl63  1  0.514564  0.399647  0.787429  1
  Se  Se64  1  0.589230  0.297394  0.626245  1
  Se  Se65  1  0.089230  0.702606  0.873755  1
  Se  Se66  1  0.910770  0.797394  0.373755  1
  Se  Se67  1  0.410770  0.202606  0.126245  1
  Se  Se68  1  0.410770  0.702606  0.373755  1
  Se  Se69  1  0.910770  0.297394  0.126245  1
  Se  Se70  1  0.089230  0.202606  0.626245  1
  Se  Se71  1  0.589230  0.797394  0.873755  1
  Se  Se72  1  0.778063  0.445276  0.562652  1
  Se  Se73  1  0.278063  0.554724  0.937348  1
  Se  Se74  1  0.721937  0.945276  0.437348  1
  Se  Se75  1  0.221937  0.054724  0.062652  1
  Se  Se76  1  0.221937  0.554724  0.437348  1
  Se  Se77  1  0.721937  0.445276  0.062652  1
  Se  Se78  1  0.278063  0.054724  0.562652  1
  Se  Se79  1  0.778063  0.945276  0.937348  1
  Se  Se80  1  0.777404  0.903469  0.695583  1
  Se  Se81  1  0.277404  0.096531  0.804417  1
  Se  Se82  1  0.722596  0.403469  0.304417  1
  Se  Se83  1  0.222596  0.596531  0.195583  1
  Se  Se84  1  0.222596  0.096531  0.304417  1
  Se  Se85  1  0.722596  0.903469  0.195583  1
  Se  Se86  1  0.277404  0.596531  0.695583  1
  Se  Se87  1  0.777404  0.403469  0.804417  1
  Se  Se88  1  0.934758  0.809113  0.603830  1
  Se  Se89  1  0.434758  0.190887  0.896170  1
  Se  Se90  1  0.565242  0.309113  0.396170  1
  Se  Se91  1  0.065242  0.690887  0.103830  1
  Se  Se92  1  0.065242  0.190887  0.396170  1
  Se  Se93  1  0.565242  0.809113  0.103830  1
  Se  Se94  1  0.434758  0.690887  0.603830  1
  Se  Se95  1  0.934758  0.309113  0.896170  1
