# generated using pymatgen
data_Gd3CCl3
_symmetry_space_group_name_H-M   'P 1'
_cell_length_a   9.38614514
_cell_length_b   9.38614514
_cell_length_c   9.38614514
_cell_angle_alpha   109.47122066
_cell_angle_beta   109.47122066
_cell_angle_gamma   109.47122061
_symmetry_Int_Tables_number   1
_chemical_formula_structural   Gd3CCl3
_chemical_formula_sum   'Gd12 C4 Cl12'
_cell_volume   636.56082125
_cell_formula_units_Z   4
loop_
 _symmetry_equiv_pos_site_id
 _symmetry_equiv_pos_as_xyz
  1  'x, y, z'
loop_
 _atom_site_type_symbol
 _atom_site_label
 _atom_site_symmetry_multiplicity
 _atom_site_fract_x
 _atom_site_fract_y
 _atom_site_fract_z
 _atom_site_occupancy
  C  C0  1  0.500000  0.000000  0.250000  1
  C  C1  1  0.000000  0.250000  0.500000  1
  C  C2  1  0.250000  0.500000  0.000000  1
  C  C3  1  0.250000  0.250000  0.250000  1
  Cl  Cl4  1  0.250000  0.756872  0.743128  1
  Cl  Cl5  1  0.993128  0.506872  0.250000  1
  Cl  Cl6  1  0.506872  0.250000  0.993128  1
  Cl  Cl7  1  0.756872  0.513743  0.506872  1
  Cl  Cl8  1  0.743128  0.993128  0.986257  1
  Cl  Cl9  1  0.986257  0.743128  0.993128  1
  Cl  Cl10  1  0.513743  0.506872  0.756872  1
  Cl  Cl11  1  0.506872  0.756872  0.513743  1
  Cl  Cl12  1  0.250000  0.993128  0.506872  1
  Cl  Cl13  1  0.993128  0.986257  0.743128  1
  Cl  Cl14  1  0.743128  0.250000  0.756872  1
  Cl  Cl15  1  0.756872  0.743128  0.250000  1
  Gd  Gd16  1  0.035409  0.267705  0.017705  1
  Gd  Gd17  1  0.017705  0.035409  0.267705  1
  Gd  Gd18  1  0.017705  0.482295  0.750000  1
  Gd  Gd19  1  0.267705  0.750000  0.232295  1
  Gd  Gd20  1  0.267705  0.017705  0.035409  1
  Gd  Gd21  1  0.750000  0.017705  0.482295  1
  Gd  Gd22  1  0.750000  0.232295  0.267705  1
  Gd  Gd23  1  0.232295  0.267705  0.750000  1
  Gd  Gd24  1  0.482295  0.232295  0.464591  1
  Gd  Gd25  1  0.232295  0.464591  0.482295  1
  Gd  Gd26  1  0.482295  0.750000  0.017705  1
  Gd  Gd27  1  0.464591  0.482295  0.232295  1
