# generated using pymatgen
data_Tb2CoGe2
_symmetry_space_group_name_H-M   'P 1'
_cell_length_a   4.15791508
_cell_length_b   7.13564234
_cell_length_c   9.54839406
_cell_angle_alpha   120.25578268
_cell_angle_beta   77.42434800
_cell_angle_gamma   73.06130370
_symmetry_Int_Tables_number   1
_chemical_formula_structural   Tb2CoGe2
_chemical_formula_sum   'Tb4 Co2 Ge4'
_cell_volume   210.07999778
_cell_formula_units_Z   2
loop_
 _symmetry_equiv_pos_site_id
 _symmetry_equiv_pos_as_xyz
  1  'x, y, z'
loop_
 _atom_site_type_symbol
 _atom_site_label
 _atom_site_symmetry_multiplicity
 _atom_site_fract_x
 _atom_site_fract_y
 _atom_site_fract_z
 _atom_site_occupancy
  Co  Co0  1  0.638252  0.890988  0.832507  1
  Co  Co1  1  0.361748  0.109012  0.167493  1
  Ge  Ge2  1  0.684402  0.297747  0.333449  1
  Ge  Ge3  1  0.530647  0.188516  0.750189  1
  Ge  Ge4  1  0.469353  0.811484  0.249811  1
  Ge  Ge5  1  0.315598  0.702253  0.666551  1
  Tb  Tb6  1  0.053568  0.307757  0.585106  1
  Tb  Tb7  1  0.128905  0.739664  1.002525  1
  Tb  Tb8  1  0.871095  0.260336  -0.002525  1
  Tb  Tb9  1  0.946432  0.692243  0.414894  1
