# generated using pymatgen
data_AsSe3(ClF2)3
_symmetry_space_group_name_H-M   'P 1'
_cell_length_a   8.11713142
_cell_length_b   12.40566708
_cell_length_c   12.62765447
_cell_angle_alpha   104.35367852
_cell_angle_beta   90.00000000
_cell_angle_gamma   90.00000000
_symmetry_Int_Tables_number   1
_chemical_formula_structural   AsSe3(ClF2)3
_chemical_formula_sum   'As4 Se12 Cl12 F24'
_cell_volume   1231.89105754
_cell_formula_units_Z   4
loop_
 _symmetry_equiv_pos_site_id
 _symmetry_equiv_pos_as_xyz
  1  'x, y, z'
loop_
 _atom_site_type_symbol
 _atom_site_label
 _atom_site_symmetry_multiplicity
 _atom_site_fract_x
 _atom_site_fract_y
 _atom_site_fract_z
 _atom_site_occupancy
  F  F0  1  0.913341  0.417406  0.797209  1
  F  F1  1  0.413341  0.082594  0.202791  1
  F  F2  1  0.086659  0.582594  0.202791  1
  F  F3  1  0.586659  0.917406  0.797209  1
  F  F4  1  0.667390  0.580430  0.664778  1
  F  F5  1  0.167390  0.919570  0.335222  1
  F  F6  1  0.332610  0.419570  0.335222  1
  F  F7  1  0.832610  0.080430  0.664778  1
  F  F8  1  0.928550  0.614441  0.776861  1
  F  F9  1  0.428550  0.885559  0.223139  1
  F  F10  1  0.071450  0.385559  0.223139  1
  F  F11  1  0.571450  0.114441  0.776861  1
  F  F12  1  0.328367  0.455920  0.148899  1
  F  F13  1  0.828367  0.044080  0.851101  1
  F  F14  1  0.653509  0.383360  0.684947  1
  F  F15  1  0.153509  0.116640  0.315053  1
  F  F16  1  0.346491  0.616640  0.315053  1
  F  F17  1  0.171633  0.955920  0.148899  1
  F  F18  1  0.909422  0.453911  0.610605  1
  F  F19  1  0.671633  0.544080  0.851101  1
  F  F20  1  0.409422  0.046089  0.389395  1
  F  F21  1  0.090578  0.546089  0.389395  1
  F  F22  1  0.590578  0.953911  0.610605  1
  F  F23  1  0.846491  0.883360  0.684947  1
  Cl  Cl24  1  0.791633  0.878412  0.354635  1
  Cl  Cl25  1  0.827832  0.176543  0.465108  1
  Cl  Cl26  1  0.291633  0.621588  0.645365  1
  Cl  Cl27  1  0.327832  0.323457  0.534892  1
  Cl  Cl28  1  0.278098  0.669579  0.981923  1
  Cl  Cl29  1  0.221902  0.169579  0.981923  1
  Cl  Cl30  1  0.721902  0.330421  0.018077  1
  Cl  Cl31  1  0.172168  0.823457  0.534892  1
  Cl  Cl32  1  0.208367  0.121588  0.645365  1
  Cl  Cl33  1  0.708367  0.378412  0.354635  1
  Cl  Cl34  1  0.672168  0.676543  0.465108  1
  Cl  Cl35  1  0.778098  0.830421  0.018077  1
  As  As36  1  0.791035  0.499385  0.730966  1
  As  As37  1  0.208965  0.500615  0.269034  1
  As  As38  1  0.708965  0.999385  0.730966  1
  As  As39  1  0.291035  0.000615  0.269034  1
  Se  Se40  1  0.651323  0.633695  0.163325  1
  Se  Se41  1  0.371416  0.790583  0.892954  1
  Se  Se42  1  0.128584  0.290583  0.892954  1
  Se  Se43  1  0.628584  0.209417  0.107046  1
  Se  Se44  1  0.871416  0.709417  0.107046  1
  Se  Se45  1  0.151323  0.866305  0.836675  1
  Se  Se46  1  0.348677  0.366305  0.836675  1
  Se  Se47  1  0.848677  0.133695  0.163325  1
  Se  Se48  1  0.585878  0.771588  0.354143  1
  Se  Se49  1  0.085878  0.728412  0.645857  1
  Se  Se50  1  0.414122  0.228412  0.645857  1
  Se  Se51  1  0.914122  0.271588  0.354143  1
