# generated using pymatgen
data_Na3CuO3
_symmetry_space_group_name_H-M   'P 1'
_cell_length_a   8.22557168
_cell_length_b   8.22557104
_cell_length_c   16.49822854
_cell_angle_alpha   90.00000000
_cell_angle_beta   90.00000000
_cell_angle_gamma   95.73050800
_symmetry_Int_Tables_number   1
_chemical_formula_structural   Na3CuO3
_chemical_formula_sum   'Na36 Cu12 O36'
_cell_volume   1110.69202978
_cell_formula_units_Z   12
loop_
 _symmetry_equiv_pos_site_id
 _symmetry_equiv_pos_as_xyz
  1  'x, y, z'
loop_
 _atom_site_type_symbol
 _atom_site_label
 _atom_site_symmetry_multiplicity
 _atom_site_fract_x
 _atom_site_fract_y
 _atom_site_fract_z
 _atom_site_occupancy
  O  O0  1  0.481267  0.759088  0.654206  1
  O  O1  1  0.018733  0.740912  0.154206  1
  O  O2  1  0.759088  0.481267  0.345794  1
  O  O3  1  0.740912  0.018733  0.845794  1
  O  O4  1  0.518733  0.240912  0.345794  1
  O  O5  1  0.981267  0.259088  0.845794  1
  O  O6  1  0.240912  0.518733  0.654206  1
  O  O7  1  0.259088  0.981267  0.154206  1
  O  O8  1  0.451230  0.775543  0.493678  1
  O  O9  1  0.048770  0.724457  0.993678  1
  O  O10  1  0.775543  0.451230  0.506322  1
  O  O11  1  0.724457  0.048770  0.006322  1
  O  O12  1  0.548770  0.224457  0.506322  1
  O  O13  1  0.951230  0.275543  0.006322  1
  O  O14  1  0.224457  0.548770  0.493678  1
  O  O15  1  0.275543  0.951230  0.993678  1
  O  O16  1  0.444856  0.802393  0.332002  1
  O  O17  1  0.055144  0.697607  0.832002  1
  O  O18  1  0.802393  0.444856  0.667998  1
  O  O19  1  0.697607  0.055144  0.167998  1
  O  O20  1  0.555144  0.197607  0.667998  1
  O  O21  1  0.944856  0.302393  0.167998  1
  O  O22  1  0.197607  0.555144  0.332002  1
  O  O23  1  0.302393  0.944856  0.832002  1
  O  O24  1  0.884514  0.884514  0.500000  1
  O  O25  1  0.615486  0.615486  0.000000  1
  O  O26  1  0.115486  0.115486  0.500000  1
  O  O27  1  0.384514  0.384514  0.000000  1
  O  O28  1  0.872035  0.888685  0.661151  1
  O  O29  1  0.627965  0.611315  0.161151  1
  O  O30  1  0.888685  0.872035  0.338849  1
  O  O31  1  0.611315  0.627965  0.838849  1
  O  O32  1  0.127965  0.111315  0.338849  1
  O  O33  1  0.372035  0.388685  0.838849  1
  O  O34  1  0.111315  0.127965  0.661151  1
  O  O35  1  0.388685  0.372035  0.161151  1
  Na  Na36  1  0.024767  0.975233  0.779981  1
  Na  Na37  1  0.475233  0.524767  0.279981  1
  Na  Na38  1  0.975233  0.024767  0.220019  1
  Na  Na39  1  0.524767  0.475233  0.720019  1
  Na  Na40  1  0.667444  0.832556  0.750000  1
  Na  Na41  1  0.832556  0.667444  0.250000  1
  Na  Na42  1  0.332556  0.167444  0.250000  1
  Na  Na43  1  0.167444  0.332556  0.750000  1
  Na  Na44  1  0.827858  0.172142  0.719675  1
  Na  Na45  1  0.672142  0.327858  0.219675  1
  Na  Na46  1  0.172142  0.827858  0.280325  1
  Na  Na47  1  0.327858  0.672142  0.780325  1
  Na  Na48  1  0.626078  0.979654  0.570505  1
  Na  Na49  1  0.873922  0.520346  0.070505  1
  Na  Na50  1  0.979654  0.626078  0.429495  1
  Na  Na51  1  0.520346  0.873922  0.929495  1
  Na  Na52  1  0.373922  0.020346  0.429495  1
  Na  Na53  1  0.126078  0.479654  0.929495  1
  Na  Na54  1  0.020346  0.373922  0.570505  1
  Na  Na55  1  0.479654  0.126078  0.070505  1
  Na  Na56  1  0.677550  0.730041  0.412835  1
  Na  Na57  1  0.822450  0.769959  0.912835  1
  Na  Na58  1  0.730041  0.677550  0.587165  1
  Na  Na59  1  0.769959  0.822450  0.087165  1
  Na  Na60  1  0.322450  0.269959  0.587165  1
  Na  Na61  1  0.177550  0.230041  0.087165  1
  Na  Na62  1  0.269959  0.322450  0.412835  1
  Na  Na63  1  0.230041  0.177550  0.912835  1
  Na  Na64  1  0.662658  0.017382  0.314584  1
  Na  Na65  1  0.837342  0.482618  0.814584  1
  Na  Na66  1  0.017382  0.662658  0.685416  1
  Na  Na67  1  0.482618  0.837342  0.185416  1
  Na  Na68  1  0.337342  0.982618  0.685416  1
  Na  Na69  1  0.162658  0.517382  0.185416  1
  Na  Na70  1  0.982618  0.337342  0.314584  1
  Na  Na71  1  0.517382  0.162658  0.814584  1
  Cu  Cu72  1  0.347786  0.652214  0.578295  1
  Cu  Cu73  1  0.152214  0.847786  0.078295  1
  Cu  Cu74  1  0.652214  0.347786  0.421705  1
  Cu  Cu75  1  0.847786  0.152214  0.921705  1
  Cu  Cu76  1  0.328361  0.671639  0.408946  1
  Cu  Cu77  1  0.171639  0.828361  0.908946  1
  Cu  Cu78  1  0.671639  0.328361  0.591054  1
  Cu  Cu79  1  0.828361  0.171639  0.091054  1
  Cu  Cu80  1  0.999134  0.000866  0.584146  1
  Cu  Cu81  1  0.500866  0.499134  0.084146  1
  Cu  Cu82  1  0.000866  0.999134  0.415854  1
  Cu  Cu83  1  0.499134  0.500866  0.915854  1
