# generated using pymatgen
data_H9CN9
_symmetry_space_group_name_H-M   'P 1'
_cell_length_a   6.82753835
_cell_length_b   7.83320179
_cell_length_c   13.26118083
_cell_angle_alpha   90.00000000
_cell_angle_beta   95.83194920
_cell_angle_gamma   90.00000000
_symmetry_Int_Tables_number   1
_chemical_formula_structural   H9CN9
_chemical_formula_sum   'H36 C4 N36'
_cell_volume   705.55683374
_cell_formula_units_Z   4
loop_
 _symmetry_equiv_pos_site_id
 _symmetry_equiv_pos_as_xyz
  1  'x, y, z'
loop_
 _atom_site_type_symbol
 _atom_site_label
 _atom_site_symmetry_multiplicity
 _atom_site_fract_x
 _atom_site_fract_y
 _atom_site_fract_z
 _atom_site_occupancy
  H  H0  1  0.891494  0.301451  0.391652  1
  H  H1  1  0.711945  0.556734  0.849491  1
  H  H2  1  0.288055  0.056734  0.650509  1
  H  H3  1  0.288055  0.443266  0.150509  1
  H  H4  1  0.108506  0.801451  0.108348  1
  H  H5  1  0.108506  0.698549  0.608348  1
  H  H6  1  0.891494  0.198549  0.891652  1
  H  H7  1  0.646121  0.300900  0.380715  1
  H  H8  1  0.353879  0.800900  0.119285  1
  H  H9  1  0.353879  0.699100  0.619285  1
  H  H10  1  0.646121  0.199100  0.880715  1
  H  H11  1  0.808443  0.229582  0.557264  1
  H  H12  1  0.191557  0.729582  0.942736  1
  H  H13  1  0.191557  0.770418  0.442736  1
  H  H14  1  0.808443  0.270418  0.057264  1
  H  H15  1  0.868314  0.985395  0.732198  1
  H  H16  1  0.131686  0.485395  0.767802  1
  H  H17  1  0.131686  0.014605  0.267802  1
  H  H18  1  0.868314  0.514605  0.232198  1
  H  H19  1  0.711945  0.943266  0.349491  1
  H  H20  1  0.374099  0.518261  0.786413  1
  H  H21  1  0.374099  0.981739  0.286413  1
  H  H22  1  0.625901  0.481739  0.213587  1
  H  H23  1  0.699236  0.793604  0.598765  1
  H  H24  1  0.300764  0.293604  0.901235  1
  H  H25  1  0.300764  0.206396  0.401235  1
  H  H26  1  0.699236  0.706396  0.098765  1
  H  H27  1  0.802954  0.649749  0.410540  1
  H  H28  1  0.197046  0.149749  0.089460  1
  H  H29  1  0.197046  0.350251  0.589460  1
  H  H30  1  0.802954  0.850251  0.910540  1
  H  H31  1  0.559992  0.675167  0.390026  1
  H  H32  1  0.440008  0.175167  0.109974  1
  H  H33  1  0.440008  0.324833  0.609974  1
  H  H34  1  0.559992  0.824833  0.890026  1
  H  H35  1  0.625901  0.018261  0.713587  1
  C  C36  1  0.743252  0.988914  0.502868  1
  C  C37  1  0.256748  0.488914  0.997132  1
  C  C38  1  0.256748  0.011086  0.497132  1
  C  C39  1  0.743252  0.511086  0.002868  1
  N  N40  1  0.921258  0.450039  0.636444  1
  N  N41  1  0.078742  0.549961  0.363556  1
  N  N42  1  0.921258  0.049961  0.136444  1
  N  N43  1  0.774492  0.507044  0.663494  1
  N  N44  1  0.225508  0.007044  0.836506  1
  N  N45  1  0.225508  0.492956  0.336506  1
  N  N46  1  0.774492  0.992956  0.163494  1
  N  N47  1  0.627653  0.565992  0.690497  1
  N  N48  1  0.372347  0.065992  0.809503  1
  N  N49  1  0.372347  0.434008  0.309503  1
  N  N50  1  0.627653  0.934008  0.190497  1
  N  N51  1  0.769562  0.226131  0.395294  1
  N  N52  1  0.230438  0.726131  0.104706  1
  N  N53  1  0.230438  0.773869  0.604706  1
  N  N54  1  0.769562  0.273869  0.895294  1
  N  N55  1  0.773545  0.156954  0.493188  1
  N  N56  1  0.226455  0.656954  0.006812  1
  N  N57  1  0.226455  0.843046  0.506812  1
  N  N58  1  0.773545  0.343046  0.993188  1
  N  N59  1  0.755246  0.025548  0.680463  1
  N  N60  1  0.244754  0.525548  0.819537  1
  N  N61  1  0.244754  0.974452  0.319537  1
  N  N62  1  0.755246  0.474452  0.180463  1
  N  N63  1  0.744376  0.918306  0.595346  1
  N  N64  1  0.255624  0.418306  0.904654  1
  N  N65  1  0.255624  0.081694  0.404654  1
  N  N66  1  0.744376  0.581694  0.095346  1
  N  N67  1  0.684317  0.713953  0.433643  1
  N  N68  1  0.315683  0.213953  0.066357  1
  N  N69  1  0.315683  0.286047  0.566357  1
  N  N70  1  0.684317  0.786047  0.933643  1
  N  N71  1  0.711501  0.889733  0.420313  1
  N  N72  1  0.288499  0.389733  0.079687  1
  N  N73  1  0.288499  0.110267  0.579687  1
  N  N74  1  0.711501  0.610267  0.920313  1
  N  N75  1  0.078742  0.950039  0.863556  1
