# generated using pymatgen
data_SnCl2
_symmetry_space_group_name_H-M   'P 1'
_cell_length_a   4.34286089
_cell_length_b   9.96278819
_cell_length_c   16.31371093
_cell_angle_alpha   90.08370393
_cell_angle_beta   90.00000000
_cell_angle_gamma   90.00000000
_symmetry_Int_Tables_number   1
_chemical_formula_structural   SnCl2
_chemical_formula_sum   'Sn8 Cl16'
_cell_volume   705.84462975
_cell_formula_units_Z   8
loop_
 _symmetry_equiv_pos_site_id
 _symmetry_equiv_pos_as_xyz
  1  'x, y, z'
loop_
 _atom_site_type_symbol
 _atom_site_label
 _atom_site_symmetry_multiplicity
 _atom_site_fract_x
 _atom_site_fract_y
 _atom_site_fract_z
 _atom_site_occupancy
  Cl  Cl0  1  0.250288  0.143677  0.242841  1
  Cl  Cl1  1  0.750288  0.856323  0.257159  1
  Cl  Cl2  1  0.749712  0.856323  0.757159  1
  Cl  Cl3  1  0.249712  0.143677  0.742841  1
  Cl  Cl4  1  0.745546  0.643763  0.507496  1
  Cl  Cl5  1  0.245546  0.356237  0.992504  1
  Cl  Cl6  1  0.254454  0.356237  0.492504  1
  Cl  Cl7  1  0.754454  0.643763  0.007496  1
  Cl  Cl8  1  0.256141  0.581340  0.176559  1
  Cl  Cl9  1  0.756141  0.418660  0.323441  1
  Cl  Cl10  1  0.743859  0.418660  0.823441  1
  Cl  Cl11  1  0.243859  0.581340  0.676559  1
  Cl  Cl12  1  0.751458  0.081066  0.073636  1
  Cl  Cl13  1  0.251458  0.918934  0.426364  1
  Cl  Cl14  1  0.248542  0.918934  0.926364  1
  Cl  Cl15  1  0.748542  0.081066  0.573636  1
  Sn  Sn16  1  0.727995  0.443530  0.612483  1
  Sn  Sn17  1  0.227995  0.556470  0.887517  1
  Sn  Sn18  1  0.272005  0.556470  0.387517  1
  Sn  Sn19  1  0.772005  0.443530  0.112483  1
  Sn  Sn20  1  0.238936  0.943526  0.637556  1
  Sn  Sn21  1  0.738936  0.056474  0.862444  1
  Sn  Sn22  1  0.761064  0.056474  0.362444  1
  Sn  Sn23  1  0.261064  0.943526  0.137556  1
