# generated using pymatgen
data_H8Se(NO2)2
_symmetry_space_group_name_H-M   'P 1'
_cell_length_a   6.63427659
_cell_length_b   6.86980758
_cell_length_c   7.85648521
_cell_angle_alpha   111.27932925
_cell_angle_beta   90.00000000
_cell_angle_gamma   118.87219853
_symmetry_Int_Tables_number   1
_chemical_formula_structural   H8Se(NO2)2
_chemical_formula_sum   'H16 Se2 N4 O8'
_cell_volume   285.36559090
_cell_formula_units_Z   2
loop_
 _symmetry_equiv_pos_site_id
 _symmetry_equiv_pos_as_xyz
  1  'x, y, z'
loop_
 _atom_site_type_symbol
 _atom_site_label
 _atom_site_symmetry_multiplicity
 _atom_site_fract_x
 _atom_site_fract_y
 _atom_site_fract_z
 _atom_site_occupancy
  H  H0  1  0.660700  0.573324  0.195465  1
  H  H1  1  0.087377  0.426676  0.804535  1
  H  H2  1  0.339300  0.426676  0.804535  1
  H  H3  1  0.912623  0.573324  0.195465  1
  H  H4  1  0.404203  0.061995  0.183850  1
  H  H5  1  0.342208  0.938005  0.816150  1
  H  H6  1  0.595797  0.938005  0.816150  1
  H  H7  1  0.657792  0.061995  0.183850  1
  H  H8  1  0.146690  0.293380  0.597422  1
  H  H9  1  0.853310  0.706620  0.402578  1
  H  H10  1  0.410017  0.820035  0.609786  1
  H  H11  1  0.589983  0.179965  0.390214  1
  H  H12  1  0.077563  0.155126  0.746054  1
  H  H13  1  0.922437  0.844874  0.253946  1
  H  H14  1  0.437484  0.874968  0.264857  1
  H  H15  1  0.562516  0.125032  0.735143  1
  N  N16  1  0.161840  0.323680  0.738706  1
  N  N17  1  0.838160  0.676320  0.261294  1
  N  N18  1  0.478846  0.957692  0.746758  1
  N  N19  1  0.521154  0.042308  0.253242  1
  O  O20  1  0.356228  0.293492  0.094973  1
  O  O21  1  0.062736  0.706508  0.905027  1
  O  O22  1  0.643772  0.706508  0.905027  1
  O  O23  1  0.937264  0.293492  0.094973  1
  O  O24  1  0.905711  0.811422  0.647615  1
  O  O25  1  0.094289  0.188578  0.352385  1
  O  O26  1  0.672027  0.344055  0.632978  1
  O  O27  1  0.327973  0.655945  0.367022  1
  Se  Se28  1  0.822643  0.645285  0.774645  1
  Se  Se29  1  0.177357  0.354715  0.225355  1
