# generated using pymatgen
data_Tb(FeSn)6
_symmetry_space_group_name_H-M   'P 1'
_cell_length_a   5.43278393
_cell_length_b   8.97467827
_cell_length_c   10.39696903
_cell_angle_alpha   115.56918769
_cell_angle_beta   90.00000000
_cell_angle_gamma   90.00000000
_symmetry_Int_Tables_number   1
_chemical_formula_structural   Tb(FeSn)6
_chemical_formula_sum   'Tb2 Fe12 Sn12'
_cell_volume   457.28377228
_cell_formula_units_Z   2
loop_
 _symmetry_equiv_pos_site_id
 _symmetry_equiv_pos_as_xyz
  1  'x, y, z'
loop_
 _atom_site_type_symbol
 _atom_site_label
 _atom_site_symmetry_multiplicity
 _atom_site_fract_x
 _atom_site_fract_y
 _atom_site_fract_z
 _atom_site_occupancy
  Fe  Fe0  1  0.000000  0.000000  0.500000  1
  Fe  Fe1  1  0.500000  0.000000  0.500000  1
  Fe  Fe2  1  0.000000  0.500000  0.500000  1
  Fe  Fe3  1  0.500000  0.500000  0.500000  1
  Fe  Fe4  1  0.000000  0.753689  0.000000  1
  Fe  Fe5  1  0.500000  0.246311  0.000000  1
  Fe  Fe6  1  0.000000  0.246311  0.000000  1
  Fe  Fe7  1  0.500000  0.753689  0.000000  1
  Fe  Fe8  1  0.250000  0.877846  0.249972  1
  Fe  Fe9  1  0.750000  0.122154  0.750028  1
  Fe  Fe10  1  0.750000  0.627873  0.750028  1
  Fe  Fe11  1  0.250000  0.372127  0.249972  1
  Sn  Sn12  1  0.250000  0.042042  0.084084  1
  Sn  Sn13  1  0.750000  0.957958  0.915916  1
  Sn  Sn14  1  0.250000  0.540374  0.080749  1
  Sn  Sn15  1  0.750000  0.459626  0.919251  1
  Sn  Sn16  1  0.250000  0.210758  0.421515  1
  Sn  Sn17  1  0.750000  0.789242  0.578485  1
  Sn  Sn18  1  0.250000  0.704808  0.409616  1
  Sn  Sn19  1  0.750000  0.295192  0.590384  1
  Sn  Sn20  1  0.750000  0.787394  0.248779  1
  Sn  Sn21  1  0.250000  0.212606  0.751221  1
  Sn  Sn22  1  0.250000  0.538614  0.751221  1
  Sn  Sn23  1  0.750000  0.461386  0.248779  1
  Tb  Tb24  1  0.750000  0.127665  0.255330  1
  Tb  Tb25  1  0.250000  0.872335  0.744670  1
