# generated using pymatgen
data_Tb3(CoGe2)2
_symmetry_space_group_name_H-M   'P 1'
_cell_length_a   4.16406892
_cell_length_b   5.76522924
_cell_length_c   8.06449590
_cell_angle_alpha   106.37697556
_cell_angle_beta   90.00000000
_cell_angle_gamma   111.17000614
_symmetry_Int_Tables_number   1
_chemical_formula_structural   Tb3(CoGe2)2
_chemical_formula_sum   'Tb3 Co2 Ge4'
_cell_volume   172.08682019
_cell_formula_units_Z   1
loop_
 _symmetry_equiv_pos_site_id
 _symmetry_equiv_pos_as_xyz
  1  'x, y, z'
loop_
 _atom_site_type_symbol
 _atom_site_label
 _atom_site_symmetry_multiplicity
 _atom_site_fract_x
 _atom_site_fract_y
 _atom_site_fract_z
 _atom_site_occupancy
  Co  Co0  1  0.307388  0.614776  0.627538  1
  Co  Co1  1  0.692612  0.385224  0.372462  1
  Ge  Ge2  1  0.900749  0.801499  0.600712  1
  Ge  Ge3  1  0.709149  0.418298  0.081180  1
  Ge  Ge4  1  0.290851  0.581702  0.918820  1
  Ge  Ge5  1  0.099251  0.198501  0.399288  1
  Tb  Tb6  1  0.000000  0.000000  0.000000  1
  Tb  Tb7  1  0.622879  0.245758  0.692442  1
  Tb  Tb8  1  0.377121  0.754242  0.307558  1
