# generated using pymatgen
data_Pd7Se4
_symmetry_space_group_name_H-M   'P 1'
_cell_length_a   5.41843341
_cell_length_b   7.05788877
_cell_length_c   10.35077127
_cell_angle_alpha   90.00000000
_cell_angle_beta   90.00000000
_cell_angle_gamma   90.00000000
_symmetry_Int_Tables_number   1
_chemical_formula_structural   Pd7Se4
_chemical_formula_sum   'Pd14 Se8'
_cell_volume   395.84144371
_cell_formula_units_Z   2
loop_
 _symmetry_equiv_pos_site_id
 _symmetry_equiv_pos_as_xyz
  1  'x, y, z'
loop_
 _atom_site_type_symbol
 _atom_site_label
 _atom_site_symmetry_multiplicity
 _atom_site_fract_x
 _atom_site_fract_y
 _atom_site_fract_z
 _atom_site_occupancy
  Se  Se0  1  0.998184  0.000000  0.500000  1
  Se  Se1  1  0.001816  0.500000  0.000000  1
  Se  Se2  1  0.168927  0.500000  0.500000  1
  Se  Se3  1  0.831073  0.000000  0.000000  1
  Se  Se4  1  0.683907  0.675460  0.280371  1
  Se  Se5  1  0.683907  0.324540  0.719629  1
  Se  Se6  1  0.316093  0.175460  0.219629  1
  Se  Se7  1  0.316093  0.824540  0.780371  1
  Pd  Pd8  1  0.661547  0.872282  0.632811  1
  Pd  Pd9  1  0.661547  0.127718  0.367189  1
  Pd  Pd10  1  0.338453  0.372282  0.867189  1
  Pd  Pd11  1  0.338453  0.627718  0.132811  1
  Pd  Pd12  1  0.323098  0.000000  0.000000  1
  Pd  Pd13  1  0.676902  0.500000  0.500000  1
  Pd  Pd14  1  0.005857  0.914254  0.226004  1
  Pd  Pd15  1  0.005857  0.085747  0.773996  1
  Pd  Pd16  1  0.994143  0.414253  0.273996  1
  Pd  Pd17  1  0.994143  0.585746  0.726004  1
  Pd  Pd18  1  0.349950  0.810495  0.417738  1
  Pd  Pd19  1  0.349950  0.189505  0.582262  1
  Pd  Pd20  1  0.650050  0.310495  0.082262  1
  Pd  Pd21  1  0.650050  0.689505  0.917738  1
