# generated using pymatgen
data_ZnH6(CO3)2
_symmetry_space_group_name_H-M   'P 1'
_cell_length_a   7.23307501
_cell_length_b   8.81599012
_cell_length_c   9.35479960
_cell_angle_alpha   97.28126702
_cell_angle_beta   90.00000000
_cell_angle_gamma   90.00000000
_symmetry_Int_Tables_number   1
_chemical_formula_structural   ZnH6(CO3)2
_chemical_formula_sum   'Zn4 H24 C8 O24'
_cell_volume   591.71444997
_cell_formula_units_Z   4
loop_
 _symmetry_equiv_pos_site_id
 _symmetry_equiv_pos_as_xyz
  1  'x, y, z'
loop_
 _atom_site_type_symbol
 _atom_site_label
 _atom_site_symmetry_multiplicity
 _atom_site_fract_x
 _atom_site_fract_y
 _atom_site_fract_z
 _atom_site_occupancy
  Zn  Zn0  1  0.500000  0.500000  0.000000  1
  Zn  Zn1  1  0.500000  0.000000  0.500000  1
  Zn  Zn2  1  0.000000  0.500000  0.500000  1
  Zn  Zn3  1  0.000000  0.000000  0.000000  1
  H  H4  1  0.645440  0.533279  0.279220  1
  H  H5  1  0.388771  0.215919  0.014682  1
  H  H6  1  0.888771  0.784081  0.485318  1
  H  H7  1  0.354560  0.466721  0.720780  1
  H  H8  1  0.111229  0.215919  0.514682  1
  H  H9  1  0.907272  0.698870  0.735476  1
  H  H10  1  0.104684  0.761860  0.450585  1
  H  H11  1  0.710161  0.064692  0.773830  1
  H  H12  1  0.592728  0.698870  0.235476  1
  H  H13  1  0.473896  0.322863  0.390100  1
  H  H14  1  0.395316  0.761860  0.950585  1
  H  H15  1  0.026104  0.322863  0.890100  1
  H  H16  1  0.145440  0.466721  0.220780  1
  H  H17  1  0.289839  0.935308  0.226170  1
  H  H18  1  0.526104  0.677137  0.609900  1
  H  H19  1  0.210161  0.935308  0.726170  1
  H  H20  1  0.895316  0.238140  0.549415  1
  H  H21  1  0.789839  0.064692  0.273830  1
  H  H22  1  0.604684  0.238140  0.049415  1
  H  H23  1  0.092728  0.301130  0.264524  1
  H  H24  1  0.973896  0.677137  0.109900  1
  H  H25  1  0.611229  0.784081  0.985318  1
  H  H26  1  0.407272  0.301130  0.764524  1
  H  H27  1  0.854560  0.533279  0.779220  1
  C  C28  1  0.220876  0.039746  0.277531  1
  C  C29  1  0.279124  0.039746  0.777531  1
  C  C30  1  0.615593  0.323080  0.434413  1
  C  C31  1  0.720876  0.960254  0.222469  1
  C  C32  1  0.384407  0.676920  0.565587  1
  C  C33  1  0.115593  0.676920  0.065587  1
  C  C34  1  0.884407  0.323080  0.934413  1
  C  C35  1  0.779124  0.960254  0.722469  1
  O  O36  1  0.282816  0.562915  0.581209  1
  O  O37  1  0.520769  0.718200  0.926511  1
  O  O38  1  0.665363  0.208196  0.496325  1
  O  O39  1  0.230576  0.092859  0.904970  1
  O  O40  1  0.902166  0.899039  0.793421  1
  O  O41  1  0.769424  0.907141  0.095030  1
  O  O42  1  0.782816  0.437085  0.918791  1
  O  O43  1  0.112006  0.409875  0.302672  1
  O  O44  1  0.834637  0.208196  0.996325  1
  O  O45  1  0.334637  0.791804  0.503675  1
  O  O46  1  0.612006  0.590125  0.197328  1
  O  O47  1  0.402166  0.100961  0.706579  1
  O  O48  1  0.217184  0.562915  0.081209  1
  O  O49  1  0.387994  0.409875  0.802672  1
  O  O50  1  0.097834  0.100961  0.206579  1
  O  O51  1  0.979231  0.718200  0.426511  1
  O  O52  1  0.165363  0.791804  0.003675  1
  O  O53  1  0.717184  0.437085  0.418791  1
  O  O54  1  0.887994  0.590125  0.697328  1
  O  O55  1  0.730576  0.907141  0.595030  1
  O  O56  1  0.269424  0.092859  0.404970  1
  O  O57  1  0.479231  0.281800  0.073489  1
  O  O58  1  0.597834  0.899039  0.293421  1
  O  O59  1  0.020769  0.281800  0.573489  1
