# generated using pymatgen
data_ReH12C4O5F
_symmetry_space_group_name_H-M   'P 1'
_cell_length_a   6.37771402
_cell_length_b   6.88798517
_cell_length_c   12.78209626
_cell_angle_alpha   78.31677180
_cell_angle_beta   81.80995565
_cell_angle_gamma   63.51613073
_symmetry_Int_Tables_number   1
_chemical_formula_structural   ReH12C4O5F
_chemical_formula_sum   'Re2 H24 C8 O10 F2'
_cell_volume   491.30271516
_cell_formula_units_Z   2
loop_
 _symmetry_equiv_pos_site_id
 _symmetry_equiv_pos_as_xyz
  1  'x, y, z'
loop_
 _atom_site_type_symbol
 _atom_site_label
 _atom_site_symmetry_multiplicity
 _atom_site_fract_x
 _atom_site_fract_y
 _atom_site_fract_z
 _atom_site_occupancy
  H  H0  1  0.039396  0.661327  0.864853  1
  H  H1  1  0.960604  0.338673  0.135147  1
  H  H2  1  0.180964  0.834876  0.865723  1
  H  H3  1  0.819036  0.165124  0.134277  1
  H  H4  1  0.156288  0.656988  0.986273  1
  H  H5  1  0.843712  0.343012  0.013727  1
  H  H6  1  0.842534  0.988799  0.654354  1
  H  H7  1  0.157466  0.011201  0.345646  1
  H  H8  1  0.409297  0.266746  0.997612  1
  H  H9  1  0.590703  0.733254  0.002388  1
  H  H10  1  0.603807  0.174899  0.882943  1
  H  H11  1  0.396193  0.825101  0.117057  1
  H  H12  1  0.294150  0.262002  0.877570  1
  H  H13  1  0.705850  0.737998  0.122430  1
  H  H14  1  0.988259  0.163444  0.642881  1
  H  H15  1  0.011741  0.836556  0.357119  1
  H  H16  1  0.575716  0.843126  0.345708  1
  H  H17  1  0.424284  0.156874  0.654292  1
  H  H18  1  0.733366  0.556368  0.334265  1
  H  H19  1  0.266634  0.443632  0.665735  1
  H  H20  1  0.592291  0.636936  0.460065  1
  H  H21  1  0.407709  0.363064  0.539935  1
  H  H22  1  0.840427  0.171803  0.531262  1
  H  H23  1  0.159573  0.828197  0.468738  1
  C  C24  1  0.418096  0.321223  0.627303  1
  C  C25  1  0.161800  0.850199  0.380981  1
  C  C26  1  0.428881  0.288786  0.909643  1
  C  C27  1  0.581904  0.678777  0.372697  1
  C  C28  1  0.819268  0.324658  0.101610  1
  C  C29  1  0.180732  0.675342  0.898390  1
  C  C30  1  0.571119  0.711214  0.090357  1
  C  C31  1  0.838200  0.149801  0.619019  1
  O  O32  1  0.406755  0.508089  0.869057  1
  O  O33  1  0.593245  0.491911  0.130943  1
  O  O34  1  0.627126  0.321468  0.658396  1
  O  O35  1  0.177495  0.362354  0.382663  1
  O  O36  1  0.866267  0.356580  0.805026  1
  O  O37  1  0.133733  0.643420  0.194974  1
  O  O38  1  0.822505  0.637646  0.617337  1
  O  O39  1  0.378669  0.200306  0.198563  1
  O  O40  1  0.621331  0.799694  0.801437  1
  O  O41  1  0.372874  0.678532  0.341604  1
  F  F42  1  0.354128  0.735539  0.672685  1
  F  F43  1  0.645872  0.264461  0.327315  1
  Re  Re44  1  0.661263  0.591595  0.732532  1
  Re  Re45  1  0.338737  0.408405  0.267468  1
