# generated using pymatgen
data_Cs2Au2Se3
_symmetry_space_group_name_H-M   'P 1'
_cell_length_a   7.61736007
_cell_length_b   8.46196561
_cell_length_c   8.46196560
_cell_angle_alpha   107.49206475
_cell_angle_beta   91.04131500
_cell_angle_gamma   91.04131496
_symmetry_Int_Tables_number   1
_chemical_formula_structural   Cs2Au2Se3
_chemical_formula_sum   'Cs4 Au4 Se6'
_cell_volume   519.97239236
_cell_formula_units_Z   2
loop_
 _symmetry_equiv_pos_site_id
 _symmetry_equiv_pos_as_xyz
  1  'x, y, z'
loop_
 _atom_site_type_symbol
 _atom_site_label
 _atom_site_symmetry_multiplicity
 _atom_site_fract_x
 _atom_site_fract_y
 _atom_site_fract_z
 _atom_site_occupancy
  Se  Se0  1  0.175893  0.949205  0.266797  1
  Se  Se1  1  0.750000  0.582785  0.417215  1
  Se  Se2  1  0.250000  0.417215  0.582785  1
  Se  Se3  1  0.675893  0.266797  0.949205  1
  Se  Se4  1  0.324107  0.733203  0.050795  1
  Se  Se5  1  0.824107  0.050795  0.733203  1
  Cs  Cs6  1  0.367042  0.865609  0.655786  1
  Cs  Cs7  1  0.867042  0.655786  0.865609  1
  Cs  Cs8  1  0.632958  0.134391  0.344214  1
  Cs  Cs9  1  0.132958  0.344214  0.134391  1
  Au  Au10  1  0.458570  0.353621  0.776636  1
  Au  Au11  1  0.958570  0.776636  0.353621  1
  Au  Au12  1  0.541430  0.646379  0.223364  1
  Au  Au13  1  0.041430  0.223364  0.646379  1
