# generated using pymatgen
data_Tl3Ir(NO2)6
_symmetry_space_group_name_H-M   'P 1'
_cell_length_a   7.61103673
_cell_length_b   7.61103673
_cell_length_c   7.61103673
_cell_angle_alpha   59.99999997
_cell_angle_beta   59.99999998
_cell_angle_gamma   60.00000001
_symmetry_Int_Tables_number   1
_chemical_formula_structural   Tl3Ir(NO2)6
_chemical_formula_sum   'Tl3 Ir1 N6 O12'
_cell_volume   311.75717393
_cell_formula_units_Z   1
loop_
 _symmetry_equiv_pos_site_id
 _symmetry_equiv_pos_as_xyz
  1  'x, y, z'
loop_
 _atom_site_type_symbol
 _atom_site_label
 _atom_site_symmetry_multiplicity
 _atom_site_fract_x
 _atom_site_fract_y
 _atom_site_fract_z
 _atom_site_occupancy
  N  N0  1  0.187097  0.812903  0.187097  1
  N  N1  1  0.187097  0.812903  0.812903  1
  N  N2  1  0.812903  0.187097  0.812903  1
  N  N3  1  0.187097  0.187097  0.812903  1
  N  N4  1  0.812903  0.187097  0.187097  1
  N  N5  1  0.812903  0.812903  0.187097  1
  O  O6  1  0.413668  1.000000  0.586332  1
  O  O7  1  1.000000  0.413668  0.586332  1
  O  O8  1  0.000000  0.000000  0.586332  1
  O  O9  1  0.000000  0.586332  1.000000  1
  O  O10  1  0.000000  0.000000  0.413668  1
  O  O11  1  0.000000  0.586332  0.413668  1
  O  O12  1  0.413668  1.000000  0.000000  1
  O  O13  1  1.000000  0.413668  0.000000  1
  O  O14  1  0.586332  0.000000  0.413668  1
  O  O15  1  0.586332  0.413668  1.000000  1
  O  O16  1  0.413668  0.586332  0.000000  1
  O  O17  1  0.586332  0.000000  1.000000  1
  Ir  Ir18  1  0.000000  0.000000  0.000000  1
  Tl  Tl19  1  0.750000  0.750000  0.750000  1
  Tl  Tl20  1  0.250000  0.250000  0.250000  1
  Tl  Tl21  1  0.500000  0.500000  0.500000  1
