# generated using pymatgen
data_Ca5Ni15B4
_symmetry_space_group_name_H-M   'P 1'
_cell_length_a   5.08436448
_cell_length_b   5.08436448
_cell_length_c   27.83177172
_cell_angle_alpha   90.00000000
_cell_angle_beta   90.00000000
_cell_angle_gamma   120.00000001
_symmetry_Int_Tables_number   1
_chemical_formula_structural   Ca5Ni15B4
_chemical_formula_sum   'Ca10 Ni30 B8'
_cell_volume   623.08147193
_cell_formula_units_Z   2
loop_
 _symmetry_equiv_pos_site_id
 _symmetry_equiv_pos_as_xyz
  1  'x, y, z'
loop_
 _atom_site_type_symbol
 _atom_site_label
 _atom_site_symmetry_multiplicity
 _atom_site_fract_x
 _atom_site_fract_y
 _atom_site_fract_z
 _atom_site_occupancy
  B  B0  1  0.000000  0.000000  0.371807  1
  B  B1  1  0.000000  0.000000  0.871807  1
  B  B2  1  0.000000  0.000000  0.628193  1
  B  B3  1  0.000000  0.000000  0.128193  1
  B  B4  1  0.333333  0.666667  0.873266  1
  B  B5  1  0.666667  0.333333  0.373266  1
  B  B6  1  0.666667  0.333333  0.126734  1
  B  B7  1  0.333333  0.666667  0.626734  1
  Ca  Ca8  1  0.666667  0.333333  0.750000  1
  Ca  Ca9  1  0.333333  0.666667  0.250000  1
  Ca  Ca10  1  0.333333  0.666667  0.481358  1
  Ca  Ca11  1  0.666667  0.333333  0.981358  1
  Ca  Ca12  1  0.666667  0.333333  0.518642  1
  Ca  Ca13  1  0.333333  0.666667  0.018642  1
  Ca  Ca14  1  0.333333  0.666667  0.368680  1
  Ca  Ca15  1  0.666667  0.333333  0.868680  1
  Ca  Ca16  1  0.666667  0.333333  0.631320  1
  Ca  Ca17  1  0.333333  0.666667  0.131320  1
  Ni  Ni18  1  0.832837  0.167163  0.177559  1
  Ni  Ni19  1  0.167163  0.334326  0.822441  1
  Ni  Ni20  1  0.167163  0.832837  0.822441  1
  Ni  Ni21  1  0.167163  0.334326  0.677559  1
  Ni  Ni22  1  0.665674  0.832837  0.822441  1
  Ni  Ni23  1  0.334326  0.167163  0.322441  1
  Ni  Ni24  1  0.832837  0.665674  0.322441  1
  Ni  Ni25  1  0.832837  0.167163  0.322441  1
  Ni  Ni26  1  0.333333  0.666667  0.750000  1
  Ni  Ni27  1  0.666667  0.333333  0.250000  1
  Ni  Ni28  1  0.000000  0.000000  0.250000  1
  Ni  Ni29  1  0.000000  0.000000  0.750000  1
  Ni  Ni30  1  0.334326  0.167163  0.177559  1
  Ni  Ni31  1  0.665674  0.832837  0.677559  1
  Ni  Ni32  1  0.167163  0.832837  0.677559  1
  Ni  Ni33  1  0.832837  0.665674  0.177559  1
  Ni  Ni34  1  0.835649  0.164351  0.422136  1
  Ni  Ni35  1  0.835649  0.671298  0.422136  1
  Ni  Ni36  1  0.328702  0.164351  0.422136  1
  Ni  Ni37  1  0.671298  0.835649  0.922136  1
  Ni  Ni38  1  0.164351  0.328702  0.577864  1
  Ni  Ni39  1  0.164351  0.835649  0.922136  1
  Ni  Ni40  1  0.164351  0.328702  0.922136  1
  Ni  Ni41  1  0.835649  0.164351  0.077864  1
  Ni  Ni42  1  0.328702  0.164351  0.077864  1
  Ni  Ni43  1  0.671298  0.835649  0.577864  1
  Ni  Ni44  1  0.164351  0.835649  0.577864  1
  Ni  Ni45  1  0.835649  0.671298  0.077864  1
  Ni  Ni46  1  0.000000  0.000000  0.500000  1
  Ni  Ni47  1  0.000000  0.000000  0.000000  1
