# generated using pymatgen
data_LiH3O2
_symmetry_space_group_name_H-M   'P 1'
_cell_length_a   5.60453321
_cell_length_b   5.60453321
_cell_length_c   3.24147943
_cell_angle_alpha   76.46788825
_cell_angle_beta   103.53211175
_cell_angle_gamma   82.12728878
_symmetry_Int_Tables_number   1
_chemical_formula_structural   LiH3O2
_chemical_formula_sum   'Li2 H6 O4'
_cell_volume   94.24229000
_cell_formula_units_Z   2
loop_
 _symmetry_equiv_pos_site_id
 _symmetry_equiv_pos_as_xyz
  1  'x, y, z'
loop_
 _atom_site_type_symbol
 _atom_site_label
 _atom_site_symmetry_multiplicity
 _atom_site_fract_x
 _atom_site_fract_y
 _atom_site_fract_z
 _atom_site_occupancy
  Li  Li0  1  0.355569  0.345071  0.499440  1
  Li  Li1  1  0.654929  0.644431  0.499440  1
  H  H2  1  0.748906  0.251094  0.333700  1
  H  H3  1  0.253927  0.746073  0.657702  1
  H  H4  1  0.259680  0.018003  0.144536  1
  H  H5  1  0.033246  0.243171  0.854400  1
  H  H6  1  0.756829  0.966754  0.854400  1
  H  H7  1  0.981997  0.740320  0.144536  1
  O  O8  1  0.726634  0.273366  0.614053  1
  O  O9  1  0.284394  0.715606  0.386922  1
  O  O10  1  0.220950  0.206149  0.999571  1
  O  O11  1  0.793851  0.779050  0.999571  1
