# generated using pymatgen
data_Th5Fe19P12
_symmetry_space_group_name_H-M   'P 1'
_cell_length_a   3.76156764
_cell_length_b   9.22213143
_cell_length_c   14.54240910
_cell_angle_alpha   102.88644344
_cell_angle_beta   97.43093311
_cell_angle_gamma   90.00000002
_symmetry_Int_Tables_number   1
_chemical_formula_structural   Th5Fe19P12
_chemical_formula_sum   'Th5 Fe19 P12'
_cell_volume   487.41852708
_cell_formula_units_Z   1
loop_
 _symmetry_equiv_pos_site_id
 _symmetry_equiv_pos_as_xyz
  1  'x, y, z'
loop_
 _atom_site_type_symbol
 _atom_site_label
 _atom_site_symmetry_multiplicity
 _atom_site_fract_x
 _atom_site_fract_y
 _atom_site_fract_z
 _atom_site_occupancy
  P  P0  1  0.918996  0.050297  0.837991  1
  P  P1  1  0.081004  0.949703  0.162009  1
  P  P2  1  0.695054  0.030145  0.390109  1
  P  P3  1  0.304946  0.969855  0.609891  1
  P  P4  1  0.398588  0.372860  0.797177  1
  P  P5  1  0.733435  0.647531  0.466870  1
  P  P6  1  0.153326  0.345014  0.306652  1
  P  P7  1  0.846674  0.654986  0.693348  1
  P  P8  1  0.013146  0.269411  0.026292  1
  P  P9  1  0.986854  0.730589  0.973708  1
  P  P10  1  0.601412  0.627140  0.202823  1
  P  P11  1  0.266565  0.352469  0.533130  1
  Fe  Fe12  1  0.779920  0.494347  0.559839  1
  Fe  Fe13  1  0.758436  0.899612  0.516871  1
  Fe  Fe14  1  0.241564  0.100388  0.483129  1
  Fe  Fe15  1  0.220080  0.505653  0.440161  1
  Fe  Fe16  1  0.342766  0.506791  0.685532  1
  Fe  Fe17  1  0.616001  0.890058  0.232002  1
  Fe  Fe18  1  0.383999  0.109942  0.767998  1
  Fe  Fe19  1  0.527137  0.856796  0.054273  1
  Fe  Fe20  1  0.472863  0.143204  0.945727  1
  Fe  Fe21  1  0.294257  0.720084  0.588514  1
  Fe  Fe22  1  0.705743  0.279916  0.411486  1
  Fe  Fe23  1  0.000000  0.000000  0.000000  1
  Fe  Fe24  1  0.846555  0.902210  0.693111  1
  Fe  Fe25  1  0.088291  0.455713  0.176582  1
  Fe  Fe26  1  0.911709  0.544287  0.823418  1
  Fe  Fe27  1  0.066226  0.707433  0.132452  1
  Fe  Fe28  1  0.933774  0.292567  0.867548  1
  Fe  Fe29  1  0.657234  0.493209  0.314468  1
  Fe  Fe30  1  0.153445  0.097790  0.306889  1
  Th  Th31  1  0.500000  0.500000  0.000000  1
  Th  Th32  1  0.581931  0.191378  0.163863  1
  Th  Th33  1  0.418069  0.808622  0.836137  1
  Th  Th34  1  0.177054  0.775094  0.354108  1
  Th  Th35  1  0.822946  0.224906  0.645892  1
