# generated using pymatgen
data_K3H(SO4)2
_symmetry_space_group_name_H-M   'P 1'
_cell_length_a   5.77686287
_cell_length_b   8.04213375
_cell_length_c   9.94819977
_cell_angle_alpha   101.98119275
_cell_angle_beta   90.00000000
_cell_angle_gamma   111.04876034
_symmetry_Int_Tables_number   1
_chemical_formula_structural   K3H(SO4)2
_chemical_formula_sum   'K6 H2 S4 O16'
_cell_volume   420.53198741
_cell_formula_units_Z   2
loop_
 _symmetry_equiv_pos_site_id
 _symmetry_equiv_pos_as_xyz
  1  'x, y, z'
loop_
 _atom_site_type_symbol
 _atom_site_label
 _atom_site_symmetry_multiplicity
 _atom_site_fract_x
 _atom_site_fract_y
 _atom_site_fract_z
 _atom_site_occupancy
  H  H0  1  0.500000  0.000000  0.500000  1
  H  H1  1  0.500000  0.000000  0.000000  1
  O  O2  1  0.367925  0.691495  0.596833  1
  O  O3  1  0.676430  0.308505  0.903167  1
  O  O4  1  0.632075  0.308505  0.403167  1
  O  O5  1  0.323570  0.691495  0.096833  1
  O  O6  1  0.814463  0.745926  0.608508  1
  O  O7  1  0.068537  0.254074  0.891492  1
  O  O8  1  0.185537  0.254074  0.391492  1
  O  O9  1  0.931463  0.745926  0.108508  1
  O  O10  1  0.309280  0.977589  0.058249  1
  O  O11  1  0.331691  0.022411  0.441751  1
  O  O12  1  0.690720  0.022411  0.941751  1
  O  O13  1  0.668309  0.977589  0.558249  1
  O  O14  1  0.107673  0.694792  0.886002  1
  O  O15  1  0.412881  0.305208  0.613998  1
  O  O16  1  0.892327  0.305208  0.113998  1
  O  O17  1  0.587119  0.694792  0.386002  1
  S  S18  1  0.607771  0.768245  0.537017  1
  S  S19  1  0.839525  0.231755  0.962983  1
  S  S20  1  0.392229  0.231755  0.462983  1
  S  S21  1  0.160475  0.768245  0.037017  1
  K  K22  1  0.752923  0.000000  0.250000  1
  K  K23  1  0.247077  0.000000  0.750000  1
  K  K24  1  0.421986  0.385033  0.152303  1
  K  K25  1  0.036953  0.614967  0.347697  1
  K  K26  1  0.578014  0.614967  0.847697  1
  K  K27  1  0.963047  0.385033  0.652303  1
