# generated using pymatgen
data_Sn3(PO4)2
_symmetry_space_group_name_H-M   'P 1'
_cell_length_a   4.96016796
_cell_length_b   11.45524092
_cell_length_c   16.82636068
_cell_angle_alpha   94.67489395
_cell_angle_beta   90.00000000
_cell_angle_gamma   90.00000000
_symmetry_Int_Tables_number   1
_chemical_formula_structural   Sn3(PO4)2
_chemical_formula_sum   'Sn12 P8 O32'
_cell_volume   952.89178381
_cell_formula_units_Z   4
loop_
 _symmetry_equiv_pos_site_id
 _symmetry_equiv_pos_as_xyz
  1  'x, y, z'
loop_
 _atom_site_type_symbol
 _atom_site_label
 _atom_site_symmetry_multiplicity
 _atom_site_fract_x
 _atom_site_fract_y
 _atom_site_fract_z
 _atom_site_occupancy
  O  O0  1  0.386333  0.351127  0.044688  1
  O  O1  1  0.886333  0.648873  0.455312  1
  O  O2  1  0.613667  0.648873  0.955312  1
  O  O3  1  0.113667  0.351127  0.544688  1
  O  O4  1  0.748090  0.374132  0.938681  1
  O  O5  1  0.248090  0.625868  0.561319  1
  O  O6  1  0.251910  0.625868  0.061319  1
  O  O7  1  0.751910  0.374132  0.438681  1
  O  O8  1  0.823967  0.445369  0.086573  1
  O  O9  1  0.323967  0.554631  0.413427  1
  O  O10  1  0.176033  0.554631  0.913427  1
  O  O11  1  0.676033  0.445369  0.586573  1
  O  O12  1  0.807964  0.226457  0.039761  1
  O  O13  1  0.307964  0.773543  0.460239  1
  O  O14  1  0.192036  0.773543  0.960239  1
  O  O15  1  0.692036  0.226457  0.539761  1
  O  O16  1  0.094405  0.959078  0.352617  1
  O  O17  1  0.594405  0.040922  0.147383  1
  O  O18  1  0.905595  0.040922  0.647383  1
  O  O19  1  0.405595  0.959078  0.852617  1
  O  O20  1  0.841876  0.872265  0.802577  1
  O  O21  1  0.341876  0.127735  0.697423  1
  O  O22  1  0.158124  0.127735  0.197423  1
  O  O23  1  0.658124  0.872265  0.302577  1
  O  O24  1  0.825759  0.985815  0.940587  1
  O  O25  1  0.325759  0.014185  0.559413  1
  O  O26  1  0.174241  0.014185  0.059413  1
  O  O27  1  0.674241  0.985815  0.440587  1
  O  O28  1  0.791572  0.098325  0.823287  1
  O  O29  1  0.291572  0.901675  0.676713  1
  O  O30  1  0.208428  0.901675  0.176713  1
  O  O31  1  0.708428  0.098325  0.323287  1
  P  P32  1  0.695895  0.350507  0.026807  1
  P  P33  1  0.195895  0.649493  0.473193  1
  P  P34  1  0.304105  0.649493  0.973193  1
  P  P35  1  0.804105  0.350507  0.526807  1
  P  P36  1  0.785199  0.977999  0.352436  1
  P  P37  1  0.285199  0.022001  0.147564  1
  P  P38  1  0.214801  0.022001  0.647564  1
  P  P39  1  0.714801  0.977999  0.852436  1
  Sn  Sn40  1  0.879603  0.857271  0.036484  1
  Sn  Sn41  1  0.379603  0.142729  0.463516  1
  Sn  Sn42  1  0.120397  0.142729  0.963516  1
  Sn  Sn43  1  0.620397  0.857271  0.536484  1
  Sn  Sn44  1  0.722235  0.519187  0.367696  1
  Sn  Sn45  1  0.222235  0.480813  0.132304  1
  Sn  Sn46  1  0.277765  0.480813  0.632304  1
  Sn  Sn47  1  0.777765  0.519187  0.867696  1
  Sn  Sn48  1  0.753483  0.192612  0.216083  1
  Sn  Sn49  1  0.253483  0.807388  0.283917  1
  Sn  Sn50  1  0.246517  0.807388  0.783917  1
  Sn  Sn51  1  0.746517  0.192612  0.716083  1
