# generated using pymatgen
data_KTlF4
_symmetry_space_group_name_H-M   'P 1'
_cell_length_a   8.21665358
_cell_length_b   8.21665359
_cell_length_c   10.38701845
_cell_angle_alpha   90.00000000
_cell_angle_beta   90.00000000
_cell_angle_gamma   119.99999999
_symmetry_Int_Tables_number   1
_chemical_formula_structural   KTlF4
_chemical_formula_sum   'K6 Tl6 F24'
_cell_volume   607.31147833
_cell_formula_units_Z   6
loop_
 _symmetry_equiv_pos_site_id
 _symmetry_equiv_pos_as_xyz
  1  'x, y, z'
loop_
 _atom_site_type_symbol
 _atom_site_label
 _atom_site_symmetry_multiplicity
 _atom_site_fract_x
 _atom_site_fract_y
 _atom_site_fract_z
 _atom_site_occupancy
  F  F0  1  0.113881  0.051677  0.700193  1
  F  F1  1  0.937796  0.886119  0.366860  1
  F  F2  1  0.948323  0.062204  0.033527  1
  F  F3  1  0.812412  0.796570  0.848206  1
  F  F4  1  0.984158  0.187588  0.514873  1
  F  F5  1  0.203430  0.015842  0.181540  1
  F  F6  1  0.708733  0.199988  0.094820  1
  F  F7  1  0.491256  0.291267  0.761487  1
  F  F8  1  0.800012  0.508744  0.428153  1
  F  F9  1  0.193734  0.722379  0.633621  1
  F  F10  1  0.528644  0.806266  0.300288  1
  F  F11  1  0.277621  0.471356  0.966954  1
  F  F12  1  0.057709  0.321024  0.247120  1
  F  F13  1  0.678976  0.736685  0.580453  1
  F  F14  1  0.263315  0.942291  0.913787  1
  F  F15  1  0.470232  0.350243  0.268014  1
  F  F16  1  0.649757  0.119989  0.601348  1
  F  F17  1  0.880011  0.529768  0.934681  1
  F  F18  1  0.328348  0.062382  0.473798  1
  F  F19  1  0.937618  0.265966  0.807132  1
  F  F20  1  0.734034  0.671652  0.140465  1
  F  F21  1  0.348462  0.468564  0.455941  1
  F  F22  1  0.531436  0.879897  0.789275  1
  F  F23  1  0.120103  0.651538  0.122608  1
  K  K24  1  0.483980  0.315377  0.017800  1
  K  K25  1  0.684623  0.168603  0.351133  1
  K  K26  1  0.831397  0.516020  0.684466  1
  K  K27  1  0.310276  0.480325  0.706279  1
  K  K28  1  0.519675  0.829951  0.039612  1
  K  K29  1  0.170049  0.689724  0.372945  1
  Tl  Tl30  1  0.993510  0.356040  0.029604  1
  Tl  Tl31  1  0.643960  0.637469  0.362937  1
  Tl  Tl32  1  0.362531  0.006490  0.696271  1
  Tl  Tl33  1  0.178943  0.177529  0.360270  1
  Tl  Tl34  1  0.822471  0.001414  0.693604  1
  Tl  Tl35  1  0.998586  0.821057  0.026937  1
