# generated using pymatgen
data_FeMo3S4
_symmetry_space_group_name_H-M   'P 1'
_cell_length_a   6.49099990
_cell_length_b   6.51368243
_cell_length_c   6.52809029
_cell_angle_alpha   97.38980144
_cell_angle_beta   91.30439286
_cell_angle_gamma   95.91651429
_symmetry_Int_Tables_number   1
_chemical_formula_structural   FeMo3S4
_chemical_formula_sum   'Fe2 Mo6 S8'
_cell_volume   272.07752716
_cell_formula_units_Z   2
loop_
 _symmetry_equiv_pos_site_id
 _symmetry_equiv_pos_as_xyz
  1  'x, y, z'
loop_
 _atom_site_type_symbol
 _atom_site_label
 _atom_site_symmetry_multiplicity
 _atom_site_fract_x
 _atom_site_fract_y
 _atom_site_fract_z
 _atom_site_occupancy
  S  S0  1  0.735536  0.359958  0.120520  1
  S  S1  1  0.264464  0.640042  0.879480  1
  S  S2  1  0.796479  0.813329  0.785691  1
  S  S3  1  0.203521  0.186671  0.214309  1
  S  S4  1  0.641578  0.860022  0.268911  1
  S  S5  1  0.358422  0.139978  0.731089  1
  S  S6  1  0.144370  0.723468  0.385294  1
  S  S7  1  0.855630  0.276532  0.614706  1
  Fe  Fe8  1  0.997102  0.147676  0.905151  1
  Fe  Fe9  1  0.002898  0.852324  0.094849  1
  Mo  Mo10  1  0.779437  0.590465  0.450126  1
  Mo  Mo11  1  0.220563  0.409535  0.549874  1
  Mo  Mo12  1  0.457245  0.781590  0.598061  1
  Mo  Mo13  1  0.542755  0.218410  0.401939  1
  Mo  Mo14  1  0.583686  0.462992  0.777321  1
  Mo  Mo15  1  0.416314  0.537008  0.222679  1
