# generated using pymatgen
data_InSb
_symmetry_space_group_name_H-M   'P 1'
_cell_length_a   4.39771324
_cell_length_b   4.39771324
_cell_length_c   18.01654784
_cell_angle_alpha   90.00000000
_cell_angle_beta   90.00000000
_cell_angle_gamma   92.56967363
_symmetry_Int_Tables_number   1
_chemical_formula_structural   InSb
_chemical_formula_sum   'In6 Sb6'
_cell_volume   348.08752893
_cell_formula_units_Z   6
loop_
 _symmetry_equiv_pos_site_id
 _symmetry_equiv_pos_as_xyz
  1  'x, y, z'
loop_
 _atom_site_type_symbol
 _atom_site_label
 _atom_site_symmetry_multiplicity
 _atom_site_fract_x
 _atom_site_fract_y
 _atom_site_fract_z
 _atom_site_occupancy
  In  In0  1  0.079671  0.920329  0.750000  1
  In  In1  1  0.920329  0.079671  0.250000  1
  In  In2  1  0.413844  0.586156  0.910231  1
  In  In3  1  0.586156  0.413844  0.410231  1
  In  In4  1  0.586156  0.413844  0.089769  1
  In  In5  1  0.413844  0.586156  0.589769  1
  Sb  Sb6  1  0.577243  0.422757  0.750000  1
  Sb  Sb7  1  0.422757  0.577243  0.250000  1
  Sb  Sb8  1  0.918760  0.081240  0.923926  1
  Sb  Sb9  1  0.081240  0.918760  0.423926  1
  Sb  Sb10  1  0.081240  0.918760  0.076074  1
  Sb  Sb11  1  0.918760  0.081240  0.576074  1
