# generated using pymatgen
data_Rb2NiH8(CO5)2
_symmetry_space_group_name_H-M   'P 1'
_cell_length_a   6.59400336
_cell_length_b   7.34264392
_cell_length_c   11.69376425
_cell_angle_alpha   102.71119506
_cell_angle_beta   90.00000000
_cell_angle_gamma   90.00000000
_symmetry_Int_Tables_number   1
_chemical_formula_structural   Rb2NiH8(CO5)2
_chemical_formula_sum   'Rb4 Ni2 H16 C4 O20'
_cell_volume   552.30564993
_cell_formula_units_Z   2
loop_
 _symmetry_equiv_pos_site_id
 _symmetry_equiv_pos_as_xyz
  1  'x, y, z'
loop_
 _atom_site_type_symbol
 _atom_site_label
 _atom_site_symmetry_multiplicity
 _atom_site_fract_x
 _atom_site_fract_y
 _atom_site_fract_z
 _atom_site_occupancy
  Rb  Rb0  1  0.323497  0.555570  0.821457  1
  Rb  Rb1  1  0.823497  0.944430  0.678543  1
  Rb  Rb2  1  0.676502  0.444431  0.178543  1
  Rb  Rb3  1  0.176503  0.055570  0.321457  1
  Ni  Ni4  1  0.500000  0.500000  0.500000  1
  Ni  Ni5  1  0.000000  0.000000  0.000000  1
  H  H6  1  0.782268  0.300123  0.483479  1
  H  H7  1  0.282268  0.199876  0.016520  1
  H  H8  1  0.217732  0.699876  0.516521  1
  H  H9  1  0.717731  0.800124  0.983480  1
  H  H10  1  0.157401  0.290148  0.139304  1
  H  H11  1  0.657401  0.209852  0.360695  1
  H  H12  1  0.842598  0.709852  0.860696  1
  H  H13  1  0.342598  0.790148  0.639305  1
  H  H14  1  0.325044  0.131942  0.627339  1
  H  H15  1  0.362876  0.747293  0.095121  1
  H  H16  1  0.674956  0.868059  0.372661  1
  H  H17  1  0.174956  0.631941  0.127338  1
  H  H18  1  0.137124  0.247292  0.595120  1
  H  H19  1  0.637125  0.252707  0.904879  1
  H  H20  1  0.862876  0.752707  0.404880  1
  H  H21  1  0.825043  0.368059  0.872662  1
  C  C22  1  0.313636  0.046291  0.827867  1
  C  C23  1  0.813636  0.453710  0.672133  1
  C  C24  1  0.186364  0.546290  0.327867  1
  C  C25  1  0.686364  0.953710  0.172133  1
  O  O26  1  0.221641  0.708631  0.072710  1
  O  O27  1  0.721641  0.791369  0.427290  1
  O  O28  1  0.778360  0.291368  0.927290  1
  O  O29  1  0.278360  0.208631  0.572710  1
  O  O30  1  0.204872  0.169982  0.086387  1
  O  O31  1  0.704872  0.330018  0.413614  1
  O  O32  1  0.333464  0.447571  0.357883  1
  O  O33  1  0.833465  0.052429  0.142116  1
  O  O34  1  0.666536  0.552429  0.642117  1
  O  O35  1  0.166536  0.947572  0.857884  1
  O  O36  1  0.103324  0.488902  0.226187  1
  O  O37  1  0.603324  0.011098  0.273814  1
  O  O38  1  0.896677  0.511098  0.773813  1
  O  O39  1  0.795129  0.830018  0.913613  1
  O  O40  1  0.125497  0.699200  0.397051  1
  O  O41  1  0.625497  0.800800  0.102949  1
  O  O42  1  0.874504  0.300801  0.602949  1
  O  O43  1  0.374503  0.199200  0.897051  1
  O  O44  1  0.295127  0.669982  0.586387  1
  O  O45  1  0.396677  0.988901  0.726186  1
