# generated using pymatgen
data_NaBi(PO3)4
_symmetry_space_group_name_H-M   'P 1'
_cell_length_a   7.29915834
_cell_length_b   9.98425537
_cell_length_c   13.30596823
_cell_angle_alpha   90.00000000
_cell_angle_beta   90.00000000
_cell_angle_gamma   90.32769162
_symmetry_Int_Tables_number   1
_chemical_formula_structural   NaBi(PO3)4
_chemical_formula_sum   'Na4 Bi4 P16 O48'
_cell_volume   969.67867433
_cell_formula_units_Z   4
loop_
 _symmetry_equiv_pos_site_id
 _symmetry_equiv_pos_as_xyz
  1  'x, y, z'
loop_
 _atom_site_type_symbol
 _atom_site_label
 _atom_site_symmetry_multiplicity
 _atom_site_fract_x
 _atom_site_fract_y
 _atom_site_fract_z
 _atom_site_occupancy
  O  O0  1  0.715601  0.363209  0.522008  1
  O  O1  1  0.784399  0.136791  0.022008  1
  O  O2  1  0.284399  0.636791  0.477992  1
  O  O3  1  0.215601  0.863209  0.977992  1
  O  O4  1  0.755531  0.416132  0.339686  1
  O  O5  1  0.744469  0.083868  0.839686  1
  O  O6  1  0.244469  0.583868  0.660314  1
  O  O7  1  0.255531  0.916132  0.160314  1
  O  O8  1  0.713780  0.396128  0.709295  1
  O  O9  1  0.786220  0.103872  0.209295  1
  O  O10  1  0.286220  0.603872  0.290705  1
  O  O11  1  0.213780  0.896128  0.790705  1
  O  O12  1  0.906596  0.707865  0.335014  1
  O  O13  1  0.593404  0.792135  0.835014  1
  O  O14  1  0.093404  0.292135  0.664986  1
  O  O15  1  0.406596  0.207865  0.164986  1
  O  O16  1  0.683114  0.155976  0.634219  1
  O  O17  1  0.194123  0.100944  0.354717  1
  O  O18  1  0.816886  0.344024  0.134219  1
  O  O19  1  0.183114  0.655976  0.865781  1
  O  O20  1  0.571230  0.206393  0.391407  1
  O  O21  1  0.928770  0.293607  0.891407  1
  O  O22  1  0.428770  0.793607  0.608593  1
  O  O23  1  0.071230  0.706393  0.108593  1
  O  O24  1  0.637693  0.848813  0.187597  1
  O  O25  1  0.862307  0.651187  0.687597  1
  O  O26  1  0.362307  0.151187  0.812403  1
  O  O27  1  0.137693  0.348813  0.312403  1
  O  O28  1  0.927998  0.830630  0.875747  1
  O  O29  1  0.572002  0.669370  0.375747  1
  O  O30  1  0.072002  0.169370  0.124253  1
  O  O31  1  0.427998  0.330630  0.624253  1
  O  O32  1  0.715513  0.788102  0.012631  1
  O  O33  1  0.784487  0.711898  0.512631  1
  O  O34  1  0.284487  0.211898  0.987369  1
  O  O35  1  0.215513  0.288102  0.487369  1
  O  O36  1  0.214280  0.407137  0.108039  1
  O  O37  1  0.285720  0.092863  0.608039  1
  O  O38  1  0.785720  0.592863  0.891961  1
  O  O39  1  0.714280  0.907137  0.391961  1
  O  O40  1  0.412497  0.710157  0.080886  1
  O  O41  1  0.087503  0.789843  0.580886  1
  O  O42  1  0.587503  0.289843  0.919114  1
  O  O43  1  0.912497  0.210157  0.419114  1
  O  O44  1  0.694123  0.600944  0.145283  1
  O  O45  1  0.805877  0.899056  0.645283  1
  O  O46  1  0.305877  0.399056  0.854717  1
  O  O47  1  0.316886  0.844024  0.365781  1
  Na  Na48  1  0.501678  0.436302  0.221428  1
  Na  Na49  1  0.998322  0.063698  0.721428  1
  Na  Na50  1  0.498322  0.563698  0.778572  1
  Na  Na51  1  0.001678  0.936302  0.278572  1
  P  P52  1  0.122331  0.235632  0.385897  1
  P  P53  1  0.854217  0.196341  0.128001  1
  P  P54  1  0.354217  0.696341  0.371999  1
  P  P55  1  0.145783  0.803659  0.871999  1
  P  P56  1  0.750399  0.758606  0.398738  1
  P  P57  1  0.749601  0.741394  0.898738  1
  P  P58  1  0.249601  0.241394  0.601262  1
  P  P59  1  0.250399  0.258606  0.101262  1
  P  P60  1  0.645783  0.303659  0.628001  1
  P  P61  1  0.377669  0.264368  0.885897  1
  P  P62  1  0.229992  0.799835  0.089935  1
  P  P63  1  0.622331  0.735632  0.114103  1
  P  P64  1  0.729992  0.299835  0.410065  1
  P  P65  1  0.770008  0.200165  0.910065  1
  P  P66  1  0.270008  0.700165  0.589935  1
  P  P67  1  0.877669  0.764368  0.614103  1
  Bi  Bi68  1  0.987892  0.522297  0.219125  1
  Bi  Bi69  1  0.512108  0.977703  0.719125  1
  Bi  Bi70  1  0.012108  0.477703  0.780875  1
  Bi  Bi71  1  0.487892  0.022297  0.280875  1
