# generated using pymatgen
data_Li5Bi2P5O18
_symmetry_space_group_name_H-M   'P 1'
_cell_length_a   9.53310320
_cell_length_b   11.23929243
_cell_length_c   6.79029565
_cell_angle_alpha   91.34974844
_cell_angle_beta   91.68292448
_cell_angle_gamma   97.36800227
_symmetry_Int_Tables_number   1
_chemical_formula_structural   Li5Bi2P5O18
_chemical_formula_sum   'Li10 Bi4 P10 O36'
_cell_volume   720.95587518
_cell_formula_units_Z   2
loop_
 _symmetry_equiv_pos_site_id
 _symmetry_equiv_pos_as_xyz
  1  'x, y, z'
loop_
 _atom_site_type_symbol
 _atom_site_label
 _atom_site_symmetry_multiplicity
 _atom_site_fract_x
 _atom_site_fract_y
 _atom_site_fract_z
 _atom_site_occupancy
  Li  Li0  1  0.043318  0.864264  0.983314  1
  Li  Li1  1  0.956682  0.135736  0.016686  1
  Li  Li2  1  0.889559  0.646169  0.179563  1
  Li  Li3  1  0.775663  0.336823  0.869519  1
  Li  Li4  1  0.725288  0.403924  0.405977  1
  Li  Li5  1  0.110441  0.353831  0.820437  1
  Li  Li6  1  0.224337  0.663177  0.130481  1
  Li  Li7  1  0.274712  0.596076  0.594023  1
  Li  Li8  1  0.374513  0.852614  0.337870  1
  Li  Li9  1  0.625487  0.147386  0.662130  1
  O  O10  1  0.886793  0.478641  0.255283  1
  O  O11  1  0.974309  0.671628  0.583368  1
  O  O12  1  0.915197  0.116033  0.351549  1
  O  O13  1  0.974180  0.316529  0.040863  1
  O  O14  1  0.025820  0.683471  0.959137  1
  O  O15  1  0.084803  0.883967  0.648451  1
  O  O16  1  0.025691  0.328371  0.416632  1
  O  O17  1  0.026227  0.186745  0.689949  1
  O  O18  1  0.113207  0.521359  0.744717  1
  O  O19  1  0.153647  0.479258  0.208483  1
  O  O20  1  0.204476  0.737729  0.421136  1
  O  O21  1  0.158785  0.043701  0.010494  1
  O  O22  1  0.330637  0.827953  0.032193  1
  O  O23  1  0.234958  0.209689  0.270578  1
  O  O24  1  0.391994  0.929089  0.699633  1
  O  O25  1  0.307242  0.331141  0.883694  1
  O  O26  1  0.278920  0.001268  0.340737  1
  O  O27  1  0.973773  0.813255  0.310051  1
  O  O28  1  0.370365  0.426185  0.563084  1
  O  O29  1  0.432252  0.602726  0.188308  1
  O  O30  1  0.415891  0.116151  0.065355  1
  O  O31  1  0.436321  0.214390  0.637260  1
  O  O32  1  0.563679  0.785610  0.362740  1
  O  O33  1  0.584109  0.883849  0.934645  1
  O  O34  1  0.567748  0.397274  0.811692  1
  O  O35  1  0.629635  0.573815  0.436916  1
  O  O36  1  0.574328  0.288966  0.249191  1
  O  O37  1  0.721080  0.998732  0.659263  1
  O  O38  1  0.692758  0.668859  0.116306  1
  O  O39  1  0.608006  0.070911  0.300367  1
  O  O40  1  0.765042  0.790311  0.729422  1
  O  O41  1  0.669363  0.172047  0.967807  1
  O  O42  1  0.841215  0.956299  0.989506  1
  O  O43  1  0.795524  0.262271  0.578864  1
  O  O44  1  0.846353  0.520742  0.791517  1
  O  O45  1  0.425672  0.711034  0.750809  1
  P  P46  1  0.578984  0.658756  0.277077  1
  P  P47  1  0.579378  0.165350  0.147699  1
  P  P48  1  0.732916  0.908323  0.824042  1
  P  P49  1  0.932216  0.216389  0.514130  1
  P  P50  1  0.005567  0.403594  0.219080  1
  P  P51  1  0.067784  0.783611  0.485870  1
  P  P52  1  0.267084  0.091677  0.175958  1
  P  P53  1  0.994433  0.596406  0.780920  1
  P  P54  1  0.421016  0.341244  0.722923  1
  P  P55  1  0.420622  0.834650  0.852301  1
  Bi  Bi56  1  0.763655  0.937361  0.337710  1
  Bi  Bi57  1  0.634648  0.607349  0.777449  1
  Bi  Bi58  1  0.365352  0.392651  0.222551  1
  Bi  Bi59  1  0.236345  0.062639  0.662290  1
