# generated using pymatgen
data_InAs
_symmetry_space_group_name_H-M   'P 1'
_cell_length_a   7.56617267
_cell_length_b   7.56617267
_cell_length_c   7.56617267
_cell_angle_alpha   90.00000000
_cell_angle_beta   90.00000000
_cell_angle_gamma   90.00000000
_symmetry_Int_Tables_number   1
_chemical_formula_structural   InAs
_chemical_formula_sum   'In8 As8'
_cell_volume   433.14045132
_cell_formula_units_Z   8
loop_
 _symmetry_equiv_pos_site_id
 _symmetry_equiv_pos_as_xyz
  1  'x, y, z'
loop_
 _atom_site_type_symbol
 _atom_site_label
 _atom_site_symmetry_multiplicity
 _atom_site_fract_x
 _atom_site_fract_y
 _atom_site_fract_z
 _atom_site_occupancy
  As  As0  1  0.140866  0.359134  0.640866  1
  As  As1  1  0.359134  0.640866  0.140866  1
  As  As2  1  0.640866  0.140866  0.359134  1
  As  As3  1  0.859134  0.859134  0.859134  1
  As  As4  1  0.859134  0.640866  0.359134  1
  As  As5  1  0.640866  0.359134  0.859134  1
  As  As6  1  0.359134  0.859134  0.640866  1
  As  As7  1  0.140866  0.140866  0.140866  1
  In  In8  1  0.343311  0.156689  0.843311  1
  In  In9  1  0.156689  0.843311  0.343311  1
  In  In10  1  0.843311  0.343311  0.156689  1
  In  In11  1  0.656689  0.656689  0.656689  1
  In  In12  1  0.656689  0.843311  0.156689  1
  In  In13  1  0.843311  0.156689  0.656689  1
  In  In14  1  0.156689  0.656689  0.843311  1
  In  In15  1  0.343311  0.343311  0.343311  1
