# generated using pymatgen
data_BaCu2Si2O7
_symmetry_space_group_name_H-M   'P 1'
_cell_length_a   6.94281569
_cell_length_b   7.05304733
_cell_length_c   13.19087083
_cell_angle_alpha   90.00000000
_cell_angle_beta   90.00000000
_cell_angle_gamma   90.00000000
_symmetry_Int_Tables_number   1
_chemical_formula_structural   BaCu2Si2O7
_chemical_formula_sum   'Ba4 Si8 Cu8 O28'
_cell_volume   645.93066391
_cell_formula_units_Z   4
loop_
 _symmetry_equiv_pos_site_id
 _symmetry_equiv_pos_as_xyz
  1  'x, y, z'
loop_
 _atom_site_type_symbol
 _atom_site_label
 _atom_site_symmetry_multiplicity
 _atom_site_fract_x
 _atom_site_fract_y
 _atom_site_fract_z
 _atom_site_occupancy
  O  O0  1  0.818403  0.468933  0.556816  1
  O  O1  1  0.318403  0.031067  0.943184  1
  O  O2  1  0.681597  0.968933  0.443184  1
  O  O3  1  0.181597  0.531067  0.056816  1
  O  O4  1  0.181597  0.531067  0.443184  1
  O  O5  1  0.681597  0.968933  0.056816  1
  O  O6  1  0.318403  0.031067  0.556816  1
  O  O7  1  0.818403  0.468933  0.943184  1
  O  O8  1  0.070154  0.743422  0.615027  1
  O  O9  1  0.570154  0.756578  0.884973  1
  O  O10  1  0.429846  0.243422  0.384973  1
  O  O11  1  0.929846  0.256578  0.115027  1
  O  O12  1  0.929846  0.256578  0.384973  1
  O  O13  1  0.429846  0.243422  0.115027  1
  O  O14  1  0.570154  0.756578  0.615027  1
  O  O15  1  0.070154  0.743422  0.884973  1
  O  O16  1  0.171465  0.363553  0.634308  1
  O  O17  1  0.671465  0.136447  0.865692  1
  O  O18  1  0.328535  0.863553  0.365692  1
  O  O19  1  0.828535  0.636447  0.134308  1
  O  O20  1  0.905527  0.514758  0.750000  1
  O  O21  1  0.405527  0.985242  0.750000  1
  O  O22  1  0.594473  0.014758  0.250000  1
  O  O23  1  0.094473  0.485242  0.250000  1
  O  O24  1  0.171465  0.363553  0.865692  1
  O  O25  1  0.671465  0.136447  0.634308  1
  O  O26  1  0.328535  0.863553  0.134308  1
  O  O27  1  0.828535  0.636447  0.365692  1
  Si  Si28  1  0.001263  0.524875  0.633161  1
  Si  Si29  1  0.501263  0.975125  0.866839  1
  Si  Si30  1  0.498737  0.024875  0.366839  1
  Si  Si31  1  0.998737  0.475125  0.133161  1
  Si  Si32  1  0.998737  0.475125  0.366839  1
  Si  Si33  1  0.498737  0.024875  0.133161  1
  Si  Si34  1  0.501263  0.975125  0.633161  1
  Si  Si35  1  0.001263  0.524875  0.866839  1
  Cu  Cu36  1  0.779152  0.208177  0.504729  1
  Cu  Cu37  1  0.279152  0.291823  0.995271  1
  Cu  Cu38  1  0.720848  0.708177  0.495271  1
  Cu  Cu39  1  0.220848  0.791823  0.004729  1
  Cu  Cu40  1  0.220848  0.791823  0.495271  1
  Cu  Cu41  1  0.720848  0.708177  0.004729  1
  Cu  Cu42  1  0.279152  0.291823  0.504729  1
  Cu  Cu43  1  0.779152  0.208177  0.995271  1
  Ba  Ba44  1  0.986143  0.959983  0.250000  1
  Ba  Ba45  1  0.486143  0.540017  0.250000  1
  Ba  Ba46  1  0.513857  0.459983  0.750000  1
  Ba  Ba47  1  0.013857  0.040017  0.750000  1
