# generated using pymatgen
data_K2HgS2
_symmetry_space_group_name_H-M   'P 1'
_cell_length_a   7.43125373
_cell_length_b   8.12258220
_cell_length_c   10.83919893
_cell_angle_alpha   90.00000000
_cell_angle_beta   90.00000000
_cell_angle_gamma   90.00000000
_symmetry_Int_Tables_number   1
_chemical_formula_structural   K2HgS2
_chemical_formula_sum   'K8 Hg4 S8'
_cell_volume   654.26455354
_cell_formula_units_Z   4
loop_
 _symmetry_equiv_pos_site_id
 _symmetry_equiv_pos_as_xyz
  1  'x, y, z'
loop_
 _atom_site_type_symbol
 _atom_site_label
 _atom_site_symmetry_multiplicity
 _atom_site_fract_x
 _atom_site_fract_y
 _atom_site_fract_z
 _atom_site_occupancy
  S  S0  1  0.750000  0.076885  0.835432  1
  S  S1  1  0.250000  0.414668  0.392800  1
  S  S2  1  0.750000  0.585332  0.607200  1
  S  S3  1  0.250000  0.423115  0.835432  1
  S  S4  1  0.250000  0.914668  0.607200  1
  S  S5  1  0.750000  0.576885  0.164568  1
  S  S6  1  0.250000  0.923115  0.164568  1
  S  S7  1  0.750000  0.085332  0.392800  1
  K  K8  1  0.750000  0.950828  0.112003  1
  K  K9  1  0.250000  0.549172  0.112003  1
  K  K10  1  0.500000  0.250000  0.603755  1
  K  K11  1  0.000000  0.250000  0.603755  1
  K  K12  1  0.500000  0.750000  0.396245  1
  K  K13  1  0.000000  0.750000  0.396245  1
  K  K14  1  0.250000  0.049172  0.887997  1
  K  K15  1  0.750000  0.450828  0.887997  1
  Hg  Hg16  1  0.750000  0.836258  0.715185  1
  Hg  Hg17  1  0.750000  0.336258  0.284815  1
  Hg  Hg18  1  0.250000  0.663742  0.715185  1
  Hg  Hg19  1  0.250000  0.163742  0.284815  1
