# generated using pymatgen
data_Zn2PH2CO7
_symmetry_space_group_name_H-M   'P 1'
_cell_length_a   4.87175497
_cell_length_b   8.05274412
_cell_length_c   14.35963990
_cell_angle_alpha   97.42298119
_cell_angle_beta   90.00000000
_cell_angle_gamma   90.00000000
_symmetry_Int_Tables_number   1
_chemical_formula_structural   Zn2PH2CO7
_chemical_formula_sum   'Zn8 P4 H8 C4 O28'
_cell_volume   558.62183913
_cell_formula_units_Z   4
loop_
 _symmetry_equiv_pos_site_id
 _symmetry_equiv_pos_as_xyz
  1  'x, y, z'
loop_
 _atom_site_type_symbol
 _atom_site_label
 _atom_site_symmetry_multiplicity
 _atom_site_fract_x
 _atom_site_fract_y
 _atom_site_fract_z
 _atom_site_occupancy
  H  H0  1  0.500448  0.247910  0.466278  1
  H  H1  1  0.000448  0.252090  0.033722  1
  H  H2  1  0.499552  0.752090  0.533722  1
  H  H3  1  0.999552  0.747910  0.966278  1
  H  H4  1  0.262446  0.105642  0.467160  1
  H  H5  1  0.237554  0.605642  0.967160  1
  H  H6  1  0.762446  0.394358  0.032840  1
  H  H7  1  0.737554  0.894358  0.532840  1
  C  C8  1  0.380864  0.059237  0.992074  1
  C  C9  1  0.880864  0.440763  0.507926  1
  C  C10  1  0.619136  0.940763  0.007926  1
  C  C11  1  0.119136  0.559237  0.492074  1
  O  O12  1  0.146268  0.703635  0.005184  1
  O  O13  1  0.709814  0.995771  0.301663  1
  O  O14  1  0.790186  0.495771  0.801663  1
  O  O15  1  0.290186  0.004229  0.698337  1
  O  O16  1  0.653381  0.622951  0.284564  1
  O  O17  1  0.153381  0.877049  0.215436  1
  O  O18  1  0.346620  0.377049  0.715436  1
  O  O19  1  0.209814  0.504229  0.198337  1
  O  O20  1  0.642388  0.328025  0.216918  1
  O  O21  1  0.142388  0.171975  0.283082  1
  O  O22  1  0.357612  0.671975  0.783082  1
  O  O23  1  0.857612  0.828025  0.716918  1
  O  O24  1  0.648128  0.556370  0.108680  1
  O  O25  1  0.148128  0.943630  0.391320  1
  O  O26  1  0.351872  0.443630  0.891320  1
  O  O27  1  0.851872  0.056370  0.608680  1
  O  O28  1  0.772405  0.360614  0.435262  1
  O  O29  1  0.272405  0.139386  0.064738  1
  O  O30  1  0.227595  0.639386  0.564738  1
  O  O31  1  0.727595  0.860614  0.935262  1
  O  O32  1  0.808764  0.432570  0.592048  1
  O  O33  1  0.308764  0.067430  0.907952  1
  O  O34  1  0.191236  0.567430  0.407952  1
  O  O35  1  0.691236  0.932570  0.092048  1
  O  O36  1  0.853732  0.296365  0.994816  1
  O  O37  1  0.353732  0.203635  0.505184  1
  O  O38  1  0.846619  0.122951  0.784564  1
  O  O39  1  0.646268  0.796365  0.494816  1
  P  P40  1  0.971366  0.003867  0.701012  1
  P  P41  1  0.471366  0.496133  0.798988  1
  P  P42  1  0.028634  0.996133  0.298988  1
  P  P43  1  0.528634  0.503867  0.201012  1
  Zn  Zn44  1  0.505355  0.188851  0.633416  1
  Zn  Zn45  1  0.005354  0.311149  0.866584  1
  Zn  Zn46  1  0.494646  0.811149  0.366584  1
  Zn  Zn47  1  0.994645  0.688851  0.133416  1
  Zn  Zn48  1  0.524517  0.904645  0.807100  1
  Zn  Zn49  1  0.024517  0.595355  0.692900  1
  Zn  Zn50  1  0.475483  0.095355  0.192900  1
  Zn  Zn51  1  0.975483  0.404645  0.307100  1
