# generated using pymatgen
data_NaAlBP2H3O10
_symmetry_space_group_name_H-M   'P 1'
_cell_length_a   6.65089480
_cell_length_b   6.65089480
_cell_length_c   9.14245610
_cell_angle_alpha   99.71398168
_cell_angle_beta   111.60369459
_cell_angle_gamma   105.18558908
_symmetry_Int_Tables_number   1
_chemical_formula_structural   NaAlBP2H3O10
_chemical_formula_sum   'Na2 Al2 B2 P4 H6 O20'
_cell_volume   346.66504589
_cell_formula_units_Z   2
loop_
 _symmetry_equiv_pos_site_id
 _symmetry_equiv_pos_as_xyz
  1  'x, y, z'
loop_
 _atom_site_type_symbol
 _atom_site_label
 _atom_site_symmetry_multiplicity
 _atom_site_fract_x
 _atom_site_fract_y
 _atom_site_fract_z
 _atom_site_occupancy
  H  H0  1  0.500000  0.000000  0.000000  1
  H  H1  1  0.500000  0.500000  0.500000  1
  H  H2  1  0.119138  0.679873  0.432961  1
  H  H3  1  0.746912  0.686178  0.067039  1
  H  H4  1  0.253088  0.313822  0.932961  1
  H  H5  1  0.880862  0.320127  0.567039  1
  B  B6  1  0.783744  0.533744  0.250000  1
  B  B7  1  0.216256  0.466256  0.750000  1
  O  O8  1  0.320535  0.036111  0.955279  1
  O  O9  1  0.580832  0.365255  0.544721  1
  O  O10  1  0.197276  0.430476  0.901295  1
  O  O11  1  0.029181  0.295982  0.598705  1
  O  O12  1  0.802724  0.569524  0.098705  1
  O  O13  1  0.970819  0.704018  0.401295  1
  O  O14  1  0.558516  0.529696  0.242653  1
  O  O15  1  0.787043  0.315863  0.257347  1
  O  O16  1  0.441484  0.470304  0.757347  1
  O  O17  1  0.212957  0.684137  0.742653  1
  O  O18  1  0.268293  0.721938  0.184448  1
  O  O19  1  0.037490  0.083844  0.315552  1
  O  O20  1  0.731707  0.278062  0.815552  1
  O  O21  1  0.962510  0.916156  0.684448  1
  O  O22  1  0.678139  0.930599  0.391503  1
  O  O23  1  0.039096  0.286636  0.108497  1
  O  O24  1  0.321861  0.069401  0.608497  1
  O  O25  1  0.960904  0.713364  0.891503  1
  O  O26  1  0.419168  0.634745  0.455279  1
  O  O27  1  0.679465  0.963889  0.044721  1
  Na  Na28  1  0.380117  0.130117  0.250000  1
  Na  Na29  1  0.619883  0.869883  0.750000  1
  Al  Al30  1  0.000000  0.500000  0.000000  1
  Al  Al31  1  0.000000  0.000000  0.500000  1
  P  P32  1  0.480327  0.708079  0.318870  1
  P  P33  1  0.889208  0.161457  0.181130  1
  P  P34  1  0.519673  0.291921  0.681130  1
  P  P35  1  0.110792  0.838543  0.818870  1
