# generated using pymatgen
data_SbO2
_symmetry_space_group_name_H-M   'P 1'
_cell_length_a   7.44343761
_cell_length_b   7.44343761
_cell_length_c   7.44343761
_cell_angle_alpha   60.00000003
_cell_angle_beta   60.00000003
_cell_angle_gamma   60.00000005
_symmetry_Int_Tables_number   1
_chemical_formula_structural   SbO2
_chemical_formula_sum   'Sb8 O16'
_cell_volume   291.61218008
_cell_formula_units_Z   8
loop_
 _symmetry_equiv_pos_site_id
 _symmetry_equiv_pos_as_xyz
  1  'x, y, z'
loop_
 _atom_site_type_symbol
 _atom_site_label
 _atom_site_symmetry_multiplicity
 _atom_site_fract_x
 _atom_site_fract_y
 _atom_site_fract_z
 _atom_site_occupancy
  O  O0  1  0.000000  0.500000  0.000000  1
  O  O1  1  0.500000  0.000000  0.000000  1
  O  O2  1  0.000000  0.000000  0.500000  1
  O  O3  1  0.000000  0.000000  0.000000  1
  O  O4  1  0.179272  0.570728  0.570728  1
  O  O5  1  0.429272  0.820728  0.820728  1
  O  O6  1  0.570728  0.179272  0.570728  1
  O  O7  1  0.570728  0.570728  0.179272  1
  O  O8  1  0.570728  0.179272  0.179272  1
  O  O9  1  0.820728  0.820728  0.429272  1
  O  O10  1  0.429272  0.429272  0.820728  1
  O  O11  1  0.820728  0.429272  0.429272  1
  O  O12  1  0.820728  0.429272  0.820728  1
  O  O13  1  0.429272  0.820728  0.429272  1
  O  O14  1  0.179272  0.570728  0.179272  1
  O  O15  1  0.179272  0.179272  0.570728  1
  Sb  Sb16  1  0.248770  0.248770  0.248770  1
  Sb  Sb17  1  0.751230  0.751230  0.246310  1
  Sb  Sb18  1  0.751230  0.246310  0.751230  1
  Sb  Sb19  1  0.246310  0.751230  0.751230  1
  Sb  Sb20  1  0.248770  0.753690  0.248770  1
  Sb  Sb21  1  0.753690  0.248770  0.248770  1
  Sb  Sb22  1  0.248770  0.248770  0.753690  1
  Sb  Sb23  1  0.751230  0.751230  0.751230  1
