# generated using pymatgen
data_Rb2CrCl4
_symmetry_space_group_name_H-M   'P 1'
_cell_length_a   9.00556573
_cell_length_b   9.04796591
_cell_length_c   11.41057272
_cell_angle_alpha   90.00000000
_cell_angle_beta   113.24196313
_cell_angle_gamma   90.00000000
_symmetry_Int_Tables_number   1
_chemical_formula_structural   Rb2CrCl4
_chemical_formula_sum   'Rb4 Cr2 Cl8'
_cell_volume   854.30391841
_cell_formula_units_Z   2
loop_
 _symmetry_equiv_pos_site_id
 _symmetry_equiv_pos_as_xyz
  1  'x, y, z'
loop_
 _atom_site_type_symbol
 _atom_site_label
 _atom_site_symmetry_multiplicity
 _atom_site_fract_x
 _atom_site_fract_y
 _atom_site_fract_z
 _atom_site_occupancy
  Cl  Cl0  1  0.500091  0.750000  0.500000  1
  Cl  Cl1  1  0.999909  0.250000  0.500000  1
  Cl  Cl2  1  0.499909  0.250000  0.500000  1
  Cl  Cl3  1  0.000091  0.750000  0.500000  1
  Cl  Cl4  1  0.396099  0.500000  0.792197  1
  Cl  Cl5  1  0.103901  0.000000  0.207803  1
  Cl  Cl6  1  0.896099  0.000000  0.792197  1
  Cl  Cl7  1  0.603901  0.500000  0.207803  1
  Cr  Cr8  1  0.000000  0.000000  0.000000  1
  Cr  Cr9  1  0.500000  0.500000  0.000000  1
  Rb  Rb10  1  0.775518  0.500000  0.551036  1
  Rb  Rb11  1  0.724482  0.000000  0.448964  1
  Rb  Rb12  1  0.275518  0.000000  0.551036  1
  Rb  Rb13  1  0.224482  0.500000  0.448964  1
