# generated using pymatgen
data_NbPCl10
_symmetry_space_group_name_H-M   'P 1'
_cell_length_a   7.27349366
_cell_length_b   7.48621649
_cell_length_c   14.10459632
_cell_angle_alpha   90.85282774
_cell_angle_beta   90.58873482
_cell_angle_gamma   105.50791461
_symmetry_Int_Tables_number   1
_chemical_formula_structural   NbPCl10
_chemical_formula_sum   'Nb2 P2 Cl20'
_cell_volume   739.88518983
_cell_formula_units_Z   2
loop_
 _symmetry_equiv_pos_site_id
 _symmetry_equiv_pos_as_xyz
  1  'x, y, z'
loop_
 _atom_site_type_symbol
 _atom_site_label
 _atom_site_symmetry_multiplicity
 _atom_site_fract_x
 _atom_site_fract_y
 _atom_site_fract_z
 _atom_site_occupancy
  Nb  Nb0  1  0.000000  0.000000  0.000000  1
  Nb  Nb1  1  0.000000  0.000000  0.500000  1
  Cl  Cl2  1  0.296902  0.078621  0.920080  1
  Cl  Cl3  1  0.703098  0.921379  0.079920  1
  Cl  Cl4  1  0.108881  0.270313  0.099528  1
  Cl  Cl5  1  0.891119  0.729687  0.900472  1
  Cl  Cl6  1  0.127594  0.822884  0.109650  1
  Cl  Cl7  1  0.872406  0.177116  0.890350  1
  Cl  Cl8  1  0.225288  0.292339  0.476645  1
  Cl  Cl9  1  0.774712  0.707661  0.523355  1
  Cl  Cl10  1  0.234585  0.842451  0.456508  1
  Cl  Cl11  1  0.765415  0.157549  0.543492  1
  Cl  Cl12  1  0.098022  0.007149  0.661496  1
  Cl  Cl13  1  0.901978  0.992851  0.338504  1
  Cl  Cl14  1  0.659415  0.413907  0.102238  1
  Cl  Cl15  1  0.340585  0.586093  0.897762  1
  Cl  Cl16  1  0.865999  0.476274  0.305158  1
  Cl  Cl17  1  0.134001  0.523726  0.694842  1
  Cl  Cl18  1  0.474663  0.162118  0.276430  1
  Cl  Cl19  1  0.525337  0.837882  0.723570  1
  Cl  Cl20  1  0.476958  0.587278  0.274576  1
  Cl  Cl21  1  0.523042  0.412722  0.725424  1
  P  P22  1  0.619428  0.408822  0.238890  1
  P  P23  1  0.380572  0.591178  0.761110  1
