# generated using pymatgen
data_Ba2In2O5
_symmetry_space_group_name_H-M   'P 1'
_cell_length_a   6.05647779
_cell_length_b   6.23725211
_cell_length_c   9.50185485
_cell_angle_alpha   109.16030795
_cell_angle_beta   108.58431032
_cell_angle_gamma   90.00000000
_symmetry_Int_Tables_number   1
_chemical_formula_structural   Ba2In2O5
_chemical_formula_sum   'Ba4 In4 O10'
_cell_volume   319.17557109
_cell_formula_units_Z   2
loop_
 _symmetry_equiv_pos_site_id
 _symmetry_equiv_pos_as_xyz
  1  'x, y, z'
loop_
 _atom_site_type_symbol
 _atom_site_label
 _atom_site_symmetry_multiplicity
 _atom_site_fract_x
 _atom_site_fract_y
 _atom_site_fract_z
 _atom_site_occupancy
  O  O0  1  0.101459  0.879591  0.500000  1
  O  O1  1  0.601459  0.120409  0.500000  1
  O  O2  1  0.313418  0.417197  0.724329  1
  O  O3  1  0.589089  0.582803  0.275671  1
  O  O4  1  0.813418  0.807132  0.724329  1
  O  O5  1  0.089089  0.192868  0.275671  1
  O  O6  1  0.237221  0.762964  0.016388  1
  O  O7  1  0.220833  0.237036  0.983612  1
  O  O8  1  0.720833  0.246575  0.983612  1
  O  O9  1  0.737221  0.753425  0.016388  1
  In  In10  1  0.756925  0.816597  0.500000  1
  In  In11  1  0.256925  0.183403  0.500000  1
  In  In12  1  0.474721  0.500000  1.000000  1
  In  In13  1  0.974721  1.000000  1.000000  1
  Ba  Ba14  1  0.870823  0.408920  0.782013  1
  Ba  Ba15  1  0.088811  0.591080  0.217987  1
  Ba  Ba16  1  0.370823  0.873092  0.782013  1
  Ba  Ba17  1  0.588811  0.126908  0.217987  1
