# generated using pymatgen
data_As(S2F3)2
_symmetry_space_group_name_H-M   'P 1'
_cell_length_a   13.69459372
_cell_length_b   15.46688046
_cell_length_c   16.65527734
_cell_angle_alpha   107.92047662
_cell_angle_beta   90.00000000
_cell_angle_gamma   90.00000000
_symmetry_Int_Tables_number   1
_chemical_formula_structural   As(S2F3)2
_chemical_formula_sum   'As16 S64 F96'
_cell_volume   3356.64542531
_cell_formula_units_Z   16
loop_
 _symmetry_equiv_pos_site_id
 _symmetry_equiv_pos_as_xyz
  1  'x, y, z'
loop_
 _atom_site_type_symbol
 _atom_site_label
 _atom_site_symmetry_multiplicity
 _atom_site_fract_x
 _atom_site_fract_y
 _atom_site_fract_z
 _atom_site_occupancy
  F  F0  1  0.962335  0.390419  0.530075  1
  F  F1  1  0.462335  0.609581  0.969925  1
  F  F2  1  0.037665  0.609581  0.469925  1
  F  F3  1  0.537665  0.390419  0.030075  1
  F  F4  1  0.865776  0.250405  0.527050  1
  F  F5  1  0.365776  0.749595  0.972950  1
  F  F6  1  0.134224  0.749595  0.472950  1
  F  F7  1  0.634224  0.250405  0.027050  1
  F  F8  1  0.884114  0.378853  0.663023  1
  F  F9  1  0.384114  0.621147  0.836977  1
  F  F10  1  0.115886  0.621147  0.336977  1
  F  F11  1  0.615886  0.378853  0.163023  1
  F  F12  1  0.047260  0.240104  0.512103  1
  F  F13  1  0.547260  0.759896  0.987897  1
  F  F14  1  0.952740  0.759896  0.487897  1
  F  F15  1  0.452740  0.240104  0.012103  1
  F  F16  1  0.067333  0.369046  0.646279  1
  F  F17  1  0.567333  0.630954  0.853721  1
  F  F18  1  0.932667  0.630954  0.353721  1
  F  F19  1  0.432667  0.369046  0.146279  1
  F  F20  1  0.968415  0.231745  0.645375  1
  F  F21  1  0.468415  0.768255  0.854625  1
  F  F22  1  0.031585  0.768255  0.354625  1
  F  F23  1  0.531585  0.231745  0.145375  1
  F  F24  1  0.947478  0.990149  0.145781  1
  F  F25  1  0.447478  0.009851  0.354219  1
  F  F26  1  0.052522  0.009851  0.854219  1
  F  F27  1  0.552522  0.990149  0.645781  1
  F  F28  1  0.842193  0.040443  0.276184  1
  F  F29  1  0.342193  0.959557  0.223816  1
  F  F30  1  0.157807  0.959557  0.723816  1
  F  F31  1  0.657807  0.040443  0.776184  1
  F  F32  1  0.083063  0.951627  0.231129  1
  F  F33  1  0.583063  0.048373  0.268871  1
  F  F34  1  0.916937  0.048373  0.768871  1
  F  F35  1  0.416937  0.951627  0.731129  1
  F  F36  1  0.914885  0.883933  0.230065  1
  F  F37  1  0.414885  0.116067  0.269935  1
  F  F38  1  0.085115  0.116067  0.769935  1
  F  F39  1  0.585115  0.883933  0.730065  1
  F  F40  1  0.009333  0.107778  0.276125  1
  F  F41  1  0.509333  0.892222  0.223875  1
  F  F42  1  0.990667  0.892222  0.723875  1
  F  F43  1  0.490667  0.107778  0.776125  1
  F  F44  1  0.977863  0.000889  0.360612  1
  F  F45  1  0.477863  0.999111  0.139388  1
  F  F46  1  0.022137  0.999111  0.639388  1
  F  F47  1  0.522137  0.000889  0.860612  1
  F  F48  1  0.998244  0.159346  0.067759  1
  F  F49  1  0.498244  0.840654  0.432241  1
  F  F50  1  0.001756  0.840654  0.932241  1
  F  F51  1  0.501756  0.159346  0.567759  1
  F  F52  1  0.840063  0.239542  0.119813  1
  F  F53  1  0.340063  0.760458  0.380187  1
  F  F54  1  0.159937  0.760458  0.880187  1
  F  F55  1  0.659937  0.239542  0.619813  1
  F  F56  1  0.890538  0.207376  0.967780  1
  F  F57  1  0.390538  0.792624  0.532220  1
  F  F58  1  0.109462  0.792624  0.032220  1
  F  F59  1  0.609462  0.207376  0.467780  1
  F  F60  1  0.999275  0.320659  0.166012  1
  F  F61  1  0.499275  0.679341  0.333988  1
  F  F62  1  0.000725  0.679341  0.833988  1
  F  F63  1  0.500725  0.320659  0.666012  1
  F  F64  1  0.050449  0.287674  0.014856  1
  F  F65  1  0.550449  0.712326  0.485144  1
  F  F66  1  0.949551  0.712326  0.985144  1
  F  F67  1  0.449551  0.287674  0.514856  1
  F  F68  1  0.892324  0.367682  0.064451  1
  F  F69  1  0.392324  0.632318  0.435549  1
  F  F70  1  0.107676  0.632318  0.935549  1
  F  F71  1  0.607676  0.367682  0.564451  1
  F  F72  1  0.788652  0.747070  0.660961  1
  F  F73  1  0.288652  0.252930  0.839039  1
  F  F74  1  0.211348  0.252930  0.339039  1
  F  F75  1  0.711348  0.747070  0.160961  1
  F  F76  1  0.899445  0.611957  0.630641  1
  F  F77  1  0.399445  0.388043  0.869359  1
  F  F78  1  0.100555  0.388043  0.369359  1
  F  F79  1  0.600555  0.611957  0.130641  1
  F  F80  1  0.773710  0.637196  0.745345  1
  F  F81  1  0.273710  0.362804  0.754655  1
  F  F82  1  0.226290  0.362804  0.254655  1
  F  F83  1  0.726290  0.637196  0.245345  1
  F  F84  1  0.768064  0.617555  0.525717  1
  F  F85  1  0.268064  0.382445  0.974283  1
  F  F86  1  0.231936  0.382445  0.474283  1
  F  F87  1  0.731936  0.617555  0.025717  1
  F  F88  1  0.643217  0.644853  0.641183  1
  F  F89  1  0.143217  0.355147  0.858817  1
  F  F90  1  0.356783  0.355147  0.358817  1
  F  F91  1  0.856783  0.644853  0.141183  1
  F  F92  1  0.753189  0.509144  0.610720  1
  F  F93  1  0.253189  0.490856  0.889280  1
  F  F94  1  0.246811  0.490856  0.389280  1
  F  F95  1  0.746811  0.509144  0.110720  1
  S  S96  1  0.822551  0.831986  0.363052  1
  S  S97  1  0.322551  0.168014  0.136948  1
  S  S98  1  0.177449  0.168014  0.636948  1
  S  S99  1  0.677449  0.831986  0.863052  1
  S  S100  1  0.697646  0.883353  0.326068  1
  S  S101  1  0.197646  0.116647  0.173932  1
  S  S102  1  0.302354  0.116647  0.673932  1
  S  S103  1  0.802354  0.883353  0.826068  1
  S  S104  1  0.655838  0.983204  0.432851  1
  S  S105  1  0.155838  0.016796  0.067149  1
  S  S106  1  0.344162  0.016796  0.567149  1
  S  S107  1  0.844162  0.983204  0.932851  1
  S  S108  1  0.781117  0.054968  0.476715  1
  S  S109  1  0.281117  0.945032  0.023285  1
  S  S110  1  0.218883  0.945032  0.523285  1
  S  S111  1  0.718883  0.054968  0.976715  1
  S  S112  1  0.773419  0.056239  0.599911  1
  S  S113  1  0.273419  0.943761  0.900089  1
  S  S114  1  0.226581  0.943761  0.400089  1
  S  S115  1  0.726581  0.056239  0.099911  1
  S  S116  1  0.825086  0.925915  0.578612  1
  S  S117  1  0.325086  0.074085  0.921388  1
  S  S118  1  0.174914  0.074085  0.421388  1
  S  S119  1  0.674914  0.925915  0.078612  1
  S  S120  1  0.698964  0.855705  0.533742  1
  S  S121  1  0.198964  0.144295  0.966258  1
  S  S122  1  0.301036  0.144295  0.466258  1
  S  S123  1  0.801036  0.855705  0.033742  1
  S  S124  1  0.739802  0.760938  0.423636  1
  S  S125  1  0.239802  0.239062  0.076364  1
  S  S126  1  0.260198  0.239062  0.576364  1
  S  S127  1  0.760198  0.760938  0.923636  1
  S  S128  1  0.863893  0.456547  0.932129  1
  S  S129  1  0.363893  0.543453  0.567871  1
  S  S130  1  0.136107  0.543453  0.067871  1
  S  S131  1  0.636107  0.456547  0.432129  1
  S  S132  1  0.932055  0.346747  0.847266  1
  S  S133  1  0.432055  0.653253  0.652734  1
  S  S134  1  0.067945  0.653253  0.152734  1
  S  S135  1  0.567945  0.346747  0.347266  1
  S  S136  1  0.815088  0.273342  0.786415  1
  S  S137  1  0.315088  0.726658  0.713585  1
  S  S138  1  0.184912  0.726658  0.213585  1
  S  S139  1  0.684912  0.273342  0.286415  1
  S  S140  1  0.723245  0.266937  0.882050  1
  S  S141  1  0.223245  0.733063  0.617950  1
  S  S142  1  0.276755  0.733063  0.117950  1
  S  S143  1  0.776755  0.266937  0.382050  1
  S  S144  1  0.594570  0.295068  0.832075  1
  S  S145  1  0.094570  0.704932  0.667925  1
  S  S146  1  0.405430  0.704932  0.167925  1
  S  S147  1  0.905430  0.295068  0.332075  1
  S  S148  1  0.620324  0.433521  0.872371  1
  S  S149  1  0.120324  0.566479  0.627629  1
  S  S150  1  0.379676  0.566479  0.127629  1
  S  S151  1  0.879676  0.433521  0.372371  1
  S  S152  1  0.714504  0.440136  0.779194  1
  S  S153  1  0.214504  0.559864  0.720806  1
  S  S154  1  0.285496  0.559864  0.220806  1
  S  S155  1  0.785496  0.440136  0.279194  1
  S  S156  1  0.830220  0.516906  0.841643  1
  S  S157  1  0.330220  0.483094  0.658357  1
  S  S158  1  0.169780  0.483094  0.158357  1
  S  S159  1  0.669780  0.516906  0.341643  1
  As  As160  1  0.966021  0.311337  0.586873  1
  As  As161  1  0.466021  0.688663  0.913127  1
  As  As162  1  0.033979  0.688663  0.413127  1
  As  As163  1  0.533979  0.311337  0.086873  1
  As  As164  1  0.962646  0.995609  0.253133  1
  As  As165  1  0.462646  0.004391  0.246867  1
  As  As166  1  0.037354  0.004391  0.746867  1
  As  As167  1  0.537354  0.995609  0.753133  1
  As  As168  1  0.944543  0.264051  0.067370  1
  As  As169  1  0.444543  0.735949  0.432630  1
  As  As170  1  0.055457  0.735949  0.932630  1
  As  As171  1  0.555457  0.264051  0.567370  1
  As  As172  1  0.771380  0.627227  0.635291  1
  As  As173  1  0.271380  0.372773  0.864709  1
  As  As174  1  0.228620  0.372773  0.364709  1
  As  As175  1  0.728620  0.627227  0.135291  1
