# generated using pymatgen
data_Cr2CoS4
_symmetry_space_group_name_H-M   'P 1'
_cell_length_a   6.91551446
_cell_length_b   6.91551446
_cell_length_c   6.91551445
_cell_angle_alpha   60.00000000
_cell_angle_beta   59.99999999
_cell_angle_gamma   59.99999997
_symmetry_Int_Tables_number   1
_chemical_formula_structural   Cr2CoS4
_chemical_formula_sum   'Cr4 Co2 S8'
_cell_volume   233.86136619
_cell_formula_units_Z   2
loop_
 _symmetry_equiv_pos_site_id
 _symmetry_equiv_pos_as_xyz
  1  'x, y, z'
loop_
 _atom_site_type_symbol
 _atom_site_label
 _atom_site_symmetry_multiplicity
 _atom_site_fract_x
 _atom_site_fract_y
 _atom_site_fract_z
 _atom_site_occupancy
  S  S0  1  0.744059  0.744059  0.744059  1
  S  S1  1  0.255941  0.255941  0.732176  1
  S  S2  1  0.255941  0.732176  0.255941  1
  S  S3  1  0.732176  0.255941  0.255941  1
  S  S4  1  0.744059  0.267824  0.744059  1
  S  S5  1  0.267824  0.744059  0.744059  1
  S  S6  1  0.255941  0.255941  0.255941  1
  S  S7  1  0.744059  0.744059  0.267824  1
  Cr  Cr8  1  0.500000  0.000000  0.500000  1
  Cr  Cr9  1  0.000000  0.500000  0.500000  1
  Cr  Cr10  1  0.500000  0.500000  0.000000  1
  Cr  Cr11  1  0.500000  0.500000  0.500000  1
  Co  Co12  1  0.875000  0.875000  0.875000  1
  Co  Co13  1  0.125000  0.125000  0.125000  1
