# generated using pymatgen
data_CrInBr3
_symmetry_space_group_name_H-M   'P 1'
_cell_length_a   4.29588544
_cell_length_b   9.53244596
_cell_length_c   15.15506058
_cell_angle_alpha   90.00000000
_cell_angle_beta   90.00000000
_cell_angle_gamma   96.13911471
_symmetry_Int_Tables_number   1
_chemical_formula_structural   CrInBr3
_chemical_formula_sum   'Cr4 In4 Br12'
_cell_volume   617.04515239
_cell_formula_units_Z   4
loop_
 _symmetry_equiv_pos_site_id
 _symmetry_equiv_pos_as_xyz
  1  'x, y, z'
loop_
 _atom_site_type_symbol
 _atom_site_label
 _atom_site_symmetry_multiplicity
 _atom_site_fract_x
 _atom_site_fract_y
 _atom_site_fract_z
 _atom_site_occupancy
  Cr  Cr0  1  0.768748  0.340235  0.951534  1
  Cr  Cr1  1  0.231252  0.159765  0.451534  1
  Cr  Cr2  1  0.231252  0.659765  0.048466  1
  Cr  Cr3  1  0.768748  0.840235  0.548466  1
  Br  Br4  1  0.747798  0.726042  0.698190  1
  Br  Br5  1  0.252202  0.773958  0.198190  1
  Br  Br6  1  0.252202  0.273958  0.301810  1
  Br  Br7  1  0.747798  0.226042  0.801810  1
  Br  Br8  1  0.800074  0.970719  0.400702  1
  Br  Br9  1  0.199926  0.529281  0.900702  1
  Br  Br10  1  0.199926  0.029281  0.599298  1
  Br  Br11  1  0.800074  0.470719  0.099298  1
  Br  Br12  1  0.307536  0.674082  0.492522  1
  Br  Br13  1  0.692464  0.825918  0.992522  1
  Br  Br14  1  0.692464  0.325918  0.507478  1
  Br  Br15  1  0.307536  0.174082  0.007478  1
  In  In16  1  0.242914  0.465019  0.665044  1
  In  In17  1  0.757086  0.034981  0.165044  1
  In  In18  1  0.757086  0.534981  0.334956  1
  In  In19  1  0.242914  0.965019  0.834956  1
