# generated using pymatgen
data_Au2Se4O11
_symmetry_space_group_name_H-M   'P 1'
_cell_length_a   4.30961805
_cell_length_b   10.63831653
_cell_length_c   13.62540373
_cell_angle_alpha   68.34738201
_cell_angle_beta   80.90067497
_cell_angle_gamma   78.31378509
_symmetry_Int_Tables_number   1
_chemical_formula_structural   Au2Se4O11
_chemical_formula_sum   'Au4 Se8 O22'
_cell_volume   566.17843732
_cell_formula_units_Z   2
loop_
 _symmetry_equiv_pos_site_id
 _symmetry_equiv_pos_as_xyz
  1  'x, y, z'
loop_
 _atom_site_type_symbol
 _atom_site_label
 _atom_site_symmetry_multiplicity
 _atom_site_fract_x
 _atom_site_fract_y
 _atom_site_fract_z
 _atom_site_occupancy
  O  O0  1  0.017441  0.250000  0.750000  1
  O  O1  1  0.982559  0.750000  0.250000  1
  O  O2  1  0.816535  0.504305  0.749612  1
  O  O3  1  0.070453  0.995695  0.750388  1
  O  O4  1  0.183465  0.495694  0.250388  1
  O  O5  1  0.929547  0.004306  0.249612  1
  O  O6  1  0.313100  0.461444  0.608983  1
  O  O7  1  0.383528  0.038556  0.891017  1
  O  O8  1  0.686900  0.538556  0.391017  1
  O  O9  1  0.616472  0.961444  0.108983  1
  O  O10  1  0.813955  0.843972  0.620032  1
  O  O11  1  0.277959  0.656028  0.879968  1
  O  O12  1  0.921825  0.195341  -0.003514  1
  O  O13  1  0.113652  0.304659  0.503514  1
  O  O14  1  0.078175  0.804659  1.003514  1
  O  O15  1  0.886348  0.695341  0.496486  1
  O  O16  1  0.242853  0.374990  0.977198  1
  O  O17  1  0.595041  0.125010  0.522802  1
  O  O18  1  0.757147  0.625010  0.022802  1
  O  O19  1  0.404959  0.874990  0.477198  1
  O  O20  1  0.722041  0.343972  0.120032  1
  O  O21  1  0.186045  0.156028  0.379968  1
  Se  Se22  1  0.165184  0.406268  0.744600  1
  Se  Se23  1  0.316052  0.093732  0.755400  1
  Se  Se24  1  0.834816  0.593732  0.255400  1
  Se  Se25  1  0.683948  0.906268  0.244600  1
  Se  Se26  1  0.595647  0.748005  0.584474  1
  Se  Se27  1  0.928127  0.751995  0.915526  1
  Se  Se28  1  0.404353  0.251995  0.415526  1
  Se  Se29  1  0.071873  0.248005  0.084474  1
  Au  Au30  1  0.000000  0.000000  0.500000  1
  Au  Au31  1  0.500000  0.500000  0.000000  1
  Au  Au32  1  0.000000  0.500000  0.500000  1
  Au  Au33  1  0.000000  0.000000  0.000000  1
