# generated using pymatgen
data_As2(SO4)3
_symmetry_space_group_name_H-M   'P 1'
_cell_length_a   5.47216796
_cell_length_b   9.59521909
_cell_length_c   19.85222938
_cell_angle_alpha   92.31032893
_cell_angle_beta   90.00000000
_cell_angle_gamma   90.00000000
_symmetry_Int_Tables_number   1
_chemical_formula_structural   As2(SO4)3
_chemical_formula_sum   'As8 S12 O48'
_cell_volume   1041.52676890
_cell_formula_units_Z   4
loop_
 _symmetry_equiv_pos_site_id
 _symmetry_equiv_pos_as_xyz
  1  'x, y, z'
loop_
 _atom_site_type_symbol
 _atom_site_label
 _atom_site_symmetry_multiplicity
 _atom_site_fract_x
 _atom_site_fract_y
 _atom_site_fract_z
 _atom_site_occupancy
  O  O0  1  0.915025  0.969916  0.283291  1
  O  O1  1  0.415025  0.030084  0.216709  1
  O  O2  1  0.084975  0.030084  0.716709  1
  O  O3  1  0.584975  0.969916  0.783291  1
  O  O4  1  0.607320  0.927456  0.373161  1
  O  O5  1  0.107319  0.072544  0.126839  1
  O  O6  1  0.392680  0.072544  0.626839  1
  O  O7  1  0.892680  0.927456  0.873161  1
  O  O8  1  0.037356  0.981076  0.401484  1
  O  O9  1  0.537356  0.018924  0.098516  1
  O  O10  1  0.962644  0.018924  0.598516  1
  O  O11  1  0.462644  0.981076  0.901484  1
  O  O12  1  0.928458  0.757310  0.348648  1
  O  O13  1  0.428458  0.242690  0.151352  1
  O  O14  1  0.071542  0.242690  0.651352  1
  O  O15  1  0.571542  0.757310  0.848648  1
  O  O16  1  0.110167  0.341539  0.268735  1
  O  O17  1  0.662919  0.343253  0.292668  1
  O  O18  1  0.337081  0.656747  0.707332  1
  O  O19  1  0.837081  0.343253  0.792668  1
  O  O20  1  0.727001  0.640702  0.964195  1
  O  O21  1  0.227001  0.359298  0.535805  1
  O  O22  1  0.272999  0.359298  0.035805  1
  O  O23  1  0.772999  0.640702  0.464195  1
  O  O24  1  0.811099  0.842343  0.038628  1
  O  O25  1  0.311099  0.157657  0.461372  1
  O  O26  1  0.188901  0.157657  0.961372  1
  O  O27  1  0.688901  0.842343  0.538628  1
  O  O28  1  0.149329  0.725566  0.977259  1
  O  O29  1  0.649329  0.274434  0.522741  1
  O  O30  1  0.850671  0.274434  0.022741  1
  O  O31  1  0.350671  0.725566  0.477260  1
  O  O32  1  0.936742  0.610639  0.071640  1
  O  O33  1  0.436742  0.389361  0.428360  1
  O  O34  1  0.063258  0.389361  0.928360  1
  O  O35  1  0.563258  0.610639  0.571640  1
  O  O36  1  0.553573  0.496519  0.858269  1
  O  O37  1  0.053573  0.503481  0.641731  1
  O  O38  1  0.446427  0.503481  0.141731  1
  O  O39  1  0.946427  0.496519  0.358269  1
  O  O40  1  0.549077  0.246421  0.872811  1
  O  O41  1  0.049077  0.753579  0.627189  1
  O  O42  1  0.450923  0.753579  0.127189  1
  O  O43  1  0.950923  0.246421  0.372811  1
  O  O44  1  0.389833  0.341539  0.768735  1
  O  O45  1  0.889833  0.658461  0.731265  1
  O  O46  1  0.610167  0.658461  0.231265  1
  O  O47  1  0.162919  0.656747  0.207332  1
  S  S48  1  0.854214  0.914182  0.347457  1
  S  S49  1  0.354214  0.085818  0.152543  1
  S  S50  1  0.145786  0.085818  0.652543  1
  S  S51  1  0.645786  0.914182  0.847457  1
  S  S52  1  0.910195  0.353894  0.315984  1
  S  S53  1  0.410195  0.646106  0.184016  1
  S  S54  1  0.089805  0.646106  0.684016  1
  S  S55  1  0.589805  0.353894  0.815984  1
  S  S56  1  0.569242  0.698804  0.514258  1
  S  S57  1  0.069242  0.301196  0.985742  1
  S  S58  1  0.430758  0.301196  0.485742  1
  S  S59  1  0.930758  0.698804  0.014258  1
  As  As60  1  0.729736  0.873464  0.129536  1
  As  As61  1  0.229736  0.126536  0.370464  1
  As  As62  1  0.270264  0.126536  0.870464  1
  As  As63  1  0.770264  0.873464  0.629536  1
  As  As64  1  0.692319  0.622323  0.371887  1
  As  As65  1  0.192319  0.377677  0.128113  1
  As  As66  1  0.307681  0.377677  0.628113  1
  As  As67  1  0.807681  0.622323  0.871887  1
