# generated using pymatgen
data_TbMn2O5
_symmetry_space_group_name_H-M   'P 1'
_cell_length_a   5.79225705
_cell_length_b   7.38245301
_cell_length_c   8.59650451
_cell_angle_alpha   90.00000000
_cell_angle_beta   90.00000000
_cell_angle_gamma   90.00000000
_symmetry_Int_Tables_number   1
_chemical_formula_structural   TbMn2O5
_chemical_formula_sum   'Tb4 Mn8 O20'
_cell_volume   367.59569237
_cell_formula_units_Z   4
loop_
 _symmetry_equiv_pos_site_id
 _symmetry_equiv_pos_as_xyz
  1  'x, y, z'
loop_
 _atom_site_type_symbol
 _atom_site_label
 _atom_site_symmetry_multiplicity
 _atom_site_fract_x
 _atom_site_fract_y
 _atom_site_fract_z
 _atom_site_occupancy
  O  O0  1  0.241095  0.894942  0.292885  1
  O  O1  1  0.241095  0.105057  0.707116  1
  O  O2  1  0.758905  0.394942  0.207116  1
  O  O3  1  0.758905  0.605057  0.792885  1
  O  O4  1  0.758905  0.105057  0.707116  1
  O  O5  1  0.758905  0.894942  0.292885  1
  O  O6  1  0.241095  0.605057  0.792885  1
  O  O7  1  0.241095  0.394942  0.207116  1
  O  O8  1  0.499999  0.348317  0.931937  1
  O  O9  1  0.499999  0.651682  0.068063  1
  O  O10  1  0.499999  0.848317  0.568063  1
  O  O11  1  0.499999  0.151682  0.431937  1
  O  O12  1  0.270831  0.000000  0.000000  1
  O  O13  1  0.729169  0.500000  0.500000  1
  O  O14  1  0.729169  0.000000  0.000000  1
  O  O15  1  0.270831  0.500000  0.500000  1
  O  O16  1  0.000000  0.336677  0.943623  1
  O  O17  1  0.000000  0.836676  0.556376  1
  O  O18  1  0.000000  0.663323  0.056376  1
  O  O19  1  0.000000  0.163323  0.443624  1
  Mn  Mn20  1  0.499999  0.088547  0.848949  1
  Mn  Mn21  1  0.499999  0.911454  0.151051  1
  Mn  Mn22  1  0.499999  0.588547  0.651050  1
  Mn  Mn23  1  0.499999  0.411453  0.348949  1
  Mn  Mn24  1  0.253942  0.500000  0.000000  1
  Mn  Mn25  1  0.746059  0.000000  0.500000  1
  Mn  Mn26  1  0.253942  0.000000  0.500000  1
  Mn  Mn27  1  0.746059  0.500000  0.000000  1
  Tb  Tb28  1  0.000000  0.361717  0.670926  1
  Tb  Tb29  1  0.000000  0.638282  0.329074  1
  Tb  Tb30  1  0.000000  0.861717  0.829074  1
  Tb  Tb31  1  0.000000  0.138283  0.170926  1
