# generated using pymatgen
data_ThI4
_symmetry_space_group_name_H-M   'P 1'
_cell_length_a   8.46589764
_cell_length_b   8.21355483
_cell_length_c   13.79284841
_cell_angle_alpha   90.00000000
_cell_angle_beta   102.78028635
_cell_angle_gamma   90.00000000
_symmetry_Int_Tables_number   1
_chemical_formula_structural   ThI4
_chemical_formula_sum   'Th4 I16'
_cell_volume   935.32640856
_cell_formula_units_Z   4
loop_
 _symmetry_equiv_pos_site_id
 _symmetry_equiv_pos_as_xyz
  1  'x, y, z'
loop_
 _atom_site_type_symbol
 _atom_site_label
 _atom_site_symmetry_multiplicity
 _atom_site_fract_x
 _atom_site_fract_y
 _atom_site_fract_z
 _atom_site_occupancy
  I  I0  1  0.487049  0.860106  0.349118  1
  I  I1  1  0.012951  0.360106  0.150882  1
  I  I2  1  0.512951  0.139894  0.650882  1
  I  I3  1  0.987049  0.639894  0.849118  1
  I  I4  1  0.173960  0.083387  0.946310  1
  I  I5  1  0.326040  0.583387  0.553690  1
  I  I6  1  0.826040  0.916613  0.053690  1
  I  I7  1  0.673960  0.416613  0.446310  1
  I  I8  1  0.523581  0.746029  0.812629  1
  I  I9  1  0.976419  0.246029  0.687371  1
  I  I10  1  0.476419  0.253971  0.187371  1
  I  I11  1  0.023581  0.753971  0.312629  1
  I  I12  1  0.694047  0.309131  0.897311  1
  I  I13  1  0.805953  0.809131  0.602689  1
  I  I14  1  0.305953  0.690869  0.102689  1
  I  I15  1  0.194047  0.190869  0.397311  1
  Th  Th16  1  0.321735  0.514832  0.317214  1
  Th  Th17  1  0.178265  0.014832  0.182786  1
  Th  Th18  1  0.678265  0.485168  0.682786  1
  Th  Th19  1  0.821735  0.985168  0.817214  1
