# generated using pymatgen
data_Cr4InCuSe8
_symmetry_space_group_name_H-M   'P 1'
_cell_length_a   7.56841948
_cell_length_b   7.56841948
_cell_length_c   7.56841948
_cell_angle_alpha   60.00000000
_cell_angle_beta   60.00000001
_cell_angle_gamma   60.00000002
_symmetry_Int_Tables_number   1
_chemical_formula_structural   Cr4InCuSe8
_chemical_formula_sum   'Cr4 In1 Cu1 Se8'
_cell_volume   306.54948234
_cell_formula_units_Z   1
loop_
 _symmetry_equiv_pos_site_id
 _symmetry_equiv_pos_as_xyz
  1  'x, y, z'
loop_
 _atom_site_type_symbol
 _atom_site_label
 _atom_site_symmetry_multiplicity
 _atom_site_fract_x
 _atom_site_fract_y
 _atom_site_fract_z
 _atom_site_occupancy
  Cr  Cr0  1  0.138406  0.620531  0.620531  1
  Cr  Cr1  1  0.620531  0.620531  0.138406  1
  Cr  Cr2  1  0.620531  0.138406  0.620531  1
  Cr  Cr3  1  0.620531  0.620531  0.620531  1
  Cu  Cu4  1  0.250000  0.250000  0.250000  1
  Se  Se5  1  0.384015  0.384015  0.384015  1
  Se  Se6  1  0.859509  0.421474  0.859509  1
  Se  Se7  1  0.859509  0.859509  0.421474  1
  Se  Se8  1  0.859509  0.859509  0.859509  1
  Se  Se9  1  0.847955  0.384015  0.384015  1
  Se  Se10  1  0.384015  0.847955  0.384015  1
  Se  Se11  1  0.421474  0.859509  0.859509  1
  Se  Se12  1  0.384015  0.384015  0.847955  1
  In  In13  1  0.000000  0.000000  0.000000  1
