# generated using pymatgen
data_Ba3Te4O11
_symmetry_space_group_name_H-M   'P 1'
_cell_length_a   8.12936457
_cell_length_b   9.60354343
_cell_length_c   10.23615603
_cell_angle_alpha   97.96780079
_cell_angle_beta   111.27571066
_cell_angle_gamma   102.78260644
_symmetry_Int_Tables_number   1
_chemical_formula_structural   Ba3Te4O11
_chemical_formula_sum   'Ba6 Te8 O22'
_cell_volume   704.83909608
_cell_formula_units_Z   2
loop_
 _symmetry_equiv_pos_site_id
 _symmetry_equiv_pos_as_xyz
  1  'x, y, z'
loop_
 _atom_site_type_symbol
 _atom_site_label
 _atom_site_symmetry_multiplicity
 _atom_site_fract_x
 _atom_site_fract_y
 _atom_site_fract_z
 _atom_site_occupancy
  Ba  Ba0  1  0.856092  0.593468  0.822107  1
  Ba  Ba1  1  0.143908  0.406532  0.177893  1
  Ba  Ba2  1  0.310192  0.015105  0.113722  1
  Ba  Ba3  1  0.689808  0.984895  0.886278  1
  Ba  Ba4  1  0.281096  0.542357  0.629248  1
  Ba  Ba5  1  0.718904  0.457643  0.370752  1
  Te  Te6  1  0.946941  0.242842  0.718931  1
  Te  Te7  1  0.923074  0.119849  0.295752  1
  Te  Te8  1  0.076926  0.880151  0.704248  1
  Te  Te9  1  0.533791  0.692676  0.058844  1
  Te  Te10  1  0.053059  0.757158  0.281069  1
  Te  Te11  1  0.440504  0.194869  0.537860  1
  Te  Te12  1  0.466209  0.307324  0.941156  1
  Te  Te13  1  0.559496  0.805131  0.462140  1
  O  O14  1  0.854092  0.724715  0.585107  1
  O  O15  1  0.792356  0.239155  0.195809  1
  O  O16  1  0.003464  0.055161  0.152044  1
  O  O17  1  0.519546  0.786964  0.628278  1
  O  O18  1  0.600420  0.687028  0.900242  1
  O  O19  1  0.480454  0.213035  0.371722  1
  O  O20  1  0.062686  0.676166  0.106809  1
  O  O21  1  0.666591  0.132938  0.636671  1
  O  O22  1  0.536135  0.392658  0.643709  1
  O  O23  1  0.207644  0.760845  0.804191  1
  O  O24  1  0.399580  0.312972  0.099758  1
  O  O25  1  0.404385  0.101547  0.875194  1
  O  O26  1  0.259055  0.353104  0.811432  1
  O  O27  1  0.595615  0.898453  0.124806  1
  O  O28  1  0.067858  0.598183  0.369538  1
  O  O29  1  0.932142  0.401817  0.630462  1
  O  O30  1  0.463865  0.607342  0.356291  1
  O  O31  1  0.740945  0.646896  0.188568  1
  O  O32  1  0.333409  0.867062  0.363329  1
  O  O33  1  0.996536  0.944839  0.847956  1
  O  O34  1  0.145908  0.275285  0.414893  1
  O  O35  1  0.937314  0.323834  0.893191  1
