# generated using pymatgen
data_Na3InS3
_symmetry_space_group_name_H-M   'P 1'
_cell_length_a   7.46700518
_cell_length_b   10.53703713
_cell_length_c   10.53703713
_cell_angle_alpha   79.82874640
_cell_angle_beta   69.35361038
_cell_angle_gamma   69.35361041
_symmetry_Int_Tables_number   1
_chemical_formula_structural   Na3InS3
_chemical_formula_sum   'Na12 In4 S12'
_cell_volume   724.68760328
_cell_formula_units_Z   4
loop_
 _symmetry_equiv_pos_site_id
 _symmetry_equiv_pos_as_xyz
  1  'x, y, z'
loop_
 _atom_site_type_symbol
 _atom_site_label
 _atom_site_symmetry_multiplicity
 _atom_site_fract_x
 _atom_site_fract_y
 _atom_site_fract_z
 _atom_site_occupancy
  Na  Na0  1  0.457198  0.173010  0.009052  1
  Na  Na1  1  0.042802  0.990948  0.826990  1
  Na  Na2  1  0.542802  0.826990  0.990948  1
  Na  Na3  1  0.957198  0.009052  0.173010  1
  Na  Na4  1  0.587384  0.363180  0.230090  1
  Na  Na5  1  0.912616  0.769910  0.636820  1
  Na  Na6  1  0.412616  0.636820  0.769910  1
  Na  Na7  1  0.087384  0.230090  0.363180  1
  Na  Na8  1  0.750000  0.277796  0.722204  1
  Na  Na9  1  0.250000  0.722204  0.277796  1
  Na  Na10  1  0.750000  0.564044  0.435956  1
  Na  Na11  1  0.250000  0.435956  0.564044  1
  S  S12  1  0.262394  0.413502  0.887038  1
  S  S13  1  0.762394  0.887038  0.413502  1
  S  S14  1  0.237606  0.112962  0.586498  1
  S  S15  1  0.737606  0.586498  0.112962  1
  S  S16  1  0.814432  0.217255  0.996459  1
  S  S17  1  0.685568  0.003541  0.782745  1
  S  S18  1  0.185568  0.782745  0.003541  1
  S  S19  1  0.314432  0.996459  0.217255  1
  S  S20  1  0.829060  0.526325  0.704686  1
  S  S21  1  0.670940  0.295314  0.473675  1
  S  S22  1  0.170940  0.473675  0.295314  1
  S  S23  1  0.329060  0.704686  0.526325  1
  In  In24  1  0.403533  0.917290  0.427935  1
  In  In25  1  0.596467  0.082710  0.572065  1
  In  In26  1  0.903533  0.427935  0.917290  1
  In  In27  1  0.096467  0.572065  0.082710  1
