# generated using pymatgen
data_TaPS6
_symmetry_space_group_name_H-M   'P 1'
_cell_length_a   13.27959970
_cell_length_b   13.27959969
_cell_length_c   13.27959970
_cell_angle_alpha   105.14400293
_cell_angle_beta   105.14400295
_cell_angle_gamma   118.52278328
_symmetry_Int_Tables_number   1
_chemical_formula_structural   TaPS6
_chemical_formula_sum   'Ta8 P8 S48'
_cell_volume   1768.51845135
_cell_formula_units_Z   8
loop_
 _symmetry_equiv_pos_site_id
 _symmetry_equiv_pos_as_xyz
  1  'x, y, z'
loop_
 _atom_site_type_symbol
 _atom_site_label
 _atom_site_symmetry_multiplicity
 _atom_site_fract_x
 _atom_site_fract_y
 _atom_site_fract_z
 _atom_site_occupancy
  P  P0  1  0.250000  0.680575  0.430575  1
  P  P1  1  0.250000  0.180575  0.930575  1
  P  P2  1  0.180575  0.750000  0.930575  1
  P  P3  1  0.319425  0.250000  0.569425  1
  P  P4  1  0.750000  0.319425  0.569425  1
  P  P5  1  0.750000  0.819425  0.069425  1
  P  P6  1  0.819425  0.250000  0.069425  1
  P  P7  1  0.680575  0.750000  0.430575  1
  S  S8  1  0.537962  0.198541  0.247390  1
  S  S9  1  0.840993  0.875817  0.971132  1
  S  S10  1  0.875817  0.404685  0.034824  1
  S  S11  1  0.869861  0.840993  0.465176  1
  S  S12  1  0.404685  0.869861  0.528868  1
  S  S13  1  0.624183  0.659007  0.528868  1
  S  S14  1  0.095315  0.624183  0.465176  1
  S  S15  1  0.659007  0.630139  0.034824  1
  S  S16  1  0.548849  0.709427  0.747390  1
  S  S17  1  0.709427  0.462038  0.160578  1
  S  S18  1  0.801459  0.548849  0.339422  1
  S  S19  1  0.462038  0.801459  0.752610  1
  S  S20  1  0.790573  0.951151  0.752610  1
  S  S21  1  0.037962  0.790573  0.339422  1
  S  S22  1  0.951151  0.698541  0.160578  1
  S  S23  1  0.698541  0.037962  0.747390  1
  S  S24  1  0.451151  0.290573  0.252610  1
  S  S25  1  0.290573  0.537962  0.839422  1
  S  S26  1  0.198541  0.451151  0.660578  1
  S  S27  1  0.630139  0.095315  0.971132  1
  S  S28  1  0.209427  0.048849  0.247390  1
  S  S29  1  0.962038  0.209427  0.660578  1
  S  S30  1  0.048849  0.301459  0.839422  1
  S  S31  1  0.301459  0.962038  0.252610  1
  S  S32  1  0.408922  0.368318  0.747114  1
  S  S33  1  0.368318  0.121204  0.959396  1
  S  S34  1  0.661807  0.408922  0.540604  1
  S  S35  1  0.121204  0.661807  0.752886  1
  S  S36  1  0.131682  0.091078  0.752886  1
  S  S37  1  0.378796  0.131682  0.540604  1
  S  S38  1  0.091078  0.838193  0.959396  1
  S  S39  1  0.838193  0.378796  0.747114  1
  S  S40  1  0.591078  0.631682  0.252886  1
  S  S41  1  0.631682  0.878796  0.040604  1
  S  S42  1  0.338193  0.591078  0.459396  1
  S  S43  1  0.878796  0.338193  0.247114  1
  S  S44  1  0.868318  0.908922  0.247114  1
  S  S45  1  0.621204  0.868318  0.459396  1
  S  S46  1  0.908922  0.161807  0.040604  1
  S  S47  1  0.161807  0.621204  0.252886  1
  S  S48  1  0.369861  0.904685  0.028868  1
  S  S49  1  0.124183  0.595315  0.965176  1
  S  S50  1  0.130139  0.159007  0.534824  1
  S  S51  1  0.595315  0.130139  0.471132  1
  S  S52  1  0.375817  0.340993  0.471132  1
  S  S53  1  0.904685  0.375817  0.534824  1
  S  S54  1  0.340993  0.369861  0.965176  1
  S  S55  1  0.159007  0.124183  0.028868  1
  Ta  Ta56  1  0.700669  0.950669  0.901338  1
  Ta  Ta57  1  0.950669  0.549331  0.250000  1
  Ta  Ta58  1  0.799331  0.700669  0.250000  1
  Ta  Ta59  1  0.549331  0.799331  0.598662  1
  Ta  Ta60  1  0.299331  0.049331  0.098662  1
  Ta  Ta61  1  0.049331  0.450669  0.750000  1
  Ta  Ta62  1  0.200669  0.299331  0.750000  1
  Ta  Ta63  1  0.450669  0.200669  0.401338  1
