# generated using pymatgen
data_BaNiN
_symmetry_space_group_name_H-M   'P 1'
_cell_length_a   5.46136735
_cell_length_b   9.82630451
_cell_length_c   13.82017873
_cell_angle_alpha   90.00000000
_cell_angle_beta   90.00000000
_cell_angle_gamma   90.00000000
_symmetry_Int_Tables_number   1
_chemical_formula_structural   BaNiN
_chemical_formula_sum   'Ba12 Ni12 N12'
_cell_volume   741.66070171
_cell_formula_units_Z   12
loop_
 _symmetry_equiv_pos_site_id
 _symmetry_equiv_pos_as_xyz
  1  'x, y, z'
loop_
 _atom_site_type_symbol
 _atom_site_label
 _atom_site_symmetry_multiplicity
 _atom_site_fract_x
 _atom_site_fract_y
 _atom_site_fract_z
 _atom_site_occupancy
  Ba  Ba0  1  0.481050  0.502634  0.750000  1
  Ba  Ba1  1  0.973467  0.328261  0.087236  1
  Ba  Ba2  1  0.018950  0.002634  0.750000  1
  Ba  Ba3  1  0.026533  0.671739  0.587236  1
  Ba  Ba4  1  0.973467  0.328261  0.412764  1
  Ba  Ba5  1  0.473467  0.171739  0.587236  1
  Ba  Ba6  1  0.473467  0.171739  0.912764  1
  Ba  Ba7  1  0.526533  0.828261  0.087236  1
  Ba  Ba8  1  0.026533  0.671739  0.912764  1
  Ba  Ba9  1  0.981050  0.997366  0.250000  1
  Ba  Ba10  1  0.526533  0.828261  0.412764  1
  Ba  Ba11  1  0.518950  0.497366  0.250000  1
  Ni  Ni12  1  0.441569  0.147030  0.160645  1
  Ni  Ni13  1  0.000000  0.000000  0.500000  1
  Ni  Ni14  1  0.941569  0.352970  0.839355  1
  Ni  Ni15  1  0.558431  0.852970  0.839355  1
  Ni  Ni16  1  0.558431  0.852970  0.660645  1
  Ni  Ni17  1  0.500000  0.500000  0.000000  1
  Ni  Ni18  1  0.941569  0.352970  0.660645  1
  Ni  Ni19  1  0.441569  0.147030  0.339355  1
  Ni  Ni20  1  0.058431  0.647030  0.160645  1
  Ni  Ni21  1  0.000000  0.000000  0.000000  1
  Ni  Ni22  1  0.058431  0.647030  0.339355  1
  Ni  Ni23  1  0.500000  0.500000  0.500000  1
  N  N24  1  0.151840  0.278229  0.750000  1
  N  N25  1  0.275207  0.573752  0.076012  1
  N  N26  1  0.348160  0.778229  0.750000  1
  N  N27  1  0.775207  0.926248  0.576012  1
  N  N28  1  0.848160  0.721771  0.250000  1
  N  N29  1  0.724793  0.426248  0.923988  1
  N  N30  1  0.724793  0.426248  0.576012  1
  N  N31  1  0.775207  0.926248  0.923988  1
  N  N32  1  0.224794  0.073752  0.423988  1
  N  N33  1  0.651840  0.221771  0.250000  1
  N  N34  1  0.275207  0.573752  0.423988  1
  N  N35  1  0.224794  0.073752  0.076012  1
