# generated using pymatgen
data_KNb8O14
_symmetry_space_group_name_H-M   'P 1'
_cell_length_a   6.02015826
_cell_length_b   9.52613277
_cell_length_c   10.45802379
_cell_angle_alpha   90.00000000
_cell_angle_beta   90.00000000
_cell_angle_gamma   90.00000000
_symmetry_Int_Tables_number   1
_chemical_formula_structural   KNb8O14
_chemical_formula_sum   'K2 Nb16 O28'
_cell_volume   599.75539585
_cell_formula_units_Z   2
loop_
 _symmetry_equiv_pos_site_id
 _symmetry_equiv_pos_as_xyz
  1  'x, y, z'
loop_
 _atom_site_type_symbol
 _atom_site_label
 _atom_site_symmetry_multiplicity
 _atom_site_fract_x
 _atom_site_fract_y
 _atom_site_fract_z
 _atom_site_occupancy
  O  O0  1  0.750060  0.505034  0.751499  1
  O  O1  1  0.750060  0.494966  0.248501  1
  O  O2  1  0.249939  0.005034  0.748501  1
  O  O3  1  0.249939  0.994966  0.251499  1
  O  O4  1  0.249939  0.494966  0.248501  1
  O  O5  1  0.249939  0.505034  0.751499  1
  O  O6  1  0.750060  0.994966  0.251499  1
  O  O7  1  0.750060  0.005034  0.748501  1
  O  O8  1  0.245414  0.745869  0.910696  1
  O  O9  1  0.245414  0.254131  0.089304  1
  O  O10  1  0.754586  0.245869  0.589304  1
  O  O11  1  0.754586  0.754131  0.410695  1
  O  O12  1  0.754586  0.254131  0.089304  1
  O  O13  1  0.754586  0.745869  0.910696  1
  O  O14  1  0.245414  0.754131  0.410695  1
  O  O15  1  0.245414  0.245869  0.589304  1
  O  O16  1  0.000000  0.500000  0.000000  1
  O  O17  1  0.000000  0.000000  0.500000  1
  O  O18  1  0.000000  0.233090  0.822221  1
  O  O19  1  0.000000  0.766910  0.177779  1
  O  O20  1  0.000000  0.733091  0.677779  1
  O  O21  1  0.000000  0.266910  0.322221  1
  O  O22  1  0.500001  0.246833  0.342154  1
  O  O23  1  0.000000  0.500000  0.500000  1
  O  O24  1  0.500001  0.746834  0.157847  1
  O  O25  1  0.500001  0.253166  0.842154  1
  O  O26  1  0.000000  0.000000  0.000000  1
  O  O27  1  0.500001  0.753167  0.657847  1
  K  K28  1  0.500001  0.500000  0.000000  1
  K  K29  1  0.500001  0.000000  0.500000  1
  Nb  Nb30  1  0.500001  0.121040  0.165735  1
  Nb  Nb31  1  0.000000  0.612762  0.838313  1
  Nb  Nb32  1  0.000000  0.887238  0.338313  1
  Nb  Nb33  1  0.000000  0.112762  0.661687  1
  Nb  Nb34  1  0.500001  0.378960  0.665736  1
  Nb  Nb35  1  0.500001  0.621039  0.334265  1
  Nb  Nb36  1  0.500001  0.878960  0.834264  1
  Nb  Nb37  1  0.000000  0.387238  0.161687  1
  Nb  Nb38  1  0.736102  0.627440  0.576120  1
  Nb  Nb39  1  0.736102  0.372560  0.423879  1
  Nb  Nb40  1  0.263900  0.127441  0.923879  1
  Nb  Nb41  1  0.263900  0.872560  0.076121  1
  Nb  Nb42  1  0.263900  0.372560  0.423879  1
  Nb  Nb43  1  0.263900  0.627440  0.576120  1
  Nb  Nb44  1  0.736102  0.872560  0.076121  1
  Nb  Nb45  1  0.736102  0.127441  0.923879  1
