# generated using pymatgen
data_H8S5N2
_symmetry_space_group_name_H-M   'P 1'
_cell_length_a   5.45855250
_cell_length_b   9.50808716
_cell_length_c   16.59957318
_cell_angle_alpha   90.00000000
_cell_angle_beta   90.00000000
_cell_angle_gamma   104.15877868
_symmetry_Int_Tables_number   1
_chemical_formula_structural   H8S5N2
_chemical_formula_sum   'H32 S20 N8'
_cell_volume   835.35262595
_cell_formula_units_Z   4
loop_
 _symmetry_equiv_pos_site_id
 _symmetry_equiv_pos_as_xyz
  1  'x, y, z'
loop_
 _atom_site_type_symbol
 _atom_site_label
 _atom_site_symmetry_multiplicity
 _atom_site_fract_x
 _atom_site_fract_y
 _atom_site_fract_z
 _atom_site_occupancy
  H  H0  1  0.105187  0.418521  0.641861  1
  H  H1  1  0.894813  0.081479  0.141861  1
  H  H2  1  0.894813  0.581479  0.358139  1
  H  H3  1  0.105187  0.918521  0.858139  1
  H  H4  1  0.285416  0.450600  0.725758  1
  H  H5  1  0.714584  0.049400  0.225758  1
  H  H6  1  0.714584  0.549400  0.274242  1
  H  H7  1  0.285416  0.950600  0.774242  1
  H  H8  1  0.425906  0.462029  0.632369  1
  H  H9  1  0.574094  0.037971  0.132369  1
  H  H10  1  0.574094  0.537971  0.367631  1
  H  H11  1  0.425906  0.962029  0.867631  1
  H  H12  1  0.274889  0.296815  0.669386  1
  H  H13  1  0.725111  0.203185  0.169386  1
  H  H14  1  0.363578  0.367927  0.933265  1
  H  H15  1  0.725111  0.703185  0.330614  1
  H  H16  1  0.171357  0.218600  0.976690  1
  H  H17  1  0.828643  0.281400  0.476690  1
  H  H18  1  0.828643  0.781400  0.023310  1
  H  H19  1  0.171357  0.718600  0.523310  1
  H  H20  1  0.478887  0.220935  0.956313  1
  H  H21  1  0.521113  0.279065  0.456313  1
  H  H22  1  0.521113  0.779065  0.043687  1
  H  H23  1  0.478887  0.720935  0.543687  1
  H  H24  1  0.582881  0.172729  0.530730  1
  H  H25  1  0.417119  0.327271  0.030730  1
  H  H26  1  0.417119  0.827271  0.469270  1
  H  H27  1  0.582881  0.672729  0.969270  1
  H  H28  1  0.363578  0.867927  0.566735  1
  H  H29  1  0.636422  0.632073  0.066735  1
  H  H30  1  0.636422  0.132073  0.433265  1
  H  H31  1  0.274889  0.796815  0.830614  1
  N  N32  1  0.270680  0.406840  0.667758  1
  N  N33  1  0.729320  0.093160  0.167758  1
  N  N34  1  0.729320  0.593160  0.332242  1
  N  N35  1  0.270680  0.906840  0.832242  1
  N  N36  1  0.355839  0.283448  0.974528  1
  N  N37  1  0.644161  0.216552  0.474528  1
  N  N38  1  0.644161  0.716552  0.025472  1
  N  N39  1  0.355839  0.783448  0.525472  1
  S  S40  1  0.770713  0.076691  0.929844  1
  S  S41  1  0.229287  0.423309  0.429844  1
  S  S42  1  0.229287  0.923309  0.070156  1
  S  S43  1  0.770713  0.576691  0.570156  1
  S  S44  1  0.888434  0.170667  0.819759  1
  S  S45  1  0.111566  0.329333  0.319759  1
  S  S46  1  0.111566  0.829333  0.180241  1
  S  S47  1  0.888434  0.670667  0.680241  1
  S  S48  1  0.764048  0.357469  0.805841  1
  S  S49  1  0.235952  0.142531  0.305841  1
  S  S50  1  0.235952  0.642531  0.194159  1
  S  S51  1  0.764048  0.857469  0.694159  1
  S  S52  1  0.953528  0.009219  0.611386  1
  S  S53  1  0.046472  0.490781  0.111386  1
  S  S54  1  0.046472  0.990781  0.388614  1
  S  S55  1  0.953528  0.509219  0.888614  1
  S  S56  1  0.330070  0.069860  0.644687  1
  S  S57  1  0.669930  0.430140  0.144687  1
  S  S58  1  0.669930  0.930140  0.355313  1
  S  S59  1  0.330070  0.569860  0.855313  1
