# generated using pymatgen
data_Dy2InAu2
_symmetry_space_group_name_H-M   'P 1'
_cell_length_a   3.73768674
_cell_length_b   7.97997253
_cell_length_c   7.97997253
_cell_angle_alpha   90.00000000
_cell_angle_beta   90.00000000
_cell_angle_gamma   90.00000000
_symmetry_Int_Tables_number   1
_chemical_formula_structural   Dy2InAu2
_chemical_formula_sum   'Dy4 In2 Au4'
_cell_volume   238.01574800
_cell_formula_units_Z   2
loop_
 _symmetry_equiv_pos_site_id
 _symmetry_equiv_pos_as_xyz
  1  'x, y, z'
loop_
 _atom_site_type_symbol
 _atom_site_label
 _atom_site_symmetry_multiplicity
 _atom_site_fract_x
 _atom_site_fract_y
 _atom_site_fract_z
 _atom_site_occupancy
  In  In0  1  0.000000  0.500000  0.500000  1
  In  In1  1  0.000000  0.000000  0.000000  1
  Dy  Dy2  1  0.500000  0.830675  0.330675  1
  Dy  Dy3  1  0.500000  0.669325  0.830675  1
  Dy  Dy4  1  0.500000  0.169325  0.669325  1
  Dy  Dy5  1  0.500000  0.330675  0.169325  1
  Au  Au6  1  0.000000  0.628726  0.128726  1
  Au  Au7  1  0.000000  0.871274  0.628726  1
  Au  Au8  1  0.000000  0.128726  0.371274  1
  Au  Au9  1  0.000000  0.371274  0.871274  1
