# generated using pymatgen
data_B2H4C
_symmetry_space_group_name_H-M   'P 1'
_cell_length_a   5.99924558
_cell_length_b   9.27712470
_cell_length_c   10.83623562
_cell_angle_alpha   90.00000000
_cell_angle_beta   90.00000000
_cell_angle_gamma   96.16554756
_symmetry_Int_Tables_number   1
_chemical_formula_structural   B2H4C
_chemical_formula_sum   'B16 H32 C8'
_cell_volume   599.61032431
_cell_formula_units_Z   8
loop_
 _symmetry_equiv_pos_site_id
 _symmetry_equiv_pos_as_xyz
  1  'x, y, z'
loop_
 _atom_site_type_symbol
 _atom_site_label
 _atom_site_symmetry_multiplicity
 _atom_site_fract_x
 _atom_site_fract_y
 _atom_site_fract_z
 _atom_site_occupancy
  H  H0  1  0.204750  0.664240  0.388523  1
  H  H1  1  0.295250  0.835760  0.888523  1
  H  H2  1  0.795250  0.335760  0.611477  1
  H  H3  1  0.704750  0.164240  0.111477  1
  H  H4  1  0.956871  0.537937  0.354162  1
  H  H5  1  0.543129  0.962063  0.854162  1
  H  H6  1  0.043129  0.462063  0.645838  1
  H  H7  1  0.456871  0.037937  0.145838  1
  H  H8  1  0.301113  0.879284  0.418852  1
  H  H9  1  0.198887  0.620716  0.918852  1
  H  H10  1  0.698887  0.120716  0.581148  1
  H  H11  1  0.801113  0.379284  0.081148  1
  H  H12  1  0.619964  0.532789  0.325270  1
  H  H13  1  0.880036  0.967211  0.825270  1
  H  H14  1  0.380036  0.467211  0.674730  1
  H  H15  1  0.119964  0.032789  0.174730  1
  H  H16  1  0.093542  0.660390  0.207236  1
  H  H17  1  0.406458  0.839610  0.707236  1
  H  H18  1  0.906458  0.339610  0.792764  1
  H  H19  1  0.593542  0.160390  0.292764  1
  H  H20  1  0.772037  0.884514  0.336532  1
  H  H21  1  0.727963  0.615486  0.836532  1
  H  H22  1  0.227963  0.115486  0.663468  1
  H  H23  1  0.272037  0.384514  0.163468  1
  H  H24  1  0.117508  0.184647  0.944850  1
  H  H25  1  0.382492  0.315353  0.444850  1
  H  H26  1  0.882492  0.815353  0.055150  1
  H  H27  1  0.617508  0.684647  0.555150  1
  H  H28  1  0.453989  0.355970  0.898575  1
  H  H29  1  0.046011  0.144030  0.398575  1
  H  H30  1  0.546011  0.644030  0.101425  1
  H  H31  1  0.953989  0.855970  0.601425  1
  B  B32  1  0.362755  0.288054  0.120940  1
  B  B33  1  0.137245  0.211946  0.620940  1
  B  B34  1  0.637245  0.711946  0.879060  1
  B  B35  1  0.862755  0.788054  0.379060  1
  B  B36  1  0.531231  0.170443  0.189181  1
  B  B37  1  0.968769  0.329557  0.689181  1
  B  B38  1  0.468769  0.829557  0.810819  1
  B  B39  1  0.031231  0.670443  0.310819  1
  B  B40  1  0.145242  0.789056  0.429438  1
  B  B41  1  0.354758  0.710944  0.929438  1
  B  B42  1  0.854758  0.210944  0.570562  1
  B  B43  1  0.645242  0.289056  0.070562  1
  B  B44  1  0.772276  0.599074  0.378134  1
  B  B45  1  0.727724  0.900926  0.878134  1
  B  B46  1  0.227724  0.400926  0.621866  1
  B  B47  1  0.272276  0.099074  0.121866  1
  C  C48  1  0.270826  0.176313  0.997473  1
  C  C49  1  0.229174  0.323687  0.497473  1
  C  C50  1  0.729174  0.823687  0.002527  1
  C  C51  1  0.770826  0.676313  0.502527  1
  C  C52  1  0.464462  0.274879  0.970825  1
  C  C53  1  0.035538  0.225121  0.470825  1
  C  C54  1  0.535538  0.725121  0.029175  1
  C  C55  1  0.964462  0.774879  0.529175  1
