# generated using pymatgen
data_Ba2BiSbO6
_symmetry_space_group_name_H-M   'P 1'
_cell_length_a   6.10869999
_cell_length_b   6.10849399
_cell_length_c   6.13400449
_cell_angle_alpha   60.38181794
_cell_angle_beta   60.13636962
_cell_angle_gamma   59.99888438
_symmetry_Int_Tables_number   1
_chemical_formula_structural   Ba2BiSbO6
_chemical_formula_sum   'Ba2 Bi1 Sb1 O6'
_cell_volume   162.47782378
_cell_formula_units_Z   1
loop_
 _symmetry_equiv_pos_site_id
 _symmetry_equiv_pos_as_xyz
  1  'x, y, z'
loop_
 _atom_site_type_symbol
 _atom_site_label
 _atom_site_symmetry_multiplicity
 _atom_site_fract_x
 _atom_site_fract_y
 _atom_site_fract_z
 _atom_site_occupancy
  O  O0  1  0.295580  0.239887  0.700894  1
  O  O1  1  0.236360  0.760113  0.299106  1
  O  O2  1  0.704420  0.760113  0.299106  1
  O  O3  1  0.763640  0.239887  0.700894  1
  O  O4  1  0.731421  0.323342  0.213816  1
  O  O5  1  0.268579  0.676658  0.786184  1
  Sb  Sb6  1  0.500000  0.500000  0.500000  1
  Ba  Ba7  1  0.249150  0.246855  0.254845  1
  Ba  Ba8  1  0.750850  0.753145  0.745155  1
  Bi  Bi9  1  0.000000  0.000000  0.000000  1
