# generated using pymatgen
data_K3Ce(PS4)2
_symmetry_space_group_name_H-M   'P 1'
_cell_length_a   9.20157214
_cell_length_b   9.67046169
_cell_length_c   17.32757688
_cell_angle_alpha   90.00000000
_cell_angle_beta   90.00000000
_cell_angle_gamma   89.86499249
_symmetry_Int_Tables_number   1
_chemical_formula_structural   K3Ce(PS4)2
_chemical_formula_sum   'K12 Ce4 P8 S32'
_cell_volume   1541.86330510
_cell_formula_units_Z   4
loop_
 _symmetry_equiv_pos_site_id
 _symmetry_equiv_pos_as_xyz
  1  'x, y, z'
loop_
 _atom_site_type_symbol
 _atom_site_label
 _atom_site_symmetry_multiplicity
 _atom_site_fract_x
 _atom_site_fract_y
 _atom_site_fract_z
 _atom_site_occupancy
  P  P0  1  0.475542  0.219288  0.901758  1
  P  P1  1  0.995002  0.257389  0.601799  1
  P  P2  1  0.004998  0.242611  0.101799  1
  P  P3  1  0.004998  0.742611  0.398201  1
  P  P4  1  0.995002  0.757389  0.898201  1
  P  P5  1  0.524458  0.280712  0.401758  1
  P  P6  1  0.524458  0.780712  0.098242  1
  P  P7  1  0.475542  0.719288  0.598242  1
  S  S8  1  0.213356  0.725383  0.884669  1
  S  S9  1  0.313903  0.330024  0.371797  1
  S  S10  1  0.313903  0.830024  0.128203  1
  S  S11  1  0.686097  0.669976  0.628203  1
  S  S12  1  0.048932  0.249287  0.984721  1
  S  S13  1  0.951068  0.250713  0.484721  1
  S  S14  1  0.951068  0.750713  0.015279  1
  S  S15  1  0.048932  0.749287  0.515279  1
  S  S16  1  0.876566  0.635859  0.827610  1
  S  S17  1  0.123434  0.864141  0.327610  1
  S  S18  1  0.123434  0.364141  0.172390  1
  S  S19  1  0.876566  0.135859  0.672390  1
  S  S20  1  0.540374  0.820832  0.980728  1
  S  S21  1  0.459626  0.679168  0.480728  1
  S  S22  1  0.459626  0.179168  0.019272  1
  S  S23  1  0.540374  0.320832  0.519272  1
  S  S24  1  0.334282  0.089967  0.845037  1
  S  S25  1  0.435054  0.919047  0.625819  1
  S  S26  1  0.665718  0.910033  0.154963  1
  S  S27  1  0.334282  0.589967  0.654963  1
  S  S28  1  0.665718  0.410033  0.345037  1
  S  S29  1  0.786644  0.774617  0.384669  1
  S  S30  1  0.786644  0.274617  0.115331  1
  S  S31  1  0.213356  0.225383  0.615331  1
  S  S32  1  0.962564  0.965555  0.875440  1
  S  S33  1  0.037436  0.534445  0.375440  1
  S  S34  1  0.037436  0.034445  0.124560  1
  S  S35  1  0.962564  0.465555  0.624560  1
  S  S36  1  0.435054  0.419047  0.874181  1
  S  S37  1  0.564946  0.080953  0.374181  1
  S  S38  1  0.564946  0.580953  0.125819  1
  S  S39  1  0.686097  0.169976  0.871797  1
  K  K40  1  0.121604  0.874943  0.706013  1
  K  K41  1  0.616029  0.869109  0.788293  1
  K  K42  1  0.383971  0.630891  0.288293  1
  K  K43  1  0.383971  0.130891  0.211707  1
  K  K44  1  0.730854  0.486449  0.971912  1
  K  K45  1  0.269146  0.013551  0.471912  1
  K  K46  1  0.269146  0.513551  0.028088  1
  K  K47  1  0.730854  0.986449  0.528088  1
  K  K48  1  0.616029  0.369109  0.711707  1
  K  K49  1  0.878396  0.125057  0.293987  1
  K  K50  1  0.878396  0.625057  0.206013  1
  K  K51  1  0.121604  0.374943  0.793987  1
  Ce  Ce52  1  0.224277  0.471781  0.513271  1
  Ce  Ce53  1  0.775723  0.028219  0.013271  1
  Ce  Ce54  1  0.775723  0.528219  0.486729  1
  Ce  Ce55  1  0.224277  0.971781  0.986729  1
