# generated using pymatgen
data_Tb3In5S12
_symmetry_space_group_name_H-M   'P 1'
_cell_length_a   3.92361696
_cell_length_b   11.01067770
_cell_length_c   21.44114215
_cell_angle_alpha   95.95842623
_cell_angle_beta   90.00000000
_cell_angle_gamma   90.00000000
_symmetry_Int_Tables_number   1
_chemical_formula_structural   Tb3In5S12
_chemical_formula_sum   'Tb6 In10 S24'
_cell_volume   921.28908071
_cell_formula_units_Z   2
loop_
 _symmetry_equiv_pos_site_id
 _symmetry_equiv_pos_as_xyz
  1  'x, y, z'
loop_
 _atom_site_type_symbol
 _atom_site_label
 _atom_site_symmetry_multiplicity
 _atom_site_fract_x
 _atom_site_fract_y
 _atom_site_fract_z
 _atom_site_occupancy
  S  S0  1  0.250000  0.389549  0.158269  1
  S  S1  1  0.750000  0.130351  0.036529  1
  S  S2  1  0.250000  0.869649  0.963471  1
  S  S3  1  0.750000  0.061635  0.858804  1
  S  S4  1  0.250000  0.938365  0.141196  1
  S  S5  1  0.750000  0.617879  0.060485  1
  S  S6  1  0.250000  0.382121  0.939515  1
  S  S7  1  0.750000  0.277006  0.386486  1
  S  S8  1  0.250000  0.722994  0.613514  1
  S  S9  1  0.750000  0.162018  0.210249  1
  S  S10  1  0.250000  0.035000  0.315484  1
  S  S11  1  0.750000  0.965000  0.684516  1
  S  S12  1  0.250000  0.707603  0.216250  1
  S  S13  1  0.750000  0.292397  0.783750  1
  S  S14  1  0.250000  0.515966  0.711136  1
  S  S15  1  0.750000  0.484034  0.288864  1
  S  S16  1  0.250000  0.202469  0.651649  1
  S  S17  1  0.750000  0.797531  0.348351  1
  S  S18  1  0.250000  0.578717  0.447524  1
  S  S19  1  0.750000  0.421283  0.552476  1
  S  S20  1  0.750000  0.876744  0.509288  1
  S  S21  1  0.750000  0.610451  0.841731  1
  S  S22  1  0.250000  0.123256  0.490712  1
  S  S23  1  0.250000  0.837982  0.789751  1
  In  In24  1  0.250000  0.164097  0.112479  1
  In  In25  1  0.750000  0.650780  0.527551  1
  In  In26  1  0.250000  0.349220  0.472449  1
  In  In27  1  0.750000  0.542577  0.173116  1
  In  In28  1  0.250000  0.457423  0.826884  1
  In  In29  1  0.750000  0.352673  0.667664  1
  In  In30  1  0.250000  0.647327  0.332336  1
  In  In31  1  0.750000  0.241076  0.941196  1
  In  In32  1  0.250000  0.758924  0.058804  1
  In  In33  1  0.750000  0.835903  0.887521  1
  Tb  Tb34  1  0.250000  0.284292  0.284256  1
  Tb  Tb35  1  0.750000  0.715708  0.715744  1
  Tb  Tb36  1  0.250000  0.086865  0.765076  1
  Tb  Tb37  1  0.750000  0.913135  0.234924  1
  Tb  Tb38  1  0.250000  0.971929  0.588361  1
  Tb  Tb39  1  0.750000  0.028071  0.411639  1
