# generated using pymatgen
data_Cd5P3ClO12
_symmetry_space_group_name_H-M   'P 1'
_cell_length_a   9.91032009
_cell_length_b   9.91032056
_cell_length_c   6.57472617
_cell_angle_alpha   90.00000000
_cell_angle_beta   90.00000000
_cell_angle_gamma   119.99999847
_symmetry_Int_Tables_number   1
_chemical_formula_structural   Cd5P3ClO12
_chemical_formula_sum   'Cd10 P6 Cl2 O24'
_cell_volume   559.22128387
_cell_formula_units_Z   2
loop_
 _symmetry_equiv_pos_site_id
 _symmetry_equiv_pos_as_xyz
  1  'x, y, z'
loop_
 _atom_site_type_symbol
 _atom_site_label
 _atom_site_symmetry_multiplicity
 _atom_site_fract_x
 _atom_site_fract_y
 _atom_site_fract_z
 _atom_site_occupancy
  Cd  Cd0  1  0.973701  0.724810  0.750000  1
  Cd  Cd1  1  0.333333  0.666667  0.995762  1
  Cd  Cd2  1  0.248891  0.973701  0.250000  1
  Cd  Cd3  1  0.666667  0.333333  0.495762  1
  Cd  Cd4  1  0.724810  0.751109  0.250000  1
  Cd  Cd5  1  0.333333  0.666667  0.504238  1
  Cd  Cd6  1  0.751109  0.026299  0.750000  1
  Cd  Cd7  1  0.026299  0.275190  0.250000  1
  Cd  Cd8  1  0.666667  0.333333  0.004238  1
  Cd  Cd9  1  0.275190  0.248891  0.750000  1
  P  P10  1  0.025410  0.621818  0.250000  1
  P  P11  1  0.403592  0.025410  0.750000  1
  P  P12  1  0.621818  0.596408  0.750000  1
  P  P13  1  0.974590  0.378182  0.750000  1
  P  P14  1  0.378182  0.403592  0.250000  1
  P  P15  1  0.596408  0.974590  0.250000  1
  Cl  Cl16  1  0.000000  0.000000  0.250000  1
  Cl  Cl17  1  0.000000  0.000000  0.750000  1
  O  O18  1  0.925629  0.269844  0.560571  1
  O  O19  1  0.131961  0.544089  0.250000  1
  O  O20  1  0.269844  0.344215  0.439429  1
  O  O21  1  0.730156  0.655785  0.939429  1
  O  O22  1  0.074371  0.730156  0.439429  1
  O  O23  1  0.149371  0.503921  0.750000  1
  O  O24  1  0.074371  0.730156  0.060571  1
  O  O25  1  0.344215  0.074371  0.939429  1
  O  O26  1  0.850629  0.496079  0.250000  1
  O  O27  1  0.655785  0.925629  0.060571  1
  O  O28  1  0.868039  0.455911  0.750000  1
  O  O29  1  0.503921  0.354550  0.250000  1
  O  O30  1  0.496079  0.645450  0.750000  1
  O  O31  1  0.354550  0.850629  0.750000  1
  O  O32  1  0.455911  0.587872  0.250000  1
  O  O33  1  0.655785  0.925629  0.439429  1
  O  O34  1  0.269844  0.344215  0.060571  1
  O  O35  1  0.344215  0.074371  0.560571  1
  O  O36  1  0.412128  0.868039  0.250000  1
  O  O37  1  0.730156  0.655785  0.560571  1
  O  O38  1  0.645450  0.149371  0.250000  1
  O  O39  1  0.544089  0.412128  0.750000  1
  O  O40  1  0.587872  0.131961  0.750000  1
  O  O41  1  0.925629  0.269844  0.939429  1
