# generated using pymatgen
data_ZrNiP
_symmetry_space_group_name_H-M   'P 1'
_cell_length_a   4.52654480
_cell_length_b   4.52654479
_cell_length_c   5.18569663
_cell_angle_alpha   90.00000000
_cell_angle_beta   90.00000000
_cell_angle_gamma   120.00000005
_symmetry_Int_Tables_number   1
_chemical_formula_structural   ZrNiP
_chemical_formula_sum   'Zr2 Ni2 P2'
_cell_volume   92.01770199
_cell_formula_units_Z   2
loop_
 _symmetry_equiv_pos_site_id
 _symmetry_equiv_pos_as_xyz
  1  'x, y, z'
loop_
 _atom_site_type_symbol
 _atom_site_label
 _atom_site_symmetry_multiplicity
 _atom_site_fract_x
 _atom_site_fract_y
 _atom_site_fract_z
 _atom_site_occupancy
  P  P0  1  0.666667  0.333333  0.250000  1
  P  P1  1  0.333333  0.666667  0.750000  1
  Ni  Ni2  1  0.000000  0.000000  0.500000  1
  Ni  Ni3  1  0.000000  0.000000  0.000000  1
  Zr  Zr4  1  0.333333  0.666667  0.250000  1
  Zr  Zr5  1  0.666667  0.333333  0.750000  1
