# generated using pymatgen
data_Tb(FeGe)6
_symmetry_space_group_name_H-M   'P 1'
_cell_length_a   5.13105083
_cell_length_b   8.17452651
_cell_length_c   9.76780359
_cell_angle_alpha   114.73628916
_cell_angle_beta   90.00000000
_cell_angle_gamma   90.00000000
_symmetry_Int_Tables_number   1
_chemical_formula_structural   Tb(FeGe)6
_chemical_formula_sum   'Tb2 Fe12 Ge12'
_cell_volume   372.10718869
_cell_formula_units_Z   2
loop_
 _symmetry_equiv_pos_site_id
 _symmetry_equiv_pos_as_xyz
  1  'x, y, z'
loop_
 _atom_site_type_symbol
 _atom_site_label
 _atom_site_symmetry_multiplicity
 _atom_site_fract_x
 _atom_site_fract_y
 _atom_site_fract_z
 _atom_site_occupancy
  Fe  Fe0  1  0.250000  0.375303  0.249989  1
  Fe  Fe1  1  0.750000  0.624697  0.750011  1
  Fe  Fe2  1  0.500000  0.750419  0.000000  1
  Fe  Fe3  1  0.000000  0.249581  0.000000  1
  Fe  Fe4  1  0.500000  0.249581  0.000000  1
  Fe  Fe5  1  0.000000  0.750419  0.000000  1
  Fe  Fe6  1  0.500000  0.500000  0.500000  1
  Fe  Fe7  1  0.000000  0.500000  0.500000  1
  Fe  Fe8  1  0.500000  0.000000  0.500000  1
  Fe  Fe9  1  0.000000  0.000000  0.500000  1
  Fe  Fe10  1  0.750000  0.125314  0.750011  1
  Fe  Fe11  1  0.250000  0.874686  0.249989  1
  Ge  Ge12  1  0.250000  0.528918  0.751489  1
  Ge  Ge13  1  0.750000  0.471082  0.248511  1
  Ge  Ge14  1  0.750000  0.295433  0.590865  1
  Ge  Ge15  1  0.250000  0.704567  0.409135  1
  Ge  Ge16  1  0.750000  0.788487  0.576974  1
  Ge  Ge17  1  0.250000  0.211513  0.423026  1
  Ge  Ge18  1  0.750000  0.459323  0.918646  1
  Ge  Ge19  1  0.250000  0.540677  0.081354  1
  Ge  Ge20  1  0.750000  0.957967  0.915934  1
  Ge  Ge21  1  0.250000  0.042033  0.084066  1
  Ge  Ge22  1  0.250000  0.222571  0.751489  1
  Ge  Ge23  1  0.750000  0.777429  0.248511  1
  Tb  Tb24  1  0.250000  0.872775  0.745549  1
  Tb  Tb25  1  0.750000  0.127225  0.254451  1
