# generated using pymatgen
data_CrBPbO4
_symmetry_space_group_name_H-M   'P 1'
_cell_length_a   6.07686495
_cell_length_b   7.11094683
_cell_length_c   8.25610867
_cell_angle_alpha   90.00000000
_cell_angle_beta   90.00000000
_cell_angle_gamma   90.00000000
_symmetry_Int_Tables_number   1
_chemical_formula_structural   CrBPbO4
_chemical_formula_sum   'Cr4 B4 Pb4 O16'
_cell_volume   356.76514377
_cell_formula_units_Z   4
loop_
 _symmetry_equiv_pos_site_id
 _symmetry_equiv_pos_as_xyz
  1  'x, y, z'
loop_
 _atom_site_type_symbol
 _atom_site_label
 _atom_site_symmetry_multiplicity
 _atom_site_fract_x
 _atom_site_fract_y
 _atom_site_fract_z
 _atom_site_occupancy
  B  B0  1  0.250000  0.777384  0.734359  1
  B  B1  1  0.250000  0.277385  0.765640  1
  B  B2  1  0.750000  0.722616  0.234359  1
  B  B3  1  0.750000  0.222617  0.265640  1
  O  O4  1  0.750000  0.327297  0.408942  1
  O  O5  1  0.551744  0.669649  0.304299  1
  O  O6  1  0.448255  0.830350  0.804299  1
  O  O7  1  0.948255  0.169649  0.195700  1
  O  O8  1  0.250000  0.172704  0.908943  1
  O  O9  1  0.051744  0.330351  0.695700  1
  O  O10  1  0.750000  0.827297  0.091058  1
  O  O11  1  0.250000  0.672704  0.591058  1
  O  O12  1  0.250000  0.895330  0.121109  1
  O  O13  1  0.750000  0.104670  0.878892  1
  O  O14  1  0.948255  0.669649  0.304299  1
  O  O15  1  0.750000  0.604670  0.621109  1
  O  O16  1  0.051744  0.830350  0.804299  1
  O  O17  1  0.551744  0.169649  0.195700  1
  O  O18  1  0.448255  0.330351  0.695700  1
  O  O19  1  0.250000  0.395330  0.378891  1
  Cr  Cr20  1  0.000000  0.500000  0.500000  1
  Cr  Cr21  1  0.500000  0.500000  0.500000  1
  Cr  Cr22  1  0.500000  0.000000  0.000000  1
  Cr  Cr23  1  0.000000  0.000000  0.000000  1
  Pb  Pb24  1  0.250000  0.564642  0.137533  1
  Pb  Pb25  1  0.750000  0.435357  0.862468  1
  Pb  Pb26  1  0.250000  0.064642  0.362468  1
  Pb  Pb27  1  0.750000  0.935357  0.637532  1
