# generated using pymatgen
data_Zn2PHO5
_symmetry_space_group_name_H-M   'P 1'
_cell_length_a   8.30522139
_cell_length_b   8.32451031
_cell_length_c   6.07333019
_cell_angle_alpha   90.00011162
_cell_angle_beta   90.00003736
_cell_angle_gamma   90.00018764
_symmetry_Int_Tables_number   1
_chemical_formula_structural   Zn2PHO5
_chemical_formula_sum   'Zn8 P4 H4 O20'
_cell_volume   419.89122862
_cell_formula_units_Z   4
loop_
 _symmetry_equiv_pos_site_id
 _symmetry_equiv_pos_as_xyz
  1  'x, y, z'
loop_
 _atom_site_type_symbol
 _atom_site_label
 _atom_site_symmetry_multiplicity
 _atom_site_fract_x
 _atom_site_fract_y
 _atom_site_fract_z
 _atom_site_occupancy
  Zn  Zn0  1  0.499999  0.500000  0.999798  1
  Zn  Zn1  1  0.000001  -0.000000  0.000202  1
  Zn  Zn2  1  0.499999  0.500001  0.498680  1
  Zn  Zn3  1  0.000001  0.000000  0.501320  1
  Zn  Zn4  1  0.135588  0.637793  0.750155  1
  Zn  Zn5  1  0.864413  0.362207  0.750156  1
  Zn  Zn6  1  0.635587  0.862208  0.249845  1
  Zn  Zn7  1  0.364412  0.137792  0.249844  1
  P  P8  1  0.250819  0.761351  0.250791  1
  P  P9  1  0.749182  0.238648  0.250791  1
  P  P10  1  0.750819  0.738650  0.749207  1
  P  P11  1  0.249181  0.261351  0.749209  1
  H  H12  1  0.217766  0.929445  0.750648  1
  H  H13  1  0.782235  0.070555  0.750648  1
  H  H14  1  0.717767  0.570556  0.249351  1
  H  H15  1  0.282233  0.429444  0.249352  1
  O  O16  1  0.265734  0.652646  0.042624  1
  O  O17  1  0.734265  0.347353  0.042622  1
  O  O18  1  0.765735  0.847353  0.957379  1
  O  O19  1  0.234264  0.152647  0.957377  1
  O  O20  1  0.112329  0.877738  0.750895  1
  O  O21  1  0.887670  0.122261  0.750894  1
  O  O22  1  0.612330  0.622261  0.249105  1
  O  O23  1  0.387671  0.377736  0.249105  1
  O  O24  1  0.386723  0.890924  0.251670  1
  O  O25  1  0.613277  0.109077  0.251671  1
  O  O26  1  0.886722  0.609076  0.748331  1
  O  O27  1  0.113277  0.390924  0.748329  1
  O  O28  1  0.086711  0.854494  0.251151  1
  O  O29  1  0.913289  0.145507  0.251152  1
  O  O30  1  0.586713  0.645506  0.748850  1
  O  O31  1  0.413287  0.354495  0.748849  1
  O  O32  1  0.265892  0.651746  0.457948  1
  O  O33  1  0.734108  0.348255  0.457949  1
  O  O34  1  0.765893  0.848254  0.542050  1
  O  O35  1  0.234106  0.151745  0.542050  1
