# generated using pymatgen
data_Rb2CoPb(NO2)6
_symmetry_space_group_name_H-M   'P 1'
_cell_length_a   7.61346096
_cell_length_b   7.61346096
_cell_length_c   7.61346095
_cell_angle_alpha   59.99999999
_cell_angle_beta   59.99999999
_cell_angle_gamma   59.99999997
_symmetry_Int_Tables_number   1
_chemical_formula_structural   Rb2CoPb(NO2)6
_chemical_formula_sum   'Rb2 Co1 Pb1 N6 O12'
_cell_volume   312.05516600
_cell_formula_units_Z   1
loop_
 _symmetry_equiv_pos_site_id
 _symmetry_equiv_pos_as_xyz
  1  'x, y, z'
loop_
 _atom_site_type_symbol
 _atom_site_label
 _atom_site_symmetry_multiplicity
 _atom_site_fract_x
 _atom_site_fract_y
 _atom_site_fract_z
 _atom_site_occupancy
  N  N0  1  0.191540  0.808461  0.808461  1
  N  N1  1  0.808461  0.808461  0.191539  1
  N  N2  1  0.808460  0.191540  0.808461  1
  N  N3  1  0.191540  0.808461  0.191539  1
  N  N4  1  0.191540  0.191540  0.808460  1
  N  N5  1  0.808460  0.191540  0.191540  1
  O  O6  1  0.152379  0.352339  0.647660  1
  O  O7  1  0.847622  0.647661  0.352339  1
  O  O8  1  0.352340  0.647661  0.152378  1
  O  O9  1  0.647661  0.847622  0.152378  1
  O  O10  1  0.352339  0.152379  0.847622  1
  O  O11  1  0.352339  0.847622  0.647661  1
  O  O12  1  0.152378  0.847622  0.352339  1
  O  O13  1  0.647661  0.352339  0.847621  1
  O  O14  1  0.152378  0.647661  0.847621  1
  O  O15  1  0.647661  0.152379  0.352338  1
  O  O16  1  0.847621  0.152379  0.647660  1
  O  O17  1  0.847621  0.352339  0.152378  1
  Co  Co18  1  0.000000  0.000000  0.000000  1
  Rb  Rb19  1  0.750001  0.749999  0.750000  1
  Rb  Rb20  1  0.250001  0.250000  0.250000  1
  Pb  Pb21  1  0.500000  0.500000  0.500000  1
