# generated using pymatgen
data_Ce3Sn7
_symmetry_space_group_name_H-M   'P 1'
_cell_length_a   4.58021779
_cell_length_b   4.64450830
_cell_length_c   12.87771109
_cell_angle_alpha   90.00000000
_cell_angle_beta   100.24368516
_cell_angle_gamma   90.00000000
_symmetry_Int_Tables_number   1
_chemical_formula_structural   Ce3Sn7
_chemical_formula_sum   'Ce3 Sn7'
_cell_volume   269.57912750
_cell_formula_units_Z   1
loop_
 _symmetry_equiv_pos_site_id
 _symmetry_equiv_pos_as_xyz
  1  'x, y, z'
loop_
 _atom_site_type_symbol
 _atom_site_label
 _atom_site_symmetry_multiplicity
 _atom_site_fract_x
 _atom_site_fract_y
 _atom_site_fract_z
 _atom_site_occupancy
  Sn  Sn0  1  0.291571  0.500000  0.583141  1
  Sn  Sn1  1  0.708429  0.500000  0.416859  1
  Sn  Sn2  1  0.095978  0.500000  0.191956  1
  Sn  Sn3  1  0.500000  0.500000  0.000000  1
  Sn  Sn4  1  0.595050  0.000000  0.190099  1
  Sn  Sn5  1  0.404950  0.000000  0.809901  1
  Sn  Sn6  1  0.904022  0.500000  0.808044  1
  Ce  Ce7  1  0.185263  0.000000  0.370526  1
  Ce  Ce8  1  0.814737  0.000000  0.629474  1
  Ce  Ce9  1  0.000000  0.000000  0.000000  1
