# generated using pymatgen
data_NiPb2(NO2)6
_symmetry_space_group_name_H-M   'P 1'
_cell_length_a   7.21030729
_cell_length_b   7.21030729
_cell_length_c   7.21030729
_cell_angle_alpha   60.00000004
_cell_angle_beta   60.00000003
_cell_angle_gamma   60.00000000
_symmetry_Int_Tables_number   1
_chemical_formula_structural   NiPb2(NO2)6
_chemical_formula_sum   'Ni1 Pb2 N6 O12'
_cell_volume   265.06130013
_cell_formula_units_Z   1
loop_
 _symmetry_equiv_pos_site_id
 _symmetry_equiv_pos_as_xyz
  1  'x, y, z'
loop_
 _atom_site_type_symbol
 _atom_site_label
 _atom_site_symmetry_multiplicity
 _atom_site_fract_x
 _atom_site_fract_y
 _atom_site_fract_z
 _atom_site_occupancy
  N  N0  1  0.187280  0.812720  0.812720  1
  N  N1  1  0.187280  0.812720  0.187280  1
  N  N2  1  0.812721  0.187279  0.812720  1
  N  N3  1  0.812721  0.187279  0.187280  1
  N  N4  1  0.812719  0.812720  0.187280  1
  N  N5  1  0.187280  0.187279  0.812720  1
  O  O6  1  0.662424  1.000000  0.000000  1
  O  O7  1  0.999999  1.000000  0.662423  1
  O  O8  1  0.662423  0.000000  0.337576  1
  O  O9  1  0.337577  0.000000  1.000000  1
  O  O10  1  0.000001  0.662423  0.000001  1
  O  O11  1  0.337576  0.662423  0.000001  1
  O  O12  1  0.000001  0.337577  0.662424  1
  O  O13  1  0.000001  0.662423  0.337576  1
  O  O14  1  0.000001  0.337577  0.999999  1
  O  O15  1  0.337576  1.000000  0.662424  1
  O  O16  1  0.662424  0.337577  1.000000  1
  O  O17  1  0.000000  0.000000  0.337576  1
  Ni  Ni18  1  0.000000  0.000000  0.000000  1
  Pb  Pb19  1  0.750000  0.750001  0.750000  1
  Pb  Pb20  1  0.249999  0.250001  0.250000  1
