# generated using pymatgen
data_Zn(IO3)2
_symmetry_space_group_name_H-M   'P 1'
_cell_length_a   5.25951892
_cell_length_b   10.98781347
_cell_length_c   11.06926390
_cell_angle_alpha   119.40291385
_cell_angle_beta   90.00000000
_cell_angle_gamma   90.00000000
_symmetry_Int_Tables_number   1
_chemical_formula_structural   Zn(IO3)2
_chemical_formula_sum   'Zn4 I8 O24'
_cell_volume   557.29910737
_cell_formula_units_Z   4
loop_
 _symmetry_equiv_pos_site_id
 _symmetry_equiv_pos_as_xyz
  1  'x, y, z'
loop_
 _atom_site_type_symbol
 _atom_site_label
 _atom_site_symmetry_multiplicity
 _atom_site_fract_x
 _atom_site_fract_y
 _atom_site_fract_z
 _atom_site_occupancy
  Zn  Zn0  1  0.276776  0.261803  0.507341  1
  Zn  Zn1  1  0.281603  0.760606  0.006516  1
  Zn  Zn2  1  0.776776  0.738197  0.492659  1
  Zn  Zn3  1  0.781603  0.239394  0.993484  1
  I  I4  1  0.705497  0.084528  0.652105  1
  I  I5  1  0.194248  0.414288  0.313904  1
  I  I6  1  0.212902  0.415753  0.847702  1
  I  I7  1  0.205497  0.915472  0.347895  1
  I  I8  1  0.712902  0.584247  0.152298  1
  I  I9  1  0.690605  0.084985  0.184779  1
  I  I10  1  0.190605  0.915015  0.815221  1
  I  I11  1  0.694248  0.585712  0.686096  1
  O  O12  1  0.061959  0.583260  0.887273  1
  O  O13  1  0.011030  0.772537  0.673090  1
  O  O14  1  0.572562  0.104710  0.038960  1
  O  O15  1  0.508331  0.618425  0.036979  1
  O  O16  1  0.514709  0.725887  0.830181  1
  O  O17  1  0.014709  0.274113  0.169819  1
  O  O18  1  0.561959  0.416740  0.112727  1
  O  O19  1  0.997578  0.065915  0.838492  1
  O  O20  1  0.487697  0.116018  0.539285  1
  O  O21  1  0.511030  0.227463  0.326910  1
  O  O22  1  0.999058  0.565072  0.340673  1
  O  O23  1  0.987697  0.883982  0.460715  1
  O  O24  1  0.570500  0.609272  0.543486  1
  O  O25  1  0.550842  0.197767  0.820301  1
  O  O26  1  0.499058  0.434928  0.659327  1
  O  O27  1  0.497578  0.934085  0.161508  1
  O  O28  1  0.072562  0.895290  0.961040  1
  O  O29  1  0.070500  0.390728  0.456514  1
  O  O30  1  0.045789  0.305427  0.682659  1
  O  O31  1  0.008331  0.381575  0.963021  1
  O  O32  1  0.545789  0.694573  0.317341  1
  O  O33  1  0.559315  0.917761  0.618144  1
  O  O34  1  0.059315  0.082239  0.381856  1
  O  O35  1  0.050842  0.802233  0.179699  1
