# generated using pymatgen
data_Fe2GeS4
_symmetry_space_group_name_H-M   'P 1'
_cell_length_a   5.59987046
_cell_length_b   6.77453177
_cell_length_c   11.69167110
_cell_angle_alpha   90.00000000
_cell_angle_beta   90.00000000
_cell_angle_gamma   90.00000000
_symmetry_Int_Tables_number   1
_chemical_formula_structural   Fe2GeS4
_chemical_formula_sum   'Fe8 Ge4 S16'
_cell_volume   443.54108465
_cell_formula_units_Z   4
loop_
 _symmetry_equiv_pos_site_id
 _symmetry_equiv_pos_as_xyz
  1  'x, y, z'
loop_
 _atom_site_type_symbol
 _atom_site_label
 _atom_site_symmetry_multiplicity
 _atom_site_fract_x
 _atom_site_fract_y
 _atom_site_fract_z
 _atom_site_occupancy
  S  S0  1  0.754339  0.750000  0.923923  1
  S  S1  1  0.254339  0.250000  0.576077  1
  S  S2  1  0.245661  0.250000  0.076077  1
  S  S3  1  0.745661  0.750000  0.423923  1
  S  S4  1  0.152981  0.750000  0.094762  1
  S  S5  1  0.652981  0.250000  0.405238  1
  S  S6  1  0.847019  0.250000  0.905238  1
  S  S7  1  0.347019  0.750000  0.594762  1
  S  S8  1  0.240898  0.509300  0.832128  1
  S  S9  1  0.740898  0.490700  0.667872  1
  S  S10  1  0.759102  0.009300  0.167872  1
  S  S11  1  0.259102  0.990700  0.332128  1
  S  S12  1  0.740898  0.009300  0.667872  1
  S  S13  1  0.240898  0.990700  0.832128  1
  S  S14  1  0.259102  0.509300  0.332128  1
  S  S15  1  0.759102  0.490700  0.167872  1
  Fe  Fe16  1  0.000000  0.000000  0.000000  1
  Fe  Fe17  1  0.500000  0.000000  0.500000  1
  Fe  Fe18  1  0.000000  0.500000  0.000000  1
  Fe  Fe19  1  0.500000  0.500000  0.500000  1
  Fe  Fe20  1  -0.000932  0.750000  0.269344  1
  Fe  Fe21  1  0.499068  0.250000  0.230656  1
  Fe  Fe22  1  1.000932  0.250000  0.730656  1
  Fe  Fe23  1  0.500932  0.750000  0.769344  1
  Ge  Ge24  1  0.941477  0.750000  0.593051  1
  Ge  Ge25  1  0.441477  0.250000  0.906949  1
  Ge  Ge26  1  0.058523  0.250000  0.406949  1
  Ge  Ge27  1  0.558523  0.750000  0.093051  1
