# generated using pymatgen
data_Si2Ni3
_symmetry_space_group_name_H-M   'P 1'
_cell_length_a   6.91581984
_cell_length_b   8.15712787
_cell_length_c   8.15712787
_cell_angle_alpha   97.00922328
_cell_angle_beta   90.00000000
_cell_angle_gamma   90.00000000
_symmetry_Int_Tables_number   1
_chemical_formula_structural   Si2Ni3
_chemical_formula_sum   'Si16 Ni24'
_cell_volume   456.73083408
_cell_formula_units_Z   8
loop_
 _symmetry_equiv_pos_site_id
 _symmetry_equiv_pos_as_xyz
  1  'x, y, z'
loop_
 _atom_site_type_symbol
 _atom_site_label
 _atom_site_symmetry_multiplicity
 _atom_site_fract_x
 _atom_site_fract_y
 _atom_site_fract_z
 _atom_site_occupancy
  Si  Si0  1  0.716589  0.592468  0.592468  1
  Si  Si1  1  0.216589  0.407532  0.407532  1
  Si  Si2  1  0.215874  0.843916  0.843916  1
  Si  Si3  1  0.715874  0.156084  0.156084  1
  Si  Si4  1  0.924561  0.190785  0.493668  1
  Si  Si5  1  0.424561  0.809215  0.506332  1
  Si  Si6  1  0.424561  0.506332  0.809215  1
  Si  Si7  1  0.924561  0.493668  0.190785  1
  Si  Si8  1  0.507747  0.189717  0.493600  1
  Si  Si9  1  0.007747  0.810283  0.506400  1
  Si  Si10  1  0.007747  0.506400  0.810283  1
  Si  Si11  1  0.507747  0.493600  0.189717  1
  Si  Si12  1  0.215735  0.937556  0.176144  1
  Si  Si13  1  0.715735  0.062444  0.823856  1
  Si  Si14  1  0.715735  0.823856  0.062444  1
  Si  Si15  1  0.215735  0.176144  0.937556  1
  Ni  Ni16  1  0.965881  1.000001  1.000001  1
  Ni  Ni17  1  0.465881  -0.000002  -0.000002  1
  Ni  Ni18  1  0.027557  0.234826  0.234826  1
  Ni  Ni19  1  0.527557  0.765174  0.765174  1
  Ni  Ni20  1  0.404555  0.234618  0.234618  1
  Ni  Ni21  1  0.904555  0.765382  0.765382  1
  Ni  Ni22  1  0.715225  0.383227  0.383227  1
  Ni  Ni23  1  0.215225  0.616773  0.616773  1
  Ni  Ni24  1  0.216144  0.314917  0.676426  1
  Ni  Ni25  1  0.716144  0.685083  0.323574  1
  Ni  Ni26  1  0.716144  0.323574  0.685083  1
  Ni  Ni27  1  0.216144  0.676426  0.314917  1
  Ni  Ni28  1  0.215774  0.050037  0.443460  1
  Ni  Ni29  1  0.715774  0.949963  0.556540  1
  Ni  Ni30  1  0.715774  0.556540  0.949963  1
  Ni  Ni31  1  0.215774  0.443460  0.050037  1
  Ni  Ni32  1  0.904971  0.946914  0.291078  1
  Ni  Ni33  1  0.404971  0.053086  0.708922  1
  Ni  Ni34  1  0.404971  0.708922  0.053086  1
  Ni  Ni35  1  0.904971  0.291078  0.946914  1
  Ni  Ni36  1  0.526228  0.946097  0.291005  1
  Ni  Ni37  1  0.026228  0.053903  0.708995  1
  Ni  Ni38  1  0.026228  0.708995  0.053903  1
  Ni  Ni39  1  0.526228  0.291005  0.946097  1
