# generated using pymatgen
data_Dy3(CuSn)4
_symmetry_space_group_name_H-M   'P 1'
_cell_length_a   4.46612201
_cell_length_b   6.95732350
_cell_length_c   8.44231051
_cell_angle_alpha   114.32666551
_cell_angle_beta   105.33773653
_cell_angle_gamma   90.00000002
_symmetry_Int_Tables_number   1
_chemical_formula_structural   Dy3(CuSn)4
_chemical_formula_sum   'Dy3 Cu4 Sn4'
_cell_volume   228.73815315
_cell_formula_units_Z   1
loop_
 _symmetry_equiv_pos_site_id
 _symmetry_equiv_pos_as_xyz
  1  'x, y, z'
loop_
 _atom_site_type_symbol
 _atom_site_label
 _atom_site_symmetry_multiplicity
 _atom_site_fract_x
 _atom_site_fract_y
 _atom_site_fract_z
 _atom_site_occupancy
  Cu  Cu0  1  0.329400  0.017613  0.658799  1
  Cu  Cu1  1  0.670600  0.982387  0.341201  1
  Cu  Cu2  1  0.329374  0.641197  0.658749  1
  Cu  Cu3  1  0.670626  0.358803  0.341251  1
  Sn  Sn4  1  0.216149  0.216183  0.432298  1
  Sn  Sn5  1  0.499991  0.702943  0.999982  1
  Sn  Sn6  1  0.500009  0.297057  0.000018  1
  Sn  Sn7  1  0.783851  0.783817  0.567702  1
  Dy  Dy8  1  0.000000  0.000000  0.000000  1
  Dy  Dy9  1  0.868748  0.368747  0.737496  1
  Dy  Dy10  1  0.131252  0.631253  0.262504  1
