# generated using pymatgen
data_K3H(SeO4)2
_symmetry_space_group_name_H-M   'P 1'
_cell_length_a   6.02612674
_cell_length_b   8.25216330
_cell_length_c   10.34552347
_cell_angle_alpha   102.56906565
_cell_angle_beta   90.00000000
_cell_angle_gamma   111.41521778
_symmetry_Int_Tables_number   1
_chemical_formula_structural   K3H(SeO4)2
_chemical_formula_sum   'K6 H2 Se4 O16'
_cell_volume   465.67972337
_cell_formula_units_Z   2
loop_
 _symmetry_equiv_pos_site_id
 _symmetry_equiv_pos_as_xyz
  1  'x, y, z'
loop_
 _atom_site_type_symbol
 _atom_site_label
 _atom_site_symmetry_multiplicity
 _atom_site_fract_x
 _atom_site_fract_y
 _atom_site_fract_z
 _atom_site_occupancy
  H  H0  1  0.000000  0.000000  0.000000  1
  H  H1  1  0.000000  0.000000  0.500000  1
  O  O2  1  0.665573  0.254367  0.881392  1
  O  O3  1  0.411205  0.745633  0.618608  1
  O  O4  1  0.334427  0.745633  0.118608  1
  O  O5  1  0.588795  0.254367  0.381392  1
  O  O6  1  0.904409  0.309982  0.125275  1
  O  O7  1  0.594426  0.690018  0.374725  1
  O  O8  1  0.095591  0.690018  0.874725  1
  O  O9  1  0.405574  0.309982  0.625275  1
  O  O10  1  0.167793  0.317228  0.399673  1
  O  O11  1  0.850565  0.682772  0.100327  1
  O  O12  1  0.832207  0.682772  0.600327  1
  O  O13  1  0.149435  0.317228  0.899673  1
  O  O14  1  0.175104  0.005481  0.438475  1
  O  O15  1  0.169623  0.994519  0.061525  1
  O  O16  1  0.824896  0.994519  0.561525  1
  O  O17  1  0.830377  0.005481  0.938475  1
  K  K18  1  0.757195  0.000000  0.250000  1
  K  K19  1  0.242805  0.000000  0.750000  1
  K  K20  1  0.928308  0.389341  0.652036  1
  K  K21  1  0.538966  0.610659  0.847964  1
  K  K22  1  0.461034  0.389341  0.152036  1
  K  K23  1  0.071692  0.610659  0.347964  1
  Se  Se24  1  0.344912  0.232544  0.461339  1
  Se  Se25  1  0.112368  0.767456  0.038661  1
  Se  Se26  1  0.655088  0.767456  0.538661  1
  Se  Se27  1  0.887632  0.232544  0.961339  1
