# generated using pymatgen
data_AsCF3
_symmetry_space_group_name_H-M   'P 1'
_cell_length_a   6.48727680
_cell_length_b   10.71354777
_cell_length_c   10.71354777
_cell_angle_alpha   90.00000000
_cell_angle_beta   90.00000000
_cell_angle_gamma   90.00000000
_symmetry_Int_Tables_number   1
_chemical_formula_structural   AsCF3
_chemical_formula_sum   'As8 C8 F24'
_cell_volume   744.61031759
_cell_formula_units_Z   8
loop_
 _symmetry_equiv_pos_site_id
 _symmetry_equiv_pos_as_xyz
  1  'x, y, z'
loop_
 _atom_site_type_symbol
 _atom_site_label
 _atom_site_symmetry_multiplicity
 _atom_site_fract_x
 _atom_site_fract_y
 _atom_site_fract_z
 _atom_site_occupancy
  C  C0  1  0.051071  0.510996  0.750000  1
  C  C1  1  0.051071  0.989004  0.750000  1
  C  C2  1  0.551071  0.750000  0.989004  1
  C  C3  1  0.551071  0.750000  0.510996  1
  C  C4  1  0.448929  0.250000  0.010996  1
  C  C5  1  0.948929  0.489004  0.250000  1
  C  C6  1  0.948929  0.010996  0.250000  1
  C  C7  1  0.448929  0.250000  0.489004  1
  F  F8  1  0.548694  0.647168  0.586621  1
  F  F9  1  0.048694  0.913379  0.647168  1
  F  F10  1  0.048694  0.586621  0.852832  1
  F  F11  1  0.548694  0.852832  0.913379  1
  F  F12  1  0.451306  0.147168  0.413379  1
  F  F13  1  0.451306  0.352832  0.086621  1
  F  F14  1  0.951306  0.086621  0.147168  1
  F  F15  1  0.951306  0.413379  0.352832  1
  F  F16  1  0.630060  0.250000  0.553973  1
  F  F17  1  0.130060  0.946027  0.250000  1
  F  F18  1  0.130060  0.553973  0.250000  1
  F  F19  1  0.630060  0.250000  0.946027  1
  F  F20  1  0.369940  0.750000  0.446027  1
  F  F21  1  0.369940  0.750000  0.053973  1
  F  F22  1  0.869940  0.053973  0.750000  1
  F  F23  1  0.869940  0.446027  0.750000  1
  F  F24  1  0.451306  0.352832  0.413379  1
  F  F25  1  0.951306  0.086621  0.352832  1
  F  F26  1  0.951306  0.413379  0.147168  1
  F  F27  1  0.451306  0.147168  0.086621  1
  F  F28  1  0.548694  0.852832  0.586621  1
  F  F29  1  0.548694  0.647168  0.913379  1
  F  F30  1  0.048694  0.913379  0.852832  1
  F  F31  1  0.048694  0.586621  0.647168  1
  As  As32  1  0.315454  0.405478  0.750000  1
  As  As33  1  0.315454  0.094522  0.750000  1
  As  As34  1  0.815454  0.750000  0.094522  1
  As  As35  1  0.815454  0.750000  0.405478  1
  As  As36  1  0.184546  0.250000  0.905478  1
  As  As37  1  0.684546  0.594522  0.250000  1
  As  As38  1  0.684546  0.905478  0.250000  1
  As  As39  1  0.184546  0.250000  0.594522  1
