# generated using pymatgen
data_LaSe2
_symmetry_space_group_name_H-M   'P 1'
_cell_length_a   4.47411072
_cell_length_b   9.36086538
_cell_length_c   8.48293085
_cell_angle_alpha   90.00000000
_cell_angle_beta   90.00000000
_cell_angle_gamma   107.02851721
_symmetry_Int_Tables_number   1
_chemical_formula_structural   LaSe2
_chemical_formula_sum   'La4 Se8'
_cell_volume   339.70256407
_cell_formula_units_Z   4
loop_
 _symmetry_equiv_pos_site_id
 _symmetry_equiv_pos_as_xyz
  1  'x, y, z'
loop_
 _atom_site_type_symbol
 _atom_site_label
 _atom_site_symmetry_multiplicity
 _atom_site_fract_x
 _atom_site_fract_y
 _atom_site_fract_z
 _atom_site_occupancy
  La  La0  1  0.380876  0.608641  0.722517  1
  La  La1  1  0.380876  0.108641  0.777483  1
  La  La2  1  0.619124  0.891359  0.222517  1
  La  La3  1  0.619124  0.391359  0.277483  1
  Se  Se4  1  0.721864  0.898881  0.871109  1
  Se  Se5  1  0.278136  0.101119  0.128891  1
  Se  Se6  1  0.721864  0.398881  0.628891  1
  Se  Se7  1  0.930283  0.119524  0.510626  1
  Se  Se8  1  0.069717  0.380476  0.010626  1
  Se  Se9  1  0.930283  0.619524  0.989374  1
  Se  Se10  1  0.069717  0.880476  0.489374  1
  Se  Se11  1  0.278136  0.601119  0.371109  1
