# generated using pymatgen
data_RbAg3S2
_symmetry_space_group_name_H-M   'P 1'
_cell_length_a   4.35272763
_cell_length_b   10.17840539
_cell_length_c   9.96128489
_cell_angle_alpha   124.17319996
_cell_angle_beta   90.00000000
_cell_angle_gamma   102.34640745
_symmetry_Int_Tables_number   1
_chemical_formula_structural   RbAg3S2
_chemical_formula_sum   'Rb2 Ag6 S4'
_cell_volume   352.72103730
_cell_formula_units_Z   2
loop_
 _symmetry_equiv_pos_site_id
 _symmetry_equiv_pos_as_xyz
  1  'x, y, z'
loop_
 _atom_site_type_symbol
 _atom_site_label
 _atom_site_symmetry_multiplicity
 _atom_site_fract_x
 _atom_site_fract_y
 _atom_site_fract_z
 _atom_site_occupancy
  S  S0  1  0.526787  0.053573  0.778496  1
  S  S1  1  0.204470  0.408939  0.657482  1
  S  S2  1  0.795530  0.591061  0.342518  1
  S  S3  1  0.473213  0.946427  0.221504  1
  Rb  Rb4  1  0.853680  0.707359  0.896210  1
  Rb  Rb5  1  0.146320  0.292641  0.103790  1
  Ag  Ag6  1  0.091117  0.182235  0.690850  1
  Ag  Ag7  1  0.946502  0.893004  0.665662  1
  Ag  Ag8  1  0.908883  0.817765  0.309150  1
  Ag  Ag9  1  0.635820  0.271641  0.545337  1
  Ag  Ag10  1  0.364180  0.728359  0.454663  1
  Ag  Ag11  1  0.053498  0.106996  0.334338  1
