# generated using pymatgen
data_La3Si2S8I
_symmetry_space_group_name_H-M   'P 1'
_cell_length_a   7.97731732
_cell_length_b   9.03290234
_cell_length_c   10.98612312
_cell_angle_alpha   97.11938245
_cell_angle_beta   90.00000000
_cell_angle_gamma   116.20409609
_symmetry_Int_Tables_number   1
_chemical_formula_structural   La3Si2S8I
_chemical_formula_sum   'La6 Si4 S16 I2'
_cell_volume   703.47307808
_cell_formula_units_Z   2
loop_
 _symmetry_equiv_pos_site_id
 _symmetry_equiv_pos_as_xyz
  1  'x, y, z'
loop_
 _atom_site_type_symbol
 _atom_site_label
 _atom_site_symmetry_multiplicity
 _atom_site_fract_x
 _atom_site_fract_y
 _atom_site_fract_z
 _atom_site_occupancy
  La  La0  1  0.594107  0.000000  0.250000  1
  La  La1  1  0.923170  0.604621  0.319702  1
  La  La2  1  0.318549  0.395379  0.180298  1
  La  La3  1  0.405893  0.000000  0.750000  1
  La  La4  1  0.076830  0.395379  0.680298  1
  La  La5  1  0.681451  0.604621  0.819702  1
  Si  Si6  1  0.696790  0.319576  0.029955  1
  Si  Si7  1  0.303210  0.680424  0.970045  1
  Si  Si8  1  0.622785  0.319576  0.529955  1
  Si  Si9  1  0.377215  0.680424  0.470045  1
  S  S10  1  0.597476  0.710028  0.352384  1
  S  S11  1  0.720696  0.137959  0.543183  1
  S  S12  1  0.750602  0.300515  0.840559  1
  S  S13  1  0.582737  0.862041  0.956817  1
  S  S14  1  0.849485  0.560999  0.585804  1
  S  S15  1  0.450087  0.699485  0.659441  1
  S  S16  1  0.112552  0.710028  0.852384  1
  S  S17  1  0.549913  0.300515  0.340559  1
  S  S18  1  0.887448  0.289972  0.147616  1
  S  S19  1  0.249398  0.699485  0.159441  1
  S  S20  1  0.288486  0.439001  0.914196  1
  S  S21  1  0.711514  0.560999  0.085804  1
  S  S22  1  0.279304  0.862041  0.456817  1
  S  S23  1  0.417263  0.137959  0.043183  1
  S  S24  1  0.150515  0.439001  0.414196  1
  S  S25  1  0.402524  0.289972  0.647616  1
  I  I26  1  0.013898  0.000000  0.250000  1
  I  I27  1  0.986102  0.000000  0.750000  1
