# generated using pymatgen
data_SbCl2F3
_symmetry_space_group_name_H-M   'P 1'
_cell_length_a   10.82246371
_cell_length_b   11.93147981
_cell_length_c   13.77465068
_cell_angle_alpha   93.90247540
_cell_angle_beta   90.00000000
_cell_angle_gamma   90.00000000
_symmetry_Int_Tables_number   1
_chemical_formula_structural   SbCl2F3
_chemical_formula_sum   'Sb12 Cl24 F36'
_cell_volume   1774.56900693
_cell_formula_units_Z   12
loop_
 _symmetry_equiv_pos_site_id
 _symmetry_equiv_pos_as_xyz
  1  'x, y, z'
loop_
 _atom_site_type_symbol
 _atom_site_label
 _atom_site_symmetry_multiplicity
 _atom_site_fract_x
 _atom_site_fract_y
 _atom_site_fract_z
 _atom_site_occupancy
  F  F0  1  0.700853  0.280873  0.554296  1
  F  F1  1  0.200853  0.219127  0.945704  1
  F  F2  1  0.299147  0.719127  0.445705  1
  F  F3  1  0.799147  0.780873  0.054295  1
  F  F4  1  0.660682  0.120192  0.407281  1
  F  F5  1  0.160682  0.379808  0.092719  1
  F  F6  1  0.339318  0.879808  0.592719  1
  F  F7  1  0.839318  0.620192  0.907281  1
  F  F8  1  0.521391  0.119951  0.566884  1
  F  F9  1  0.021391  0.380049  0.933116  1
  F  F10  1  0.478609  0.880049  0.433116  1
  F  F11  1  0.978609  0.619951  0.066884  1
  F  F12  1  0.914985  0.326632  0.112119  1
  F  F13  1  0.414985  0.173368  0.387881  1
  F  F14  1  0.085015  0.673368  0.887881  1
  F  F15  1  0.585015  0.826632  0.612119  1
  F  F16  1  0.602027  0.330004  0.378605  1
  F  F17  1  0.628302  0.948685  0.050288  1
  F  F18  1  0.397973  0.669996  0.621395  1
  F  F19  1  0.897973  0.830004  0.878605  1
  F  F20  1  0.928420  0.241666  0.477646  1
  F  F21  1  0.428420  0.258334  0.022354  1
  F  F22  1  0.071580  0.758334  0.522354  1
  F  F23  1  0.571580  0.741666  0.977646  1
  F  F24  1  0.872733  0.154634  0.644354  1
  F  F25  1  0.372733  0.345366  0.855646  1
  F  F26  1  0.127267  0.845366  0.355646  1
  F  F27  1  0.627267  0.654634  0.144354  1
  F  F28  1  0.551423  0.177286  0.857938  1
  F  F29  1  0.051423  0.322714  0.642062  1
  F  F30  1  0.448577  0.822714  0.142062  1
  F  F31  1  0.948577  0.677286  0.357938  1
  F  F32  1  0.871698  0.448685  0.550288  1
  F  F33  1  0.371698  0.051315  0.949712  1
  F  F34  1  0.128302  0.551315  0.449712  1
  F  F35  1  0.102027  0.169996  0.121395  1
  Cl  Cl36  1  0.933317  0.137664  0.945124  1
  Cl  Cl37  1  0.433317  0.362336  0.554876  1
  Cl  Cl38  1  0.066683  0.862336  0.054876  1
  Cl  Cl39  1  0.566683  0.637664  0.445124  1
  Cl  Cl40  1  0.799630  0.376525  0.750512  1
  Cl  Cl41  1  0.299630  0.123475  0.749488  1
  Cl  Cl42  1  0.200370  0.623475  0.249488  1
  Cl  Cl43  1  0.700370  0.876525  0.250512  1
  Cl  Cl44  1  0.955385  0.056037  0.289131  1
  Cl  Cl45  1  0.455385  0.443963  0.210869  1
  Cl  Cl46  1  0.044615  0.943963  0.710869  1
  Cl  Cl47  1  0.544615  0.556037  0.789131  1
  Cl  Cl48  1  0.661364  0.197135  0.169969  1
  Cl  Cl49  1  0.161364  0.302865  0.330031  1
  Cl  Cl50  1  0.338636  0.802865  0.830031  1
  Cl  Cl51  1  0.838636  0.697135  0.669969  1
  Cl  Cl52  1  0.679768  0.430217  0.011994  1
  Cl  Cl53  1  0.179768  0.069782  0.488006  1
  Cl  Cl54  1  0.713742  0.981393  0.769107  1
  Cl  Cl55  1  0.820232  0.930218  0.511994  1
  Cl  Cl56  1  0.786258  0.481393  0.269107  1
  Cl  Cl57  1  0.286258  0.018607  0.230893  1
  Cl  Cl58  1  0.213742  0.518607  0.730893  1
  Cl  Cl59  1  0.320232  0.569782  0.988006  1
  Sb  Sb60  1  0.549571  0.224523  0.470813  1
  Sb  Sb61  1  0.049571  0.275477  0.029187  1
  Sb  Sb62  1  0.450429  0.775477  0.529187  1
  Sb  Sb63  1  0.950429  0.724523  0.970813  1
  Sb  Sb64  1  0.882968  0.305379  0.603562  1
  Sb  Sb65  1  0.382968  0.194621  0.896438  1
  Sb  Sb66  1  0.117032  0.694621  0.396438  1
  Sb  Sb67  1  0.617032  0.805379  0.103562  1
  Sb  Sb68  1  0.650195  0.387214  0.168442  1
  Sb  Sb69  1  0.150195  0.112786  0.331558  1
  Sb  Sb70  1  0.349805  0.612786  0.831558  1
  Sb  Sb71  1  0.849805  0.887214  0.668442  1
