# generated using pymatgen
data_Ba2Mg3Si4
_symmetry_space_group_name_H-M   'P 1'
_cell_length_a   4.63811738
_cell_length_b   6.50174535
_cell_length_c   15.69538566
_cell_angle_alpha   94.59304297
_cell_angle_beta   90.00000000
_cell_angle_gamma   110.89659531
_symmetry_Int_Tables_number   1
_chemical_formula_structural   Ba2Mg3Si4
_chemical_formula_sum   'Ba4 Mg6 Si8'
_cell_volume   440.54894538
_cell_formula_units_Z   2
loop_
 _symmetry_equiv_pos_site_id
 _symmetry_equiv_pos_as_xyz
  1  'x, y, z'
loop_
 _atom_site_type_symbol
 _atom_site_label
 _atom_site_symmetry_multiplicity
 _atom_site_fract_x
 _atom_site_fract_y
 _atom_site_fract_z
 _atom_site_occupancy
  Mg  Mg0  1  0.337738  0.675477  0.794556  1
  Mg  Mg1  1  0.662262  0.324523  0.205444  1
  Mg  Mg2  1  0.893431  0.786862  0.654171  1
  Mg  Mg3  1  0.106569  0.213138  0.345829  1
  Mg  Mg4  1  0.780485  0.560969  0.931180  1
  Mg  Mg5  1  0.219515  0.439031  0.068820  1
  Si  Si6  1  0.719761  0.439522  0.754212  1
  Si  Si7  1  0.439563  0.879126  0.557205  1
  Si  Si8  1  0.401103  0.802206  0.970233  1
  Si  Si9  1  0.598897  0.197794  0.029767  1
  Si  Si10  1  0.476451  0.952902  0.295639  1
  Si  Si11  1  0.523549  0.047098  0.704361  1
  Si  Si12  1  0.560437  0.120874  0.442795  1
  Si  Si13  1  0.280239  0.560478  0.245788  1
  Ba  Ba14  1  0.157807  0.315613  0.590141  1
  Ba  Ba15  1  0.842193  0.684387  0.409859  1
  Ba  Ba16  1  0.058895  0.117790  0.865400  1
  Ba  Ba17  1  0.941105  0.882210  0.134600  1
