# generated using pymatgen
data_BiO2
_symmetry_space_group_name_H-M   'P 1'
_cell_length_a   7.60703410
_cell_length_b   7.60703409
_cell_length_c   7.60703410
_cell_angle_alpha   62.22596739
_cell_angle_beta   129.22482415
_cell_angle_gamma   146.47248676
_symmetry_Int_Tables_number   1
_chemical_formula_structural   BiO2
_chemical_formula_sum   'Bi4 O8'
_cell_volume   186.41636724
_cell_formula_units_Z   4
loop_
 _symmetry_equiv_pos_site_id
 _symmetry_equiv_pos_as_xyz
  1  'x, y, z'
loop_
 _atom_site_type_symbol
 _atom_site_label
 _atom_site_symmetry_multiplicity
 _atom_site_fract_x
 _atom_site_fract_y
 _atom_site_fract_z
 _atom_site_occupancy
  O  O0  1  0.427896  0.775233  0.203128  1
  O  O1  1  0.371698  0.423281  0.794979  1
  O  O2  1  0.128302  0.923281  0.051582  1
  O  O3  1  0.927896  0.724767  0.652663  1
  O  O4  1  0.572104  0.224767  0.796872  1
  O  O5  1  0.628302  0.576719  0.205021  1
  O  O6  1  0.871698  0.076719  0.948418  1
  O  O7  1  0.072104  0.275233  0.347337  1
  Bi  Bi8  1  0.285488  0.623406  0.908894  1
  Bi  Bi9  1  0.785488  0.876594  0.662081  1
  Bi  Bi10  1  0.214512  0.123406  0.337919  1
  Bi  Bi11  1  0.714512  0.376594  0.091106  1
