# generated using pymatgen
data_CaYb2O4
_symmetry_space_group_name_H-M   'P 1'
_cell_length_a   3.43504610
_cell_length_b   9.16650202
_cell_length_c   11.88381417
_cell_angle_alpha   90.00000000
_cell_angle_beta   90.00000000
_cell_angle_gamma   90.00000000
_symmetry_Int_Tables_number   1
_chemical_formula_structural   CaYb2O4
_chemical_formula_sum   'Ca4 Yb8 O16'
_cell_volume   374.18989946
_cell_formula_units_Z   4
loop_
 _symmetry_equiv_pos_site_id
 _symmetry_equiv_pos_as_xyz
  1  'x, y, z'
loop_
 _atom_site_type_symbol
 _atom_site_label
 _atom_site_symmetry_multiplicity
 _atom_site_fract_x
 _atom_site_fract_y
 _atom_site_fract_z
 _atom_site_occupancy
  O  O0  1  0.250000  0.581705  0.589438  1
  O  O1  1  0.750000  0.418295  0.410562  1
  O  O2  1  0.250000  0.081705  0.910562  1
  O  O3  1  0.750000  0.918295  0.089438  1
  O  O4  1  0.250000  1.002607  0.281135  1
  O  O5  1  0.750000  -0.002607  0.718865  1
  O  O6  1  0.250000  0.502607  0.218865  1
  O  O7  1  0.750000  0.497393  0.781135  1
  O  O8  1  0.250000  0.842748  0.511892  1
  O  O9  1  0.750000  0.157252  0.488108  1
  O  O10  1  0.250000  0.342748  0.988108  1
  O  O11  1  0.750000  0.657252  0.011892  1
  O  O12  1  0.750000  0.716108  0.302129  1
  O  O13  1  0.250000  0.283892  0.697871  1
  O  O14  1  0.750000  0.216108  0.197871  1
  O  O15  1  0.250000  0.783892  0.802129  1
  Ca  Ca16  1  0.750000  0.741073  0.659767  1
  Ca  Ca17  1  0.250000  0.258927  0.340233  1
  Ca  Ca18  1  0.750000  0.241073  0.840233  1
  Ca  Ca19  1  0.250000  0.758927  0.159767  1
  Yb  Yb20  1  0.250000  0.599629  0.396843  1
  Yb  Yb21  1  0.750000  0.400371  0.603157  1
  Yb  Yb22  1  0.250000  0.099629  0.103157  1
  Yb  Yb23  1  0.750000  0.900371  0.896843  1
  Yb  Yb24  1  0.750000  0.932130  0.388917  1
  Yb  Yb25  1  0.250000  0.067870  0.611083  1
  Yb  Yb26  1  0.750000  0.432130  0.111083  1
  Yb  Yb27  1  0.250000  0.567870  0.888917  1
