# generated using pymatgen
data_La2(WO4)3
_symmetry_space_group_name_H-M   'P 1'
_cell_length_a   7.22135963
_cell_length_b   7.22135963
_cell_length_c   11.83704922
_cell_angle_alpha   100.81333112
_cell_angle_beta   100.81333108
_cell_angle_gamma   112.21503784
_symmetry_Int_Tables_number   1
_chemical_formula_structural   La2(WO4)3
_chemical_formula_sum   'La4 W6 O24'
_cell_volume   538.14629849
_cell_formula_units_Z   2
loop_
 _symmetry_equiv_pos_site_id
 _symmetry_equiv_pos_as_xyz
  1  'x, y, z'
loop_
 _atom_site_type_symbol
 _atom_site_label
 _atom_site_symmetry_multiplicity
 _atom_site_fract_x
 _atom_site_fract_y
 _atom_site_fract_z
 _atom_site_occupancy
  O  O0  1  0.029427  0.949313  0.112722  1
  O  O1  1  0.050687  0.970574  0.387278  1
  O  O2  1  0.970574  0.050687  0.887278  1
  O  O3  1  0.949312  0.029426  0.612722  1
  O  O4  1  0.400116  0.325394  0.059267  1
  O  O5  1  0.674606  0.599883  0.440733  1
  O  O6  1  0.599883  0.674606  0.940733  1
  O  O7  1  0.325394  0.400117  0.559267  1
  O  O8  1  0.013113  0.604007  0.217866  1
  O  O9  1  0.395994  0.986888  0.282134  1
  O  O10  1  0.096783  0.672622  0.570237  1
  O  O11  1  0.327378  0.903217  0.929764  1
  O  O12  1  0.903218  0.327378  0.429763  1
  O  O13  1  0.672623  0.096783  0.070236  1
  O  O14  1  0.623867  0.229134  0.536935  1
  O  O15  1  0.770866  0.376134  0.963065  1
  O  O16  1  0.376134  0.770866  0.463065  1
  O  O17  1  0.986887  0.395993  0.782134  1
  O  O18  1  0.358169  0.195778  0.807778  1
  O  O19  1  0.804222  0.641832  0.692222  1
  O  O20  1  0.641832  0.804222  0.192222  1
  O  O21  1  0.195778  0.358168  0.307778  1
  O  O22  1  0.604007  0.013112  0.717866  1
  O  O23  1  0.229133  0.623866  0.036935  1
  La  La24  1  0.308850  0.055549  0.595918  1
  La  La25  1  0.944452  0.691150  0.904082  1
  La  La26  1  0.691149  0.944451  0.404082  1
  La  La27  1  0.055549  0.308850  0.095918  1
  W  W28  1  0.496024  0.200376  0.955388  1
  W  W29  1  0.799624  0.503977  0.544613  1
  W  W30  1  0.503977  0.799624  0.044612  1
  W  W31  1  0.200375  0.496023  0.455387  1
  W  W32  1  0.882940  0.117060  0.750000  1
  W  W33  1  0.117061  0.882940  0.250000  1
