# generated using pymatgen
data_Mg2PHO5
_symmetry_space_group_name_H-M   'P 1'
_cell_length_a   9.79262437
_cell_length_b   12.21006757
_cell_length_c   13.01261660
_cell_angle_alpha   90.00000000
_cell_angle_beta   90.00000000
_cell_angle_gamma   108.45466752
_symmetry_Int_Tables_number   1
_chemical_formula_structural   Mg2PHO5
_chemical_formula_sum   'Mg32 P16 H16 O80'
_cell_volume   1475.88732076
_cell_formula_units_Z   16
loop_
 _symmetry_equiv_pos_site_id
 _symmetry_equiv_pos_as_xyz
  1  'x, y, z'
loop_
 _atom_site_type_symbol
 _atom_site_label
 _atom_site_symmetry_multiplicity
 _atom_site_fract_x
 _atom_site_fract_y
 _atom_site_fract_z
 _atom_site_occupancy
  H  H0  1  0.539885  0.240657  0.040139  1
  H  H1  1  0.460115  0.259343  0.540139  1
  H  H2  1  0.460115  0.759343  0.959861  1
  H  H3  1  0.539885  0.740657  0.459861  1
  H  H4  1  0.272669  0.364294  0.921884  1
  H  H5  1  0.727331  0.135706  0.421884  1
  H  H6  1  0.727331  0.635706  0.078116  1
  H  H7  1  0.272669  0.864294  0.578116  1
  H  H8  1  0.770934  0.355520  0.829688  1
  H  H9  1  0.229066  0.144480  0.329688  1
  H  H10  1  0.229066  0.644480  0.170312  1
  H  H11  1  0.770934  0.855520  0.670312  1
  H  H12  1  0.040270  0.236174  0.709881  1
  H  H13  1  0.959730  0.263826  0.209881  1
  H  H14  1  0.959730  0.763826  0.290119  1
  H  H15  1  0.040270  0.736174  0.790119  1
  O  O16  1  0.830392  0.675603  0.885975  1
  O  O17  1  0.169608  0.824397  0.385975  1
  O  O18  1  0.169608  0.324397  0.114025  1
  O  O19  1  0.830392  0.175603  0.614025  1
  O  O20  1  0.756343  0.468390  0.952856  1
  O  O21  1  0.243657  0.031610  0.452856  1
  O  O22  1  0.243657  0.531610  0.047144  1
  O  O23  1  0.756343  0.968390  0.547144  1
  O  O24  1  0.013602  0.379288  0.984467  1
  O  O25  1  0.986398  0.120712  0.484467  1
  O  O26  1  0.986398  0.620712  0.015533  1
  O  O27  1  0.013602  0.879288  0.515533  1
  O  O28  1  0.972544  0.541519  0.835091  1
  O  O29  1  0.027456  0.958481  0.335091  1
  O  O30  1  0.027456  0.458481  0.164909  1
  O  O31  1  0.972544  0.041519  0.664909  1
  O  O32  1  0.200809  0.836976  0.906716  1
  O  O33  1  0.799191  0.663024  0.406716  1
  O  O34  1  0.799191  0.163024  0.093284  1
  O  O35  1  0.200809  0.336976  0.593284  1
  O  O36  1  0.232532  0.047131  0.947605  1
  O  O37  1  0.767468  0.452869  0.447605  1
  O  O38  1  0.767468  0.952869  0.052395  1
  O  O39  1  0.232532  0.547131  0.552395  1
  O  O40  1  0.977396  0.114851  0.974395  1
  O  O41  1  0.022604  0.385149  0.474395  1
  O  O42  1  0.022604  0.885149  0.025605  1
  O  O43  1  0.977396  0.614851  0.525605  1
  O  O44  1  0.017939  0.932546  0.839905  1
  O  O45  1  0.982061  0.567454  0.339905  1
  O  O46  1  0.982061  0.067454  0.160095  1
  O  O47  1  0.017939  0.432546  0.660095  1
  O  O48  1  0.681162  0.828002  0.858184  1
  O  O49  1  0.318838  0.671998  0.358184  1
  O  O50  1  0.318838  0.171998  0.141816  1
  O  O51  1  0.681162  0.328002  0.641816  1
  O  O52  1  0.741515  0.037793  0.797186  1
  O  O53  1  0.258485  0.462207  0.297186  1
  O  O54  1  0.258485  0.962207  0.202814  1
  O  O55  1  0.741515  0.537793  0.702814  1
  O  O56  1  0.517881  0.382752  0.767945  1
  O  O57  1  0.482119  0.117248  0.267945  1
  O  O58  1  0.482119  0.617248  0.232055  1
  O  O59  1  0.517881  0.882752  0.732055  1
  O  O60  1  0.532495  0.953145  0.916087  1
  O  O61  1  0.467505  0.546855  0.416087  1
  O  O62  1  0.467505  0.046855  0.083913  1
  O  O63  1  0.532495  0.453145  0.583913  1
  O  O64  1  0.311407  0.673221  0.846751  1
  O  O65  1  0.688593  0.826779  0.346751  1
  O  O66  1  0.688593  0.326779  0.153249  1
  O  O67  1  0.311407  0.173221  0.653249  1
  O  O68  1  0.258102  0.463588  0.797513  1
  O  O69  1  0.741898  0.036412  0.297513  1
  O  O70  1  0.741898  0.536412  0.202487  1
  O  O71  1  0.258102  0.963588  0.702487  1
  O  O72  1  0.481046  0.117726  0.773744  1
  O  O73  1  0.518954  0.382274  0.273744  1
  O  O74  1  0.518954  0.882274  0.226256  1
  O  O75  1  0.481046  0.617726  0.726256  1
  O  O76  1  0.478416  0.559594  0.909984  1
  O  O77  1  0.521584  0.940406  0.409984  1
  O  O78  1  0.521584  0.440406  0.090016  1
  O  O79  1  0.478416  0.059594  0.590016  1
  O  O80  1  0.567022  0.245161  0.967508  1
  O  O81  1  0.432978  0.254839  0.467508  1
  O  O82  1  0.432978  0.754839  0.032492  1
  O  O83  1  0.567022  0.745161  0.532492  1
  O  O84  1  0.311679  0.299907  0.917498  1
  O  O85  1  0.688321  0.200093  0.417498  1
  O  O86  1  0.688321  0.700093  0.082502  1
  O  O87  1  0.311679  0.799907  0.582502  1
  O  O88  1  0.810684  0.291928  0.837461  1
  O  O89  1  0.189316  0.208072  0.337461  1
  O  O90  1  0.189316  0.708072  0.162539  1
  O  O91  1  0.810684  0.791928  0.662539  1
  O  O92  1  0.072517  0.240683  0.781396  1
  O  O93  1  0.927483  0.259317  0.281396  1
  O  O94  1  0.927483  0.759317  0.218604  1
  O  O95  1  0.072517  0.740683  0.718604  1
  Mg  Mg96  1  0.449279  0.084352  0.927359  1
  Mg  Mg97  1  0.550721  0.415648  0.427359  1
  Mg  Mg98  1  0.550721  0.915648  0.072641  1
  Mg  Mg99  1  0.449279  0.584352  0.572641  1
  Mg  Mg100  1  0.529437  0.398780  0.930641  1
  Mg  Mg101  1  0.470563  0.101220  0.430641  1
  Mg  Mg102  1  0.470563  0.601220  0.069359  1
  Mg  Mg103  1  0.529437  0.898780  0.569359  1
  Mg  Mg104  1  0.957175  0.077915  0.820150  1
  Mg  Mg105  1  0.042825  0.422085  0.320150  1
  Mg  Mg106  1  0.042825  0.922085  0.179850  1
  Mg  Mg107  1  0.957175  0.577915  0.679850  1
  Mg  Mg108  1  0.029880  0.390856  0.823021  1
  Mg  Mg109  1  0.970120  0.109144  0.323021  1
  Mg  Mg110  1  0.970120  0.609144  0.176979  1
  Mg  Mg111  1  0.029880  0.890856  0.676979  1
  Mg  Mg112  1  0.809067  0.811948  0.978867  1
  Mg  Mg113  1  0.190933  0.688052  0.478867  1
  Mg  Mg114  1  0.190933  0.188052  0.021133  1
  Mg  Mg115  1  0.809067  0.311948  0.521133  1
  Mg  Mg116  1  0.213633  0.696582  0.998740  1
  Mg  Mg117  1  0.786367  0.803418  0.498740  1
  Mg  Mg118  1  0.786367  0.303418  0.001260  1
  Mg  Mg119  1  0.213633  0.196582  0.501260  1
  Mg  Mg120  1  0.694986  0.682222  0.769187  1
  Mg  Mg121  1  0.305014  0.817778  0.269187  1
  Mg  Mg122  1  0.305014  0.317778  0.230813  1
  Mg  Mg123  1  0.694986  0.182222  0.730813  1
  Mg  Mg124  1  0.291543  0.805180  0.749283  1
  Mg  Mg125  1  0.708457  0.694820  0.249283  1
  Mg  Mg126  1  0.708457  0.194820  0.250717  1
  Mg  Mg127  1  0.291543  0.305180  0.750717  1
  P  P128  1  0.885475  0.574810  0.922669  1
  P  P129  1  0.114525  0.925190  0.422669  1
  P  P130  1  0.114525  0.425190  0.077331  1
  P  P131  1  0.885475  0.074810  0.577331  1
  P  P132  1  0.121101  0.925232  0.929526  1
  P  P133  1  0.878899  0.574768  0.429526  1
  P  P134  1  0.878899  0.074768  0.070474  1
  P  P135  1  0.121101  0.425232  0.570474  1
  P  P136  1  0.618465  0.925382  0.825447  1
  P  P137  1  0.381535  0.574618  0.325447  1
  P  P138  1  0.381535  0.074618  0.174553  1
  P  P139  1  0.618465  0.425382  0.674553  1
  P  P140  1  0.379568  0.577629  0.821261  1
  P  P141  1  0.620432  0.922371  0.321261  1
  P  P142  1  0.620432  0.422371  0.178739  1
  P  P143  1  0.379568  0.077629  0.678739  1
