# generated using pymatgen
data_P4SeO6
_symmetry_space_group_name_H-M   'P 1'
_cell_length_a   6.75631018
_cell_length_b   10.98709220
_cell_length_c   12.37808377
_cell_angle_alpha   109.84403533
_cell_angle_beta   90.00000000
_cell_angle_gamma   90.00000000
_symmetry_Int_Tables_number   1
_chemical_formula_structural   P4SeO6
_chemical_formula_sum   'P16 Se4 O24'
_cell_volume   864.29110662
_cell_formula_units_Z   4
loop_
 _symmetry_equiv_pos_site_id
 _symmetry_equiv_pos_as_xyz
  1  'x, y, z'
loop_
 _atom_site_type_symbol
 _atom_site_label
 _atom_site_symmetry_multiplicity
 _atom_site_fract_x
 _atom_site_fract_y
 _atom_site_fract_z
 _atom_site_occupancy
  O  O0  1  0.085439  0.316270  0.049727  1
  O  O1  1  0.585439  0.683730  0.450273  1
  O  O2  1  0.914561  0.683730  0.950273  1
  O  O3  1  0.414561  0.316270  0.549727  1
  O  O4  1  0.274045  0.234400  0.189478  1
  O  O5  1  0.774045  0.765600  0.310522  1
  O  O6  1  0.725955  0.765600  0.810522  1
  O  O7  1  0.225955  0.234400  0.689478  1
  O  O8  1  0.366888  0.451171  0.169138  1
  O  O9  1  0.866888  0.548829  0.330862  1
  O  O10  1  0.633112  0.548829  0.830862  1
  O  O11  1  0.133112  0.451171  0.669138  1
  O  O12  1  0.412408  0.338482  0.953416  1
  O  O13  1  0.912408  0.661518  0.546584  1
  O  O14  1  0.587592  0.661518  0.046584  1
  O  O15  1  0.087592  0.338482  0.453416  1
  O  O16  1  0.598604  0.256565  0.092434  1
  O  O17  1  0.098604  0.743435  0.407566  1
  O  O18  1  0.401396  0.743435  0.907566  1
  O  O19  1  0.901396  0.256565  0.592434  1
  O  O20  1  0.181463  0.123296  0.472908  1
  O  O21  1  0.681463  0.876704  0.027092  1
  O  O22  1  0.818537  0.876704  0.527092  1
  O  O23  1  0.318537  0.123296  0.972908  1
  P  P24  1  0.463540  0.334619  0.210516  1
  P  P25  1  0.963540  0.665381  0.289484  1
  P  P26  1  0.536460  0.665381  0.789484  1
  P  P27  1  0.036460  0.334619  0.710516  1
  P  P28  1  0.243582  0.430162  0.047725  1
  P  P29  1  0.743582  0.569838  0.452275  1
  P  P30  1  0.756418  0.569838  0.952275  1
  P  P31  1  0.256418  0.430162  0.547725  1
  P  P32  1  0.135595  0.177515  0.071434  1
  P  P33  1  0.635595  0.822485  0.428566  1
  P  P34  1  0.864405  0.822485  0.928566  1
  P  P35  1  0.364405  0.177515  0.571434  1
  P  P36  1  0.510061  0.207189  0.962667  1
  P  P37  1  0.010061  0.792811  0.537333  1
  P  P38  1  0.489939  0.792811  0.037333  1
  P  P39  1  0.989939  0.207189  0.462667  1
  Se  Se40  1  0.706486  0.112687  0.834762  1
  Se  Se41  1  0.206486  0.887313  0.665238  1
  Se  Se42  1  0.293514  0.887313  0.165238  1
  Se  Se43  1  0.793514  0.112687  0.334762  1
