# generated using pymatgen
data_Ga3Ni5Ge2
_symmetry_space_group_name_H-M   'P 1'
_cell_length_a   3.90476633
_cell_length_b   6.37413869
_cell_length_c   11.15499113
_cell_angle_alpha   90.00000000
_cell_angle_beta   90.00000000
_cell_angle_gamma   107.83624567
_symmetry_Int_Tables_number   1
_chemical_formula_structural   Ga3Ni5Ge2
_chemical_formula_sum   'Ga6 Ni10 Ge4'
_cell_volume   264.29774357
_cell_formula_units_Z   2
loop_
 _symmetry_equiv_pos_site_id
 _symmetry_equiv_pos_as_xyz
  1  'x, y, z'
loop_
 _atom_site_type_symbol
 _atom_site_label
 _atom_site_symmetry_multiplicity
 _atom_site_fract_x
 _atom_site_fract_y
 _atom_site_fract_z
 _atom_site_occupancy
  Ni  Ni0  1  0.659252  0.318504  0.868070  1
  Ni  Ni1  1  0.340748  0.681496  0.131930  1
  Ni  Ni2  1  0.340748  0.681496  0.368070  1
  Ni  Ni3  1  0.659252  0.318504  0.631930  1
  Ni  Ni4  1  0.020505  0.041010  0.868118  1
  Ni  Ni5  1  0.979495  0.958990  0.131882  1
  Ni  Ni6  1  0.979495  0.958990  0.368118  1
  Ni  Ni7  1  0.020505  0.041010  0.631882  1
  Ni  Ni8  1  0.839573  0.679146  0.750000  1
  Ni  Ni9  1  0.160427  0.320854  0.250000  1
  Ga  Ga10  1  0.831271  0.662543  0.976789  1
  Ga  Ga11  1  0.168729  0.337457  0.023211  1
  Ga  Ga12  1  0.168729  0.337457  0.476789  1
  Ga  Ga13  1  0.831271  0.662543  0.523211  1
  Ga  Ga14  1  0.500000  0.000000  0.000000  1
  Ga  Ga15  1  0.500000  0.000000  0.500000  1
  Ge  Ge16  1  0.210661  0.421322  0.750000  1
  Ge  Ge17  1  0.789339  0.578678  0.250000  1
  Ge  Ge18  1  0.462592  0.925184  0.750000  1
  Ge  Ge19  1  0.537408  0.074816  0.250000  1
