# generated using pymatgen
data_FeBPbO4
_symmetry_space_group_name_H-M   'P 1'
_cell_length_a   6.07412171
_cell_length_b   7.11204073
_cell_length_c   8.48430483
_cell_angle_alpha   90.00000000
_cell_angle_beta   90.00000000
_cell_angle_gamma   90.00000000
_symmetry_Int_Tables_number   1
_chemical_formula_structural   FeBPbO4
_chemical_formula_sum   'Fe4 B4 Pb4 O16'
_cell_volume   366.51688656
_cell_formula_units_Z   4
loop_
 _symmetry_equiv_pos_site_id
 _symmetry_equiv_pos_as_xyz
  1  'x, y, z'
loop_
 _atom_site_type_symbol
 _atom_site_label
 _atom_site_symmetry_multiplicity
 _atom_site_fract_x
 _atom_site_fract_y
 _atom_site_fract_z
 _atom_site_occupancy
  B  B0  1  0.249999  0.780187  0.733521  1
  B  B1  1  0.249999  0.280187  0.766479  1
  B  B2  1  0.750000  0.719812  0.233521  1
  B  B3  1  0.750000  0.219812  0.266478  1
  O  O4  1  0.750000  0.317404  0.408866  1
  O  O5  1  0.551927  0.669005  0.304464  1
  O  O6  1  0.448073  0.830996  0.804464  1
  O  O7  1  0.948074  0.169005  0.195535  1
  O  O8  1  0.249999  0.182595  0.908866  1
  O  O9  1  0.051927  0.330995  0.695536  1
  O  O10  1  0.750000  0.817404  0.091134  1
  O  O11  1  0.249999  0.682595  0.591134  1
  O  O12  1  0.249999  0.895000  0.115724  1
  O  O13  1  0.750000  0.105000  0.884275  1
  O  O14  1  0.948074  0.669005  0.304464  1
  O  O15  1  0.750000  0.605000  0.615725  1
  O  O16  1  0.051927  0.830996  0.804464  1
  O  O17  1  0.551927  0.169005  0.195535  1
  O  O18  1  0.448073  0.330995  0.695536  1
  O  O19  1  0.249999  0.394999  0.384275  1
  Fe  Fe20  1  0.000000  0.500000  0.500000  1
  Fe  Fe21  1  0.500000  0.500000  0.500000  1
  Fe  Fe22  1  0.500000  0.000000  0.000000  1
  Fe  Fe23  1  0.000000  0.000000  0.000000  1
  Pb  Pb24  1  0.249999  0.561952  0.145222  1
  Pb  Pb25  1  0.750000  0.438049  0.854778  1
  Pb  Pb26  1  0.249999  0.061951  0.354779  1
  Pb  Pb27  1  0.750000  0.938049  0.645222  1
