# generated using pymatgen
data_Ag7Te4
_symmetry_space_group_name_H-M   'P 1'
_cell_length_a   13.41100440
_cell_length_b   13.41100440
_cell_length_c   9.19866362
_cell_angle_alpha   90.00000000
_cell_angle_beta   90.00000000
_cell_angle_gamma   120.00000000
_symmetry_Int_Tables_number   1
_chemical_formula_structural   Ag7Te4
_chemical_formula_sum   'Ag35 Te20'
_cell_volume   1432.77494830
_cell_formula_units_Z   5
loop_
 _symmetry_equiv_pos_site_id
 _symmetry_equiv_pos_as_xyz
  1  'x, y, z'
loop_
 _atom_site_type_symbol
 _atom_site_label
 _atom_site_symmetry_multiplicity
 _atom_site_fract_x
 _atom_site_fract_y
 _atom_site_fract_z
 _atom_site_occupancy
  Ag  Ag0  1  0.461609  0.125424  0.500000  1
  Ag  Ag1  1  0.336185  0.461609  0.500000  1
  Ag  Ag2  1  0.125424  0.663815  0.500000  1
  Ag  Ag3  1  0.874576  0.336185  0.500000  1
  Ag  Ag4  1  0.663815  0.538391  0.500000  1
  Ag  Ag5  1  0.336185  0.874576  0.500000  1
  Ag  Ag6  1  0.538391  0.663815  0.500000  1
  Ag  Ag7  1  0.538391  0.874576  0.500000  1
  Ag  Ag8  1  0.125424  0.461609  0.500000  1
  Ag  Ag9  1  0.874576  0.538391  0.500000  1
  Ag  Ag10  1  0.663815  0.125424  0.500000  1
  Ag  Ag11  1  0.461609  0.336185  0.500000  1
  Ag  Ag12  1  0.254011  0.508021  0.235111  1
  Ag  Ag13  1  0.745989  0.254011  0.235111  1
  Ag  Ag14  1  0.508021  0.254011  0.235111  1
  Ag  Ag15  1  0.491979  0.745989  0.235111  1
  Ag  Ag16  1  0.254011  0.745989  0.235111  1
  Ag  Ag17  1  0.745989  0.491979  0.764889  1
  Ag  Ag18  1  0.745989  0.254011  0.764889  1
  Ag  Ag19  1  0.745989  0.491979  0.235111  1
  Ag  Ag20  1  0.508021  0.254011  0.764889  1
  Ag  Ag21  1  0.491979  0.745989  0.764889  1
  Ag  Ag22  1  0.254011  0.508021  0.764889  1
  Ag  Ag23  1  0.254011  0.745989  0.764889  1
  Ag  Ag24  1  0.122374  0.244748  0.000000  1
  Ag  Ag25  1  0.877626  0.122374  0.000000  1
  Ag  Ag26  1  0.244748  0.122374  0.000000  1
  Ag  Ag27  1  0.755252  0.877626  0.000000  1
  Ag  Ag28  1  0.122374  0.877626  0.000000  1
  Ag  Ag29  1  0.877626  0.755252  0.000000  1
  Ag  Ag30  1  0.500000  0.000000  0.000000  1
  Ag  Ag31  1  0.500000  0.500000  0.000000  1
  Ag  Ag32  1  0.000000  0.500000  0.000000  1
  Ag  Ag33  1  0.000000  0.000000  0.145372  1
  Ag  Ag34  1  0.000000  0.000000  0.854628  1
  Te  Te35  1  0.339050  0.000000  0.188088  1
  Te  Te36  1  0.339050  0.339050  0.188088  1
  Te  Te37  1  0.000000  0.660950  0.188088  1
  Te  Te38  1  0.000000  0.339050  0.188088  1
  Te  Te39  1  0.660950  0.660950  0.188088  1
  Te  Te40  1  0.339050  0.000000  0.811912  1
  Te  Te41  1  0.660950  0.660950  0.811912  1
  Te  Te42  1  0.660950  0.000000  0.188088  1
  Te  Te43  1  0.000000  0.339050  0.811912  1
  Te  Te44  1  0.000000  0.660950  0.811912  1
  Te  Te45  1  0.660950  0.000000  0.811912  1
  Te  Te46  1  0.339050  0.339050  0.811912  1
  Te  Te47  1  0.212373  0.000000  0.500000  1
  Te  Te48  1  0.212373  0.212373  0.500000  1
  Te  Te49  1  0.000000  0.787627  0.500000  1
  Te  Te50  1  0.000000  0.212373  0.500000  1
  Te  Te51  1  0.787627  0.787627  0.500000  1
  Te  Te52  1  0.787627  0.000000  0.500000  1
  Te  Te53  1  0.333333  0.666667  0.000000  1
  Te  Te54  1  0.666667  0.333333  0.000000  1
