# generated using pymatgen
data_Mg16Si8HO32
_symmetry_space_group_name_H-M   'P 1'
_cell_length_a   5.79138426
_cell_length_b   8.39393726
_cell_length_c   11.64212833
_cell_angle_alpha   89.99995574
_cell_angle_beta   90.00002812
_cell_angle_gamma   90.00029176
_symmetry_Int_Tables_number   1
_chemical_formula_structural   Mg16Si8HO32
_chemical_formula_sum   'Mg16 Si8 H1 O32'
_cell_volume   565.95315119
_cell_formula_units_Z   1
loop_
 _symmetry_equiv_pos_site_id
 _symmetry_equiv_pos_as_xyz
  1  'x, y, z'
loop_
 _atom_site_type_symbol
 _atom_site_label
 _atom_site_symmetry_multiplicity
 _atom_site_fract_x
 _atom_site_fract_y
 _atom_site_fract_z
 _atom_site_occupancy
  H  H0  1  0.750067  0.890325  0.500008  1
  O  O1  1  0.511378  0.757138  0.127691  1
  O  O2  1  0.988661  0.757140  0.872320  1
  O  O3  1  0.010975  0.243330  0.872609  1
  O  O4  1  0.489035  0.243326  0.127400  1
  O  O5  1  0.489036  0.243327  0.872612  1
  O  O6  1  0.010975  0.243328  0.127402  1
  O  O7  1  0.988659  0.757140  0.127692  1
  O  O8  1  0.511379  0.757138  0.872320  1
  O  O9  1  0.250006  0.491811  0.739178  1
  O  O10  1  0.250005  0.491810  0.260833  1
  O  O11  1  0.750005  0.505376  0.260162  1
  O  O12  1  0.750006  0.505375  0.739852  1
  O  O13  1  0.250003  0.968716  0.500006  1
  O  O14  1  0.750001  0.008958  0.500006  1
  O  O15  1  0.250020  0.463714  0.500006  1
  O  O16  1  0.750004  0.537484  0.500006  1
  O  O17  1  0.250005  0.035365  0.000006  1
  O  O18  1  0.750010  0.965392  0.000006  1
  O  O19  1  0.250012  0.534400  0.000006  1
  O  O20  1  0.750009  0.465709  0.000007  1
  O  O21  1  0.250011  0.005988  0.237626  1
  O  O22  1  0.250011  0.005989  0.762386  1
  O  O23  1  0.750014  0.994680  0.759949  1
  O  O24  1  0.750014  0.994680  0.240063  1
  O  O25  1  0.008722  0.253824  0.374739  1
  O  O26  1  0.491325  0.253822  0.625272  1
  O  O27  1  0.512376  0.745500  0.627050  1
  O  O28  1  0.987633  0.745502  0.372970  1
  O  O29  1  0.987632  0.745503  0.627042  1
  O  O30  1  0.512374  0.745500  0.372962  1
  O  O31  1  0.491325  0.253820  0.374740  1
  O  O32  1  0.008722  0.253826  0.625272  1
  Mg  Mg33  1  0.999789  0.499926  0.878512  1
  Mg  Mg34  1  0.500228  0.499922  0.121503  1
  Mg  Mg35  1  0.999788  0.499926  0.121502  1
  Mg  Mg36  1  0.500228  0.499923  0.878510  1
  Mg  Mg37  1  0.250012  0.745834  0.750909  1
  Mg  Mg38  1  0.250011  0.745832  0.249103  1
  Mg  Mg39  1  0.250018  0.720564  0.500006  1
  Mg  Mg40  1  0.750012  0.294854  0.500005  1
  Mg  Mg41  1  0.489421  0.002953  0.369477  1
  Mg  Mg42  1  0.010598  0.002955  0.630538  1
  Mg  Mg43  1  0.489422  0.002954  0.630534  1
  Mg  Mg44  1  0.010597  0.002954  0.369473  1
  Mg  Mg45  1  0.750009  0.251582  0.248929  1
  Mg  Mg46  1  0.750009  0.251583  0.751082  1
  Mg  Mg47  1  0.750007  0.219417  0.000006  1
  Mg  Mg48  1  0.250021  0.780802  0.000006  1
  Si  Si49  1  0.250008  0.135451  0.128946  1
  Si  Si50  1  0.250008  0.135451  0.871064  1
  Si  Si51  1  0.750015  0.866142  0.869909  1
  Si  Si52  1  0.750013  0.866142  0.130103  1
  Si  Si53  1  0.750013  0.634086  0.631823  1
  Si  Si54  1  0.750012  0.634086  0.368190  1
  Si  Si55  1  0.250015  0.364159  0.370023  1
  Si  Si56  1  0.250015  0.364160  0.629989  1
