# generated using pymatgen
data_Mn9(NbGe4)2
_symmetry_space_group_name_H-M   'P 1'
_cell_length_a   5.07321291
_cell_length_b   13.20019117
_cell_length_c   16.03740770
_cell_angle_alpha   90.00000000
_cell_angle_beta   90.00000000
_cell_angle_gamma   90.00000000
_symmetry_Int_Tables_number   1
_chemical_formula_structural   Mn9(NbGe4)2
_chemical_formula_sum   'Mn36 Nb8 Ge32'
_cell_volume   1073.98317980
_cell_formula_units_Z   4
loop_
 _symmetry_equiv_pos_site_id
 _symmetry_equiv_pos_as_xyz
  1  'x, y, z'
loop_
 _atom_site_type_symbol
 _atom_site_label
 _atom_site_symmetry_multiplicity
 _atom_site_fract_x
 _atom_site_fract_y
 _atom_site_fract_z
 _atom_site_occupancy
  Mn  Mn0  1  0.005908  0.365715  0.674659  1
  Mn  Mn1  1  0.505908  0.634285  0.325341  1
  Mn  Mn2  1  0.494092  0.865715  0.825341  1
  Mn  Mn3  1  0.994092  0.134285  0.174659  1
  Mn  Mn4  1  0.994092  0.634285  0.325341  1
  Mn  Mn5  1  0.494092  0.365715  0.674659  1
  Mn  Mn6  1  0.505908  0.134285  0.174659  1
  Mn  Mn7  1  0.005908  0.865715  0.825341  1
  Mn  Mn8  1  0.001441  0.060570  0.621906  1
  Mn  Mn9  1  0.501441  0.939430  0.378094  1
  Mn  Mn10  1  0.498559  0.560570  0.878094  1
  Mn  Mn11  1  0.998559  0.439430  0.121906  1
  Mn  Mn12  1  0.998559  0.939430  0.378094  1
  Mn  Mn13  1  0.498559  0.060570  0.621906  1
  Mn  Mn14  1  0.501441  0.439430  0.121906  1
  Mn  Mn15  1  0.001441  0.560570  0.878094  1
  Mn  Mn16  1  0.750000  0.066146  0.804057  1
  Mn  Mn17  1  0.250000  0.933854  0.195943  1
  Mn  Mn18  1  0.750000  0.566146  0.695943  1
  Mn  Mn19  1  0.250000  0.433854  0.304057  1
  Mn  Mn20  1  0.750000  0.135413  0.341814  1
  Mn  Mn21  1  0.250000  0.864587  0.658186  1
  Mn  Mn22  1  0.750000  0.635413  0.158186  1
  Mn  Mn23  1  0.250000  0.364587  0.841814  1
  Mn  Mn24  1  0.750000  0.454044  0.407502  1
  Mn  Mn25  1  0.250000  0.545956  0.592498  1
  Mn  Mn26  1  0.750000  0.954044  0.092498  1
  Mn  Mn27  1  0.250000  0.045956  0.907502  1
  Mn  Mn28  1  0.750000  0.125573  0.004639  1
  Mn  Mn29  1  0.250000  0.874427  0.995361  1
  Mn  Mn30  1  0.750000  0.625573  0.495361  1
  Mn  Mn31  1  0.250000  0.374427  0.504639  1
  Mn  Mn32  1  0.750000  0.311240  0.251358  1
  Mn  Mn33  1  0.250000  0.688760  0.748642  1
  Mn  Mn34  1  0.750000  0.811240  0.248642  1
  Mn  Mn35  1  0.250000  0.188760  0.751358  1
  Ge  Ge36  1  0.995978  0.209018  0.881028  1
  Ge  Ge37  1  0.495978  0.790982  0.118972  1
  Ge  Ge38  1  0.504022  0.709018  0.618972  1
  Ge  Ge39  1  0.004022  0.290982  0.381028  1
  Ge  Ge40  1  0.004022  0.790982  0.118972  1
  Ge  Ge41  1  0.504022  0.209018  0.881028  1
  Ge  Ge42  1  0.495978  0.290982  0.381028  1
  Ge  Ge43  1  0.995978  0.709018  0.618972  1
  Ge  Ge44  1  0.750000  0.205192  0.696874  1
  Ge  Ge45  1  0.250000  0.794808  0.303126  1
  Ge  Ge46  1  0.750000  0.705192  0.803126  1
  Ge  Ge47  1  0.250000  0.294808  0.196874  1
  Ge  Ge48  1  0.750000  0.416973  0.800056  1
  Ge  Ge49  1  0.250000  0.583027  0.199944  1
  Ge  Ge50  1  0.750000  0.916973  0.699944  1
  Ge  Ge51  1  0.250000  0.083027  0.300056  1
  Ge  Ge52  1  0.750000  0.054073  0.482640  1
  Ge  Ge53  1  0.250000  0.945927  0.517360  1
  Ge  Ge54  1  0.750000  0.554073  0.017360  1
  Ge  Ge55  1  0.250000  0.445927  0.982640  1
  Ge  Ge56  1  0.750000  0.453630  0.564325  1
  Ge  Ge57  1  0.250000  0.546370  0.435675  1
  Ge  Ge58  1  0.750000  0.953630  0.935675  1
  Ge  Ge59  1  0.250000  0.046370  0.064325  1
  Ge  Ge60  1  0.750000  0.271201  0.102572  1
  Ge  Ge61  1  0.250000  0.728799  0.897428  1
  Ge  Ge62  1  0.750000  0.771201  0.397428  1
  Ge  Ge63  1  0.250000  0.228799  0.602572  1
  Ge  Ge64  1  0.750000  0.493397  0.256229  1
  Ge  Ge65  1  0.250000  0.506603  0.743771  1
  Ge  Ge66  1  0.750000  0.993397  0.243771  1
  Ge  Ge67  1  0.250000  0.006603  0.756229  1
  Nb  Nb68  1  0.750000  0.363720  0.957863  1
  Nb  Nb69  1  0.250000  0.636280  0.042137  1
  Nb  Nb70  1  0.750000  0.863720  0.542137  1
  Nb  Nb71  1  0.250000  0.136280  0.457863  1
  Nb  Nb72  1  0.750000  0.250295  0.527785  1
  Nb  Nb73  1  0.250000  0.749705  0.472215  1
  Nb  Nb74  1  0.750000  0.750295  0.972215  1
  Nb  Nb75  1  0.250000  0.249705  0.027785  1
