# generated using pymatgen
data_KScF4
_symmetry_space_group_name_H-M   'P 1'
_cell_length_a   4.12117868
_cell_length_b   8.22522791
_cell_length_c   13.51127137
_cell_angle_alpha   107.16700658
_cell_angle_beta   90.00000000
_cell_angle_gamma   104.50832297
_symmetry_Int_Tables_number   1
_chemical_formula_structural   KScF4
_chemical_formula_sum   'K4 Sc4 F16'
_cell_volume   422.28536397
_cell_formula_units_Z   4
loop_
 _symmetry_equiv_pos_site_id
 _symmetry_equiv_pos_as_xyz
  1  'x, y, z'
loop_
 _atom_site_type_symbol
 _atom_site_label
 _atom_site_symmetry_multiplicity
 _atom_site_fract_x
 _atom_site_fract_y
 _atom_site_fract_z
 _atom_site_occupancy
  F  F0  1  0.000000  0.000000  0.500000  1
  F  F1  1  0.000000  0.000000  0.000000  1
  F  F2  1  0.045203  0.090407  0.717106  1
  F  F3  1  0.954797  0.909593  0.282894  1
  F  F4  1  0.528366  0.056731  0.857744  1
  F  F5  1  0.471634  0.943269  0.142256  1
  F  F6  1  0.230780  0.461559  0.729930  1
  F  F7  1  0.769220  0.538441  0.270070  1
  F  F8  1  0.101998  0.203997  0.215479  1
  F  F9  1  0.898002  0.796003  0.784521  1
  F  F10  1  0.384381  0.768762  0.383278  1
  F  F11  1  0.615619  0.231238  0.616722  1
  F  F12  1  0.823558  0.647117  0.496273  1
  F  F13  1  0.176442  0.352883  0.503727  1
  F  F14  1  0.841514  0.683029  0.070006  1
  F  F15  1  0.158486  0.316971  0.929994  1
  K  K16  1  0.756770  0.513541  0.864657  1
  K  K17  1  0.243230  0.486459  0.135343  1
  K  K18  1  0.359734  0.719468  0.635980  1
  K  K19  1  0.640266  0.280532  0.364020  1
  Sc  Sc20  1  0.118975  0.237949  0.613675  1
  Sc  Sc21  1  0.881025  0.762051  0.386325  1
  Sc  Sc22  1  0.027016  0.054031  0.861136  1
  Sc  Sc23  1  0.972984  0.945969  0.138864  1
