# generated using pymatgen
data_AgC4N3
_symmetry_space_group_name_H-M   'P 1'
_cell_length_a   6.24105347
_cell_length_b   7.50660248
_cell_length_c   7.50660248
_cell_angle_alpha   64.40519814
_cell_angle_beta   65.43632421
_cell_angle_gamma   65.43632424
_symmetry_Int_Tables_number   1
_chemical_formula_structural   AgC4N3
_chemical_formula_sum   'Ag2 C8 N6'
_cell_volume   276.25430436
_cell_formula_units_Z   2
loop_
 _symmetry_equiv_pos_site_id
 _symmetry_equiv_pos_as_xyz
  1  'x, y, z'
loop_
 _atom_site_type_symbol
 _atom_site_label
 _atom_site_symmetry_multiplicity
 _atom_site_fract_x
 _atom_site_fract_y
 _atom_site_fract_z
 _atom_site_occupancy
  C  C0  1  0.156441  0.550527  0.746632  1
  C  C1  1  0.453600  0.753368  0.949473  1
  C  C2  1  0.637938  0.702300  0.202300  1
  C  C3  1  0.542539  0.297700  0.797700  1
  C  C4  1  0.156441  0.246632  0.050527  1
  C  C5  1  0.453600  0.449473  0.253368  1
  C  C6  1  0.519547  0.632742  0.132742  1
  C  C7  1  0.285030  0.367258  0.867258  1
  N  N8  1  0.399362  0.855182  0.795825  1
  N  N9  1  0.757232  0.238279  0.738279  1
  N  N10  1  0.733790  0.761721  0.261721  1
  N  N11  1  0.050369  0.144818  0.204175  1
  N  N12  1  0.050369  0.704175  0.644818  1
  N  N13  1  0.399362  0.295825  0.355182  1
  Ag  Ag14  1  0.148264  0.121927  0.621927  1
  Ag  Ag15  1  0.892117  0.878073  0.378073  1
