# generated using pymatgen
data_K2NaInAs2
_symmetry_space_group_name_H-M   'P 1'
_cell_length_a   6.82426472
_cell_length_b   6.86873888
_cell_length_c   9.13689984
_cell_angle_alpha   112.07865531
_cell_angle_beta   111.92825581
_cell_angle_gamma   89.99999997
_symmetry_Int_Tables_number   1
_chemical_formula_structural   K2NaInAs2
_chemical_formula_sum   'K4 Na2 In2 As4'
_cell_volume   363.22249368
_cell_formula_units_Z   2
loop_
 _symmetry_equiv_pos_site_id
 _symmetry_equiv_pos_as_xyz
  1  'x, y, z'
loop_
 _atom_site_type_symbol
 _atom_site_label
 _atom_site_symmetry_multiplicity
 _atom_site_fract_x
 _atom_site_fract_y
 _atom_site_fract_z
 _atom_site_occupancy
  Na  Na0  1  0.000000  0.250000  0.000000  1
  Na  Na1  1  0.000000  0.750000  0.000000  1
  K  K2  1  0.415291  0.675925  0.351850  1
  K  K3  1  0.063441  0.824075  0.648150  1
  K  K4  1  0.936559  0.175925  0.351850  1
  K  K5  1  0.584709  0.324075  0.648150  1
  As  As6  1  0.180732  0.398244  0.796488  1
  As  As7  1  0.819268  0.601756  0.203512  1
  As  As8  1  0.384244  0.101756  0.203512  1
  As  As9  1  0.615756  0.898244  0.796488  1
  In  In10  1  0.500000  0.750000  0.000000  1
  In  In11  1  0.500000  0.250000  0.000000  1
