# generated using pymatgen
data_CuH4(OF)2
_symmetry_space_group_name_H-M   'P 1'
_cell_length_a   3.37125491
_cell_length_b   5.21456367
_cell_length_c   5.21456368
_cell_angle_alpha   89.84825878
_cell_angle_beta   103.40683303
_cell_angle_gamma   103.40683297
_symmetry_Int_Tables_number   1
_chemical_formula_structural   CuH4(OF)2
_chemical_formula_sum   'Cu1 H4 O2 F2'
_cell_volume   86.61516366
_cell_formula_units_Z   1
loop_
 _symmetry_equiv_pos_site_id
 _symmetry_equiv_pos_as_xyz
  1  'x, y, z'
loop_
 _atom_site_type_symbol
 _atom_site_label
 _atom_site_symmetry_multiplicity
 _atom_site_fract_x
 _atom_site_fract_y
 _atom_site_fract_z
 _atom_site_occupancy
  H  H0  1  0.934277  0.222814  0.544881  1
  H  H1  1  0.934277  0.544881  0.222814  1
  H  H2  1  0.065723  0.777186  0.455119  1
  H  H3  1  0.065723  0.455119  0.777186  1
  O  O4  1  0.000000  0.739464  0.260536  1
  O  O5  1  1.000000  0.260536  0.739464  1
  F  F6  1  0.172246  0.774161  0.774161  1
  F  F7  1  0.827754  0.225839  0.225839  1
  Cu  Cu8  1  0.000000  0.000000  0.000000  1
