# generated using pymatgen
data_AlZnH4O2F5
_symmetry_space_group_name_H-M   'P 1'
_cell_length_a   6.50137170
_cell_length_b   7.21170079
_cell_length_c   7.21170079
_cell_angle_alpha   60.71576611
_cell_angle_beta   63.20808226
_cell_angle_gamma   63.20808231
_symmetry_Int_Tables_number   1
_chemical_formula_structural   AlZnH4O2F5
_chemical_formula_sum   'Al2 Zn2 H8 O4 F10'
_cell_volume   251.47921517
_cell_formula_units_Z   2
loop_
 _symmetry_equiv_pos_site_id
 _symmetry_equiv_pos_as_xyz
  1  'x, y, z'
loop_
 _atom_site_type_symbol
 _atom_site_label
 _atom_site_symmetry_multiplicity
 _atom_site_fract_x
 _atom_site_fract_y
 _atom_site_fract_z
 _atom_site_occupancy
  H  H0  1  0.965612  0.018035  0.801252  1
  H  H1  1  0.284900  0.481965  0.698748  1
  H  H2  1  0.034388  0.198748  0.981965  1
  H  H3  1  0.715100  0.301252  0.518035  1
  H  H4  1  0.965612  0.801252  0.018035  1
  H  H5  1  0.715100  0.518035  0.301252  1
  H  H6  1  0.034388  0.981965  0.198748  1
  H  H7  1  0.284900  0.698748  0.481965  1
  O  O8  1  0.861072  0.930359  0.930359  1
  O  O9  1  0.778210  0.430359  0.430359  1
  O  O10  1  0.221790  0.569641  0.569641  1
  O  O11  1  0.138928  0.069641  0.069641  1
  F  F12  1  0.816191  0.844982  0.411533  1
  F  F13  1  0.442015  0.750000  0.750000  1
  F  F14  1  0.557985  0.250000  0.250000  1
  F  F15  1  0.427294  0.911533  0.344982  1
  F  F16  1  0.572706  0.088467  0.655018  1
  F  F17  1  0.572706  0.655018  0.088467  1
  F  F18  1  0.427294  0.344982  0.911533  1
  F  F19  1  0.183809  0.155018  0.588467  1
  F  F20  1  0.183809  0.588467  0.155018  1
  F  F21  1  0.816191  0.411533  0.844982  1
  Al  Al22  1  0.500000  0.000000  0.500000  1
  Al  Al23  1  0.500000  0.500000  0.000000  1
  Zn  Zn24  1  0.000000  0.500000  0.500000  1
  Zn  Zn25  1  0.500000  0.000000  0.000000  1
