# generated using pymatgen
data_Ca2Ge7O16
_symmetry_space_group_name_H-M   'P 1'
_cell_length_a   4.71214765
_cell_length_b   11.50963746
_cell_length_c   11.50456228
_cell_angle_alpha   90.00000000
_cell_angle_beta   90.00000000
_cell_angle_gamma   90.00000000
_symmetry_Int_Tables_number   1
_chemical_formula_structural   Ca2Ge7O16
_chemical_formula_sum   'Ca4 Ge14 O32'
_cell_volume   623.95121352
_cell_formula_units_Z   2
loop_
 _symmetry_equiv_pos_site_id
 _symmetry_equiv_pos_as_xyz
  1  'x, y, z'
loop_
 _atom_site_type_symbol
 _atom_site_label
 _atom_site_symmetry_multiplicity
 _atom_site_fract_x
 _atom_site_fract_y
 _atom_site_fract_z
 _atom_site_occupancy
  O  O0  1  0.833239  0.931947  0.359727  1
  O  O1  1  0.833239  0.068053  0.640273  1
  O  O2  1  0.833239  0.568053  0.859727  1
  O  O3  1  0.833239  0.431947  0.140273  1
  O  O4  1  0.157837  0.639992  0.067954  1
  O  O5  1  0.157837  0.360008  0.932046  1
  O  O6  1  0.157837  0.860008  0.567954  1
  O  O7  1  0.157837  0.139992  0.432046  1
  O  O8  1  0.719396  0.719779  0.472533  1
  O  O9  1  0.719396  0.280221  0.527467  1
  O  O10  1  0.719396  0.780221  0.972533  1
  O  O11  1  0.719396  0.219779  0.027467  1
  O  O12  1  0.243086  0.617241  0.499760  1
  O  O13  1  0.243086  0.382759  0.500240  1
  O  O14  1  0.243086  0.882759  0.999760  1
  O  O15  1  0.243086  0.117241  0.000240  1
  O  O16  1  0.264475  0.766338  0.329767  1
  O  O17  1  0.264475  0.233662  0.670233  1
  O  O18  1  0.748081  0.000440  0.116994  1
  O  O19  1  0.748081  0.999560  0.883006  1
  O  O20  1  0.748081  0.499560  0.616994  1
  O  O21  1  0.748081  0.500440  0.383006  1
  O  O22  1  0.271279  0.027403  0.219307  1
  O  O23  1  0.271279  0.972597  0.780693  1
  O  O24  1  0.271279  0.472597  0.719307  1
  O  O25  1  0.271279  0.527403  0.280693  1
  O  O26  1  0.726389  0.169949  0.266433  1
  O  O27  1  0.726389  0.830052  0.733567  1
  O  O28  1  0.726389  0.330051  0.766433  1
  O  O29  1  0.726389  0.669948  0.233567  1
  O  O30  1  0.264475  0.266338  0.170233  1
  O  O31  1  0.264475  0.733662  0.829767  1
  Ca  Ca32  1  0.496455  0.835342  0.164761  1
  Ca  Ca33  1  0.496455  0.164658  0.835239  1
  Ca  Ca34  1  0.496455  0.664658  0.664761  1
  Ca  Ca35  1  0.496455  0.335342  0.335239  1
  Ge  Ge36  1  0.005571  0.812561  0.433643  1
  Ge  Ge37  1  0.005571  0.187439  0.566357  1
  Ge  Ge38  1  0.005571  0.687439  0.933643  1
  Ge  Ge39  1  0.005571  0.312561  0.066357  1
  Ge  Ge40  1  0.985757  0.566236  0.187505  1
  Ge  Ge41  1  0.985757  0.433764  0.812495  1
  Ge  Ge42  1  0.985757  0.933764  0.687505  1
  Ge  Ge43  1  0.985757  0.066236  0.312495  1
  Ge  Ge44  1  0.495666  0.633827  0.366270  1
  Ge  Ge45  1  0.495666  0.366173  0.633730  1
  Ge  Ge46  1  0.495666  0.866173  0.866270  1
  Ge  Ge47  1  0.495666  0.133827  0.133730  1
  Ge  Ge48  1  0.995936  0.500000  0.500000  1
  Ge  Ge49  1  0.995936  0.000000  0.000000  1
