# generated using pymatgen
data_Ca11(ReO6)4
_symmetry_space_group_name_H-M   'P 1'
_cell_length_a   11.11161654
_cell_length_b   11.11161655
_cell_length_c   11.46076144
_cell_angle_alpha   118.99726133
_cell_angle_beta   118.99726135
_cell_angle_gamma   90.00000000
_symmetry_Int_Tables_number   1
_chemical_formula_structural   Ca11(ReO6)4
_chemical_formula_sum   'Ca22 Re8 O48'
_cell_volume   1030.16320856
_cell_formula_units_Z   2
loop_
 _symmetry_equiv_pos_site_id
 _symmetry_equiv_pos_as_xyz
  1  'x, y, z'
loop_
 _atom_site_type_symbol
 _atom_site_label
 _atom_site_symmetry_multiplicity
 _atom_site_fract_x
 _atom_site_fract_y
 _atom_site_fract_z
 _atom_site_occupancy
  O  O0  1  0.474514  0.761671  0.155803  1
  O  O1  1  0.644133  0.224514  0.655803  1
  O  O2  1  0.011671  0.431289  0.655803  1
  O  O3  1  0.681289  0.394133  0.155803  1
  O  O4  1  0.372000  0.863096  0.957710  1
  O  O5  1  0.344614  0.122000  0.457710  1
  O  O6  1  0.113096  0.335709  0.457710  1
  O  O7  1  0.585709  0.094614  0.957710  1
  O  O8  1  0.330247  0.585562  0.831122  1
  O  O9  1  0.495561  0.080247  0.331122  1
  O  O10  1  0.835562  0.250875  0.331122  1
  O  O11  1  0.500875  0.245561  0.831122  1
  O  O12  1  0.886516  0.163482  0.540808  1
  O  O13  1  0.627327  0.636516  0.040808  1
  O  O14  1  0.413482  0.404293  0.040808  1
  O  O15  1  0.654293  0.377327  0.540808  1
  O  O16  1  0.164844  0.246178  0.667078  1
  O  O17  1  0.670900  0.914844  0.167078  1
  O  O18  1  0.496178  0.252235  0.167078  1
  O  O19  1  0.502235  0.420900  0.667078  1
  O  O20  1  0.990214  0.065355  0.344917  1
  O  O21  1  0.529562  0.740214  0.844917  1
  O  O22  1  0.315355  0.104704  0.844917  1
  O  O23  1  0.354704  0.279562  0.344917  1
  O  O24  1  0.934335  0.624901  0.277350  1
  O  O25  1  0.902449  0.684335  0.777350  1
  O  O26  1  0.874901  0.093015  0.777350  1
  O  O27  1  0.343015  0.652449  0.277350  1
  O  O28  1  0.843244  0.326988  0.978501  1
  O  O29  1  0.901513  0.593244  0.478501  1
  O  O30  1  0.122480  0.419540  0.219277  1
  O  O31  1  0.049737  0.872480  0.719277  1
  O  O32  1  0.669540  0.846797  0.719277  1
  O  O33  1  0.096797  0.799737  0.219277  1
  O  O34  1  0.399344  0.885888  0.568280  1
  O  O35  1  0.932392  0.149344  0.068280  1
  O  O36  1  0.135888  0.918936  0.068280  1
  O  O37  1  0.168936  0.682392  0.568280  1
  O  O38  1  0.070144  0.345078  0.923788  1
  O  O39  1  0.828710  0.820144  0.423788  1
  O  O40  1  0.595078  0.603643  0.423788  1
  O  O41  1  0.853643  0.578710  0.923788  1
  O  O42  1  0.145946  0.166127  0.019251  1
  O  O43  1  0.103124  0.895946  0.519251  1
  O  O44  1  0.416127  0.623305  0.519251  1
  O  O45  1  0.873305  0.853124  0.019251  1
  O  O46  1  0.135257  0.651513  0.978501  1
  O  O47  1  0.576988  0.885257  0.478501  1
  Ca  Ca48  1  0.866185  0.366185  0.732370  1
  Ca  Ca49  1  0.616185  0.616185  0.232370  1
  Ca  Ca50  1  0.382468  0.882468  0.764936  1
  Ca  Ca51  1  0.132468  0.132468  0.264936  1
  Ca  Ca52  1  0.173290  0.673290  0.346581  1
  Ca  Ca53  1  0.923290  0.923290  0.846581  1
  Ca  Ca54  1  0.666930  0.433852  0.902251  1
  Ca  Ca55  1  0.718399  0.416930  0.402251  1
  Ca  Ca56  1  0.683852  0.985321  0.402251  1
  Ca  Ca57  1  0.235321  0.468399  0.902251  1
  Ca  Ca58  1  0.766818  0.030968  0.096219  1
  Ca  Ca59  1  0.315250  0.516818  0.596219  1
  Ca  Ca60  1  0.280968  0.079401  0.596219  1
  Ca  Ca61  1  0.329401  0.065250  0.096219  1
  Ca  Ca62  1  0.881226  0.813531  0.227831  1
  Ca  Ca63  1  0.664300  0.631226  0.727831  1
  Ca  Ca64  1  0.063531  0.096605  0.727831  1
  Ca  Ca65  1  0.346605  0.414300  0.227831  1
  Ca  Ca66  1  0.928810  0.399797  0.263430  1
  Ca  Ca67  1  0.113633  0.678810  0.763430  1
  Ca  Ca68  1  0.649797  0.084619  0.763430  1
  Ca  Ca69  1  0.334619  0.863633  0.263430  1
  Re  Re70  1  0.000655  0.248931  0.498999  1
  Re  Re71  1  0.500068  0.750655  -0.001001  1
  Re  Re72  1  0.498931  0.248345  -0.001001  1
  Re  Re73  1  0.498345  0.250068  0.498999  1
  Re  Re74  1  0.998827  0.740183  0.998901  1
  Re  Re75  1  0.508718  0.748827  0.498901  1
  Re  Re76  1  0.990183  0.750074  0.498901  1
  Re  Re77  1  0.000074  0.258718  0.998901  1
