# generated using pymatgen
data_BaIn2Pt
_symmetry_space_group_name_H-M   'P 1'
_cell_length_a   4.58656411
_cell_length_b   6.33951734
_cell_length_c   8.15167668
_cell_angle_alpha   90.00000000
_cell_angle_beta   90.00000000
_cell_angle_gamma   111.20733671
_symmetry_Int_Tables_number   1
_chemical_formula_structural   BaIn2Pt
_chemical_formula_sum   'Ba2 In4 Pt2'
_cell_volume   220.97126687
_cell_formula_units_Z   2
loop_
 _symmetry_equiv_pos_site_id
 _symmetry_equiv_pos_as_xyz
  1  'x, y, z'
loop_
 _atom_site_type_symbol
 _atom_site_label
 _atom_site_symmetry_multiplicity
 _atom_site_fract_x
 _atom_site_fract_y
 _atom_site_fract_z
 _atom_site_occupancy
  In  In0  1  0.336894  0.673788  0.556381  1
  In  In1  1  0.663106  0.326212  0.443619  1
  In  In2  1  0.336894  0.673788  0.943619  1
  In  In3  1  0.663106  0.326212  0.056381  1
  Ba  Ba4  1  0.947261  0.894522  0.250000  1
  Ba  Ba5  1  0.052739  0.105478  0.750000  1
  Pt  Pt6  1  0.775861  0.551722  0.750000  1
  Pt  Pt7  1  0.224139  0.448278  0.250000  1
