# generated using pymatgen
data_Tl3AgI5
_symmetry_space_group_name_H-M   'P 1'
_cell_length_a   10.80941526
_cell_length_b   10.80941526
_cell_length_c   13.51274822
_cell_angle_alpha   90.00000000
_cell_angle_beta   90.00000000
_cell_angle_gamma   119.99999999
_symmetry_Int_Tables_number   1
_chemical_formula_structural   Tl3AgI5
_chemical_formula_sum   'Tl12 Ag4 I20'
_cell_volume   1367.34692762
_cell_formula_units_Z   4
loop_
 _symmetry_equiv_pos_site_id
 _symmetry_equiv_pos_as_xyz
  1  'x, y, z'
loop_
 _atom_site_type_symbol
 _atom_site_label
 _atom_site_symmetry_multiplicity
 _atom_site_fract_x
 _atom_site_fract_y
 _atom_site_fract_z
 _atom_site_occupancy
  Ag  Ag0  1  0.000000  0.000000  0.380238  1
  Ag  Ag1  1  0.000000  0.000000  0.880238  1
  Ag  Ag2  1  0.000000  0.000000  0.619762  1
  Ag  Ag3  1  0.000000  0.000000  0.119762  1
  I  I4  1  0.666667  0.333333  0.898028  1
  I  I5  1  0.666667  0.333333  0.601972  1
  I  I6  1  0.333333  0.666667  0.101972  1
  I  I7  1  0.333333  0.666667  0.398028  1
  I  I8  1  0.006265  0.243684  0.750000  1
  I  I9  1  0.756316  0.762581  0.750000  1
  I  I10  1  0.237419  0.993735  0.750000  1
  I  I11  1  0.993735  0.237419  0.250000  1
  I  I12  1  0.666667  0.333333  0.357634  1
  I  I13  1  0.333333  0.666667  0.857634  1
  I  I14  1  0.333333  0.666667  0.642366  1
  I  I15  1  0.666667  0.333333  0.142366  1
  I  I16  1  0.755018  0.000000  0.000000  1
  I  I17  1  0.244982  0.244982  0.500000  1
  I  I18  1  0.000000  0.755018  0.500000  1
  I  I19  1  0.000000  0.755018  0.000000  1
  I  I20  1  0.244982  0.244982  0.000000  1
  I  I21  1  0.755018  0.000000  0.500000  1
  I  I22  1  0.243684  0.006265  0.250000  1
  I  I23  1  0.762581  0.756316  0.250000  1
  Tl  Tl24  1  0.965642  0.614851  0.750000  1
  Tl  Tl25  1  0.385149  0.350791  0.750000  1
  Tl  Tl26  1  0.649209  0.034358  0.750000  1
  Tl  Tl27  1  0.034358  0.649209  0.250000  1
  Tl  Tl28  1  0.350791  0.385149  0.250000  1
  Tl  Tl29  1  0.614851  0.965642  0.250000  1
  Tl  Tl30  1  0.362948  0.000000  0.500000  1
  Tl  Tl31  1  0.637052  0.637052  0.000000  1
  Tl  Tl32  1  0.000000  0.362948  0.000000  1
  Tl  Tl33  1  0.000000  0.362948  0.500000  1
  Tl  Tl34  1  0.637052  0.637052  0.500000  1
  Tl  Tl35  1  0.362948  0.000000  0.000000  1
