# generated using pymatgen
data_BSBr
_symmetry_space_group_name_H-M   'P 1'
_cell_length_a   4.77716275
_cell_length_b   14.58669562
_cell_length_c   18.18078059
_cell_angle_alpha   111.43231690
_cell_angle_beta   90.00000000
_cell_angle_gamma   90.00000000
_symmetry_Int_Tables_number   1
_chemical_formula_structural   BSBr
_chemical_formula_sum   'B12 S12 Br12'
_cell_volume   1179.28594708
_cell_formula_units_Z   12
loop_
 _symmetry_equiv_pos_site_id
 _symmetry_equiv_pos_as_xyz
  1  'x, y, z'
loop_
 _atom_site_type_symbol
 _atom_site_label
 _atom_site_symmetry_multiplicity
 _atom_site_fract_x
 _atom_site_fract_y
 _atom_site_fract_z
 _atom_site_occupancy
  B  B0  1  0.027656  0.662901  0.901099  1
  B  B1  1  0.249103  0.961910  0.333283  1
  B  B2  1  0.750897  0.038090  0.666717  1
  B  B3  1  0.979524  0.443197  0.270636  1
  B  B4  1  0.020476  0.556803  0.729364  1
  B  B5  1  0.749103  0.538090  0.166717  1
  B  B6  1  0.972344  0.337099  0.098901  1
  B  B7  1  0.472344  0.162901  0.401099  1
  B  B8  1  0.479524  0.056803  0.229364  1
  B  B9  1  0.250897  0.461910  0.833283  1
  B  B10  1  0.520476  0.943197  0.770636  1
  B  B11  1  0.527656  0.837099  0.598901  1
  S  S12  1  0.687477  0.935388  0.575773  1
  S  S13  1  0.572215  0.170733  0.307789  1
  S  S14  1  0.816740  0.553799  0.268354  1
  S  S15  1  0.072215  0.329267  0.192211  1
  S  S16  1  0.927785  0.670733  0.807789  1
  S  S17  1  0.312523  0.064612  0.424227  1
  S  S18  1  0.683260  0.053799  0.768354  1
  S  S19  1  0.316740  0.946201  0.231646  1
  S  S20  1  0.427785  0.829267  0.692211  1
  S  S21  1  0.812523  0.435388  0.075773  1
  S  S22  1  0.183259  0.446201  0.731646  1
  S  S23  1  0.187477  0.564612  0.924227  1
  Br  Br24  1  0.929770  0.552916  0.624747  1
  Br  Br25  1  0.424328  0.349887  0.847104  1
  Br  Br26  1  0.551145  0.279957  0.491960  1
  Br  Br27  1  0.075672  0.849887  0.347104  1
  Br  Br28  1  0.051145  0.220043  0.008040  1
  Br  Br29  1  0.948855  0.779957  0.991960  1
  Br  Br30  1  0.570230  0.052916  0.124747  1
  Br  Br31  1  0.575672  0.650113  0.152896  1
  Br  Br32  1  0.924328  0.150113  0.652896  1
  Br  Br33  1  0.070230  0.447084  0.375253  1
  Br  Br34  1  0.429770  0.947084  0.875253  1
  Br  Br35  1  0.448855  0.720043  0.508040  1
