# generated using pymatgen
data_MgH8SO8
_symmetry_space_group_name_H-M   'P 1'
_cell_length_a   6.00944464
_cell_length_b   7.93372595
_cell_length_c   13.64622590
_cell_angle_alpha   90.00000000
_cell_angle_beta   90.00000000
_cell_angle_gamma   90.70092617
_symmetry_Int_Tables_number   1
_chemical_formula_structural   MgH8SO8
_chemical_formula_sum   'Mg4 H32 S4 O32'
_cell_volume   650.56634302
_cell_formula_units_Z   4
loop_
 _symmetry_equiv_pos_site_id
 _symmetry_equiv_pos_as_xyz
  1  'x, y, z'
loop_
 _atom_site_type_symbol
 _atom_site_label
 _atom_site_symmetry_multiplicity
 _atom_site_fract_x
 _atom_site_fract_y
 _atom_site_fract_z
 _atom_site_occupancy
  H  H0  1  0.919649  0.773725  0.691870  1
  H  H1  1  0.580351  0.726275  0.191870  1
  H  H2  1  0.080351  0.226274  0.308130  1
  H  H3  1  0.419649  0.273726  0.808130  1
  H  H4  1  0.180556  0.223270  0.765254  1
  H  H5  1  0.319444  0.276730  0.265254  1
  H  H6  1  0.819444  0.776730  0.234746  1
  H  H7  1  0.680556  0.723270  0.734746  1
  H  H8  1  0.422576  0.055575  0.401380  1
  H  H9  1  0.077424  0.444425  0.901380  1
  H  H10  1  0.700835  0.042656  0.685416  1
  H  H11  1  0.799165  0.457344  0.185416  1
  H  H12  1  0.299165  0.957344  0.314584  1
  H  H13  1  0.200835  0.542656  0.814584  1
  H  H14  1  0.822227  0.458000  0.593140  1
  H  H15  1  0.677773  0.042000  0.093140  1
  H  H16  1  0.177773  0.542000  0.406860  1
  H  H17  1  0.322227  0.958000  0.906860  1
  H  H18  1  0.813301  0.349436  0.690887  1
  H  H19  1  0.686699  0.150564  0.190887  1
  H  H20  1  0.186699  0.650564  0.309113  1
  H  H21  1  0.313301  0.849436  0.809113  1
  H  H22  1  0.041009  0.172477  0.519741  1
  H  H23  1  0.458991  0.327523  0.019741  1
  H  H24  1  0.958991  0.827523  0.480259  1
  H  H25  1  0.541009  0.672477  0.980259  1
  H  H26  1  0.128760  0.019001  0.584190  1
  H  H27  1  0.371240  0.480999  0.084190  1
  H  H28  1  0.871240  0.980999  0.415810  1
  H  H29  1  0.628760  0.519001  0.915810  1
  H  H30  1  0.577424  0.944425  0.598620  1
  H  H31  1  0.922576  0.555575  0.098620  1
  O  O32  1  0.106380  0.556855  0.872517  1
  O  O33  1  0.393620  0.943145  0.372517  1
  O  O34  1  0.893620  0.443145  0.127483  1
  O  O35  1  0.606380  0.056855  0.627483  1
  O  O36  1  0.777626  0.089413  0.142705  1
  O  O37  1  0.678431  0.717566  0.250079  1
  O  O38  1  0.178431  0.217566  0.249921  1
  O  O39  1  0.321568  0.282434  0.749921  1
  O  O40  1  0.277626  0.589413  0.357295  1
  O  O41  1  0.222374  0.910587  0.857295  1
  O  O42  1  0.139518  0.142078  0.574883  1
  O  O43  1  0.360482  0.357922  0.074883  1
  O  O44  1  0.860482  0.857922  0.425117  1
  O  O45  1  0.639518  0.642078  0.925117  1
  O  O46  1  0.370576  0.686288  0.712393  1
  O  O47  1  0.129424  0.813712  0.212393  1
  O  O48  1  0.629424  0.313712  0.287607  1
  O  O49  1  0.870576  0.186288  0.787607  1
  O  O50  1  0.101699  0.784191  0.592112  1
  O  O51  1  0.398301  0.715809  0.092112  1
  O  O52  1  0.898301  0.215809  0.407888  1
  O  O53  1  0.601699  0.284191  0.907888  1
  O  O54  1  0.251376  0.502331  0.576601  1
  O  O55  1  0.248624  0.997669  0.076601  1
  O  O56  1  0.748624  0.497669  0.423399  1
  O  O57  1  0.751376  0.002331  0.923399  1
  O  O58  1  0.491854  0.746856  0.546404  1
  O  O59  1  0.008145  0.753144  0.046404  1
  O  O60  1  0.508146  0.253144  0.453597  1
  O  O61  1  0.991854  0.246856  0.953596  1
  O  O62  1  0.722374  0.410587  0.642705  1
  O  O63  1  0.821569  0.782434  0.750079  1
  Mg  Mg64  1  0.928302  0.777454  0.895757  1
  Mg  Mg65  1  0.571698  0.722546  0.395757  1
  Mg  Mg66  1  0.071698  0.222546  0.104243  1
  Mg  Mg67  1  0.428302  0.277454  0.604243  1
  S  S68  1  0.804817  0.178155  0.892267  1
  S  S69  1  0.695183  0.321845  0.392267  1
  S  S70  1  0.195183  0.821845  0.107733  1
  S  S71  1  0.304817  0.678155  0.607733  1
