# generated using pymatgen
data_Ta2Cl5
_symmetry_space_group_name_H-M   'P 1'
_cell_length_a   17.97949134
_cell_length_b   17.97949059
_cell_length_c   17.97949039
_cell_angle_alpha   109.47122159
_cell_angle_beta   109.47122077
_cell_angle_gamma   109.47122137
_symmetry_Int_Tables_number   1
_chemical_formula_structural   Ta2Cl5
_chemical_formula_sum   'Ta48 Cl120'
_cell_volume   4474.14712582
_cell_formula_units_Z   24
loop_
 _symmetry_equiv_pos_site_id
 _symmetry_equiv_pos_as_xyz
  1  'x, y, z'
loop_
 _atom_site_type_symbol
 _atom_site_label
 _atom_site_symmetry_multiplicity
 _atom_site_fract_x
 _atom_site_fract_y
 _atom_site_fract_z
 _atom_site_occupancy
  Cl  Cl0  1  0.078669  0.204720  0.184387  1
  Cl  Cl1  1  0.204720  0.520334  0.126051  1
  Cl  Cl2  1  0.894283  0.078669  0.373949  1
  Cl  Cl3  1  0.373949  0.894283  0.078669  1
  Cl  Cl4  1  0.184387  0.605717  0.979666  1
  Cl  Cl5  1  0.979666  0.184387  0.605717  1
  Cl  Cl6  1  0.520334  0.126051  0.204720  1
  Cl  Cl7  1  0.894283  0.315613  0.520334  1
  Cl  Cl8  1  0.373949  0.979666  0.295280  1
  Cl  Cl9  1  0.605717  0.126051  0.421331  1
  Cl  Cl10  1  0.315613  0.520334  0.894283  1
  Cl  Cl11  1  0.295280  0.373949  0.979666  1
  Cl  Cl12  1  0.126051  0.421331  0.605717  1
  Cl  Cl13  1  0.184387  0.078669  0.204720  1
  Cl  Cl14  1  0.204720  0.184387  0.078669  1
  Cl  Cl15  1  0.520334  0.894283  0.315613  1
  Cl  Cl16  1  0.295280  0.421331  0.315613  1
  Cl  Cl17  1  0.979666  0.295280  0.373949  1
  Cl  Cl18  1  0.315613  0.295280  0.421331  1
  Cl  Cl19  1  0.421331  0.605717  0.126051  1
  Cl  Cl20  1  0.421331  0.315613  0.295280  1
  Cl  Cl21  1  0.605717  0.979666  0.184387  1
  Cl  Cl22  1  0.126051  0.204720  0.520334  1
  Cl  Cl23  1  0.078669  0.373949  0.894283  1
  Cl  Cl24  1  0.921331  0.795280  0.815613  1
  Cl  Cl25  1  0.795280  0.479666  0.873949  1
  Cl  Cl26  1  0.105717  0.921331  0.626051  1
  Cl  Cl27  1  0.626051  0.105717  0.921331  1
  Cl  Cl28  1  0.815613  0.394283  0.020334  1
  Cl  Cl29  1  0.020334  0.815613  0.394283  1
  Cl  Cl30  1  0.479666  0.873949  0.795280  1
  Cl  Cl31  1  0.105717  0.684387  0.479666  1
  Cl  Cl32  1  0.626051  0.020334  0.704720  1
  Cl  Cl33  1  0.394283  0.873949  0.578669  1
  Cl  Cl34  1  0.684387  0.479666  0.105717  1
  Cl  Cl35  1  0.704720  0.626051  0.020334  1
  Cl  Cl36  1  0.873949  0.578669  0.394283  1
  Cl  Cl37  1  0.815613  0.921331  0.795280  1
  Cl  Cl38  1  0.795280  0.815613  0.921331  1
  Cl  Cl39  1  0.479666  0.105717  0.684387  1
  Cl  Cl40  1  0.704720  0.578669  0.684387  1
  Cl  Cl41  1  0.020334  0.704720  0.626051  1
  Cl  Cl42  1  0.684387  0.704720  0.578669  1
  Cl  Cl43  1  0.578669  0.394283  0.873949  1
  Cl  Cl44  1  0.578669  0.684387  0.704720  1
  Cl  Cl45  1  0.394283  0.020334  0.815613  1
  Cl  Cl46  1  0.873949  0.795280  0.479666  1
  Cl  Cl47  1  0.921331  0.626051  0.105717  1
  Cl  Cl48  1  0.895453  0.127027  0.985362  1
  Cl  Cl49  1  0.127027  0.641666  0.231574  1
  Cl  Cl50  1  0.910092  0.895453  0.268426  1
  Cl  Cl51  1  0.268426  0.910092  0.895453  1
  Cl  Cl52  1  0.985362  0.589908  0.858334  1
  Cl  Cl53  1  0.858334  0.985362  0.589908  1
  Cl  Cl54  1  0.641666  0.231574  0.127027  1
  Cl  Cl55  1  0.910092  0.514638  0.641666  1
  Cl  Cl56  1  0.268426  0.858334  0.372973  1
  Cl  Cl57  1  0.589908  0.231574  0.604547  1
  Cl  Cl58  1  0.514638  0.641666  0.910092  1
  Cl  Cl59  1  0.372973  0.268426  0.858334  1
  Cl  Cl60  1  0.231574  0.604547  0.589908  1
  Cl  Cl61  1  0.985362  0.895453  0.127027  1
  Cl  Cl62  1  0.127027  0.985362  0.895453  1
  Cl  Cl63  1  0.641666  0.910092  0.514638  1
  Cl  Cl64  1  0.372973  0.604547  0.514638  1
  Cl  Cl65  1  0.858334  0.372973  0.268426  1
  Cl  Cl66  1  0.514638  0.372973  0.604547  1
  Cl  Cl67  1  0.604547  0.589908  0.231574  1
  Cl  Cl68  1  0.604547  0.514638  0.372973  1
  Cl  Cl69  1  0.589908  0.858334  0.985362  1
  Cl  Cl70  1  0.231574  0.127027  0.641666  1
  Cl  Cl71  1  0.895453  0.268426  0.910092  1
  Cl  Cl72  1  0.104547  0.872973  0.014638  1
  Cl  Cl73  1  0.872973  0.358334  0.768426  1
  Cl  Cl74  1  0.089908  0.104547  0.731574  1
  Cl  Cl75  1  0.731574  0.089908  0.104547  1
  Cl  Cl76  1  0.014638  0.410092  0.141666  1
  Cl  Cl77  1  0.141666  0.014638  0.410092  1
  Cl  Cl78  1  0.358334  0.768426  0.872973  1
  Cl  Cl79  1  0.089908  0.485362  0.358334  1
  Cl  Cl80  1  0.731574  0.141666  0.627027  1
  Cl  Cl81  1  0.410092  0.768426  0.395453  1
  Cl  Cl82  1  0.485362  0.358334  0.089908  1
  Cl  Cl83  1  0.627027  0.731574  0.141666  1
  Cl  Cl84  1  0.768426  0.395453  0.410092  1
  Cl  Cl85  1  0.014638  0.104547  0.872973  1
  Cl  Cl86  1  0.872973  0.014638  0.104547  1
  Cl  Cl87  1  0.358334  0.089908  0.485362  1
  Cl  Cl88  1  0.627027  0.395453  0.485362  1
  Cl  Cl89  1  0.141666  0.627027  0.731574  1
  Cl  Cl90  1  0.485362  0.627027  0.395453  1
  Cl  Cl91  1  0.395453  0.410092  0.768426  1
  Cl  Cl92  1  0.395453  0.485362  0.627027  1
  Cl  Cl93  1  0.410092  0.141666  0.014638  1
  Cl  Cl94  1  0.768426  0.872973  0.358334  1
  Cl  Cl95  1  0.104547  0.731574  0.089908  1
  Cl  Cl96  1  0.250000  0.800900  0.699100  1
  Cl  Cl97  1  0.800900  0.601800  0.550900  1
  Cl  Cl98  1  0.550900  0.250000  0.949100  1
  Cl  Cl99  1  0.949100  0.550900  0.250000  1
  Cl  Cl100  1  0.699100  0.949100  0.898200  1
  Cl  Cl101  1  0.898200  0.699100  0.949100  1
  Cl  Cl102  1  0.601800  0.550900  0.800900  1
  Cl  Cl103  1  0.550900  0.800900  0.601800  1
  Cl  Cl104  1  0.949100  0.898200  0.699100  1
  Cl  Cl105  1  0.699100  0.250000  0.800900  1
  Cl  Cl106  1  0.800900  0.699100  0.250000  1
  Cl  Cl107  1  0.250000  0.949100  0.550900  1
  Cl  Cl108  1  0.750000  0.199100  0.300900  1
  Cl  Cl109  1  0.199100  0.398200  0.449100  1
  Cl  Cl110  1  0.449100  0.750000  0.050900  1
  Cl  Cl111  1  0.050900  0.449100  0.750000  1
  Cl  Cl112  1  0.300900  0.050900  0.101800  1
  Cl  Cl113  1  0.101800  0.300900  0.050900  1
  Cl  Cl114  1  0.398200  0.449100  0.199100  1
  Cl  Cl115  1  0.449100  0.199100  0.398200  1
  Cl  Cl116  1  0.050900  0.101800  0.300900  1
  Cl  Cl117  1  0.300900  0.750000  0.199100  1
  Cl  Cl118  1  0.199100  0.300900  0.750000  1
  Cl  Cl119  1  0.750000  0.050900  0.449100  1
  Ta  Ta120  1  0.042046  0.132515  0.024922  1
  Ta  Ta121  1  0.132515  0.607592  0.090468  1
  Ta  Ta122  1  0.017124  0.042046  0.409532  1
  Ta  Ta123  1  0.409532  0.017124  0.042046  1
  Ta  Ta124  1  0.024922  0.482876  0.892408  1
  Ta  Ta125  1  0.892408  0.024922  0.482876  1
  Ta  Ta126  1  0.607592  0.090468  0.132515  1
  Ta  Ta127  1  0.017124  0.475078  0.607592  1
  Ta  Ta128  1  0.409532  0.892408  0.367486  1
  Ta  Ta129  1  0.482876  0.090468  0.457954  1
  Ta  Ta130  1  0.475078  0.607592  0.017124  1
  Ta  Ta131  1  0.367486  0.409532  0.892408  1
  Ta  Ta132  1  0.090468  0.457954  0.482876  1
  Ta  Ta133  1  0.024922  0.042046  0.132515  1
  Ta  Ta134  1  0.132515  0.024922  0.042046  1
  Ta  Ta135  1  0.607592  0.017124  0.475078  1
  Ta  Ta136  1  0.367486  0.457954  0.475078  1
  Ta  Ta137  1  0.892408  0.367486  0.409532  1
  Ta  Ta138  1  0.475078  0.367486  0.457954  1
  Ta  Ta139  1  0.457954  0.482876  0.090468  1
  Ta  Ta140  1  0.457954  0.475078  0.367486  1
  Ta  Ta141  1  0.482876  0.892408  0.024922  1
  Ta  Ta142  1  0.090468  0.132515  0.607592  1
  Ta  Ta143  1  0.042046  0.409532  0.017124  1
  Ta  Ta144  1  0.957954  0.867486  0.975078  1
  Ta  Ta145  1  0.867486  0.392408  0.909532  1
  Ta  Ta146  1  0.982876  0.957954  0.590468  1
  Ta  Ta147  1  0.590468  0.982876  0.957954  1
  Ta  Ta148  1  0.975078  0.517124  0.107592  1
  Ta  Ta149  1  0.107592  0.975078  0.517124  1
  Ta  Ta150  1  0.392408  0.909532  0.867486  1
  Ta  Ta151  1  0.982876  0.524922  0.392408  1
  Ta  Ta152  1  0.590468  0.107592  0.632514  1
  Ta  Ta153  1  0.517124  0.909532  0.542046  1
  Ta  Ta154  1  0.524922  0.392408  0.982876  1
  Ta  Ta155  1  0.632514  0.590468  0.107592  1
  Ta  Ta156  1  0.909532  0.542046  0.517124  1
  Ta  Ta157  1  0.975078  0.957954  0.867486  1
  Ta  Ta158  1  0.867486  0.975078  0.957954  1
  Ta  Ta159  1  0.392408  0.982876  0.524922  1
  Ta  Ta160  1  0.632514  0.542046  0.524922  1
  Ta  Ta161  1  0.107592  0.632514  0.590468  1
  Ta  Ta162  1  0.524922  0.632514  0.542046  1
  Ta  Ta163  1  0.542046  0.517124  0.909532  1
  Ta  Ta164  1  0.542046  0.524922  0.632514  1
  Ta  Ta165  1  0.517124  0.107592  0.975078  1
  Ta  Ta166  1  0.909532  0.867486  0.392408  1
  Ta  Ta167  1  0.957954  0.590468  0.982876  1
