# generated using pymatgen
data_CaCuGe
_symmetry_space_group_name_H-M   'P 1'
_cell_length_a   4.33187201
_cell_length_b   7.46170925
_cell_length_c   21.22275077
_cell_angle_alpha   90.00000000
_cell_angle_beta   90.00000000
_cell_angle_gamma   90.00000000
_symmetry_Int_Tables_number   1
_chemical_formula_structural   CaCuGe
_chemical_formula_sum   'Ca12 Cu12 Ge12'
_cell_volume   685.98656927
_cell_formula_units_Z   12
loop_
 _symmetry_equiv_pos_site_id
 _symmetry_equiv_pos_as_xyz
  1  'x, y, z'
loop_
 _atom_site_type_symbol
 _atom_site_label
 _atom_site_symmetry_multiplicity
 _atom_site_fract_x
 _atom_site_fract_y
 _atom_site_fract_z
 _atom_site_occupancy
  Ca  Ca0  1  0.760575  0.294559  0.167119  1
  Ca  Ca1  1  0.265534  0.715043  0.501501  1
  Ca  Ca2  1  0.262610  0.706703  0.166236  1
  Ca  Ca3  1  0.260575  0.705441  0.832881  1
  Ca  Ca4  1  0.262610  0.793297  0.666236  1
  Ca  Ca5  1  0.760575  0.205441  0.667119  1
  Ca  Ca6  1  0.762610  0.293297  0.833764  1
  Ca  Ca7  1  0.260575  0.794559  0.332881  1
  Ca  Ca8  1  0.265534  0.784957  0.001501  1
  Ca  Ca9  1  0.765534  0.215043  0.998499  1
  Ca  Ca10  1  0.762610  0.206703  0.333764  1
  Ca  Ca11  1  0.765534  0.284957  0.498499  1
  Cu  Cu12  1  0.249760  0.415630  0.596912  1
  Cu  Cu13  1  0.254151  0.420916  0.937026  1
  Cu  Cu14  1  0.254653  0.412151  0.735497  1
  Cu  Cu15  1  0.249760  0.084370  0.096912  1
  Cu  Cu16  1  0.754653  0.912151  0.764503  1
  Cu  Cu17  1  0.754151  0.920916  0.562974  1
  Cu  Cu18  1  0.754151  0.579084  0.062974  1
  Cu  Cu19  1  0.749760  0.915630  0.903088  1
  Cu  Cu20  1  0.749760  0.584370  0.403088  1
  Cu  Cu21  1  0.754653  0.587849  0.264503  1
  Cu  Cu22  1  0.254151  0.079084  0.437026  1
  Cu  Cu23  1  0.254653  0.087849  0.235497  1
  Ge  Ge24  1  0.753297  0.580927  0.729745  1
  Ge  Ge25  1  0.254634  0.414767  0.398298  1
  Ge  Ge26  1  0.254634  0.085233  0.898298  1
  Ge  Ge27  1  0.754634  0.585233  0.601702  1
  Ge  Ge28  1  0.754634  0.914767  0.101702  1
  Ge  Ge29  1  0.754786  0.908208  0.430045  1
  Ge  Ge30  1  0.253297  0.080927  0.770255  1
  Ge  Ge31  1  0.254786  0.408208  0.069955  1
  Ge  Ge32  1  0.753297  0.919073  0.229745  1
  Ge  Ge33  1  0.253297  0.419073  0.270255  1
  Ge  Ge34  1  0.254786  0.091792  0.569955  1
  Ge  Ge35  1  0.754786  0.591792  0.930045  1
