# generated using pymatgen
data_BaTbO3
_symmetry_space_group_name_H-M   'P 1'
_cell_length_a   6.23532207
_cell_length_b   6.31261918
_cell_length_c   8.86573301
_cell_angle_alpha   90.00000000
_cell_angle_beta   90.00000000
_cell_angle_gamma   90.00000000
_symmetry_Int_Tables_number   1
_chemical_formula_structural   BaTbO3
_chemical_formula_sum   'Ba4 Tb4 O12'
_cell_volume   348.96601155
_cell_formula_units_Z   4
loop_
 _symmetry_equiv_pos_site_id
 _symmetry_equiv_pos_as_xyz
  1  'x, y, z'
loop_
 _atom_site_type_symbol
 _atom_site_label
 _atom_site_symmetry_multiplicity
 _atom_site_fract_x
 _atom_site_fract_y
 _atom_site_fract_z
 _atom_site_occupancy
  O  O0  1  0.754949  0.754929  0.452723  1
  O  O1  1  0.254949  0.745071  0.047277  1
  O  O2  1  0.745051  0.254929  0.547277  1
  O  O3  1  0.245051  0.245071  0.952723  1
  O  O4  1  0.245051  0.245071  0.547277  1
  O  O5  1  0.745051  0.254929  0.952723  1
  O  O6  1  0.254949  0.745071  0.452723  1
  O  O7  1  0.754949  0.754929  0.047277  1
  O  O8  1  0.503127  0.918068  0.750000  1
  O  O9  1  0.003127  0.581932  0.750000  1
  O  O10  1  0.996873  0.418068  0.250000  1
  O  O11  1  0.496873  0.081932  0.250000  1
  Ba  Ba12  1  0.995374  0.010236  0.750000  1
  Ba  Ba13  1  0.495374  0.489764  0.750000  1
  Ba  Ba14  1  0.504626  0.510236  0.250000  1
  Ba  Ba15  1  0.004626  0.989764  0.250000  1
  Tb  Tb16  1  0.000000  0.500000  0.000000  1
  Tb  Tb17  1  0.500000  0.000000  0.500000  1
  Tb  Tb18  1  0.500000  0.000000  0.000000  1
  Tb  Tb19  1  0.000000  0.500000  0.500000  1
