# generated using pymatgen
data_ReNF6
_symmetry_space_group_name_H-M   'P 1'
_cell_length_a   5.41347320
_cell_length_b   9.50859843
_cell_length_c   9.82106834
_cell_angle_alpha   90.00000000
_cell_angle_beta   101.84706261
_cell_angle_gamma   90.00000000
_symmetry_Int_Tables_number   1
_chemical_formula_structural   ReNF6
_chemical_formula_sum   'Re4 N4 F24'
_cell_volume   494.76664494
_cell_formula_units_Z   4
loop_
 _symmetry_equiv_pos_site_id
 _symmetry_equiv_pos_as_xyz
  1  'x, y, z'
loop_
 _atom_site_type_symbol
 _atom_site_label
 _atom_site_symmetry_multiplicity
 _atom_site_fract_x
 _atom_site_fract_y
 _atom_site_fract_z
 _atom_site_occupancy
  Re  Re0  1  0.597163  0.610183  0.285618  1
  Re  Re1  1  0.097163  0.889817  0.785618  1
  Re  Re2  1  0.902837  0.110183  0.214382  1
  Re  Re3  1  0.402837  0.389817  0.714382  1
  N  N4  1  0.492454  0.726255  0.398883  1
  N  N5  1  0.007546  0.226255  0.101117  1
  N  N6  1  0.507546  0.273745  0.601117  1
  N  N7  1  0.992454  0.773745  0.898883  1
  F  F8  1  0.576928  0.182865  0.518542  1
  F  F9  1  0.923072  0.682865  0.981458  1
  F  F10  1  0.413208  0.802264  0.799664  1
  F  F11  1  0.758223  0.979899  0.076282  1
  F  F12  1  0.462325  0.714294  0.124304  1
  F  F13  1  0.586792  0.197736  0.200336  1
  F  F14  1  0.781197  0.988289  0.340235  1
  F  F15  1  0.537675  0.285706  0.875696  1
  F  F16  1  0.913208  0.697736  0.299664  1
  F  F17  1  0.218803  0.011711  0.659765  1
  F  F18  1  0.693354  0.503787  0.749215  1
  F  F19  1  0.076928  0.317135  0.018542  1
  F  F20  1  0.037675  0.214294  0.375696  1
  F  F21  1  0.806646  0.003787  0.750785  1
  F  F22  1  0.306646  0.496213  0.250785  1
  F  F23  1  0.086792  0.302264  0.700336  1
  F  F24  1  0.193354  0.996213  0.249215  1
  F  F25  1  0.741777  0.479899  0.423718  1
  F  F26  1  0.241777  0.020101  0.923718  1
  F  F27  1  0.962325  0.785706  0.624304  1
  F  F28  1  0.258223  0.520101  0.576282  1
  F  F29  1  0.281197  0.511711  0.840235  1
  F  F30  1  0.718803  0.488289  0.159765  1
  F  F31  1  0.423072  0.817135  0.481458  1
