# generated using pymatgen
data_V4As3
_symmetry_space_group_name_H-M   'P 1'
_cell_length_a   3.37030034
_cell_length_b   7.14862273
_cell_length_c   9.10018400
_cell_angle_alpha   100.47440919
_cell_angle_beta   90.00000000
_cell_angle_gamma   103.63470166
_symmetry_Int_Tables_number   1
_chemical_formula_structural   V4As3
_chemical_formula_sum   'V8 As6'
_cell_volume   209.31057256
_cell_formula_units_Z   2
loop_
 _symmetry_equiv_pos_site_id
 _symmetry_equiv_pos_as_xyz
  1  'x, y, z'
loop_
 _atom_site_type_symbol
 _atom_site_label
 _atom_site_symmetry_multiplicity
 _atom_site_fract_x
 _atom_site_fract_y
 _atom_site_fract_z
 _atom_site_occupancy
  V  V0  1  0.559317  0.118633  0.728593  1
  V  V1  1  0.440683  0.881367  0.271407  1
  V  V2  1  0.773837  0.547674  0.810174  1
  V  V3  1  0.226163  0.452326  0.189826  1
  V  V4  1  0.336450  0.672900  0.551775  1
  V  V5  1  0.663550  0.327100  0.448225  1
  V  V6  1  0.000000  0.000000  0.000000  1
  V  V7  1  0.000000  0.000000  0.500000  1
  As  As8  1  0.174867  0.349734  0.654235  1
  As  As9  1  0.825133  0.650266  0.345765  1
  As  As10  1  0.643028  0.286055  0.992798  1
  As  As11  1  0.356972  0.713945  0.007202  1
  As  As12  1  0.929080  0.858159  0.732477  1
  As  As13  1  0.070920  0.141841  0.267523  1
