# generated using pymatgen
data_AgClO3
_symmetry_space_group_name_H-M   'P 1'
_cell_length_a   7.36947872
_cell_length_b   7.36947872
_cell_length_c   7.36947872
_cell_angle_alpha   112.69283996
_cell_angle_beta   107.88482803
_cell_angle_gamma   107.88482800
_symmetry_Int_Tables_number   1
_chemical_formula_structural   AgClO3
_chemical_formula_sum   'Ag4 Cl4 O12'
_cell_volume   307.36268644
_cell_formula_units_Z   4
loop_
 _symmetry_equiv_pos_site_id
 _symmetry_equiv_pos_as_xyz
  1  'x, y, z'
loop_
 _atom_site_type_symbol
 _atom_site_label
 _atom_site_symmetry_multiplicity
 _atom_site_fract_x
 _atom_site_fract_y
 _atom_site_fract_z
 _atom_site_occupancy
  O  O0  1  0.318951  0.577391  0.741559  1
  O  O1  1  0.164168  0.741559  0.422609  1
  O  O2  1  0.835832  0.258441  0.577391  1
  O  O3  1  0.681049  0.422609  0.258441  1
  O  O4  1  0.340645  0.104244  0.937098  1
  O  O5  1  0.832854  0.937098  0.596453  1
  O  O6  1  0.167146  0.763599  0.104244  1
  O  O7  1  0.659355  0.596453  0.763599  1
  O  O8  1  0.340645  0.403547  0.236401  1
  O  O9  1  0.832854  0.236401  0.895756  1
  O  O10  1  0.167146  0.062902  0.403547  1
  O  O11  1  0.659355  0.895756  0.062902  1
  Cl  Cl12  1  0.546729  0.737686  0.809043  1
  Cl  Cl13  1  0.071357  0.809043  0.262314  1
  Cl  Cl14  1  0.928643  0.190957  0.737686  1
  Cl  Cl15  1  0.453271  0.262314  0.190957  1
  Ag  Ag16  1  0.000000  0.702593  0.702593  1
  Ag  Ag17  1  0.000000  0.297407  0.297407  1
  Ag  Ag18  1  0.500000  0.250000  0.750000  1
  Ag  Ag19  1  0.500000  0.750000  0.250000  1
