# generated using pymatgen
data_Br2O3
_symmetry_space_group_name_H-M   'P 1'
_cell_length_a   8.24236403
_cell_length_b   9.43030232
_cell_length_c   12.00089982
_cell_angle_alpha   109.15028844
_cell_angle_beta   90.00000000
_cell_angle_gamma   90.00000000
_symmetry_Int_Tables_number   1
_chemical_formula_structural   Br2O3
_chemical_formula_sum   'Br16 O24'
_cell_volume   881.18554445
_cell_formula_units_Z   8
loop_
 _symmetry_equiv_pos_site_id
 _symmetry_equiv_pos_as_xyz
  1  'x, y, z'
loop_
 _atom_site_type_symbol
 _atom_site_label
 _atom_site_symmetry_multiplicity
 _atom_site_fract_x
 _atom_site_fract_y
 _atom_site_fract_z
 _atom_site_occupancy
  O  O0  1  0.095287  0.570012  0.898579  1
  O  O1  1  0.595287  0.929988  0.101421  1
  O  O2  1  0.904713  0.429988  0.101421  1
  O  O3  1  0.404713  0.070012  0.898579  1
  O  O4  1  0.229817  0.684915  0.742159  1
  O  O5  1  0.729817  0.815085  0.257841  1
  O  O6  1  0.770183  0.315085  0.257841  1
  O  O7  1  0.270183  0.184915  0.742159  1
  O  O8  1  0.426377  0.515132  0.844563  1
  O  O9  1  0.926377  0.984868  0.155437  1
  O  O10  1  0.573623  0.484868  0.155437  1
  O  O11  1  0.073623  0.015132  0.844563  1
  O  O12  1  0.162691  0.874190  0.541598  1
  O  O13  1  0.662691  0.625810  0.458402  1
  O  O14  1  0.837309  0.125810  0.458402  1
  O  O15  1  0.337309  0.374190  0.541598  1
  O  O16  1  0.168843  0.207008  0.337200  1
  O  O17  1  0.668843  0.292992  0.662800  1
  O  O18  1  0.831157  0.792992  0.662800  1
  O  O19  1  0.331157  0.707008  0.337200  1
  O  O20  1  0.454430  0.108361  0.411836  1
  O  O21  1  0.954430  0.391639  0.588164  1
  O  O22  1  0.545570  0.891639  0.588164  1
  O  O23  1  0.045570  0.608361  0.411836  1
  Br  Br24  1  0.503303  0.692378  0.951502  1
  Br  Br25  1  0.003303  0.807622  0.048498  1
  Br  Br26  1  0.496697  0.307622  0.048498  1
  Br  Br27  1  0.996697  0.192378  0.951502  1
  Br  Br28  1  0.214002  0.533679  0.780507  1
  Br  Br29  1  0.714002  0.966321  0.219493  1
  Br  Br30  1  0.785998  0.466321  0.219493  1
  Br  Br31  1  0.285998  0.033679  0.780507  1
  Br  Br32  1  0.196779  0.739871  0.218942  1
  Br  Br33  1  0.696779  0.760129  0.781058  1
  Br  Br34  1  0.803221  0.260129  0.781058  1
  Br  Br35  1  0.303221  0.239871  0.218942  1
  Br  Br36  1  0.212975  0.697961  0.469617  1
  Br  Br37  1  0.712975  0.802039  0.530383  1
  Br  Br38  1  0.787025  0.302039  0.530383  1
  Br  Br39  1  0.287025  0.197961  0.469617  1
