# generated using pymatgen
data_In2CuO4
_symmetry_space_group_name_H-M   'P 1'
_cell_length_a   3.84350617
_cell_length_b   3.84350576
_cell_length_c   6.29110402
_cell_angle_alpha   107.78653439
_cell_angle_beta   107.78653272
_cell_angle_gamma   89.99998986
_symmetry_Int_Tables_number   1
_chemical_formula_structural   In2CuO4
_chemical_formula_sum   'In2 Cu1 O4'
_cell_volume   83.81605561
_cell_formula_units_Z   1
loop_
 _symmetry_equiv_pos_site_id
 _symmetry_equiv_pos_as_xyz
  1  'x, y, z'
loop_
 _atom_site_type_symbol
 _atom_site_label
 _atom_site_symmetry_multiplicity
 _atom_site_fract_x
 _atom_site_fract_y
 _atom_site_fract_z
 _atom_site_occupancy
  In  In0  1  0.346614  0.346614  0.693229  1
  In  In1  1  0.653385  0.653385  0.306771  1
  Cu  Cu2  1  0.000000  -0.000000  0.000000  1
  O  O3  1  0.250000  0.750000  0.500000  1
  O  O4  1  0.750000  0.250000  0.500000  1
  O  O5  1  0.000000  0.500000  0.000000  1
  O  O6  1  0.500000  -0.000000  0.000000  1
