# generated using pymatgen
data_H3ClO5
_symmetry_space_group_name_H-M   'P 1'
_cell_length_a   5.44812830
_cell_length_b   7.98982699
_cell_length_c   9.54638421
_cell_angle_alpha   90.00000000
_cell_angle_beta   90.00000000
_cell_angle_gamma   97.19927244
_symmetry_Int_Tables_number   1
_chemical_formula_structural   H3ClO5
_chemical_formula_sum   'H12 Cl4 O20'
_cell_volume   412.27423356
_cell_formula_units_Z   4
loop_
 _symmetry_equiv_pos_site_id
 _symmetry_equiv_pos_as_xyz
  1  'x, y, z'
loop_
 _atom_site_type_symbol
 _atom_site_label
 _atom_site_symmetry_multiplicity
 _atom_site_fract_x
 _atom_site_fract_y
 _atom_site_fract_z
 _atom_site_occupancy
  H  H0  1  0.371654  0.762640  0.728262  1
  H  H1  1  0.128346  0.737360  0.228262  1
  H  H2  1  0.628346  0.237360  0.271738  1
  H  H3  1  0.871654  0.262640  0.771738  1
  H  H4  1  0.592881  0.182504  0.103556  1
  H  H5  1  0.907119  0.317496  0.603556  1
  H  H6  1  0.122727  0.768516  0.833803  1
  H  H7  1  0.377273  0.731484  0.333803  1
  H  H8  1  0.877273  0.231484  0.166197  1
  H  H9  1  0.622727  0.268516  0.666197  1
  H  H10  1  0.407119  0.817496  0.896444  1
  H  H11  1  0.092881  0.682504  0.396444  1
  O  O12  1  0.848721  0.696079  0.883147  1
  O  O13  1  0.427248  0.185321  0.962930  1
  O  O14  1  0.927248  0.685321  0.537070  1
  O  O15  1  0.072752  0.314679  0.462930  1
  O  O16  1  0.499001  0.321056  0.400420  1
  O  O17  1  0.000999  0.178944  0.900420  1
  O  O18  1  0.500999  0.678944  0.599580  1
  O  O19  1  0.999001  0.821056  0.099580  1
  O  O20  1  0.798066  0.320764  0.689666  1
  O  O21  1  0.701934  0.179236  0.189666  1
  O  O22  1  0.201934  0.679236  0.310334  1
  O  O23  1  0.298066  0.820764  0.810334  1
  O  O24  1  0.151279  0.303921  0.116853  1
  O  O25  1  0.348721  0.196079  0.616853  1
  O  O26  1  0.731674  0.559662  0.101308  1
  O  O27  1  0.768326  0.940338  0.601308  1
  O  O28  1  0.268326  0.440338  0.898692  1
  O  O29  1  0.231674  0.059662  0.398692  1
  O  O30  1  0.572752  0.814679  0.037070  1
  O  O31  1  0.651279  0.803921  0.383147  1
  Cl  Cl32  1  0.787091  0.719301  0.031666  1
  Cl  Cl33  1  0.712909  0.780699  0.531666  1
  Cl  Cl34  1  0.212910  0.280699  0.968334  1
  Cl  Cl35  1  0.287091  0.219301  0.468334  1
