# generated using pymatgen
data_Ca11InSb9
_symmetry_space_group_name_H-M   'P 1'
_cell_length_a   11.94210632
_cell_length_b   12.10785969
_cell_length_c   12.10785969
_cell_angle_alpha   62.85001369
_cell_angle_beta   60.45182887
_cell_angle_gamma   60.45182885
_symmetry_Int_Tables_number   1
_chemical_formula_structural   Ca11InSb9
_chemical_formula_sum   'Ca22 In2 Sb18'
_cell_volume   1271.31800369
_cell_formula_units_Z   2
loop_
 _symmetry_equiv_pos_site_id
 _symmetry_equiv_pos_as_xyz
  1  'x, y, z'
loop_
 _atom_site_type_symbol
 _atom_site_label
 _atom_site_symmetry_multiplicity
 _atom_site_fract_x
 _atom_site_fract_y
 _atom_site_fract_z
 _atom_site_occupancy
  Ca  Ca0  1  0.918588  0.432199  0.875704  1
  Ca  Ca1  1  0.773509  0.875704  0.432199  1
  Ca  Ca2  1  0.273509  0.932199  0.375704  1
  Ca  Ca3  1  0.418588  0.375704  0.932199  1
  Ca  Ca4  1  0.692221  0.571584  0.678877  1
  Ca  Ca5  1  0.057318  0.678877  0.571584  1
  Ca  Ca6  1  0.557318  0.071584  0.178877  1
  Ca  Ca7  1  0.192221  0.178877  0.071584  1
  Ca  Ca8  1  0.250485  0.110214  0.562811  1
  Ca  Ca9  1  0.076490  0.562811  0.110214  1
  Ca  Ca10  1  0.576490  0.610214  0.062811  1
  Ca  Ca11  1  0.750485  0.062811  0.610214  1
  Ca  Ca12  1  0.948697  0.309014  0.424901  1
  Ca  Ca13  1  0.317388  0.424901  0.309014  1
  Ca  Ca14  1  0.817388  0.809014  0.924901  1
  Ca  Ca15  1  0.448697  0.924901  0.809014  1
  Ca  Ca16  1  0.168530  0.819222  0.171054  1
  Ca  Ca17  1  0.841193  0.171054  0.819222  1
  Ca  Ca18  1  0.341193  0.319222  0.671054  1
  Ca  Ca19  1  0.668530  0.671054  0.319222  1
  Ca  Ca20  1  0.330586  0.669414  0.669414  1
  Ca  Ca21  1  0.830586  0.169414  0.169414  1
  In  In22  1  0.613587  0.386413  0.386413  1
  In  In23  1  0.113587  0.886413  0.886413  1
  Sb  Sb24  1  0.633829  0.381714  0.620531  1
  Sb  Sb25  1  0.363925  0.620531  0.381714  1
  Sb  Sb26  1  0.863925  0.881714  0.120531  1
  Sb  Sb27  1  0.133829  0.120531  0.881714  1
  Sb  Sb28  1  0.752488  0.747512  0.747512  1
  Sb  Sb29  1  0.252488  0.247512  0.247512  1
  Sb  Sb30  1  0.145741  0.501768  0.855171  1
  Sb  Sb31  1  0.497320  0.855171  0.501768  1
  Sb  Sb32  1  0.997320  0.001768  0.355171  1
  Sb  Sb33  1  0.645741  0.355171  0.001768  1
  Sb  Sb34  1  0.042565  0.383715  0.602195  1
  Sb  Sb35  1  0.971526  0.602195  0.383715  1
  Sb  Sb36  1  0.471526  0.883715  0.102195  1
  Sb  Sb37  1  0.542565  0.102195  0.883715  1
  Sb  Sb38  1  0.543037  0.159350  0.448556  1
  Sb  Sb39  1  0.849057  0.448556  0.159350  1
  Sb  Sb40  1  0.349057  0.659350  0.948556  1
  Sb  Sb41  1  0.043037  0.948556  0.659350  1
