# generated using pymatgen
data_Ga8BIr4
_symmetry_space_group_name_H-M   'P 1'
_cell_length_a   8.62469280
_cell_length_b   8.62469281
_cell_length_c   12.26517780
_cell_angle_alpha   110.58475987
_cell_angle_beta   110.58475988
_cell_angle_gamma   89.99999998
_symmetry_Int_Tables_number   1
_chemical_formula_structural   Ga8BIr4
_chemical_formula_sum   'Ga32 B4 Ir16'
_cell_volume   791.57284902
_cell_formula_units_Z   4
loop_
 _symmetry_equiv_pos_site_id
 _symmetry_equiv_pos_as_xyz
  1  'x, y, z'
loop_
 _atom_site_type_symbol
 _atom_site_label
 _atom_site_symmetry_multiplicity
 _atom_site_fract_x
 _atom_site_fract_y
 _atom_site_fract_z
 _atom_site_occupancy
  B  B0  1  0.375000  0.625000  0.250000  1
  B  B1  1  0.125000  0.875000  0.750000  1
  B  B2  1  0.625000  0.375000  0.750000  1
  B  B3  1  0.875000  0.125000  0.250000  1
  Ga  Ga4  1  0.250387  0.276283  0.123903  1
  Ga  Ga5  1  0.152381  0.626484  0.376097  1
  Ga  Ga6  1  0.723717  0.749613  0.376097  1
  Ga  Ga7  1  0.126484  0.223717  0.876097  1
  Ga  Ga8  1  0.249613  0.652381  0.876097  1
  Ga  Ga9  1  0.347619  0.750387  0.623903  1
  Ga  Ga10  1  0.776283  0.873516  0.623903  1
  Ga  Ga11  1  0.373516  0.847619  0.123903  1
  Ga  Ga12  1  0.749613  0.723717  0.876097  1
  Ga  Ga13  1  0.847619  0.373516  0.623903  1
  Ga  Ga14  1  0.276283  0.250387  0.623903  1
  Ga  Ga15  1  0.873516  0.776283  0.123903  1
  Ga  Ga16  1  0.406824  0.376181  0.881760  1
  Ga  Ga17  1  0.005579  0.906824  0.381760  1
  Ga  Ga18  1  0.876181  0.474936  0.381760  1
  Ga  Ga19  1  0.525064  0.123819  0.118240  1
  Ga  Ga20  1  0.093176  0.994421  0.118240  1
  Ga  Ga21  1  0.494421  0.025064  0.618240  1
  Ga  Ga22  1  0.623819  0.593176  0.618240  1
  Ga  Ga23  1  0.974936  0.505579  0.881760  1
  Ga  Ga24  1  0.593176  0.623819  0.118240  1
  Ga  Ga25  1  0.994421  0.093176  0.618240  1
  Ga  Ga26  1  0.123819  0.525064  0.618240  1
  Ga  Ga27  1  0.474936  0.876181  0.881760  1
  Ga  Ga28  1  0.906824  0.005579  0.881760  1
  Ga  Ga29  1  0.505579  0.974936  0.381760  1
  Ga  Ga30  1  0.376181  0.406824  0.381760  1
  Ga  Ga31  1  0.025064  0.494421  0.118240  1
  Ga  Ga32  1  0.626484  0.152381  0.876097  1
  Ga  Ga33  1  0.223717  0.126484  0.376097  1
  Ga  Ga34  1  0.652381  0.249613  0.376097  1
  Ga  Ga35  1  0.750387  0.347619  0.123903  1
  Ir  Ir36  1  0.022988  0.772988  0.545976  1
  Ir  Ir37  1  0.272988  0.522988  0.045976  1
  Ir  Ir38  1  0.477012  0.727012  0.454024  1
  Ir  Ir39  1  0.227012  0.977012  0.954024  1
  Ir  Ir40  1  0.977012  0.227012  0.454024  1
  Ir  Ir41  1  0.727012  0.477012  0.954024  1
  Ir  Ir42  1  0.522988  0.272988  0.545976  1
  Ir  Ir43  1  0.772988  0.022988  0.045976  1
  Ir  Ir44  1  0.800720  0.199280  0.750000  1
  Ir  Ir45  1  0.050720  0.300720  0.250000  1
  Ir  Ir46  1  0.699280  0.949280  0.250000  1
  Ir  Ir47  1  0.449280  0.550720  0.750000  1
  Ir  Ir48  1  0.199280  0.800720  0.250000  1
  Ir  Ir49  1  0.949280  0.699280  0.750000  1
  Ir  Ir50  1  0.300720  0.050720  0.750000  1
  Ir  Ir51  1  0.550720  0.449280  0.250000  1
