# generated using pymatgen
data_La3SiBr3
_symmetry_space_group_name_H-M   'P 1'
_cell_length_a   10.64249198
_cell_length_b   10.64249198
_cell_length_c   10.64249198
_cell_angle_alpha   109.47122064
_cell_angle_beta   109.47122066
_cell_angle_gamma   109.47122060
_symmetry_Int_Tables_number   1
_chemical_formula_structural   La3SiBr3
_chemical_formula_sum   'La12 Si4 Br12'
_cell_volume   927.91480520
_cell_formula_units_Z   4
loop_
 _symmetry_equiv_pos_site_id
 _symmetry_equiv_pos_as_xyz
  1  'x, y, z'
loop_
 _atom_site_type_symbol
 _atom_site_label
 _atom_site_symmetry_multiplicity
 _atom_site_fract_x
 _atom_site_fract_y
 _atom_site_fract_z
 _atom_site_occupancy
  Si  Si0  1  0.500000  0.000000  0.250000  1
  Si  Si1  1  0.000000  0.250000  0.500000  1
  Si  Si2  1  0.250000  0.500000  0.000000  1
  Si  Si3  1  0.250000  0.250000  0.250000  1
  Br  Br4  1  0.250000  0.754273  0.745727  1
  Br  Br5  1  0.995727  0.504273  0.250000  1
  Br  Br6  1  0.504273  0.250000  0.995727  1
  Br  Br7  1  0.754273  0.508546  0.504273  1
  Br  Br8  1  0.745727  0.995727  0.991454  1
  Br  Br9  1  0.991454  0.745727  0.995727  1
  Br  Br10  1  0.508546  0.504273  0.754273  1
  Br  Br11  1  0.504273  0.754273  0.508546  1
  Br  Br12  1  0.250000  0.995727  0.504273  1
  Br  Br13  1  0.995727  0.991454  0.745727  1
  Br  Br14  1  0.745727  0.250000  0.754273  1
  Br  Br15  1  0.754273  0.745727  0.250000  1
  La  La16  1  0.020119  0.260060  0.010060  1
  La  La17  1  0.010060  0.020119  0.260060  1
  La  La18  1  0.010060  0.489940  0.750000  1
  La  La19  1  0.260060  0.750000  0.239940  1
  La  La20  1  0.260060  0.010060  0.020119  1
  La  La21  1  0.750000  0.010060  0.489940  1
  La  La22  1  0.750000  0.239940  0.260060  1
  La  La23  1  0.239940  0.260060  0.750000  1
  La  La24  1  0.489940  0.239940  0.479881  1
  La  La25  1  0.239940  0.479881  0.489940  1
  La  La26  1  0.489940  0.750000  0.010060  1
  La  La27  1  0.479881  0.489940  0.239940  1
