# generated using pymatgen
data_CsSbF4
_symmetry_space_group_name_H-M   'P 1'
_cell_length_a   6.46961168
_cell_length_b   9.82805312
_cell_length_c   16.12393408
_cell_angle_alpha   90.00000000
_cell_angle_beta   90.00000000
_cell_angle_gamma   90.00000000
_symmetry_Int_Tables_number   1
_chemical_formula_structural   CsSbF4
_chemical_formula_sum   'Cs8 Sb8 F32'
_cell_volume   1025.21918189
_cell_formula_units_Z   8
loop_
 _symmetry_equiv_pos_site_id
 _symmetry_equiv_pos_as_xyz
  1  'x, y, z'
loop_
 _atom_site_type_symbol
 _atom_site_label
 _atom_site_symmetry_multiplicity
 _atom_site_fract_x
 _atom_site_fract_y
 _atom_site_fract_z
 _atom_site_occupancy
  F  F0  1  0.219513  0.838758  0.452188  1
  F  F1  1  0.219513  0.161242  0.547812  1
  F  F2  1  0.780487  0.338758  0.047812  1
  F  F3  1  0.780487  0.661242  0.952188  1
  F  F4  1  0.780487  0.161242  0.547812  1
  F  F5  1  0.780487  0.838758  0.452188  1
  F  F6  1  0.219513  0.661242  0.952188  1
  F  F7  1  0.219513  0.338758  0.047812  1
  F  F8  1  0.000000  0.161646  0.402652  1
  F  F9  1  0.000000  0.838354  0.597348  1
  F  F10  1  0.000000  0.661646  0.097348  1
  F  F11  1  0.000000  0.338354  0.902652  1
  F  F12  1  0.256421  0.620691  0.583219  1
  F  F13  1  0.256421  0.379309  0.416781  1
  F  F14  1  0.743579  0.120691  0.916781  1
  F  F15  1  0.743579  0.879309  0.083219  1
  F  F16  1  0.500000  0.114836  0.782217  1
  F  F17  1  0.500000  0.885164  0.217783  1
  F  F18  1  0.500000  0.614836  0.717783  1
  F  F19  1  0.500000  0.385164  0.282217  1
  F  F20  1  0.276851  0.891403  0.794934  1
  F  F21  1  0.276851  0.108597  0.205066  1
  F  F22  1  0.723149  0.391403  0.705066  1
  F  F23  1  0.723149  0.608597  0.294934  1
  F  F24  1  0.723149  0.108597  0.205066  1
  F  F25  1  0.723149  0.891403  0.794934  1
  F  F26  1  0.276851  0.608597  0.294934  1
  F  F27  1  0.276851  0.391403  0.705066  1
  F  F28  1  0.256421  0.120691  0.916781  1
  F  F29  1  0.256421  0.879309  0.083219  1
  F  F30  1  0.743579  0.620691  0.583219  1
  F  F31  1  0.743579  0.379309  0.416781  1
  Sb  Sb32  1  0.000000  0.284857  0.499194  1
  Sb  Sb33  1  0.000000  0.715143  0.500806  1
  Sb  Sb34  1  0.000000  0.784857  1.000806  1
  Sb  Sb35  1  0.000000  0.215143  -0.000806  1
  Sb  Sb36  1  0.500000  0.526575  0.369545  1
  Sb  Sb37  1  0.500000  0.473425  0.630455  1
  Sb  Sb38  1  0.500000  0.026575  0.130455  1
  Sb  Sb39  1  0.500000  0.973425  0.869545  1
  Cs  Cs40  1  0.500000  0.909040  0.615517  1
  Cs  Cs41  1  0.500000  0.090960  0.384483  1
  Cs  Cs42  1  0.500000  0.409040  0.884483  1
  Cs  Cs43  1  0.500000  0.590960  0.115517  1
  Cs  Cs44  1  0.000000  0.142492  0.739005  1
  Cs  Cs45  1  0.000000  0.857508  0.260995  1
  Cs  Cs46  1  0.000000  0.642492  0.760995  1
  Cs  Cs47  1  0.000000  0.357508  0.239005  1
