# generated using pymatgen
data_H8NF5
_symmetry_space_group_name_H-M   'P 1'
_cell_length_a   6.37459826
_cell_length_b   6.37459825
_cell_length_c   8.22093567
_cell_angle_alpha   112.81178253
_cell_angle_beta   112.81178249
_cell_angle_gamma   90.00000005
_symmetry_Int_Tables_number   1
_chemical_formula_structural   H8NF5
_chemical_formula_sum   'H16 N2 F10'
_cell_volume   279.37028496
_cell_formula_units_Z   2
loop_
 _symmetry_equiv_pos_site_id
 _symmetry_equiv_pos_as_xyz
  1  'x, y, z'
loop_
 _atom_site_type_symbol
 _atom_site_label
 _atom_site_symmetry_multiplicity
 _atom_site_fract_x
 _atom_site_fract_y
 _atom_site_fract_z
 _atom_site_occupancy
  H  H0  1  0.928151  0.674476  0.664315  1
  H  H1  1  0.989839  0.428151  0.164315  1
  H  H2  1  0.174476  0.236164  0.164315  1
  H  H3  1  0.736164  0.489839  0.664315  1
  H  H4  1  0.071849  0.325524  0.335685  1
  H  H5  1  0.010161  0.571849  0.835685  1
  H  H6  1  0.825524  0.763836  0.835685  1
  H  H7  1  0.263836  0.510161  0.335685  1
  H  H8  1  0.437881  0.208475  0.628339  1
  H  H9  1  0.419864  0.937881  0.128339  1
  H  H10  1  0.708475  0.690458  0.128339  1
  H  H11  1  0.190458  0.919864  0.628339  1
  H  H12  1  0.809542  0.080136  0.371661  1
  H  H13  1  0.291525  0.309542  0.871661  1
  H  H14  1  0.580136  0.062120  0.871661  1
  H  H15  1  0.562119  0.791525  0.371661  1
  N  N16  1  0.875000  0.625000  0.750000  1
  N  N17  1  0.125000  0.375000  0.250000  1
  F  F18  1  0.479893  0.266782  0.547965  1
  F  F19  1  0.281183  0.979893  0.047965  1
  F  F20  1  0.766782  0.568072  0.047965  1
  F  F21  1  0.068072  0.781183  0.547965  1
  F  F22  1  0.520107  0.733218  0.452035  1
  F  F23  1  0.718817  0.020107  0.952035  1
  F  F24  1  0.233218  0.431928  0.952035  1
  F  F25  1  0.931928  0.218817  0.452035  1
  F  F26  1  0.375000  0.125000  0.750000  1
  F  F27  1  0.625000  0.875000  0.250000  1
