# generated using pymatgen
data_Ca2B6O11
_symmetry_space_group_name_H-M   'P 1'
_cell_length_a   8.76008864
_cell_length_b   8.65754835
_cell_length_c   10.82059445
_cell_angle_alpha   90.00000000
_cell_angle_beta   90.00000000
_cell_angle_gamma   111.55018187
_symmetry_Int_Tables_number   1
_chemical_formula_structural   Ca2B6O11
_chemical_formula_sum   'Ca8 B24 O44'
_cell_volume   763.27743567
_cell_formula_units_Z   4
loop_
 _symmetry_equiv_pos_site_id
 _symmetry_equiv_pos_as_xyz
  1  'x, y, z'
loop_
 _atom_site_type_symbol
 _atom_site_label
 _atom_site_symmetry_multiplicity
 _atom_site_fract_x
 _atom_site_fract_y
 _atom_site_fract_z
 _atom_site_occupancy
  B  B0  1  0.266629  0.415673  0.919751  1
  B  B1  1  0.961278  0.287584  0.936191  1
  B  B2  1  0.538722  0.712416  0.436191  1
  B  B3  1  0.038722  0.712416  0.063809  1
  B  B4  1  0.461278  0.287584  0.563809  1
  B  B5  1  0.898358  0.714273  0.655739  1
  B  B6  1  0.601642  0.285727  0.155739  1
  B  B7  1  0.101642  0.285727  0.344261  1
  B  B8  1  0.398358  0.714273  0.844261  1
  B  B9  1  0.233371  0.584327  0.419751  1
  B  B10  1  0.733371  0.584327  0.080249  1
  B  B11  1  0.766629  0.415673  0.580249  1
  B  B12  1  0.487077  0.008212  0.749953  1
  B  B13  1  0.012923  0.991788  0.249953  1
  B  B14  1  0.512923  0.991788  0.250047  1
  B  B15  1  0.987077  0.008212  0.750047  1
  B  B16  1  0.379068  0.759010  0.615615  1
  B  B17  1  0.120932  0.240990  0.115615  1
  B  B18  1  0.620932  0.240990  0.384385  1
  B  B19  1  0.879068  0.759010  0.884385  1
  B  B20  1  0.306451  0.195255  0.762491  1
  B  B21  1  0.193549  0.804745  0.262491  1
  B  B22  1  0.693549  0.804745  0.237509  1
  B  B23  1  0.806451  0.195255  0.737509  1
  O  O24  1  0.346705  0.929398  0.299050  1
  O  O25  1  0.442177  0.141727  0.805272  1
  O  O26  1  0.057823  0.858273  0.305272  1
  O  O27  1  0.557823  0.858273  0.194728  1
  O  O28  1  0.942177  0.141727  0.694728  1
  O  O29  1  0.469720  0.884925  0.865004  1
  O  O30  1  0.030280  0.115075  0.365004  1
  O  O31  1  0.530280  0.115075  0.134996  1
  O  O32  1  0.309345  0.224874  0.623847  1
  O  O33  1  0.190655  0.775126  0.123847  1
  O  O34  1  0.690655  0.775126  0.376153  1
  O  O35  1  0.809345  0.224874  0.876153  1
  O  O36  1  0.235941  0.672942  0.535619  1
  O  O37  1  0.264059  0.327058  0.035619  1
  O  O38  1  0.764059  0.327058  0.464381  1
  O  O39  1  0.735941  0.672942  0.964381  1
  O  O40  1  0.346024  0.360480  0.820495  1
  O  O41  1  0.153976  0.639520  0.320495  1
  O  O42  1  0.653976  0.639520  0.179505  1
  O  O43  1  0.846024  0.360480  0.679505  1
  O  O44  1  0.097075  0.398575  0.880193  1
  O  O45  1  0.402925  0.601425  0.380193  1
  O  O46  1  0.902925  0.601425  0.119807  1
  O  O47  1  0.597075  0.398575  0.619807  1
  O  O48  1  0.153295  0.070602  0.799050  1
  O  O49  1  0.969720  0.884925  0.634996  1
  O  O50  1  0.846705  0.929398  0.200950  1
  O  O51  1  0.653295  0.070602  0.700950  1
  O  O52  1  0.361534  0.653580  0.726295  1
  O  O53  1  0.138466  0.346420  0.226295  1
  O  O54  1  0.638466  0.346420  0.273705  1
  O  O55  1  0.861534  0.653580  0.773705  1
  O  O56  1  0.036237  0.778417  0.949486  1
  O  O57  1  0.875475  0.918961  0.848021  1
  O  O58  1  0.963763  0.221583  0.050514  1
  O  O59  1  0.536237  0.778417  0.550514  1
  O  O60  1  0.361560  0.600968  0.941050  1
  O  O61  1  0.138440  0.399032  0.441050  1
  O  O62  1  0.638440  0.399032  0.058950  1
  O  O63  1  0.861560  0.600968  0.558950  1
  O  O64  1  0.375475  0.918961  0.651979  1
  O  O65  1  0.124525  0.081039  0.151979  1
  O  O66  1  0.624525  0.081039  0.348021  1
  O  O67  1  0.463763  0.221583  0.449486  1
  Ca  Ca68  1  0.638253  0.415058  0.838891  1
  Ca  Ca69  1  0.861747  0.584942  0.338891  1
  Ca  Ca70  1  0.361747  0.584942  0.161109  1
  Ca  Ca71  1  0.138253  0.415058  0.661109  1
  Ca  Ca72  1  0.779175  0.024319  0.508297  1
  Ca  Ca73  1  0.720825  0.975681  0.008297  1
  Ca  Ca74  1  0.220825  0.975681  0.491703  1
  Ca  Ca75  1  0.279175  0.024319  0.991703  1
