# generated using pymatgen
data_KTlCl4
_symmetry_space_group_name_H-M   'P 1'
_cell_length_a   7.09270492
_cell_length_b   7.09270492
_cell_length_c   9.36670280
_cell_angle_alpha   112.24777537
_cell_angle_beta   112.24777537
_cell_angle_gamma   89.99999999
_symmetry_Int_Tables_number   1
_chemical_formula_structural   KTlCl4
_chemical_formula_sum   'K2 Tl2 Cl8'
_cell_volume   397.96797125
_cell_formula_units_Z   2
loop_
 _symmetry_equiv_pos_site_id
 _symmetry_equiv_pos_as_xyz
  1  'x, y, z'
loop_
 _atom_site_type_symbol
 _atom_site_label
 _atom_site_symmetry_multiplicity
 _atom_site_fract_x
 _atom_site_fract_y
 _atom_site_fract_z
 _atom_site_occupancy
  Cl  Cl0  1  0.629031  0.293397  0.580941  1
  Cl  Cl1  1  0.793397  0.451910  0.080941  1
  Cl  Cl2  1  0.370969  0.706603  0.419059  1
  Cl  Cl3  1  0.712456  0.870969  0.919059  1
  Cl  Cl4  1  0.287544  0.129031  0.080941  1
  Cl  Cl5  1  0.048090  0.212456  0.419059  1
  Cl  Cl6  1  0.206603  0.548090  0.919059  1
  Cl  Cl7  1  0.951910  0.787544  0.580941  1
  K  K8  1  0.625000  0.875000  0.250000  1
  K  K9  1  0.375000  0.125000  0.750000  1
  Tl  Tl10  1  0.875000  0.625000  0.750000  1
  Tl  Tl11  1  0.125000  0.375000  0.250000  1
