# generated using pymatgen
data_LiIO3
_symmetry_space_group_name_H-M   'P 1'
_cell_length_a   5.54457534
_cell_length_b   5.54457543
_cell_length_c   5.24594696
_cell_angle_alpha   90.00000000
_cell_angle_beta   90.00000000
_cell_angle_gamma   119.99999947
_symmetry_Int_Tables_number   1
_chemical_formula_structural   LiIO3
_chemical_formula_sum   'Li2 I2 O6'
_cell_volume   139.66613479
_cell_formula_units_Z   2
loop_
 _symmetry_equiv_pos_site_id
 _symmetry_equiv_pos_as_xyz
  1  'x, y, z'
loop_
 _atom_site_type_symbol
 _atom_site_label
 _atom_site_symmetry_multiplicity
 _atom_site_fract_x
 _atom_site_fract_y
 _atom_site_fract_z
 _atom_site_occupancy
  Li  Li0  1  0.000000  0.000000  0.420232  1
  Li  Li1  1  0.000000  0.000000  0.920232  1
  I  I2  1  0.666667  0.333333  0.497346  1
  I  I3  1  0.333333  0.666667  0.997346  1
  O  O4  1  0.244931  0.340424  0.159574  1
  O  O5  1  0.659576  0.904507  0.159574  1
  O  O6  1  0.755069  0.659576  0.659574  1
  O  O7  1  0.340424  0.095493  0.659574  1
  O  O8  1  0.904507  0.244931  0.659574  1
  O  O9  1  0.095493  0.755069  0.159574  1
