# generated using pymatgen
data_S5N5Cl
_symmetry_space_group_name_H-M   'P 1'
_cell_length_a   7.73194519
_cell_length_b   8.14401973
_cell_length_c   8.35925933
_cell_angle_alpha   60.84816580
_cell_angle_beta   86.88479981
_cell_angle_gamma   83.59475254
_symmetry_Int_Tables_number   1
_chemical_formula_structural   S5N5Cl
_chemical_formula_sum   'S10 N10 Cl2'
_cell_volume   456.83062506
_cell_formula_units_Z   2
loop_
 _symmetry_equiv_pos_site_id
 _symmetry_equiv_pos_as_xyz
  1  'x, y, z'
loop_
 _atom_site_type_symbol
 _atom_site_label
 _atom_site_symmetry_multiplicity
 _atom_site_fract_x
 _atom_site_fract_y
 _atom_site_fract_z
 _atom_site_occupancy
  S  S0  1  0.295540  0.635742  0.271009  1
  S  S1  1  0.704460  0.364258  0.728991  1
  S  S2  1  0.750000  0.777196  0.445608  1
  S  S3  1  0.204460  0.093249  0.271009  1
  S  S4  1  0.711910  0.271153  0.112183  1
  S  S5  1  0.788090  0.616664  0.112183  1
  S  S6  1  0.288090  0.728847  0.887817  1
  S  S7  1  0.250000  0.222804  0.554392  1
  S  S8  1  0.795540  0.906751  0.728991  1
  S  S9  1  0.211910  0.383336  0.887817  1
  N  N10  1  0.799369  0.703258  0.897332  1
  N  N11  1  0.271958  0.442364  0.452994  1
  N  N12  1  0.299369  0.600590  0.102668  1
  N  N13  1  0.228042  0.104642  0.452994  1
  N  N14  1  0.200631  0.296742  0.102668  1
  N  N15  1  0.250000  0.599347  0.801306  1
  N  N16  1  0.771958  0.895358  0.547006  1
  N  N17  1  0.750000  0.400653  0.198694  1
  N  N18  1  0.700631  0.399410  0.897332  1
  N  N19  1  0.728042  0.557636  0.547006  1
  Cl  Cl20  1  0.000000  -0.000000  0.000000  1
  Cl  Cl21  1  0.500000  -0.000000  0.000000  1
