# generated using pymatgen
data_DyInIr
_symmetry_space_group_name_H-M   'P 1'
_cell_length_a   7.51260134
_cell_length_b   7.51260134
_cell_length_c   3.97486109
_cell_angle_alpha   90.00000000
_cell_angle_beta   90.00000000
_cell_angle_gamma   120.00000000
_symmetry_Int_Tables_number   1
_chemical_formula_structural   DyInIr
_chemical_formula_sum   'Dy3 In3 Ir3'
_cell_volume   194.28231712
_cell_formula_units_Z   3
loop_
 _symmetry_equiv_pos_site_id
 _symmetry_equiv_pos_as_xyz
  1  'x, y, z'
loop_
 _atom_site_type_symbol
 _atom_site_label
 _atom_site_symmetry_multiplicity
 _atom_site_fract_x
 _atom_site_fract_y
 _atom_site_fract_z
 _atom_site_occupancy
  In  In0  1  0.000000  0.743075  0.500000  1
  In  In1  1  0.256925  0.256925  0.500000  1
  In  In2  1  0.743075  0.000000  0.500000  1
  Dy  Dy3  1  0.594248  0.594248  0.000000  1
  Dy  Dy4  1  0.405752  0.000000  0.000000  1
  Dy  Dy5  1  0.000000  0.405752  0.000000  1
  Ir  Ir6  1  0.000000  0.000000  0.000000  1
  Ir  Ir7  1  0.666667  0.333333  0.500000  1
  Ir  Ir8  1  0.333333  0.666667  0.500000  1
