# generated using pymatgen
data_Ca2MnGaO5
_symmetry_space_group_name_H-M   'P 1'
_cell_length_a   5.39288670
_cell_length_b   5.63980792
_cell_length_c   8.47967855
_cell_angle_alpha   109.42283381
_cell_angle_beta   108.54134341
_cell_angle_gamma   90.00000002
_symmetry_Int_Tables_number   1
_chemical_formula_structural   Ca2MnGaO5
_chemical_formula_sum   'Ca4 Mn2 Ga2 O10'
_cell_volume   228.98728798
_cell_formula_units_Z   2
loop_
 _symmetry_equiv_pos_site_id
 _symmetry_equiv_pos_as_xyz
  1  'x, y, z'
loop_
 _atom_site_type_symbol
 _atom_site_label
 _atom_site_symmetry_multiplicity
 _atom_site_fract_x
 _atom_site_fract_y
 _atom_site_fract_z
 _atom_site_occupancy
  O  O0  1  0.632417  0.128248  0.500010  1
  O  O1  1  0.132407  0.871752  0.499990  1
  O  O2  1  0.303230  0.429042  0.711374  1
  O  O3  1  0.591856  0.570958  0.288626  1
  O  O4  1  0.803224  0.782299  0.711355  1
  O  O5  1  0.091868  0.217701  0.288645  1
  O  O6  1  0.251299  0.767872  0.027673  1
  O  O7  1  0.223626  0.232128  0.972327  1
  O  O8  1  0.723621  0.240184  0.972327  1
  O  O9  1  0.751294  0.759816  0.027673  1
  Ca  Ca10  1  0.608863  0.139025  0.219043  1
  Ca  Ca11  1  0.389820  0.860975  0.780957  1
  Ca  Ca12  1  0.889816  0.419977  0.780960  1
  Ca  Ca13  1  0.108856  0.580023  0.219040  1
  Mn  Mn14  1  0.485975  0.500000  0.000000  1
  Mn  Mn15  1  0.985976  1.000000  0.000000  1
  Ga  Ga16  1  0.278929  0.181041  0.500006  1
  Ga  Ga17  1  0.778923  0.818959  0.499994  1
