# generated using pymatgen
data_KSc2F7
_symmetry_space_group_name_H-M   'P 1'
_cell_length_a   4.08910811
_cell_length_b   6.31169535
_cell_length_c   6.31169606
_cell_angle_alpha   116.97226577
_cell_angle_beta   90.00000000
_cell_angle_gamma   90.00000000
_symmetry_Int_Tables_number   1
_chemical_formula_structural   KSc2F7
_chemical_formula_sum   'K1 Sc2 F7'
_cell_volume   145.18061491
_cell_formula_units_Z   1
loop_
 _symmetry_equiv_pos_site_id
 _symmetry_equiv_pos_as_xyz
  1  'x, y, z'
loop_
 _atom_site_type_symbol
 _atom_site_label
 _atom_site_symmetry_multiplicity
 _atom_site_fract_x
 _atom_site_fract_y
 _atom_site_fract_z
 _atom_site_occupancy
  K  K0  1  0.000000  0.000000  0.000000  1
  Sc  Sc1  1  0.500000  0.692836  0.307164  1
  Sc  Sc2  1  0.500000  0.307164  0.692836  1
  F  F3  1  0.000000  0.701363  0.298637  1
  F  F4  1  0.000000  0.298637  0.701363  1
  F  F5  1  0.500000  0.044475  0.334383  1
  F  F6  1  0.500000  0.955525  0.665617  1
  F  F7  1  0.500000  0.334383  0.044475  1
  F  F8  1  0.500000  0.665617  0.955525  1
  F  F9  1  0.500000  0.500000  0.500000  1
