# generated using pymatgen
data_FeMoClO4
_symmetry_space_group_name_H-M   'P 1'
_cell_length_a   6.77966753
_cell_length_b   6.78393538
_cell_length_c   5.60218772
_cell_angle_alpha   90.00000000
_cell_angle_beta   91.36820985
_cell_angle_gamma   90.00000000
_symmetry_Int_Tables_number   1
_chemical_formula_structural   FeMoClO4
_chemical_formula_sum   'Fe2 Mo2 Cl2 O8'
_cell_volume   257.58698615
_cell_formula_units_Z   2
loop_
 _symmetry_equiv_pos_site_id
 _symmetry_equiv_pos_as_xyz
  1  'x, y, z'
loop_
 _atom_site_type_symbol
 _atom_site_label
 _atom_site_symmetry_multiplicity
 _atom_site_fract_x
 _atom_site_fract_y
 _atom_site_fract_z
 _atom_site_occupancy
  O  O0  1  0.974456  0.250000  0.175440  1
  O  O1  1  0.740807  0.465118  0.813988  1
  O  O2  1  0.740807  0.034882  0.813988  1
  O  O3  1  0.544608  0.250000  0.195792  1
  O  O4  1  0.455392  0.750000  0.804208  1
  O  O5  1  0.259193  0.965118  0.186012  1
  O  O6  1  0.025545  0.750000  0.824560  1
  O  O7  1  0.259193  0.534882  0.186012  1
  Cl  Cl8  1  0.253112  0.250000  0.666350  1
  Cl  Cl9  1  0.746888  0.750000  0.333650  1
  Fe  Fe10  1  0.740625  0.750000  0.732123  1
  Fe  Fe11  1  0.259375  0.250000  0.267877  1
  Mo  Mo12  1  0.249761  0.750000  0.000119  1
  Mo  Mo13  1  0.750239  0.250000  0.999881  1
