# generated using pymatgen
data_K6Sn3As5
_symmetry_space_group_name_H-M   'P 1'
_cell_length_a   10.88137762
_cell_length_b   11.13857466
_cell_length_c   15.03822543
_cell_angle_alpha   90.00000000
_cell_angle_beta   90.00000000
_cell_angle_gamma   90.00000000
_symmetry_Int_Tables_number   1
_chemical_formula_structural   K6Sn3As5
_chemical_formula_sum   'K24 Sn12 As20'
_cell_volume   1822.67859357
_cell_formula_units_Z   4
loop_
 _symmetry_equiv_pos_site_id
 _symmetry_equiv_pos_as_xyz
  1  'x, y, z'
loop_
 _atom_site_type_symbol
 _atom_site_label
 _atom_site_symmetry_multiplicity
 _atom_site_fract_x
 _atom_site_fract_y
 _atom_site_fract_z
 _atom_site_occupancy
  K  K0  1  0.042080  0.104885  0.102696  1
  K  K1  1  0.542080  0.895115  0.897304  1
  K  K2  1  0.457920  0.104885  0.397304  1
  K  K3  1  0.957920  0.895115  0.602696  1
  K  K4  1  0.957920  0.895115  0.897304  1
  K  K5  1  0.457920  0.104885  0.102696  1
  K  K6  1  0.542080  0.895115  0.602696  1
  K  K7  1  0.042080  0.104885  0.397304  1
  K  K8  1  0.250000  0.411332  0.030395  1
  K  K9  1  0.750000  0.588668  0.969605  1
  K  K10  1  0.250000  0.411332  0.469605  1
  K  K11  1  0.750000  0.588668  0.530395  1
  K  K12  1  0.047996  0.699982  0.398517  1
  K  K13  1  0.547996  0.300018  0.601483  1
  K  K14  1  0.452004  0.699982  0.101483  1
  K  K15  1  0.952004  0.300018  0.898517  1
  K  K16  1  0.952004  0.300018  0.601483  1
  K  K17  1  0.452004  0.699982  0.398517  1
  K  K18  1  0.547996  0.300018  0.898517  1
  K  K19  1  0.047996  0.699982  0.101483  1
  K  K20  1  0.250000  0.900620  0.250000  1
  K  K21  1  0.750000  0.099380  0.750000  1
  K  K22  1  0.750000  0.582283  0.250000  1
  K  K23  1  0.250000  0.417717  0.750000  1
  As  As24  1  0.250000  0.910618  0.975591  1
  As  As25  1  0.750000  0.089382  0.475591  1
  As  As26  1  0.250000  0.910618  0.524409  1
  As  As27  1  0.942534  0.407987  0.105783  1
  As  As28  1  0.750000  0.089382  0.024409  1
  As  As29  1  0.442534  0.592013  0.894217  1
  As  As30  1  0.557466  0.407987  0.394217  1
  As  As31  1  0.057466  0.592013  0.605783  1
  As  As32  1  0.057466  0.592013  0.894217  1
  As  As33  1  0.557466  0.407987  0.105783  1
  As  As34  1  0.442534  0.592013  0.605783  1
  As  As35  1  0.942534  0.407987  0.394217  1
  As  As36  1  0.932082  0.898871  0.250000  1
  As  As37  1  0.432082  0.101129  0.750000  1
  As  As38  1  0.567918  0.898871  0.250000  1
  As  As39  1  0.067918  0.101129  0.750000  1
  As  As40  1  0.250000  0.217511  0.250000  1
  As  As41  1  0.750000  0.782489  0.750000  1
  As  As42  1  0.250000  0.574149  0.250000  1
  As  As43  1  0.750000  0.425851  0.750000  1
  Sn  Sn44  1  0.750000  0.267369  0.147690  1
  Sn  Sn45  1  0.250000  0.732631  0.852310  1
  Sn  Sn46  1  0.750000  0.267369  0.352310  1
  Sn  Sn47  1  0.250000  0.732631  0.647690  1
  Sn  Sn48  1  0.750000  0.880701  0.124415  1
  Sn  Sn49  1  0.250000  0.119299  0.875585  1
  Sn  Sn50  1  0.750000  0.880701  0.375585  1
  Sn  Sn51  1  0.919049  0.604232  0.750000  1
  Sn  Sn52  1  0.419049  0.395768  0.250000  1
  Sn  Sn53  1  0.580951  0.604232  0.750000  1
  Sn  Sn54  1  0.080951  0.395768  0.250000  1
  Sn  Sn55  1  0.250000  0.119299  0.624415  1
