# generated using pymatgen
data_RbTe6
_symmetry_space_group_name_H-M   'P 1'
_cell_length_a   7.13919324
_cell_length_b   7.13919304
_cell_length_c   12.47749724
_cell_angle_alpha   92.67158091
_cell_angle_beta   105.21207929
_cell_angle_gamma   117.38324460
_symmetry_Int_Tables_number   1
_chemical_formula_structural   RbTe6
_chemical_formula_sum   'Rb2 Te12'
_cell_volume   534.42172173
_cell_formula_units_Z   2
loop_
 _symmetry_equiv_pos_site_id
 _symmetry_equiv_pos_as_xyz
  1  'x, y, z'
loop_
 _atom_site_type_symbol
 _atom_site_label
 _atom_site_symmetry_multiplicity
 _atom_site_fract_x
 _atom_site_fract_y
 _atom_site_fract_z
 _atom_site_occupancy
  Te  Te0  1  0.837166  0.759233  0.642171  1
  Te  Te1  1  0.617062  0.194995  0.857829  1
  Te  Te2  1  0.162834  0.240767  0.357829  1
  Te  Te3  1  0.382938  0.805005  0.142171  1
  Te  Te4  1  0.539451  0.767573  0.404275  1
  Te  Te5  1  0.863298  0.135176  0.095725  1
  Te  Te6  1  0.460549  0.232427  0.595725  1
  Te  Te7  1  0.136702  0.864824  0.904275  1
  Te  Te8  1  0.823135  0.222075  0.439265  1
  Te  Te9  1  0.282809  0.383870  0.060735  1
  Te  Te10  1  0.176865  0.777925  0.560735  1
  Te  Te11  1  0.717191  0.616130  0.939265  1
  Rb  Rb12  1  0.114217  0.364217  0.750000  1
  Rb  Rb13  1  0.885783  0.635783  0.250000  1
