# generated using pymatgen
data_Zr3AlN
_symmetry_space_group_name_H-M   'P 1'
_cell_length_a   3.39011282
_cell_length_b   6.01962387
_cell_length_c   9.03727001
_cell_angle_alpha   90.00000000
_cell_angle_beta   90.00000000
_cell_angle_gamma   106.35502983
_symmetry_Int_Tables_number   1
_chemical_formula_structural   Zr3AlN
_chemical_formula_sum   'Zr6 Al2 N2'
_cell_volume   176.96269091
_cell_formula_units_Z   2
loop_
 _symmetry_equiv_pos_site_id
 _symmetry_equiv_pos_as_xyz
  1  'x, y, z'
loop_
 _atom_site_type_symbol
 _atom_site_label
 _atom_site_symmetry_multiplicity
 _atom_site_fract_x
 _atom_site_fract_y
 _atom_site_fract_z
 _atom_site_occupancy
  Zr  Zr0  1  0.372755  0.745511  0.957883  1
  Zr  Zr1  1  0.627245  0.254489  0.042117  1
  Zr  Zr2  1  0.627245  0.254489  0.457883  1
  Zr  Zr3  1  0.372755  0.745511  0.542117  1
  Zr  Zr4  1  0.044642  0.089284  0.750000  1
  Zr  Zr5  1  0.955358  0.910716  0.250000  1
  Al  Al6  1  0.747643  0.495286  0.750000  1
  Al  Al7  1  0.252357  0.504714  0.250000  1
  N  N8  1  0.000000  0.000000  0.000000  1
  N  N9  1  0.000000  0.000000  0.500000  1
