# generated using pymatgen
data_Mo4P3
_symmetry_space_group_name_H-M   'P 1'
_cell_length_a   3.16369994
_cell_length_b   12.51058032
_cell_length_c   20.56808732
_cell_angle_alpha   90.00000000
_cell_angle_beta   90.00000000
_cell_angle_gamma   90.00000000
_symmetry_Int_Tables_number   1
_chemical_formula_structural   Mo4P3
_chemical_formula_sum   'Mo32 P24'
_cell_volume   814.07918247
_cell_formula_units_Z   8
loop_
 _symmetry_equiv_pos_site_id
 _symmetry_equiv_pos_as_xyz
  1  'x, y, z'
loop_
 _atom_site_type_symbol
 _atom_site_label
 _atom_site_symmetry_multiplicity
 _atom_site_fract_x
 _atom_site_fract_y
 _atom_site_fract_z
 _atom_site_occupancy
  P  P0  1  0.250000  0.699574  0.705092  1
  P  P1  1  0.750000  0.300426  0.294908  1
  P  P2  1  0.250000  0.199574  0.794908  1
  P  P3  1  0.750000  0.800426  0.205092  1
  P  P4  1  0.250000  0.516478  0.225247  1
  P  P5  1  0.750000  0.483522  0.774753  1
  P  P6  1  0.250000  0.016478  0.274753  1
  P  P7  1  0.750000  0.983522  0.725247  1
  P  P8  1  0.250000  0.541399  0.919205  1
  P  P9  1  0.750000  0.458601  0.080795  1
  P  P10  1  0.250000  0.041399  0.580795  1
  P  P11  1  0.750000  0.958601  0.419205  1
  P  P12  1  0.250000  0.821377  0.863386  1
  P  P13  1  0.750000  0.178623  0.136614  1
  P  P14  1  0.250000  0.321377  0.636614  1
  P  P15  1  0.750000  0.678623  0.363386  1
  P  P16  1  0.250000  0.981698  0.081034  1
  P  P17  1  0.750000  0.018302  0.918966  1
  P  P18  1  0.250000  0.481698  0.418966  1
  P  P19  1  0.750000  0.518302  0.581034  1
  P  P20  1  0.250000  0.745603  0.527693  1
  P  P21  1  0.750000  0.254397  0.472307  1
  P  P22  1  0.250000  0.245603  0.972307  1
  P  P23  1  0.750000  0.754397  0.027693  1
  Mo  Mo24  1  0.750000  0.701966  0.613506  1
  Mo  Mo25  1  0.250000  0.298034  0.386494  1
  Mo  Mo26  1  0.750000  0.201966  0.886494  1
  Mo  Mo27  1  0.250000  0.798034  0.113506  1
  Mo  Mo28  1  0.750000  0.990765  0.172305  1
  Mo  Mo29  1  0.250000  0.009235  0.827695  1
  Mo  Mo30  1  0.750000  0.490765  0.327695  1
  Mo  Mo31  1  0.250000  0.509235  0.672305  1
  Mo  Mo32  1  0.250000  0.594818  0.033404  1
  Mo  Mo33  1  0.750000  0.405182  0.966596  1
  Mo  Mo34  1  0.250000  0.094818  0.466596  1
  Mo  Mo35  1  0.750000  0.905182  0.533404  1
  Mo  Mo36  1  0.250000  0.900994  0.972748  1
  Mo  Mo37  1  0.750000  0.099006  0.027252  1
  Mo  Mo38  1  0.250000  0.400994  0.527252  1
  Mo  Mo39  1  0.750000  0.599006  0.472748  1
  Mo  Mo40  1  0.250000  0.797171  0.415978  1
  Mo  Mo41  1  0.750000  0.202829  0.584022  1
  Mo  Mo42  1  0.250000  0.297171  0.084022  1
  Mo  Mo43  1  0.750000  0.702829  0.915978  1
  Mo  Mo44  1  0.250000  0.620494  0.810850  1
  Mo  Mo45  1  0.750000  0.379506  0.189150  1
  Mo  Mo46  1  0.250000  0.120494  0.689150  1
  Mo  Mo47  1  0.750000  0.879506  0.310850  1
  Mo  Mo48  1  0.250000  0.884803  0.647515  1
  Mo  Mo49  1  0.750000  0.115197  0.352485  1
  Mo  Mo50  1  0.250000  0.384803  0.852485  1
  Mo  Mo51  1  0.750000  0.615197  0.147515  1
  Mo  Mo52  1  0.250000  0.694032  0.273550  1
  Mo  Mo53  1  0.750000  0.305968  0.726450  1
  Mo  Mo54  1  0.250000  0.194032  0.226450  1
  Mo  Mo55  1  0.750000  0.805968  0.773550  1
