# generated using pymatgen
data_Co3B7ClO13
_symmetry_space_group_name_H-M   'P 1'
_cell_length_a   8.65359655
_cell_length_b   8.65359655
_cell_length_c   8.65359654
_cell_angle_alpha   59.80154789
_cell_angle_beta   59.80154792
_cell_angle_gamma   59.80154789
_symmetry_Int_Tables_number   1
_chemical_formula_structural   Co3B7ClO13
_chemical_formula_sum   'Co6 B14 Cl2 O26'
_cell_volume   456.15666032
_cell_formula_units_Z   2
loop_
 _symmetry_equiv_pos_site_id
 _symmetry_equiv_pos_as_xyz
  1  'x, y, z'
loop_
 _atom_site_type_symbol
 _atom_site_label
 _atom_site_symmetry_multiplicity
 _atom_site_fract_x
 _atom_site_fract_y
 _atom_site_fract_z
 _atom_site_occupancy
  B  B0  1  0.570919  0.571364  0.264372  1
  B  B1  1  0.600590  0.600590  0.600590  1
  B  B2  1  0.100590  0.100590  0.100590  1
  B  B3  1  0.571364  0.264372  0.570919  1
  B  B4  1  0.264372  0.570919  0.571364  1
  B  B5  1  0.764372  0.071364  0.070919  1
  B  B6  1  0.071364  0.070919  0.764372  1
  B  B7  1  0.070919  0.764372  0.071364  1
  B  B8  1  0.244874  0.751654  0.245480  1
  B  B9  1  0.245480  0.244874  0.751654  1
  B  B10  1  0.751654  0.245480  0.244874  1
  B  B11  1  0.251654  0.744874  0.745480  1
  B  B12  1  0.745480  0.251654  0.744874  1
  B  B13  1  0.744874  0.745480  0.251654  1
  O  O14  1  0.432965  0.186584  0.610361  1
  O  O15  1  0.610361  0.432965  0.186584  1
  O  O16  1  0.712653  0.097981  0.246738  1
  O  O17  1  0.246738  0.712653  0.097981  1
  O  O18  1  0.097981  0.246738  0.712653  1
  O  O19  1  0.212653  0.746738  0.597981  1
  O  O20  1  0.597981  0.212653  0.746738  1
  O  O21  1  0.746738  0.597981  0.212653  1
  O  O22  1  0.985502  0.985502  0.985502  1
  O  O23  1  0.485502  0.485502  0.485502  1
  O  O24  1  0.943297  0.262661  0.104189  1
  O  O25  1  0.104189  0.943297  0.262661  1
  O  O26  1  0.262661  0.104189  0.943297  1
  O  O27  1  0.762661  0.443297  0.604189  1
  O  O28  1  0.604189  0.762661  0.443297  1
  O  O29  1  0.443297  0.604189  0.762661  1
  O  O30  1  0.251206  0.933242  0.698010  1
  O  O31  1  0.698010  0.251206  0.933242  1
  O  O32  1  0.933242  0.698010  0.251206  1
  O  O33  1  0.433242  0.751206  0.198010  1
  O  O34  1  0.198010  0.433242  0.751206  1
  O  O35  1  0.751206  0.198010  0.433242  1
  O  O36  1  0.110361  0.686584  0.932965  1
  O  O37  1  0.932965  0.110361  0.686584  1
  O  O38  1  0.686584  0.932965  0.110361  1
  O  O39  1  0.186584  0.610361  0.432965  1
  Cl  Cl40  1  0.768463  0.768463  0.768463  1
  Cl  Cl41  1  0.268463  0.268463  0.268463  1
  Co  Co42  1  0.969851  0.530317  0.973027  1
  Co  Co43  1  0.530317  0.973027  0.969851  1
  Co  Co44  1  0.973027  0.969851  0.530317  1
  Co  Co45  1  0.473027  0.030317  0.469851  1
  Co  Co46  1  0.030317  0.469851  0.473027  1
  Co  Co47  1  0.469851  0.473027  0.030317  1
