# generated using pymatgen
data_BiSe
_symmetry_space_group_name_H-M   'P 1'
_cell_length_a   4.25832183
_cell_length_b   4.25832183
_cell_length_c   24.15937822
_cell_angle_alpha   90.00000000
_cell_angle_beta   90.00000000
_cell_angle_gamma   119.99999996
_symmetry_Int_Tables_number   1
_chemical_formula_structural   BiSe
_chemical_formula_sum   'Bi6 Se6'
_cell_volume   379.39652265
_cell_formula_units_Z   6
loop_
 _symmetry_equiv_pos_site_id
 _symmetry_equiv_pos_as_xyz
  1  'x, y, z'
loop_
 _atom_site_type_symbol
 _atom_site_label
 _atom_site_symmetry_multiplicity
 _atom_site_fract_x
 _atom_site_fract_y
 _atom_site_fract_z
 _atom_site_occupancy
  Se  Se0  1  0.000000  0.000000  0.649287  1
  Se  Se1  1  0.000000  0.000000  0.350713  1
  Se  Se2  1  0.666667  0.333333  0.208304  1
  Se  Se3  1  0.333333  0.666667  0.791696  1
  Se  Se4  1  0.666667  0.333333  0.934327  1
  Se  Se5  1  0.333333  0.666667  0.065673  1
  Bi  Bi6  1  0.666667  0.333333  0.462917  1
  Bi  Bi7  1  0.333333  0.666667  0.537083  1
  Bi  Bi8  1  0.666667  0.333333  0.713992  1
  Bi  Bi9  1  0.333333  0.666667  0.286008  1
  Bi  Bi10  1  0.000000  0.000000  0.871492  1
  Bi  Bi11  1  0.000000  0.000000  0.128508  1
