# generated using pymatgen
data_In2Ir
_symmetry_space_group_name_H-M   'P 1'
_cell_length_a   5.47925519
_cell_length_b   5.66435272
_cell_length_c   9.47525499
_cell_angle_alpha   81.96122021
_cell_angle_beta   73.19382036
_cell_angle_gamma   61.07520702
_symmetry_Int_Tables_number   1
_chemical_formula_structural   In2Ir
_chemical_formula_sum   'In8 Ir4'
_cell_volume   246.39973799
_cell_formula_units_Z   4
loop_
 _symmetry_equiv_pos_site_id
 _symmetry_equiv_pos_as_xyz
  1  'x, y, z'
loop_
 _atom_site_type_symbol
 _atom_site_label
 _atom_site_symmetry_multiplicity
 _atom_site_fract_x
 _atom_site_fract_y
 _atom_site_fract_z
 _atom_site_occupancy
  In  In0  1  0.032046  0.935909  0.250000  1
  In  In1  1  0.717954  0.564091  0.250000  1
  In  In2  1  0.710493  0.750000  0.579015  1
  In  In3  1  0.282046  0.435909  0.750000  1
  In  In4  1  0.539507  0.750000  0.920985  1
  In  In5  1  0.460493  0.250000  0.079015  1
  In  In6  1  0.967954  0.064091  0.750000  1
  In  In7  1  0.289507  0.250000  0.420985  1
  Ir  Ir8  1  0.004840  0.250000  0.990320  1
  Ir  Ir9  1  0.254840  0.750000  0.490320  1
  Ir  Ir10  1  0.745160  0.250000  0.509680  1
  Ir  Ir11  1  0.995160  0.750000  0.009680  1
