# generated using pymatgen
data_BaHClO
_symmetry_space_group_name_H-M   'P 1'
_cell_length_a   4.46309179
_cell_length_b   7.48101401
_cell_length_c   9.38150349
_cell_angle_alpha   90.00000000
_cell_angle_beta   90.00000000
_cell_angle_gamma   90.00000000
_symmetry_Int_Tables_number   1
_chemical_formula_structural   BaHClO
_chemical_formula_sum   'Ba4 H4 Cl4 O4'
_cell_volume   313.23388092
_cell_formula_units_Z   4
loop_
 _symmetry_equiv_pos_site_id
 _symmetry_equiv_pos_as_xyz
  1  'x, y, z'
loop_
 _atom_site_type_symbol
 _atom_site_label
 _atom_site_symmetry_multiplicity
 _atom_site_fract_x
 _atom_site_fract_y
 _atom_site_fract_z
 _atom_site_occupancy
  H  H0  1  0.750000  0.780961  0.568681  1
  H  H1  1  0.250000  0.219039  0.431319  1
  H  H2  1  0.250000  0.719039  0.068681  1
  H  H3  1  0.750000  0.280961  0.931319  1
  O  O4  1  0.750000  0.652168  0.552427  1
  O  O5  1  0.250000  0.847832  0.052427  1
  O  O6  1  0.750000  0.152168  0.947573  1
  O  O7  1  0.250000  0.347832  0.447573  1
  Cl  Cl8  1  0.750000  0.520008  0.164203  1
  Cl  Cl9  1  0.250000  0.479992  0.835797  1
  Cl  Cl10  1  0.250000  0.979992  0.664203  1
  Cl  Cl11  1  0.750000  0.020008  0.335797  1
  Ba  Ba12  1  0.250000  0.690944  0.387786  1
  Ba  Ba13  1  0.750000  0.309056  0.612214  1
  Ba  Ba14  1  0.250000  0.190944  0.112214  1
  Ba  Ba15  1  0.750000  0.809056  0.887786  1
