# generated using pymatgen
data_La2NiO4
_symmetry_space_group_name_H-M   'P 1'
_cell_length_a   5.51752170
_cell_length_b   5.69398000
_cell_length_c   6.78924963
_cell_angle_alpha   90.00000000
_cell_angle_beta   113.91495639
_cell_angle_gamma   90.00000000
_symmetry_Int_Tables_number   1
_chemical_formula_structural   La2NiO4
_chemical_formula_sum   'La4 Ni2 O8'
_cell_volume   194.98372235
_cell_formula_units_Z   2
loop_
 _symmetry_equiv_pos_site_id
 _symmetry_equiv_pos_as_xyz
  1  'x, y, z'
loop_
 _atom_site_type_symbol
 _atom_site_label
 _atom_site_symmetry_multiplicity
 _atom_site_fract_x
 _atom_site_fract_y
 _atom_site_fract_z
 _atom_site_occupancy
  La  La0  1  0.636871  0.015616  0.274029  1
  La  La1  1  0.363129  0.984384  0.725971  1
  La  La2  1  0.136871  0.484384  0.274029  1
  La  La3  1  0.863129  0.515616  0.725971  1
  Ni  Ni4  1  0.000000  0.000000  0.000000  1
  Ni  Ni5  1  0.500000  0.500000  0.000000  1
  O  O6  1  0.732263  0.249345  0.965673  1
  O  O7  1  0.767737  0.749345  0.034327  1
  O  O8  1  0.179653  0.064171  0.358771  1
  O  O9  1  0.320347  0.564171  0.641229  1
  O  O10  1  0.232263  0.250655  0.965673  1
  O  O11  1  0.267737  0.750655  0.034327  1
  O  O12  1  0.679653  0.435829  0.358771  1
  O  O13  1  0.820347  0.935829  0.641229  1
