# generated using pymatgen
data_Sr5Al2F16
_symmetry_space_group_name_H-M   'P 1'
_cell_length_a   7.36031455
_cell_length_b   7.36031455
_cell_length_c   14.30435522
_cell_angle_alpha   90.00000000
_cell_angle_beta   90.00000000
_cell_angle_gamma   117.93740159
_symmetry_Int_Tables_number   1
_chemical_formula_structural   Sr5Al2F16
_chemical_formula_sum   'Sr10 Al4 F32'
_cell_volume   684.61737949
_cell_formula_units_Z   2
loop_
 _symmetry_equiv_pos_site_id
 _symmetry_equiv_pos_as_xyz
  1  'x, y, z'
loop_
 _atom_site_type_symbol
 _atom_site_label
 _atom_site_symmetry_multiplicity
 _atom_site_fract_x
 _atom_site_fract_y
 _atom_site_fract_z
 _atom_site_occupancy
  F  F0  1  0.267873  0.430924  0.462777  1
  F  F1  1  0.232127  0.069076  0.462777  1
  F  F2  1  0.930924  0.767873  0.037223  1
  F  F3  1  0.569076  0.732127  0.037223  1
  F  F4  1  0.732127  0.569076  0.537223  1
  F  F5  1  0.767873  0.930924  0.537223  1
  F  F6  1  0.069076  0.232127  0.962777  1
  F  F7  1  0.430924  0.267873  0.962777  1
  F  F8  1  0.965614  0.131897  0.372313  1
  F  F9  1  0.534386  0.368103  0.372313  1
  F  F10  1  0.631897  0.465614  0.127687  1
  F  F11  1  0.868103  0.034386  0.127687  1
  F  F12  1  0.034386  0.868103  0.627687  1
  F  F13  1  0.465614  0.631897  0.627687  1
  F  F14  1  0.419419  0.250478  0.779867  1
  F  F15  1  0.080581  0.249522  0.779867  1
  F  F16  1  0.750478  0.919419  0.720133  1
  F  F17  1  0.749522  0.580581  0.720133  1
  F  F18  1  0.580581  0.749522  0.220133  1
  F  F19  1  0.919419  0.750478  0.220133  1
  F  F20  1  0.249522  0.080581  0.279867  1
  F  F21  1  0.250478  0.419419  0.279867  1
  F  F22  1  0.613240  0.007789  0.896129  1
  F  F23  1  0.886760  0.492211  0.896129  1
  F  F24  1  0.507789  0.113240  0.603871  1
  F  F25  1  0.992211  0.386760  0.603871  1
  F  F26  1  0.386760  0.992211  0.103871  1
  F  F27  1  0.113240  0.507789  0.103871  1
  F  F28  1  0.492211  0.886760  0.396129  1
  F  F29  1  0.007789  0.613240  0.396129  1
  F  F30  1  0.131897  0.965614  0.872313  1
  F  F31  1  0.368103  0.534386  0.872313  1
  Al  Al32  1  0.250000  0.250000  0.371809  1
  Al  Al33  1  0.750000  0.750000  0.128191  1
  Al  Al34  1  0.750000  0.750000  0.628191  1
  Al  Al35  1  0.250000  0.250000  0.871809  1
  Sr  Sr36  1  0.750000  0.250000  0.467759  1
  Sr  Sr37  1  0.750000  0.250000  0.032241  1
  Sr  Sr38  1  0.250000  0.750000  0.532241  1
  Sr  Sr39  1  0.250000  0.750000  0.967759  1
  Sr  Sr40  1  0.250000  0.750000  0.250000  1
  Sr  Sr41  1  0.750000  0.250000  0.750000  1
  Sr  Sr42  1  0.750000  0.750000  0.376843  1
  Sr  Sr43  1  0.250000  0.250000  0.123157  1
  Sr  Sr44  1  0.250000  0.250000  0.623157  1
  Sr  Sr45  1  0.750000  0.750000  0.876843  1
