# generated using pymatgen
data_Ir(Cl2F3)2
_symmetry_space_group_name_H-M   'P 1'
_cell_length_a   5.46532898
_cell_length_b   7.74403100
_cell_length_c   11.41598554
_cell_angle_alpha   90.00000000
_cell_angle_beta   90.00000000
_cell_angle_gamma   91.92840634
_symmetry_Int_Tables_number   1
_chemical_formula_structural   Ir(Cl2F3)2
_chemical_formula_sum   'Ir2 Cl8 F12'
_cell_volume   482.89284651
_cell_formula_units_Z   2
loop_
 _symmetry_equiv_pos_site_id
 _symmetry_equiv_pos_as_xyz
  1  'x, y, z'
loop_
 _atom_site_type_symbol
 _atom_site_label
 _atom_site_symmetry_multiplicity
 _atom_site_fract_x
 _atom_site_fract_y
 _atom_site_fract_z
 _atom_site_occupancy
  F  F0  1  0.368976  0.295848  0.070391  1
  F  F1  1  0.631024  0.204152  0.570391  1
  F  F2  1  0.631024  0.704152  0.929609  1
  F  F3  1  0.368976  0.795848  0.429609  1
  F  F4  1  0.610423  0.368906  0.870862  1
  F  F5  1  0.389577  0.131094  0.370862  1
  F  F6  1  0.389577  0.631094  0.129138  1
  F  F7  1  0.610423  0.868906  0.629138  1
  F  F8  1  0.797291  0.467801  0.079944  1
  F  F9  1  0.202709  0.032199  0.579944  1
  F  F10  1  0.797291  0.967801  0.420056  1
  F  F11  1  0.202709  0.532199  0.920056  1
  Cl  Cl12  1  0.239338  0.960824  0.856120  1
  Cl  Cl13  1  0.760662  0.539176  0.356120  1
  Cl  Cl14  1  0.760662  0.039176  0.143880  1
  Cl  Cl15  1  0.239338  0.460824  0.643880  1
  Cl  Cl16  1  0.962588  0.117852  0.848345  1
  Cl  Cl17  1  0.037412  0.382148  0.348345  1
  Cl  Cl18  1  0.037412  0.882148  0.151655  1
  Cl  Cl19  1  0.962588  0.617852  0.651655  1
  Ir  Ir20  1  0.500000  0.500000  0.000000  1
  Ir  Ir21  1  0.500000  0.000000  0.500000  1
