# generated using pymatgen
data_UNi4Sn
_symmetry_space_group_name_H-M   'P 1'
_cell_length_a   4.96701204
_cell_length_b   4.96701204
_cell_length_c   4.96701205
_cell_angle_alpha   60.00000001
_cell_angle_beta   60.00000001
_cell_angle_gamma   60.00000001
_symmetry_Int_Tables_number   1
_chemical_formula_structural   UNi4Sn
_chemical_formula_sum   'U1 Ni4 Sn1'
_cell_volume   86.65041393
_cell_formula_units_Z   1
loop_
 _symmetry_equiv_pos_site_id
 _symmetry_equiv_pos_as_xyz
  1  'x, y, z'
loop_
 _atom_site_type_symbol
 _atom_site_label
 _atom_site_symmetry_multiplicity
 _atom_site_fract_x
 _atom_site_fract_y
 _atom_site_fract_z
 _atom_site_occupancy
  Ni  Ni0  1  0.125850  0.624717  0.624717  1
  Ni  Ni1  1  0.624717  0.624717  0.624717  1
  Ni  Ni2  1  0.624717  0.624717  0.125850  1
  Ni  Ni3  1  0.624717  0.125850  0.624717  1
  Sn  Sn4  1  0.250000  0.250000  0.250000  1
  U  U5  1  0.000000  0.000000  0.000000  1
