# generated using pymatgen
data_RuCl2O
_symmetry_space_group_name_H-M   'P 1'
_cell_length_a   3.58392383
_cell_length_b   3.69388859
_cell_length_c   6.85197031
_cell_angle_alpha   105.75182756
_cell_angle_beta   105.16057281
_cell_angle_gamma   90.00000005
_symmetry_Int_Tables_number   1
_chemical_formula_structural   RuCl2O
_chemical_formula_sum   'Ru1 Cl2 O1'
_cell_volume   84.01917438
_cell_formula_units_Z   1
loop_
 _symmetry_equiv_pos_site_id
 _symmetry_equiv_pos_as_xyz
  1  'x, y, z'
loop_
 _atom_site_type_symbol
 _atom_site_label
 _atom_site_symmetry_multiplicity
 _atom_site_fract_x
 _atom_site_fract_y
 _atom_site_fract_z
 _atom_site_occupancy
  O  O0  1  0.000000  0.500000  0.000000  1
  Cl  Cl1  1  0.372680  0.871940  0.745359  1
  Cl  Cl2  1  0.627320  0.128060  0.254641  1
  Ru  Ru3  1  0.000000  0.000000  0.000000  1
