# generated using pymatgen
data_Li3Bi2(PO4)3
_symmetry_space_group_name_H-M   'P 1'
_cell_length_a   8.87366507
_cell_length_b   9.36366837
_cell_length_c   13.00954347
_cell_angle_alpha   90.00000000
_cell_angle_beta   91.42928348
_cell_angle_gamma   90.00000000
_symmetry_Int_Tables_number   1
_chemical_formula_structural   Li3Bi2(PO4)3
_chemical_formula_sum   'Li12 Bi8 P12 O48'
_cell_volume   1080.62738919
_cell_formula_units_Z   4
loop_
 _symmetry_equiv_pos_site_id
 _symmetry_equiv_pos_as_xyz
  1  'x, y, z'
loop_
 _atom_site_type_symbol
 _atom_site_label
 _atom_site_symmetry_multiplicity
 _atom_site_fract_x
 _atom_site_fract_y
 _atom_site_fract_z
 _atom_site_occupancy
  Li  Li0  1  0.055228  0.507516  0.649240  1
  Li  Li1  1  0.944772  0.492484  0.350760  1
  Li  Li2  1  0.907944  0.915528  0.682969  1
  Li  Li3  1  0.823722  0.218800  0.184689  1
  Li  Li4  1  0.676278  0.718800  0.315311  1
  Li  Li5  1  0.592056  0.415528  0.817031  1
  Li  Li6  1  0.555228  0.992484  0.149240  1
  Li  Li7  1  0.444772  0.007516  0.850760  1
  Li  Li8  1  0.407944  0.584472  0.182969  1
  Li  Li9  1  0.092056  0.084472  0.317031  1
  Li  Li10  1  0.176278  0.781200  0.815311  1
  Li  Li11  1  0.323722  0.281200  0.684689  1
  O  O12  1  0.207248  0.200788  0.560807  1
  O  O13  1  0.884649  0.778998  0.794452  1
  O  O14  1  0.895636  0.002055  0.259079  1
  O  O15  1  0.899439  0.629951  0.577332  1
  O  O16  1  0.945509  0.430925  0.203359  1
  O  O17  1  0.959842  0.328702  0.589230  1
  O  O18  1  0.979653  0.116397  0.895639  1
  O  O19  1  0.981850  0.134934  0.447374  1
  O  O20  1  0.018150  0.865066  0.552626  1
  O  O21  1  0.020347  0.883603  0.104361  1
  O  O22  1  0.040158  0.671298  0.410770  1
  O  O23  1  0.054491  0.569075  0.796641  1
  O  O24  1  0.100561  0.370049  0.422668  1
  O  O25  1  0.104364  0.997945  0.740921  1
  O  O26  1  0.115351  0.221002  0.205548  1
  O  O27  1  0.130607  0.393148  0.057945  1
  O  O28  1  0.186420  0.248778  0.800843  1
  O  O29  1  0.869393  0.606852  0.942055  1
  O  O30  1  0.227578  0.475121  0.233350  1
  O  O31  1  0.247539  0.026634  0.906899  1
  O  O32  1  0.252461  0.526634  0.593101  1
  O  O33  1  0.272422  0.975121  0.266650  1
  O  O34  1  0.292752  0.700788  0.939193  1
  O  O35  1  0.313580  0.748778  0.699157  1
  O  O36  1  0.369393  0.893148  0.442055  1
  O  O37  1  0.384649  0.721002  0.294452  1
  O  O38  1  0.395636  0.497945  0.759079  1
  O  O39  1  0.399439  0.870049  0.077332  1
  O  O40  1  0.445509  0.069075  0.703359  1
  O  O41  1  0.459842  0.171298  0.089230  1
  O  O42  1  0.481850  0.365066  0.947374  1
  O  O43  1  0.479653  0.383603  0.395639  1
  O  O44  1  0.520347  0.616397  0.604361  1
  O  O45  1  0.518150  0.634934  0.052626  1
  O  O46  1  0.540158  0.828702  0.910770  1
  O  O47  1  0.554491  0.930925  0.296641  1
  O  O48  1  0.600561  0.129951  0.922668  1
  O  O49  1  0.604364  0.502055  0.240921  1
  O  O50  1  0.615351  0.278998  0.705548  1
  O  O51  1  0.630607  0.106852  0.557945  1
  O  O52  1  0.813580  0.751222  0.199157  1
  O  O53  1  0.707248  0.299212  0.060807  1
  O  O54  1  0.727578  0.024879  0.733350  1
  O  O55  1  0.747539  0.473366  0.406899  1
  O  O56  1  0.752461  0.973366  0.093101  1
  O  O57  1  0.772422  0.524879  0.766650  1
  O  O58  1  0.792752  0.799212  0.439193  1
  O  O59  1  0.686420  0.251222  0.300843  1
  P  P60  1  0.373359  0.600745  0.664654  1
  P  P61  1  0.390771  0.880866  0.325135  1
  P  P62  1  0.440073  0.759087  0.992283  1
  P  P63  1  0.559927  0.240913  0.007717  1
  P  P64  1  0.609229  0.119134  0.674865  1
  P  P65  1  0.626641  0.399255  0.335346  1
  P  P66  1  0.873359  0.899255  0.164654  1
  P  P67  1  0.890771  0.619134  0.825135  1
  P  P68  1  0.059927  0.259087  0.507717  1
  P  P69  1  0.109229  0.380866  0.174865  1
  P  P70  1  0.126641  0.100745  0.835346  1
  P  P71  1  0.940073  0.740913  0.492283  1
  Bi  Bi72  1  0.759620  0.542833  0.094535  1
  Bi  Bi73  1  0.778327  0.959914  0.907850  1
  Bi  Bi74  1  0.740380  0.042833  0.405465  1
  Bi  Bi75  1  0.721673  0.459914  0.592150  1
  Bi  Bi76  1  0.278327  0.540086  0.407850  1
  Bi  Bi77  1  0.259620  0.957167  0.594535  1
  Bi  Bi78  1  0.221673  0.040086  0.092150  1
  Bi  Bi79  1  0.240380  0.457167  0.905465  1
