# generated using pymatgen
data_Ba2PdF6
_symmetry_space_group_name_H-M   'P 1'
_cell_length_a   6.29644216
_cell_length_b   6.30139248
_cell_length_c   9.22084280
_cell_angle_alpha   109.98004642
_cell_angle_beta   90.00000000
_cell_angle_gamma   90.00000000
_symmetry_Int_Tables_number   1
_chemical_formula_structural   Ba2PdF6
_chemical_formula_sum   'Ba4 Pd2 F12'
_cell_volume   343.82955245
_cell_formula_units_Z   2
loop_
 _symmetry_equiv_pos_site_id
 _symmetry_equiv_pos_as_xyz
  1  'x, y, z'
loop_
 _atom_site_type_symbol
 _atom_site_label
 _atom_site_symmetry_multiplicity
 _atom_site_fract_x
 _atom_site_fract_y
 _atom_site_fract_z
 _atom_site_occupancy
  F  F0  1  0.157750  0.259981  0.834284  1
  F  F1  1  0.657750  0.240019  0.165716  1
  F  F2  1  0.342250  0.925697  0.165716  1
  F  F3  1  0.842250  0.574303  0.834284  1
  F  F4  1  0.842250  0.740019  0.165716  1
  F  F5  1  0.342250  0.759981  0.834284  1
  F  F6  1  0.250000  0.993106  0.500000  1
  F  F7  1  0.750000  0.506894  0.500000  1
  F  F8  1  0.750000  0.006894  0.500000  1
  F  F9  1  0.250000  0.493106  0.500000  1
  F  F10  1  0.157750  0.425697  0.165716  1
  F  F11  1  0.657750  0.074303  0.834284  1
  Pd  Pd12  1  0.500000  0.000000  0.000000  1
  Pd  Pd13  1  0.000000  0.500000  0.000000  1
  Ba  Ba14  1  0.500000  0.660539  0.321078  1
  Ba  Ba15  1  0.000000  0.839461  0.678922  1
  Ba  Ba16  1  0.500000  0.339461  0.678922  1
  Ba  Ba17  1  0.000000  0.160539  0.321078  1
