# generated using pymatgen
data_DyH4I3O11
_symmetry_space_group_name_H-M   'P 1'
_cell_length_a   7.10212777
_cell_length_b   7.51057927
_cell_length_c   10.82253879
_cell_angle_alpha   94.12221142
_cell_angle_beta   106.04998615
_cell_angle_gamma   108.44118677
_symmetry_Int_Tables_number   1
_chemical_formula_structural   DyH4I3O11
_chemical_formula_sum   'Dy2 H8 I6 O22'
_cell_volume   518.19415219
_cell_formula_units_Z   2
loop_
 _symmetry_equiv_pos_site_id
 _symmetry_equiv_pos_as_xyz
  1  'x, y, z'
loop_
 _atom_site_type_symbol
 _atom_site_label
 _atom_site_symmetry_multiplicity
 _atom_site_fract_x
 _atom_site_fract_y
 _atom_site_fract_z
 _atom_site_occupancy
  H  H0  1  0.865668  0.742807  0.610881  1
  H  H1  1  0.134332  0.257193  0.389119  1
  H  H2  1  0.809027  0.928944  0.622735  1
  H  H3  1  0.190973  0.071056  0.377265  1
  H  H4  1  0.760550  0.896407  0.139571  1
  H  H5  1  0.271597  0.091653  0.719574  1
  H  H6  1  0.728403  0.908347  0.280426  1
  H  H7  1  0.239450  0.103593  0.860429  1
  O  O8  1  0.245761  0.209741  0.379678  1
  O  O9  1  0.862044  0.279604  0.103490  1
  O  O10  1  0.095805  0.835677  0.131427  1
  O  O11  1  0.904195  0.164323  0.868573  1
  O  O12  1  0.359410  0.086825  0.027854  1
  O  O13  1  0.640590  0.913175  0.972146  1
  O  O14  1  0.137956  0.720396  0.896510  1
  O  O15  1  0.710456  0.533744  0.985408  1
  O  O16  1  0.242205  0.556448  0.248654  1
  O  O17  1  0.757795  0.443552  0.751346  1
  O  O18  1  0.573671  0.435164  0.245993  1
  O  O19  1  0.426329  0.564836  0.754007  1
  O  O20  1  0.056461  0.621133  0.624910  1
  O  O21  1  0.943539  0.378867  0.375090  1
  O  O22  1  0.100720  0.793821  0.410979  1
  O  O23  1  0.899280  0.206179  0.589021  1
  O  O24  1  0.397256  0.961668  0.653668  1
  O  O25  1  0.602744  0.038332  0.346332  1
  O  O26  1  0.232460  0.165172  0.782317  1
  O  O27  1  0.767540  0.834828  0.217683  1
  O  O28  1  0.289544  0.466256  0.014592  1
  O  O29  1  0.754239  0.790259  0.620322  1
  I  I30  1  0.735797  0.271642  0.448440  1
  I  I31  1  0.264203  0.728358  0.551560  1
  I  I32  1  0.711384  0.638851  0.836657  1
  I  I33  1  0.288616  0.361149  0.163343  1
  I  I34  1  0.694570  0.158144  0.936821  1
  I  I35  1  0.305430  0.841856  0.063179  1
  Dy  Dy36  1  0.901513  0.583286  0.212887  1
  Dy  Dy37  1  0.098488  0.416714  0.787113  1
