# generated using pymatgen
data_Dy(MnGe)2
_symmetry_space_group_name_H-M   'P 1'
_cell_length_a   3.93951096
_cell_length_b   3.93951096
_cell_length_c   6.10424629
_cell_angle_alpha   108.82544728
_cell_angle_beta   108.82544731
_cell_angle_gamma   89.99999997
_symmetry_Int_Tables_number   1
_chemical_formula_structural   Dy(MnGe)2
_chemical_formula_sum   'Dy1 Mn2 Ge2'
_cell_volume   84.29658553
_cell_formula_units_Z   1
loop_
 _symmetry_equiv_pos_site_id
 _symmetry_equiv_pos_as_xyz
  1  'x, y, z'
loop_
 _atom_site_type_symbol
 _atom_site_label
 _atom_site_symmetry_multiplicity
 _atom_site_fract_x
 _atom_site_fract_y
 _atom_site_fract_z
 _atom_site_occupancy
  Mn  Mn0  1  0.250000  0.750000  0.500000  1
  Mn  Mn1  1  0.750000  0.250000  0.500000  1
  Ge  Ge2  1  0.619211  0.619211  0.238423  1
  Ge  Ge3  1  0.380789  0.380789  0.761577  1
  Dy  Dy4  1  0.000000  0.000000  0.000000  1
