# generated using pymatgen
data_Ca2MnAs2(H2O5)2
_symmetry_space_group_name_H-M   'P 1'
_cell_length_a   5.79170642
_cell_length_b   5.95453528
_cell_length_c   13.16734403
_cell_angle_alpha   90.00000000
_cell_angle_beta   90.00000000
_cell_angle_gamma   108.13086948
_symmetry_Int_Tables_number   1
_chemical_formula_structural   Ca2MnAs2(H2O5)2
_chemical_formula_sum   'Ca4 Mn2 As4 H8 O20'
_cell_volume   431.55420794
_cell_formula_units_Z   2
loop_
 _symmetry_equiv_pos_site_id
 _symmetry_equiv_pos_as_xyz
  1  'x, y, z'
loop_
 _atom_site_type_symbol
 _atom_site_label
 _atom_site_symmetry_multiplicity
 _atom_site_fract_x
 _atom_site_fract_y
 _atom_site_fract_z
 _atom_site_occupancy
  H  H0  1  0.501415  0.893928  0.289578  1
  H  H1  1  0.998585  0.106072  0.789578  1
  H  H2  1  0.498585  0.106072  0.710422  1
  H  H3  1  0.001415  0.893928  0.210422  1
  H  H4  1  0.305078  0.683819  0.344079  1
  H  H5  1  0.194922  0.316181  0.844079  1
  H  H6  1  0.694922  0.316181  0.655921  1
  H  H7  1  0.805078  0.683819  0.155921  1
  O  O8  1  0.468341  0.803721  0.356900  1
  O  O9  1  0.031659  0.196279  0.856900  1
  O  O10  1  0.348740  0.247290  0.038119  1
  O  O11  1  0.151260  0.752710  0.538119  1
  O  O12  1  0.651260  0.752710  0.961881  1
  O  O13  1  0.848740  0.247290  0.461881  1
  O  O14  1  0.841752  0.288269  0.054261  1
  O  O15  1  0.658248  0.711731  0.554261  1
  O  O16  1  0.158248  0.711731  0.945739  1
  O  O17  1  0.341752  0.288269  0.445739  1
  O  O18  1  0.497902  0.949804  0.174758  1
  O  O19  1  0.002098  0.050196  0.674758  1
  O  O20  1  0.502098  0.050196  0.825242  1
  O  O21  1  0.997902  0.949804  0.325242  1
  O  O22  1  0.582624  0.450186  0.206574  1
  O  O23  1  0.917376  0.549814  0.706574  1
  O  O24  1  0.417376  0.549814  0.793426  1
  O  O25  1  0.082624  0.450186  0.293426  1
  O  O26  1  0.968341  0.803721  0.143100  1
  O  O27  1  0.531659  0.196279  0.643100  1
  Ca  Ca28  1  0.241605  0.568744  0.119997  1
  Ca  Ca29  1  0.258395  0.431256  0.619997  1
  Ca  Ca30  1  0.758395  0.431256  0.880003  1
  Ca  Ca31  1  0.741605  0.568744  0.380003  1
  Mn  Mn32  1  0.500000  0.000000  0.500000  1
  Mn  Mn33  1  0.000000  0.000000  0.000000  1
  As  As34  1  0.571254  0.223936  0.122148  1
  As  As35  1  0.928746  0.776064  0.622148  1
  As  As36  1  0.428746  0.776064  0.877852  1
  As  As37  1  0.071254  0.223936  0.377852  1
