# generated using pymatgen
data_Nb10Ge7
_symmetry_space_group_name_H-M   'P 1'
_cell_length_a   14.39757177
_cell_length_b   14.39757214
_cell_length_c   5.56438445
_cell_angle_alpha   90.00000000
_cell_angle_beta   90.00000000
_cell_angle_gamma   119.99999917
_symmetry_Int_Tables_number   1
_chemical_formula_structural   Nb10Ge7
_chemical_formula_sum   'Nb30 Ge21'
_cell_volume   998.90981172
_cell_formula_units_Z   3
loop_
 _symmetry_equiv_pos_site_id
 _symmetry_equiv_pos_as_xyz
  1  'x, y, z'
loop_
 _atom_site_type_symbol
 _atom_site_label
 _atom_site_symmetry_multiplicity
 _atom_site_fract_x
 _atom_site_fract_y
 _atom_site_fract_z
 _atom_site_occupancy
  Ge  Ge0  1  0.795752  0.204248  0.324200  1
  Ge  Ge1  1  0.795752  0.591503  0.324200  1
  Ge  Ge2  1  0.408497  0.204248  0.324200  1
  Ge  Ge3  1  0.591503  0.795752  0.675800  1
  Ge  Ge4  1  0.204248  0.408497  0.675800  1
  Ge  Ge5  1  0.204248  0.795752  0.675800  1
  Ge  Ge6  1  0.419882  0.580118  0.074161  1
  Ge  Ge7  1  0.419882  0.839764  0.074161  1
  Ge  Ge8  1  0.160236  0.580118  0.074161  1
  Ge  Ge9  1  0.839764  0.419882  0.925839  1
  Ge  Ge10  1  0.580118  0.160236  0.925839  1
  Ge  Ge11  1  0.580118  0.419882  0.925839  1
  Ge  Ge12  1  0.128526  0.871474  0.263161  1
  Ge  Ge13  1  0.128526  0.257052  0.263161  1
  Ge  Ge14  1  0.742948  0.871474  0.263161  1
  Ge  Ge15  1  0.257052  0.128526  0.736839  1
  Ge  Ge16  1  0.871474  0.742948  0.736839  1
  Ge  Ge17  1  0.871474  0.128526  0.736839  1
  Ge  Ge18  1  0.333333  0.666667  0.919615  1
  Ge  Ge19  1  0.666667  0.333333  0.080385  1
  Ge  Ge20  1  0.000000  0.000000  0.000000  1
  Nb  Nb21  1  0.908856  0.091144  0.235770  1
  Nb  Nb22  1  0.908856  0.817713  0.235770  1
  Nb  Nb23  1  0.182287  0.091144  0.235770  1
  Nb  Nb24  1  0.817713  0.908856  0.764230  1
  Nb  Nb25  1  0.091144  0.182287  0.764230  1
  Nb  Nb26  1  0.091144  0.908856  0.764230  1
  Nb  Nb27  1  0.600938  0.399062  0.456045  1
  Nb  Nb28  1  0.600938  0.201876  0.456045  1
  Nb  Nb29  1  0.798124  0.399062  0.456045  1
  Nb  Nb30  1  0.201876  0.600938  0.543955  1
  Nb  Nb31  1  0.399062  0.798124  0.543955  1
  Nb  Nb32  1  0.399062  0.600938  0.543955  1
  Nb  Nb33  1  0.507556  0.492444  0.261199  1
  Nb  Nb34  1  0.507556  0.015111  0.261199  1
  Nb  Nb35  1  0.984889  0.492444  0.261199  1
  Nb  Nb36  1  0.015111  0.507556  0.738801  1
  Nb  Nb37  1  0.492444  0.984889  0.738801  1
  Nb  Nb38  1  0.492444  0.507556  0.738801  1
  Nb  Nb39  1  0.318606  0.000000  0.500000  1
  Nb  Nb40  1  1.000000  0.318606  0.500000  1
  Nb  Nb41  1  0.681394  0.681394  0.500000  1
  Nb  Nb42  1  0.681394  0.000000  0.500000  1
  Nb  Nb43  1  0.000000  0.681394  0.500000  1
  Nb  Nb44  1  0.318606  0.318606  0.500000  1
  Nb  Nb45  1  0.307605  0.000000  0.000000  1
  Nb  Nb46  1  1.000000  0.307605  0.000000  1
  Nb  Nb47  1  0.692395  0.692395  0.000000  1
  Nb  Nb48  1  0.692395  0.000000  0.000000  1
  Nb  Nb49  1  0.000000  0.692395  0.000000  1
  Nb  Nb50  1  0.307605  0.307605  0.000000  1
