# generated using pymatgen
data_Fe(IO3)3
_symmetry_space_group_name_H-M   'P 1'
_cell_length_a   9.09551950
_cell_length_b   9.09551951
_cell_length_c   5.40234203
_cell_angle_alpha   90.00000000
_cell_angle_beta   90.00000000
_cell_angle_gamma   120.00000000
_symmetry_Int_Tables_number   1
_chemical_formula_structural   Fe(IO3)3
_chemical_formula_sum   'Fe2 I6 O18'
_cell_volume   387.05058411
_cell_formula_units_Z   2
loop_
 _symmetry_equiv_pos_site_id
 _symmetry_equiv_pos_as_xyz
  1  'x, y, z'
loop_
 _atom_site_type_symbol
 _atom_site_label
 _atom_site_symmetry_multiplicity
 _atom_site_fract_x
 _atom_site_fract_y
 _atom_site_fract_z
 _atom_site_occupancy
  O  O0  1  0.801595  0.278006  0.908481  1
  O  O1  1  0.523590  0.801595  0.408481  1
  O  O2  1  0.278006  0.476410  0.408481  1
  O  O3  1  0.721994  0.523590  0.908481  1
  O  O4  1  0.476410  0.198405  0.908481  1
  O  O5  1  0.198405  0.721994  0.408481  1
  O  O6  1  0.428360  0.875568  0.836401  1
  O  O7  1  0.552792  0.428360  0.336401  1
  O  O8  1  0.832968  0.050658  0.251523  1
  O  O9  1  0.782310  0.832968  0.751523  1
  O  O10  1  0.050658  0.217690  0.751523  1
  O  O11  1  0.949342  0.782310  0.251523  1
  O  O12  1  0.217690  0.167032  0.251523  1
  O  O13  1  0.167032  0.949342  0.751523  1
  O  O14  1  0.571640  0.124432  0.336401  1
  O  O15  1  0.447208  0.571640  0.836401  1
  O  O16  1  0.124432  0.552792  0.836401  1
  O  O17  1  0.875568  0.447208  0.336401  1
  Fe  Fe18  1  0.333333  0.666667  0.634959  1
  Fe  Fe19  1  0.666667  0.333333  0.134959  1
  I  I20  1  0.022569  0.337713  0.994276  1
  I  I21  1  0.977431  0.662287  0.494276  1
  I  I22  1  0.337713  0.315144  0.494276  1
  I  I23  1  0.315144  0.977431  0.994276  1
  I  I24  1  0.662287  0.684856  0.994276  1
  I  I25  1  0.684856  0.022569  0.494276  1
