# generated using pymatgen
data_Rb3InS3
_symmetry_space_group_name_H-M   'P 1'
_cell_length_a   8.03505737
_cell_length_b   8.25736332
_cell_length_c   8.25736332
_cell_angle_alpha   113.47067487
_cell_angle_beta   96.26507595
_cell_angle_gamma   96.26507588
_symmetry_Int_Tables_number   1
_chemical_formula_structural   Rb3InS3
_chemical_formula_sum   'Rb6 In2 S6'
_cell_volume   492.48840323
_cell_formula_units_Z   2
loop_
 _symmetry_equiv_pos_site_id
 _symmetry_equiv_pos_as_xyz
  1  'x, y, z'
loop_
 _atom_site_type_symbol
 _atom_site_label
 _atom_site_symmetry_multiplicity
 _atom_site_fract_x
 _atom_site_fract_y
 _atom_site_fract_z
 _atom_site_occupancy
  S  S0  1  0.725631  0.051714  0.345395  1
  S  S1  1  0.822829  0.601054  0.601054  1
  S  S2  1  0.177171  0.398946  0.398946  1
  S  S3  1  0.274369  0.948286  0.654605  1
  S  S4  1  0.274369  0.654605  0.948286  1
  S  S5  1  0.725631  0.345395  0.051714  1
  Rb  Rb6  1  0.000000  0.252777  0.747223  1
  Rb  Rb7  1  0.500000  0.320749  0.679251  1
  Rb  Rb8  1  0.353507  0.112673  0.112673  1
  Rb  Rb9  1  0.500000  0.679251  0.320749  1
  Rb  Rb10  1  0.000000  0.747223  0.252777  1
  Rb  Rb11  1  0.646493  0.887327  0.887327  1
  In  In12  1  0.146631  0.675340  0.675340  1
  In  In13  1  0.853369  0.324660  0.324660  1
