# generated using pymatgen
data_Cr3B7BrO13
_symmetry_space_group_name_H-M   'P 1'
_cell_length_a   8.69354969
_cell_length_b   8.69354969
_cell_length_c   8.69354969
_cell_angle_alpha   60.00000004
_cell_angle_beta   60.00000003
_cell_angle_gamma   60.00000001
_symmetry_Int_Tables_number   1
_chemical_formula_structural   Cr3B7BrO13
_chemical_formula_sum   'Cr6 B14 Br2 O26'
_cell_volume   464.59702508
_cell_formula_units_Z   2
loop_
 _symmetry_equiv_pos_site_id
 _symmetry_equiv_pos_as_xyz
  1  'x, y, z'
loop_
 _atom_site_type_symbol
 _atom_site_label
 _atom_site_symmetry_multiplicity
 _atom_site_fract_x
 _atom_site_fract_y
 _atom_site_fract_z
 _atom_site_occupancy
  B  B0  1  0.079916  0.760253  0.079916  1
  B  B1  1  0.579916  0.579916  0.579916  1
  B  B2  1  0.079916  0.079916  0.760253  1
  B  B3  1  0.760253  0.079916  0.079916  1
  B  B4  1  0.579916  0.260253  0.579916  1
  B  B5  1  0.260253  0.579916  0.579916  1
  B  B6  1  0.579916  0.579916  0.260253  1
  B  B7  1  0.079916  0.079916  0.079916  1
  B  B8  1  0.750000  0.250000  0.250000  1
  B  B9  1  0.750000  0.750000  0.250000  1
  B  B10  1  0.250000  0.250000  0.750000  1
  B  B11  1  0.750000  0.250000  0.750000  1
  B  B12  1  0.250000  0.750000  0.250000  1
  B  B13  1  0.250000  0.750000  0.750000  1
  O  O14  1  0.704445  0.935827  0.104682  1
  O  O15  1  0.104682  0.255045  0.704445  1
  O  O16  1  0.204445  0.604682  0.435827  1
  O  O17  1  0.755045  0.204445  0.435827  1
  O  O18  1  0.755045  0.604682  0.204445  1
  O  O19  1  0.755045  0.435827  0.604682  1
  O  O20  1  0.604682  0.755045  0.435827  1
  O  O21  1  0.435827  0.604682  0.755045  1
  O  O22  1  0.000000  0.000000  0.000000  1
  O  O23  1  0.500000  0.500000  0.500000  1
  O  O24  1  0.255045  0.104682  0.935827  1
  O  O25  1  0.604682  0.435827  0.204445  1
  O  O26  1  0.204445  0.755045  0.604682  1
  O  O27  1  0.604682  0.204445  0.755045  1
  O  O28  1  0.435827  0.755045  0.204445  1
  O  O29  1  0.435827  0.204445  0.604682  1
  O  O30  1  0.204445  0.435827  0.755045  1
  O  O31  1  0.935827  0.255045  0.104682  1
  O  O32  1  0.104682  0.935827  0.255045  1
  O  O33  1  0.704445  0.255045  0.935827  1
  O  O34  1  0.104682  0.704445  0.935827  1
  O  O35  1  0.704445  0.104682  0.255045  1
  O  O36  1  0.935827  0.104682  0.704445  1
  O  O37  1  0.255045  0.935827  0.704445  1
  O  O38  1  0.255045  0.704445  0.104682  1
  O  O39  1  0.935827  0.704445  0.255045  1
  Cr  Cr40  1  0.500000  0.000000  0.000000  1
  Cr  Cr41  1  0.500000  0.500000  0.000000  1
  Cr  Cr42  1  0.000000  0.500000  0.500000  1
  Cr  Cr43  1  0.000000  0.500000  0.000000  1
  Cr  Cr44  1  0.500000  0.000000  0.500000  1
  Cr  Cr45  1  0.000000  0.000000  0.500000  1
  Br  Br46  1  0.250000  0.250000  0.250000  1
  Br  Br47  1  0.750000  0.750000  0.750000  1
