# generated using pymatgen
data_Ba7(BIr)12
_symmetry_space_group_name_H-M   'P 1'
_cell_length_a   9.35230047
_cell_length_b   9.35230121
_cell_length_c   9.35230094
_cell_angle_alpha   111.38396106
_cell_angle_beta   111.38396275
_cell_angle_gamma   111.38396615
_symmetry_Int_Tables_number   1
_chemical_formula_structural   Ba7(BIr)12
_chemical_formula_sum   'Ba7 B12 Ir12'
_cell_volume   580.85042846
_cell_formula_units_Z   1
loop_
 _symmetry_equiv_pos_site_id
 _symmetry_equiv_pos_as_xyz
  1  'x, y, z'
loop_
 _atom_site_type_symbol
 _atom_site_label
 _atom_site_symmetry_multiplicity
 _atom_site_fract_x
 _atom_site_fract_y
 _atom_site_fract_z
 _atom_site_occupancy
  Ir  Ir0  1  0.330432  0.669568  0.000000  1
  Ir  Ir1  1  0.000000  0.330432  0.669568  1
  Ir  Ir2  1  0.669568  1.000000  0.330432  1
  Ir  Ir3  1  0.669568  0.330432  1.000000  1
  Ir  Ir4  1  1.000000  0.669568  0.330432  1
  Ir  Ir5  1  0.330432  0.000000  0.669568  1
  Ir  Ir6  1  0.235907  0.615254  0.235907  1
  Ir  Ir7  1  0.235907  0.235907  0.615254  1
  Ir  Ir8  1  0.615254  0.235907  0.235907  1
  Ir  Ir9  1  0.384746  0.764093  0.764093  1
  Ir  Ir10  1  0.764093  0.384746  0.764093  1
  Ir  Ir11  1  0.764093  0.764093  0.384746  1
  Ba  Ba12  1  0.707390  0.010994  0.707390  1
  Ba  Ba13  1  0.707390  0.707390  0.010994  1
  Ba  Ba14  1  0.010994  0.707390  0.707390  1
  Ba  Ba15  1  0.989006  0.292610  0.292610  1
  Ba  Ba16  1  0.292610  0.989006  0.292610  1
  Ba  Ba17  1  0.292610  0.292610  0.989006  1
  Ba  Ba18  1  0.500000  0.500000  0.500000  1
  B  B19  1  0.727030  0.272970  0.500000  1
  B  B20  1  0.500000  0.727030  0.272970  1
  B  B21  1  0.272970  0.500000  0.727030  1
  B  B22  1  0.272970  0.727030  0.500000  1
  B  B23  1  0.500000  0.272970  0.727030  1
  B  B24  1  0.727030  0.500000  0.272970  1
  B  B25  1  0.940790  0.059210  0.500000  1
  B  B26  1  0.500000  0.940790  0.059210  1
  B  B27  1  0.059210  0.500000  0.940790  1
  B  B28  1  0.059210  0.940790  0.500000  1
  B  B29  1  0.500000  0.059210  0.940790  1
  B  B30  1  0.940790  0.500000  0.059210  1
