# generated using pymatgen
data_P3RuO9
_symmetry_space_group_name_H-M   'P 1'
_cell_length_a   6.40187855
_cell_length_b   8.47358598
_cell_length_c   15.56266401
_cell_angle_alpha   90.00000000
_cell_angle_beta   90.00000000
_cell_angle_gamma   106.58067342
_symmetry_Int_Tables_number   1
_chemical_formula_structural   P3RuO9
_chemical_formula_sum   'P12 Ru4 O36'
_cell_volume   809.12193762
_cell_formula_units_Z   4
loop_
 _symmetry_equiv_pos_site_id
 _symmetry_equiv_pos_as_xyz
  1  'x, y, z'
loop_
 _atom_site_type_symbol
 _atom_site_label
 _atom_site_symmetry_multiplicity
 _atom_site_fract_x
 _atom_site_fract_y
 _atom_site_fract_z
 _atom_site_occupancy
  O  O0  1  0.182450  0.124635  0.378542  1
  O  O1  1  0.817550  0.375365  0.878542  1
  O  O2  1  0.817550  0.875365  0.621458  1
  O  O3  1  0.182450  0.624635  0.121458  1
  O  O4  1  0.942118  0.159966  0.506286  1
  O  O5  1  0.057882  0.340034  0.006286  1
  O  O6  1  0.057882  0.840034  0.493714  1
  O  O7  1  0.942118  0.659966  0.993714  1
  O  O8  1  0.554768  0.094064  0.611230  1
  O  O9  1  0.445232  0.405936  0.111230  1
  O  O10  1  0.445232  0.905936  0.388770  1
  O  O11  1  0.554768  0.594064  0.888770  1
  O  O12  1  0.199315  0.140281  0.663436  1
  O  O13  1  0.800685  0.359719  0.163436  1
  O  O14  1  0.800685  0.859719  0.336564  1
  O  O15  1  0.199315  0.640281  0.836564  1
  O  O16  1  0.535943  0.881368  0.846598  1
  O  O17  1  0.464057  0.618632  0.346598  1
  O  O18  1  0.464057  0.118632  0.153402  1
  O  O19  1  0.535943  0.381368  0.653402  1
  O  O20  1  0.825600  0.092787  0.926349  1
  O  O21  1  0.174400  0.407213  0.426349  1
  O  O22  1  0.174400  0.907213  0.073651  1
  O  O23  1  0.825600  0.592787  0.573651  1
  O  O24  1  0.361780  0.753522  0.982755  1
  O  O25  1  0.638220  0.746478  0.482755  1
  O  O26  1  0.638220  0.246478  0.017245  1
  O  O27  1  0.361780  0.253522  0.517245  1
  O  O28  1  0.814499  0.097109  0.765039  1
  O  O29  1  0.185501  0.402891  0.265039  1
  O  O30  1  0.185501  0.902891  0.234961  1
  O  O31  1  0.814499  0.597109  0.734961  1
  O  O32  1  0.935047  0.872425  0.849776  1
  O  O33  1  0.064953  0.627575  0.349776  1
  O  O34  1  0.064953  0.127575  0.150224  1
  O  O35  1  0.935047  0.372425  0.650224  1
  P  P36  1  0.151438  0.222450  0.456193  1
  P  P37  1  0.848562  0.277550  0.956193  1
  P  P38  1  0.848562  0.777550  0.543807  1
  P  P39  1  0.151438  0.722450  0.043807  1
  P  P40  1  0.408525  0.204065  0.614090  1
  P  P41  1  0.591475  0.295935  0.114090  1
  P  P42  1  0.591475  0.795935  0.385910  1
  P  P43  1  0.408525  0.704065  0.885910  1
  P  P44  1  0.789669  0.483702  0.660007  1
  P  P45  1  0.210331  0.016298  0.160007  1
  P  P46  1  0.210331  0.516298  0.339993  1
  P  P47  1  0.789669  0.983702  0.839993  1
  Ru  Ru48  1  0.880448  0.124134  0.636175  1
  Ru  Ru49  1  0.119552  0.375866  0.136175  1
  Ru  Ru50  1  0.119552  0.875866  0.363825  1
  Ru  Ru51  1  0.880448  0.624134  0.863825  1
