# generated using pymatgen
data_CsSbS6
_symmetry_space_group_name_H-M   'P 1'
_cell_length_a   6.14432437
_cell_length_b   11.33892893
_cell_length_c   15.50597743
_cell_angle_alpha   90.00000000
_cell_angle_beta   90.00000000
_cell_angle_gamma   103.52991309
_symmetry_Int_Tables_number   1
_chemical_formula_structural   CsSbS6
_chemical_formula_sum   'Cs4 Sb4 S24'
_cell_volume   1050.32168911
_cell_formula_units_Z   4
loop_
 _symmetry_equiv_pos_site_id
 _symmetry_equiv_pos_as_xyz
  1  'x, y, z'
loop_
 _atom_site_type_symbol
 _atom_site_label
 _atom_site_symmetry_multiplicity
 _atom_site_fract_x
 _atom_site_fract_y
 _atom_site_fract_z
 _atom_site_occupancy
  S  S0  1  0.062030  0.381103  0.617795  1
  S  S1  1  0.437970  0.118897  0.117795  1
  S  S2  1  0.937970  0.618897  0.382205  1
  S  S3  1  0.562030  0.881103  0.882205  1
  S  S4  1  0.997210  0.261598  0.719611  1
  S  S5  1  0.502790  0.238402  0.219611  1
  S  S6  1  0.002790  0.738402  0.280389  1
  S  S7  1  0.497210  0.761598  0.780389  1
  S  S8  1  0.018886  0.126504  0.933915  1
  S  S9  1  0.481114  0.373496  0.433915  1
  S  S10  1  0.981114  0.873496  0.066085  1
  S  S11  1  0.518886  0.626504  0.566085  1
  S  S12  1  0.890117  0.638270  0.930720  1
  S  S13  1  0.609883  0.861730  0.430720  1
  S  S14  1  0.109883  0.361730  0.069280  1
  S  S15  1  0.390117  0.138270  0.569280  1
  S  S16  1  0.993150  0.581399  0.814803  1
  S  S17  1  0.506850  0.918601  0.314803  1
  S  S18  1  0.006850  0.418601  0.185197  1
  S  S19  1  0.493150  0.081399  0.685197  1
  S  S20  1  0.333326  0.590713  0.824033  1
  S  S21  1  0.166674  0.909287  0.324033  1
  S  S22  1  0.666674  0.409287  0.175967  1
  S  S23  1  0.833326  0.090713  0.675967  1
  Sb  Sb24  1  0.476006  0.385087  0.589609  1
  Sb  Sb25  1  0.023994  0.114913  0.089609  1
  Sb  Sb26  1  0.523994  0.614913  0.410391  1
  Sb  Sb27  1  0.976006  0.885087  0.910391  1
  Cs  Cs28  1  0.606105  0.306858  0.915374  1
  Cs  Cs29  1  0.893895  0.193142  0.415374  1
  Cs  Cs30  1  0.393895  0.693142  0.084626  1
  Cs  Cs31  1  0.106105  0.806858  0.584626  1
