# generated using pymatgen
data_Cs2Sb4S7
_symmetry_space_group_name_H-M   'P 1'
_cell_length_a   11.59672234
_cell_length_b   12.15637465
_cell_length_c   12.49294286
_cell_angle_alpha   90.00000000
_cell_angle_beta   90.00000000
_cell_angle_gamma   99.90872940
_symmetry_Int_Tables_number   1
_chemical_formula_structural   Cs2Sb4S7
_chemical_formula_sum   'Cs8 Sb16 S28'
_cell_volume   1734.91006376
_cell_formula_units_Z   4
loop_
 _symmetry_equiv_pos_site_id
 _symmetry_equiv_pos_as_xyz
  1  'x, y, z'
loop_
 _atom_site_type_symbol
 _atom_site_label
 _atom_site_symmetry_multiplicity
 _atom_site_fract_x
 _atom_site_fract_y
 _atom_site_fract_z
 _atom_site_occupancy
  S  S0  1  0.201180  0.840363  0.228523  1
  S  S1  1  0.798820  0.659637  0.728523  1
  S  S2  1  0.798820  0.159637  0.771477  1
  S  S3  1  0.201180  0.340363  0.271477  1
  S  S4  1  0.408377  0.082012  0.205600  1
  S  S5  1  0.591623  0.417988  0.705600  1
  S  S6  1  0.591623  0.917988  0.794400  1
  S  S7  1  0.408377  0.582012  0.294400  1
  S  S8  1  0.196163  0.938696  0.975880  1
  S  S9  1  0.803837  0.561304  0.475880  1
  S  S10  1  0.803837  0.061304  0.024120  1
  S  S11  1  0.196163  0.438696  0.524120  1
  S  S12  1  0.245216  0.222008  0.005125  1
  S  S13  1  0.754784  0.277992  0.505125  1
  S  S14  1  0.754784  0.777992  0.994875  1
  S  S15  1  0.245216  0.722008  0.494875  1
  S  S16  1  0.330602  0.133237  0.740203  1
  S  S17  1  0.669398  0.366763  0.240203  1
  S  S18  1  0.669398  0.866763  0.259797  1
  S  S19  1  0.330602  0.633237  0.759797  1
  S  S20  1  0.096829  0.900869  0.704573  1
  S  S21  1  0.903171  0.599131  0.204573  1
  S  S22  1  0.903171  0.099131  0.295427  1
  S  S23  1  0.096829  0.400869  0.795427  1
  S  S24  1  0.261511  0.540039  0.034312  1
  S  S25  1  0.738489  0.959961  0.534312  1
  S  S26  1  0.738489  0.459961  0.965688  1
  S  S27  1  0.261511  0.040039  0.465688  1
  Sb  Sb28  1  0.360853  0.924632  0.340656  1
  Sb  Sb29  1  0.639147  0.575368  0.840656  1
  Sb  Sb30  1  0.639147  0.075368  0.659344  1
  Sb  Sb31  1  0.360853  0.424632  0.159344  1
  Sb  Sb32  1  0.200494  0.051570  0.143002  1
  Sb  Sb33  1  0.799506  0.448430  0.643002  1
  Sb  Sb34  1  0.799506  0.948430  0.856998  1
  Sb  Sb35  1  0.200494  0.551570  0.356998  1
  Sb  Sb36  1  0.153335  0.088789  0.854668  1
  Sb  Sb37  1  0.846665  0.411211  0.354668  1
  Sb  Sb38  1  0.846665  0.911211  0.145332  1
  Sb  Sb39  1  0.153335  0.588789  0.645332  1
  Sb  Sb40  1  0.294067  0.947489  0.641088  1
  Sb  Sb41  1  0.705933  0.552511  0.141088  1
  Sb  Sb42  1  0.705933  0.052511  0.358912  1
  Sb  Sb43  1  0.294067  0.447489  0.858912  1
  Cs  Cs44  1  0.019148  0.671421  0.929328  1
  Cs  Cs45  1  0.980852  0.828579  0.429328  1
  Cs  Cs46  1  0.980852  0.328579  0.070672  1
  Cs  Cs47  1  0.019148  0.171421  0.570672  1
  Cs  Cs48  1  0.452639  0.305666  0.455149  1
  Cs  Cs49  1  0.547361  0.194334  0.955149  1
  Cs  Cs50  1  0.547361  0.694334  0.544851  1
  Cs  Cs51  1  0.452639  0.805666  0.044851  1
