# generated using pymatgen
data_Pr12C6I17
_symmetry_space_group_name_H-M   'P 1'
_cell_length_a   12.01463074
_cell_length_b   12.01463074
_cell_length_c   19.50383436
_cell_angle_alpha   89.25166499
_cell_angle_beta   89.25166501
_cell_angle_gamma   63.99298732
_symmetry_Int_Tables_number   1
_chemical_formula_structural   Pr12C6I17
_chemical_formula_sum   'Pr24 C12 I34'
_cell_volume   2530.01797895
_cell_formula_units_Z   2
loop_
 _symmetry_equiv_pos_site_id
 _symmetry_equiv_pos_as_xyz
  1  'x, y, z'
loop_
 _atom_site_type_symbol
 _atom_site_label
 _atom_site_symmetry_multiplicity
 _atom_site_fract_x
 _atom_site_fract_y
 _atom_site_fract_z
 _atom_site_occupancy
  C  C0  1  0.365801  0.720967  0.149767  1
  C  C1  1  0.279033  0.634199  0.350233  1
  C  C2  1  0.634199  0.279033  0.850233  1
  C  C3  1  0.720967  0.365801  0.649767  1
  C  C4  1  0.256840  0.831324  0.152860  1
  C  C5  1  0.168676  0.743160  0.347140  1
  C  C6  1  0.743160  0.168676  0.847140  1
  C  C7  1  0.831324  0.256840  0.652860  1
  C  C8  1  0.531884  0.532826  0.988452  1
  C  C9  1  0.467174  0.468116  0.511548  1
  C  C10  1  0.468116  0.467174  0.011548  1
  C  C11  1  0.532826  0.531884  0.488452  1
  I  I12  1  0.212224  0.180323  0.101034  1
  I  I13  1  0.819677  0.787776  0.398966  1
  I  I14  1  0.787776  0.819677  0.898966  1
  I  I15  1  0.180323  0.212224  0.601034  1
  I  I16  1  0.806262  0.282730  0.137688  1
  I  I17  1  0.717270  0.193738  0.362312  1
  I  I18  1  0.193738  0.717270  0.862312  1
  I  I19  1  0.282730  0.806262  0.637688  1
  I  I20  1  0.000000  0.000000  0.000000  1
  I  I21  1  0.000000  0.000000  0.500000  1
  I  I22  1  0.396875  0.895226  0.440074  1
  I  I23  1  0.104774  0.603125  0.059926  1
  I  I24  1  0.603125  0.104774  0.559926  1
  I  I25  1  0.895226  0.396875  0.940074  1
  I  I26  1  0.904897  0.398214  0.451081  1
  I  I27  1  0.601786  0.095103  0.048919  1
  I  I28  1  0.095103  0.601786  0.548919  1
  I  I29  1  0.398214  0.904897  0.951081  1
  I  I30  1  0.498203  0.966254  0.254170  1
  I  I31  1  0.033746  0.501797  0.245830  1
  I  I32  1  0.501797  0.033746  0.745830  1
  I  I33  1  0.966254  0.498203  0.754170  1
  I  I34  1  0.112386  0.093178  0.303143  1
  I  I35  1  0.906822  0.887614  0.196857  1
  I  I36  1  0.887614  0.906822  0.696857  1
  I  I37  1  0.093178  0.112386  0.803143  1
  I  I38  1  0.708593  0.689779  0.100237  1
  I  I39  1  0.310221  0.291407  0.399763  1
  I  I40  1  0.291407  0.310221  0.899763  1
  I  I41  1  0.689779  0.708593  0.600237  1
  I  I42  1  0.625563  0.576542  0.291986  1
  I  I43  1  0.423458  0.374437  0.208014  1
  I  I44  1  0.374437  0.423458  0.708014  1
  I  I45  1  0.576542  0.625563  0.791986  1
  Pr  Pr46  1  0.296333  0.710891  0.020600  1
  Pr  Pr47  1  0.289109  0.703667  0.479400  1
  Pr  Pr48  1  0.703667  0.289109  0.979400  1
  Pr  Pr49  1  0.710891  0.296333  0.520600  1
  Pr  Pr50  1  0.548423  0.534154  0.128031  1
  Pr  Pr51  1  0.465846  0.451577  0.371969  1
  Pr  Pr52  1  0.451577  0.465846  0.871969  1
  Pr  Pr53  1  0.534154  0.548423  0.628031  1
  Pr  Pr54  1  0.424052  0.899038  0.116925  1
  Pr  Pr55  1  0.100962  0.575948  0.383075  1
  Pr  Pr56  1  0.575948  0.100962  0.883075  1
  Pr  Pr57  1  0.899038  0.424052  0.616925  1
  Pr  Pr58  1  0.641111  0.641438  0.949790  1
  Pr  Pr59  1  0.358562  0.358889  0.550210  1
  Pr  Pr60  1  0.358889  0.358562  0.050210  1
  Pr  Pr61  1  0.641438  0.641111  0.449790  1
  Pr  Pr62  1  0.076539  0.020178  0.152232  1
  Pr  Pr63  1  0.979822  0.923461  0.347768  1
  Pr  Pr64  1  0.923461  0.979822  0.847768  1
  Pr  Pr65  1  0.020178  0.076539  0.652232  1
  Pr  Pr66  1  0.338168  0.808327  0.288876  1
  Pr  Pr67  1  0.191673  0.661832  0.211124  1
  Pr  Pr68  1  0.661832  0.191673  0.711124  1
  Pr  Pr69  1  0.808327  0.338168  0.788876  1
