# generated using pymatgen
data_Sr5(Br4Cl)2
_symmetry_space_group_name_H-M   'P 1'
_cell_length_a   7.15836656
_cell_length_b   11.60124086
_cell_length_c   11.60124086
_cell_angle_alpha   90.00000000
_cell_angle_beta   90.00000000
_cell_angle_gamma   90.00000000
_symmetry_Int_Tables_number   1
_chemical_formula_structural   Sr5(Br4Cl)2
_chemical_formula_sum   'Sr10 Br16 Cl4'
_cell_volume   963.43589005
_cell_formula_units_Z   2
loop_
 _symmetry_equiv_pos_site_id
 _symmetry_equiv_pos_as_xyz
  1  'x, y, z'
loop_
 _atom_site_type_symbol
 _atom_site_label
 _atom_site_symmetry_multiplicity
 _atom_site_fract_x
 _atom_site_fract_y
 _atom_site_fract_z
 _atom_site_occupancy
  Cl  Cl0  1  0.500000  0.750000  0.250000  1
  Cl  Cl1  1  0.500000  0.250000  0.750000  1
  Cl  Cl2  1  0.000000  0.750000  0.250000  1
  Cl  Cl3  1  0.000000  0.250000  0.750000  1
  Br  Br4  1  0.901841  0.839382  0.959215  1
  Br  Br5  1  0.901841  0.540785  0.839382  1
  Br  Br6  1  0.901841  0.959215  0.660618  1
  Br  Br7  1  0.901841  0.660618  0.540785  1
  Br  Br8  1  0.098159  0.160618  0.040785  1
  Br  Br9  1  0.098159  0.459215  0.160618  1
  Br  Br10  1  0.622939  0.153082  0.462429  1
  Br  Br11  1  0.622939  0.037571  0.153082  1
  Br  Br12  1  0.622939  0.462429  0.346918  1
  Br  Br13  1  0.622939  0.346918  0.037571  1
  Br  Br14  1  0.377061  0.846918  0.537571  1
  Br  Br15  1  0.377061  0.962429  0.846918  1
  Br  Br16  1  0.377061  0.537571  0.653082  1
  Br  Br17  1  0.377061  0.653082  0.962429  1
  Br  Br18  1  0.098159  0.339382  0.459215  1
  Br  Br19  1  0.098159  0.040785  0.339382  1
  Sr  Sr20  1  0.150008  0.750000  0.750000  1
  Sr  Sr21  1  0.849992  0.250000  0.250000  1
  Sr  Sr22  1  0.751753  0.609477  0.093219  1
  Sr  Sr23  1  0.751753  0.406781  0.609477  1
  Sr  Sr24  1  0.751753  0.093219  0.890523  1
  Sr  Sr25  1  0.751753  0.890523  0.406781  1
  Sr  Sr26  1  0.248247  0.390523  0.906781  1
  Sr  Sr27  1  0.248247  0.593219  0.390523  1
  Sr  Sr28  1  0.248247  0.906781  0.109477  1
  Sr  Sr29  1  0.248247  0.109477  0.593219  1
