# generated using pymatgen
data_Nd6Fe13Sn
_symmetry_space_group_name_H-M   'P 1'
_cell_length_a   8.06790469
_cell_length_b   8.06790468
_cell_length_c   13.06307129
_cell_angle_alpha   107.98727795
_cell_angle_beta   107.98727796
_cell_angle_gamma   89.99999997
_symmetry_Int_Tables_number   1
_chemical_formula_structural   Nd6Fe13Sn
_chemical_formula_sum   'Nd12 Fe26 Sn2'
_cell_volume   764.91938207
_cell_formula_units_Z   2
loop_
 _symmetry_equiv_pos_site_id
 _symmetry_equiv_pos_as_xyz
  1  'x, y, z'
loop_
 _atom_site_type_symbol
 _atom_site_label
 _atom_site_symmetry_multiplicity
 _atom_site_fract_x
 _atom_site_fract_y
 _atom_site_fract_z
 _atom_site_occupancy
  Fe  Fe0  1  0.979887  0.706438  0.186325  1
  Fe  Fe1  1  0.793562  0.520113  0.813675  1
  Fe  Fe2  1  0.000000  0.500000  0.000000  1
  Fe  Fe3  1  0.500000  0.000000  0.000000  1
  Fe  Fe4  1  0.209571  0.933606  0.000000  1
  Fe  Fe5  1  0.433606  0.709571  0.000000  1
  Fe  Fe6  1  0.566394  0.290429  0.000000  1
  Fe  Fe7  1  0.709571  0.566394  0.000000  1
  Fe  Fe8  1  0.290429  0.433606  0.000000  1
  Fe  Fe9  1  0.066394  0.209571  0.000000  1
  Fe  Fe10  1  0.933606  0.790429  0.000000  1
  Fe  Fe11  1  0.790429  0.066394  0.000000  1
  Fe  Fe12  1  0.379462  0.237275  0.116736  1
  Fe  Fe13  1  0.020113  0.293562  0.813675  1
  Fe  Fe14  1  0.237275  0.737275  0.116736  1
  Fe  Fe15  1  0.762725  0.262725  0.883264  1
  Fe  Fe16  1  0.120538  0.620538  0.883264  1
  Fe  Fe17  1  0.620538  0.762725  0.883264  1
  Fe  Fe18  1  0.262725  0.120538  0.883264  1
  Fe  Fe19  1  0.737275  0.879462  0.116736  1
  Fe  Fe20  1  0.879462  0.379462  0.116736  1
  Fe  Fe21  1  0.479887  0.979887  0.186325  1
  Fe  Fe22  1  0.706438  0.206438  0.186325  1
  Fe  Fe23  1  0.293562  0.793562  0.813675  1
  Fe  Fe24  1  0.520113  0.020113  0.813675  1
  Fe  Fe25  1  0.206438  0.479887  0.186325  1
  Sn  Sn26  1  0.250000  0.250000  0.500000  1
  Sn  Sn27  1  0.750000  0.750000  0.500000  1
  Nd  Nd28  1  0.151300  0.979523  0.630823  1
  Nd  Nd29  1  0.895651  0.895651  0.791301  1
  Nd  Nd30  1  0.395651  0.395651  0.791301  1
  Nd  Nd31  1  0.104349  0.104349  0.208699  1
  Nd  Nd32  1  0.848700  0.020477  0.369177  1
  Nd  Nd33  1  0.604349  0.604349  0.208699  1
  Nd  Nd34  1  0.479523  0.651300  0.630823  1
  Nd  Nd35  1  0.979523  0.479523  0.630823  1
  Nd  Nd36  1  0.651300  0.151300  0.630823  1
  Nd  Nd37  1  0.348700  0.848700  0.369177  1
  Nd  Nd38  1  0.020477  0.520477  0.369177  1
  Nd  Nd39  1  0.520477  0.348700  0.369177  1
