# generated using pymatgen
data_S3N2O5
_symmetry_space_group_name_H-M   'P 1'
_cell_length_a   8.17356863
_cell_length_b   8.64817265
_cell_length_c   10.32159089
_cell_angle_alpha   90.00000000
_cell_angle_beta   90.00000000
_cell_angle_gamma   111.89891497
_symmetry_Int_Tables_number   1
_chemical_formula_structural   S3N2O5
_chemical_formula_sum   'S12 N8 O20'
_cell_volume   676.95118071
_cell_formula_units_Z   4
loop_
 _symmetry_equiv_pos_site_id
 _symmetry_equiv_pos_as_xyz
  1  'x, y, z'
loop_
 _atom_site_type_symbol
 _atom_site_label
 _atom_site_symmetry_multiplicity
 _atom_site_fract_x
 _atom_site_fract_y
 _atom_site_fract_z
 _atom_site_occupancy
  N  N0  1  0.390269  0.718277  0.883830  1
  N  N1  1  0.109731  0.281723  0.383830  1
  N  N2  1  0.609731  0.281723  0.116170  1
  N  N3  1  0.890269  0.718277  0.616170  1
  N  N4  1  0.098734  0.785556  0.915346  1
  N  N5  1  0.401266  0.214444  0.415346  1
  N  N6  1  0.901266  0.214444  0.084654  1
  N  N7  1  0.598734  0.785556  0.584654  1
  O  O8  1  0.604942  0.804020  0.068061  1
  O  O9  1  0.895058  0.195980  0.568061  1
  O  O10  1  0.395058  0.195980  0.931939  1
  O  O11  1  0.104942  0.804020  0.431939  1
  O  O12  1  0.820257  0.824048  0.397018  1
  O  O13  1  0.679743  0.175952  0.897018  1
  O  O14  1  0.179743  0.175952  0.602982  1
  O  O15  1  0.320257  0.824048  0.102982  1
  O  O16  1  0.588206  0.933946  0.377736  1
  O  O17  1  0.911794  0.066054  0.877736  1
  O  O18  1  0.411794  0.066054  0.622264  1
  O  O19  1  0.088206  0.933946  0.122264  1
  O  O20  1  0.502383  0.625355  0.377757  1
  O  O21  1  -0.002383  0.374645  0.877757  1
  O  O22  1  0.497617  0.374645  0.622243  1
  O  O23  1  1.002383  0.625355  0.122243  1
  O  O24  1  0.839813  0.539427  0.417197  1
  O  O25  1  0.660187  0.460573  0.917197  1
  O  O26  1  0.160187  0.460573  0.582803  1
  O  O27  1  0.339813  0.539427  0.082803  1
  S  S28  1  0.230716  0.749347  0.823899  1
  S  S29  1  0.269284  0.250653  0.323899  1
  S  S30  1  0.769284  0.250653  0.176101  1
  S  S31  1  0.730716  0.749347  0.676101  1
  S  S32  1  0.424397  0.708118  0.041149  1
  S  S33  1  0.075603  0.291882  0.541149  1
  S  S34  1  0.575603  0.291882  0.958851  1
  S  S35  1  0.924397  0.708118  0.458851  1
  S  S36  1  0.107925  0.787252  0.075223  1
  S  S37  1  0.392075  0.212748  0.575223  1
  S  S38  1  0.892075  0.212748  0.924777  1
  S  S39  1  0.607925  0.787252  0.424777  1
