# generated using pymatgen
data_CsPbF3
_symmetry_space_group_name_H-M   'P 1'
_cell_length_a   6.83781704
_cell_length_b   6.83781704
_cell_length_c   6.83781704
_cell_angle_alpha   61.19552101
_cell_angle_beta   61.19552101
_cell_angle_gamma   61.19552105
_symmetry_Int_Tables_number   1
_chemical_formula_structural   CsPbF3
_chemical_formula_sum   'Cs2 Pb2 F6'
_cell_volume   232.14678199
_cell_formula_units_Z   2
loop_
 _symmetry_equiv_pos_site_id
 _symmetry_equiv_pos_as_xyz
  1  'x, y, z'
loop_
 _atom_site_type_symbol
 _atom_site_label
 _atom_site_symmetry_multiplicity
 _atom_site_fract_x
 _atom_site_fract_y
 _atom_site_fract_z
 _atom_site_occupancy
  F  F0  1  0.290871  0.773662  0.185631  1
  F  F1  1  0.773662  0.185631  0.290871  1
  F  F2  1  0.185631  0.290871  0.773662  1
  F  F3  1  0.685631  0.273662  0.790871  1
  F  F4  1  0.790871  0.685631  0.273662  1
  F  F5  1  0.273662  0.790871  0.685631  1
  Cs  Cs6  1  0.240541  0.240541  0.240541  1
  Cs  Cs7  1  0.740541  0.740541  0.740541  1
  Pb  Pb8  1  0.994495  0.994495  0.994495  1
  Pb  Pb9  1  0.494495  0.494495  0.494495  1
