# generated using pymatgen
data_RbAl(H2N)4
_symmetry_space_group_name_H-M   'P 1'
_cell_length_a   4.54847418
_cell_length_b   9.12305444
_cell_length_c   9.12305444
_cell_angle_alpha   90.00000000
_cell_angle_beta   90.00000000
_cell_angle_gamma   90.00000000
_symmetry_Int_Tables_number   1
_chemical_formula_structural   RbAl(H2N)4
_chemical_formula_sum   'Rb2 Al2 H16 N8'
_cell_volume   378.57006235
_cell_formula_units_Z   2
loop_
 _symmetry_equiv_pos_site_id
 _symmetry_equiv_pos_as_xyz
  1  'x, y, z'
loop_
 _atom_site_type_symbol
 _atom_site_label
 _atom_site_symmetry_multiplicity
 _atom_site_fract_x
 _atom_site_fract_y
 _atom_site_fract_z
 _atom_site_occupancy
  H  H0  1  0.977113  0.967464  0.476822  1
  H  H1  1  0.977113  0.023178  0.967464  1
  H  H2  1  0.977113  0.476822  0.532536  1
  H  H3  1  0.977113  0.532536  0.023178  1
  H  H4  1  0.022887  0.032536  0.523178  1
  H  H5  1  0.022887  0.976822  0.032536  1
  H  H6  1  0.022887  0.523178  0.467464  1
  H  H7  1  0.022887  0.467464  0.976822  1
  H  H8  1  0.420659  0.151843  0.895561  1
  H  H9  1  0.420659  0.604439  0.151843  1
  H  H10  1  0.420659  0.895561  0.348157  1
  H  H11  1  0.420659  0.348157  0.604439  1
  H  H12  1  0.579341  0.651843  0.395561  1
  H  H13  1  0.579341  0.104439  0.651843  1
  H  H14  1  0.579341  0.395561  0.848157  1
  H  H15  1  0.579341  0.848157  0.104439  1
  N  N16  1  0.256821  0.270402  0.587552  1
  N  N17  1  0.256821  0.912448  0.270402  1
  N  N18  1  0.256821  0.587552  0.229598  1
  N  N19  1  0.256821  0.229598  0.912448  1
  N  N20  1  0.743178  0.729598  0.412448  1
  N  N21  1  0.743178  0.087552  0.729598  1
  N  N22  1  0.743178  0.412448  0.770402  1
  N  N23  1  0.743178  0.770402  0.087552  1
  Al  Al24  1  0.000000  0.750000  0.250000  1
  Al  Al25  1  0.000000  0.250000  0.750000  1
  Rb  Rb26  1  0.861771  0.750000  0.750000  1
  Rb  Rb27  1  0.138229  0.250000  0.250000  1
