# generated using pymatgen
data_Ca(C2N3)2
_symmetry_space_group_name_H-M   'P 1'
_cell_length_a   6.25343952
_cell_length_b   7.10565018
_cell_length_c   7.94326602
_cell_angle_alpha   95.49527479
_cell_angle_beta   90.00000000
_cell_angle_gamma   116.10597943
_symmetry_Int_Tables_number   1
_chemical_formula_structural   Ca(C2N3)2
_chemical_formula_sum   'Ca2 C8 N12'
_cell_volume   315.14152533
_cell_formula_units_Z   2
loop_
 _symmetry_equiv_pos_site_id
 _symmetry_equiv_pos_as_xyz
  1  'x, y, z'
loop_
 _atom_site_type_symbol
 _atom_site_label
 _atom_site_symmetry_multiplicity
 _atom_site_fract_x
 _atom_site_fract_y
 _atom_site_fract_z
 _atom_site_occupancy
  C  C0  1  0.712387  0.169375  0.908733  1
  C  C1  1  0.543011  0.830625  0.591267  1
  C  C2  1  0.743250  0.457337  0.306769  1
  C  C3  1  0.285913  0.542663  0.193231  1
  C  C4  1  0.256750  0.542663  0.693231  1
  C  C5  1  0.714087  0.457337  0.806769  1
  C  C6  1  0.456989  0.169375  0.408733  1
  C  C7  1  0.287613  0.830625  0.091267  1
  N  N8  1  0.728699  0.930734  0.533115  1
  N  N9  1  0.797965  0.069266  0.966885  1
  N  N10  1  0.660733  0.262139  0.341392  1
  N  N11  1  0.398594  0.737861  0.158608  1
  N  N12  1  0.339267  0.737861  0.658608  1
  N  N13  1  0.601406  0.262139  0.841392  1
  N  N14  1  0.829504  0.631222  0.270444  1
  N  N15  1  0.198282  0.368778  0.229556  1
  N  N16  1  0.170496  0.368778  0.729556  1
  N  N17  1  0.801718  0.631222  0.770444  1
  N  N18  1  0.271301  0.069266  0.466885  1
  N  N19  1  0.202035  0.930734  0.033115  1
  Ca  Ca20  1  0.086585  0.000000  0.750000  1
  Ca  Ca21  1  0.913415  0.000000  0.250000  1
