# generated using pymatgen
data_ThGa4Co
_symmetry_space_group_name_H-M   'P 1'
_cell_length_a   4.19446341
_cell_length_b   6.59873835
_cell_length_c   8.12238415
_cell_angle_alpha   90.00000000
_cell_angle_beta   104.96351780
_cell_angle_gamma   90.00000000
_symmetry_Int_Tables_number   1
_chemical_formula_structural   ThGa4Co
_chemical_formula_sum   'Th2 Ga8 Co2'
_cell_volume   217.18939932
_cell_formula_units_Z   2
loop_
 _symmetry_equiv_pos_site_id
 _symmetry_equiv_pos_as_xyz
  1  'x, y, z'
loop_
 _atom_site_type_symbol
 _atom_site_label
 _atom_site_symmetry_multiplicity
 _atom_site_fract_x
 _atom_site_fract_y
 _atom_site_fract_z
 _atom_site_occupancy
  Co  Co0  1  0.726042  0.750000  0.452084  1
  Co  Co1  1  0.273958  0.250000  0.547916  1
  Ga  Ga2  1  0.000000  0.000000  0.000000  1
  Ga  Ga3  1  0.000000  0.500000  0.000000  1
  Ga  Ga4  1  0.810115  0.055046  0.620230  1
  Ga  Ga5  1  0.189885  0.944954  0.379770  1
  Ga  Ga6  1  0.189885  0.555046  0.379770  1
  Ga  Ga7  1  0.810115  0.444954  0.620230  1
  Ga  Ga8  1  0.423034  0.250000  0.846067  1
  Ga  Ga9  1  0.576966  0.750000  0.153933  1
  Th  Th10  1  0.384016  0.750000  0.768033  1
  Th  Th11  1  0.615984  0.250000  0.231967  1
