# generated using pymatgen
data_Y4BBr6
_symmetry_space_group_name_H-M   'P 1'
_cell_length_a   10.76418405
_cell_length_b   10.76418405
_cell_length_c   12.64700944
_cell_angle_alpha   84.52605552
_cell_angle_beta   84.52605552
_cell_angle_gamma   63.38102527
_symmetry_Int_Tables_number   1
_chemical_formula_structural   Y4BBr6
_chemical_formula_sum   'Y16 B4 Br24'
_cell_volume   1301.79913363
_cell_formula_units_Z   4
loop_
 _symmetry_equiv_pos_site_id
 _symmetry_equiv_pos_as_xyz
  1  'x, y, z'
loop_
 _atom_site_type_symbol
 _atom_site_label
 _atom_site_symmetry_multiplicity
 _atom_site_fract_x
 _atom_site_fract_y
 _atom_site_fract_z
 _atom_site_occupancy
  B  B0  1  0.339597  0.587774  0.605650  1
  B  B1  1  0.412226  0.660403  0.894350  1
  B  B2  1  0.660403  0.412226  0.394350  1
  B  B3  1  0.587774  0.339597  0.105650  1
  Br  Br4  1  0.857019  0.620467  0.251745  1
  Br  Br5  1  0.379533  0.142981  0.248255  1
  Br  Br6  1  0.142981  0.379533  0.748255  1
  Br  Br7  1  0.620467  0.857019  0.751745  1
  Br  Br8  1  0.841305  0.086164  0.603417  1
  Br  Br9  1  0.913836  0.158695  0.896583  1
  Br  Br10  1  0.158695  0.913836  0.396583  1
  Br  Br11  1  0.086164  0.841305  0.103417  1
  Br  Br12  1  0.947235  0.691761  0.533620  1
  Br  Br13  1  0.308239  0.052765  0.966380  1
  Br  Br14  1  0.052765  0.308239  0.466380  1
  Br  Br15  1  0.691761  0.947235  0.033620  1
  Br  Br16  1  0.015940  0.774776  0.819107  1
  Br  Br17  1  0.225224  0.984060  0.680893  1
  Br  Br18  1  0.984060  0.225224  0.180893  1
  Br  Br19  1  0.774776  0.015940  0.319107  1
  Br  Br20  1  0.530645  0.252978  0.815251  1
  Br  Br21  1  0.747022  0.469355  0.684749  1
  Br  Br22  1  0.469355  0.747022  0.184749  1
  Br  Br23  1  0.252978  0.530645  0.315251  1
  Br  Br24  1  0.193910  0.453547  0.025646  1
  Br  Br25  1  0.546453  0.806090  0.474354  1
  Br  Br26  1  0.806090  0.546453  0.974354  1
  Br  Br27  1  0.453547  0.193910  0.525646  1
  Y  Y28  1  0.288800  0.529912  0.808422  1
  Y  Y29  1  0.470088  0.711200  0.691578  1
  Y  Y30  1  0.711200  0.470088  0.191578  1
  Y  Y31  1  0.529912  0.288800  0.308422  1
  Y  Y32  1  0.216239  0.456772  0.546483  1
  Y  Y33  1  0.543228  0.783761  0.953517  1
  Y  Y34  1  0.783761  0.543228  0.453517  1
  Y  Y35  1  0.456772  0.216239  0.046483  1
  Y  Y36  1  0.418992  0.640514  0.412328  1
  Y  Y37  1  0.359486  0.581008  0.087672  1
  Y  Y38  1  0.581008  0.359486  0.587672  1
  Y  Y39  1  0.640514  0.418992  0.912328  1
  Y  Y40  1  0.883378  0.188830  0.395411  1
  Y  Y41  1  0.811170  0.116622  0.104589  1
  Y  Y42  1  0.116622  0.811170  0.604589  1
  Y  Y43  1  0.188830  0.883378  0.895411  1
