# generated using pymatgen
data_PuGa3
_symmetry_space_group_name_H-M   'P 1'
_cell_length_a   10.20544615
_cell_length_b   10.20544614
_cell_length_c   10.20544615
_cell_angle_alpha   35.09084705
_cell_angle_beta   35.09084708
_cell_angle_gamma   35.09084704
_symmetry_Int_Tables_number   1
_chemical_formula_structural   PuGa3
_chemical_formula_sum   'Pu4 Ga12'
_cell_volume   313.69172487
_cell_formula_units_Z   4
loop_
 _symmetry_equiv_pos_site_id
 _symmetry_equiv_pos_as_xyz
  1  'x, y, z'
loop_
 _atom_site_type_symbol
 _atom_site_label
 _atom_site_symmetry_multiplicity
 _atom_site_fract_x
 _atom_site_fract_y
 _atom_site_fract_z
 _atom_site_occupancy
  Ga  Ga0  1  0.208312  0.208312  0.709192  1
  Ga  Ga1  1  0.208312  0.709192  0.208312  1
  Ga  Ga2  1  0.709192  0.208312  0.208312  1
  Ga  Ga3  1  0.290808  0.791688  0.791688  1
  Ga  Ga4  1  0.610421  0.154352  0.610421  1
  Ga  Ga5  1  0.610421  0.610421  0.154352  1
  Ga  Ga6  1  0.154352  0.610421  0.610421  1
  Ga  Ga7  1  0.845648  0.389579  0.389579  1
  Ga  Ga8  1  0.389579  0.845648  0.389579  1
  Ga  Ga9  1  0.389579  0.389579  0.845648  1
  Ga  Ga10  1  0.791688  0.290808  0.791688  1
  Ga  Ga11  1  0.791688  0.791688  0.290808  1
  Pu  Pu12  1  0.711104  0.711104  0.711104  1
  Pu  Pu13  1  0.288896  0.288896  0.288896  1
  Pu  Pu14  1  0.872005  0.872005  0.872005  1
  Pu  Pu15  1  0.127995  0.127995  0.127995  1
