# generated using pymatgen
data_Li3TiPCO7
_symmetry_space_group_name_H-M   'P 1'
_cell_length_a   4.98316544
_cell_length_b   6.59973205
_cell_length_c   8.63213280
_cell_angle_alpha   90.00000000
_cell_angle_beta   83.05336545
_cell_angle_gamma   90.00000000
_symmetry_Int_Tables_number   1
_chemical_formula_structural   Li3TiPCO7
_chemical_formula_sum   'Li6 Ti2 P2 C2 O14'
_cell_volume   281.80578756
_cell_formula_units_Z   2
loop_
 _symmetry_equiv_pos_site_id
 _symmetry_equiv_pos_as_xyz
  1  'x, y, z'
loop_
 _atom_site_type_symbol
 _atom_site_label
 _atom_site_symmetry_multiplicity
 _atom_site_fract_x
 _atom_site_fract_y
 _atom_site_fract_z
 _atom_site_occupancy
  Li  Li0  1  0.731993  0.979245  0.718517  1
  Li  Li1  1  0.268007  0.020755  0.281483  1
  Li  Li2  1  0.796863  0.250000  0.109389  1
  Li  Li3  1  0.203137  0.750000  0.890611  1
  Li  Li4  1  0.268007  0.479245  0.281483  1
  Li  Li5  1  0.731993  0.520755  0.718517  1
  Ti  Ti6  1  0.793066  0.750000  0.320492  1
  Ti  Ti7  1  0.206934  0.250000  0.679508  1
  P  P8  1  0.728519  0.250000  0.411690  1
  P  P9  1  0.271481  0.750000  0.588310  1
  C  C10  1  0.670575  0.750000  0.032834  1
  C  C11  1  0.329425  0.250000  0.967166  1
  O  O12  1  0.511604  0.250000  0.844125  1
  O  O13  1  0.921072  0.750000  0.060285  1
  O  O14  1  0.166967  0.750000  0.427648  1
  O  O15  1  0.488396  0.750000  0.155875  1
  O  O16  1  0.160056  0.566421  0.691531  1
  O  O17  1  0.833033  0.250000  0.572352  1
  O  O18  1  0.160056  0.933579  0.691531  1
  O  O19  1  0.839944  0.433579  0.308469  1
  O  O20  1  0.839944  0.066421  0.308469  1
  O  O21  1  0.412767  0.250000  0.432064  1
  O  O22  1  0.602764  0.750000  0.892982  1
  O  O23  1  0.397236  0.250000  0.107018  1
  O  O24  1  0.587233  0.750000  0.567936  1
  O  O25  1  0.078928  0.250000  0.939715  1
