# generated using pymatgen
data_V8Ga41
_symmetry_space_group_name_H-M   'P 1'
_cell_length_a   9.49190369
_cell_length_b   9.49190359
_cell_length_c   9.49190436
_cell_angle_alpha   94.98275377
_cell_angle_beta   94.98275377
_cell_angle_gamma   94.98274950
_symmetry_Int_Tables_number   1
_chemical_formula_structural   V8Ga41
_chemical_formula_sum   'V8 Ga41'
_cell_volume   844.88527944
_cell_formula_units_Z   1
loop_
 _symmetry_equiv_pos_site_id
 _symmetry_equiv_pos_as_xyz
  1  'x, y, z'
loop_
 _atom_site_type_symbol
 _atom_site_label
 _atom_site_symmetry_multiplicity
 _atom_site_fract_x
 _atom_site_fract_y
 _atom_site_fract_z
 _atom_site_occupancy
  V  V0  1  0.711031  0.105493  0.386882  1
  V  V1  1  0.386882  0.711031  0.105493  1
  V  V2  1  0.105493  0.386882  0.711031  1
  V  V3  1  0.288969  0.894507  0.613118  1
  V  V4  1  0.613118  0.288969  0.894507  1
  V  V5  1  0.894507  0.613118  0.288969  1
  V  V6  1  0.185805  0.185805  0.185805  1
  V  V7  1  0.814195  0.814195  0.814195  1
  Ga  Ga8  1  0.823256  0.869839  0.325074  1
  Ga  Ga9  1  0.325074  0.823256  0.869839  1
  Ga  Ga10  1  0.869839  0.325074  0.823256  1
  Ga  Ga11  1  0.176744  0.130161  0.674926  1
  Ga  Ga12  1  0.674926  0.176744  0.130161  1
  Ga  Ga13  1  0.130161  0.674926  0.176744  1
  Ga  Ga14  1  0.552381  0.922037  0.223808  1
  Ga  Ga15  1  0.223808  0.552381  0.922037  1
  Ga  Ga16  1  0.922037  0.223808  0.552381  1
  Ga  Ga17  1  0.447619  0.077963  0.776192  1
  Ga  Ga18  1  0.776192  0.447619  0.077963  1
  Ga  Ga19  1  0.077963  0.776192  0.447619  1
  Ga  Ga20  1  0.784976  0.966755  0.601621  1
  Ga  Ga21  1  0.601621  0.784976  0.966755  1
  Ga  Ga22  1  0.966755  0.601621  0.784976  1
  Ga  Ga23  1  0.215024  0.033245  0.398379  1
  Ga  Ga24  1  0.398379  0.215024  0.033245  1
  Ga  Ga25  1  0.033245  0.398379  0.215024  1
  Ga  Ga26  1  0.500000  0.000000  0.500000  1
  Ga  Ga27  1  0.500000  0.500000  0.000000  1
  Ga  Ga28  1  0.000000  0.500000  0.500000  1
  Ga  Ga29  1  0.944133  0.126916  0.270709  1
  Ga  Ga30  1  0.270709  0.944133  0.126916  1
  Ga  Ga31  1  0.126916  0.270709  0.944133  1
  Ga  Ga32  1  0.055867  0.873084  0.729291  1
  Ga  Ga33  1  0.729291  0.055867  0.873084  1
  Ga  Ga34  1  0.873084  0.729291  0.055867  1
  Ga  Ga35  1  0.615067  0.634908  0.260444  1
  Ga  Ga36  1  0.260444  0.615067  0.634908  1
  Ga  Ga37  1  0.634908  0.260444  0.615067  1
  Ga  Ga38  1  0.384933  0.365092  0.739556  1
  Ga  Ga39  1  0.739556  0.384933  0.365092  1
  Ga  Ga40  1  0.365092  0.739556  0.384933  1
  Ga  Ga41  1  0.780461  0.672780  0.541492  1
  Ga  Ga42  1  0.541492  0.780461  0.672780  1
  Ga  Ga43  1  0.672780  0.541492  0.780461  1
  Ga  Ga44  1  0.219539  0.327220  0.458508  1
  Ga  Ga45  1  0.458508  0.219539  0.327220  1
  Ga  Ga46  1  0.327220  0.458508  0.219539  1
  Ga  Ga47  1  0.000000  0.000000  0.000000  1
  Ga  Ga48  1  0.500000  0.500000  0.500000  1
