# generated using pymatgen
data_Ag25(BiO6)3
_symmetry_space_group_name_H-M   'P 1'
_cell_length_a   11.74570271
_cell_length_b   11.74570271
_cell_length_c   6.41115602
_cell_angle_alpha   90.00000000
_cell_angle_beta   90.00000000
_cell_angle_gamma   120.00000000
_symmetry_Int_Tables_number   1
_chemical_formula_structural   Ag25(BiO6)3
_chemical_formula_sum   'Ag25 Bi3 O18'
_cell_volume   765.99332747
_cell_formula_units_Z   1
loop_
 _symmetry_equiv_pos_site_id
 _symmetry_equiv_pos_as_xyz
  1  'x, y, z'
loop_
 _atom_site_type_symbol
 _atom_site_label
 _atom_site_symmetry_multiplicity
 _atom_site_fract_x
 _atom_site_fract_y
 _atom_site_fract_z
 _atom_site_occupancy
  O  O0  1  0.676223  0.182496  0.548791  1
  O  O1  1  0.506273  0.323777  0.548791  1
  O  O2  1  0.817504  0.493727  0.548791  1
  O  O3  1  0.182496  0.506273  0.451209  1
  O  O4  1  0.922427  0.095308  0.293294  1
  O  O5  1  0.172882  0.077573  0.293294  1
  O  O6  1  0.904692  0.827118  0.293294  1
  O  O7  1  0.077573  0.904692  0.706706  1
  O  O8  1  0.827118  0.922427  0.706706  1
  O  O9  1  0.095308  0.172882  0.706706  1
  O  O10  1  0.839674  0.310716  0.939415  1
  O  O11  1  0.471042  0.160326  0.939415  1
  O  O12  1  0.689284  0.528958  0.939415  1
  O  O13  1  0.160326  0.689284  0.060585  1
  O  O14  1  0.528958  0.839674  0.060585  1
  O  O15  1  0.310716  0.471042  0.060585  1
  O  O16  1  0.323777  0.817504  0.451209  1
  O  O17  1  0.493727  0.676223  0.451209  1
  Ag  Ag18  1  0.048170  0.304708  0.339322  1
  Ag  Ag19  1  0.764991  0.249141  0.247580  1
  Ag  Ag20  1  0.750859  0.515850  0.247580  1
  Ag  Ag21  1  0.484150  0.235009  0.247580  1
  Ag  Ag22  1  0.235009  0.750859  0.752420  1
  Ag  Ag23  1  0.249141  0.484150  0.752420  1
  Ag  Ag24  1  0.500000  0.000000  0.500000  1
  Ag  Ag25  1  0.000000  0.500000  0.500000  1
  Ag  Ag26  1  0.500000  0.500000  0.500000  1
  Ag  Ag27  1  0.000000  0.000000  0.000000  1
  Ag  Ag28  1  0.695292  0.743462  0.339322  1
  Ag  Ag29  1  0.951830  0.695292  0.660678  1
  Ag  Ag30  1  0.743462  0.048170  0.660678  1
  Ag  Ag31  1  0.304708  0.256538  0.660678  1
  Ag  Ag32  1  0.979159  0.250047  0.844511  1
  Ag  Ag33  1  0.270888  0.020841  0.844511  1
  Ag  Ag34  1  0.749953  0.729112  0.844511  1
  Ag  Ag35  1  0.020841  0.749953  0.155489  1
  Ag  Ag36  1  0.729112  0.979159  0.155489  1
  Ag  Ag37  1  0.250047  0.270888  0.155489  1
  Ag  Ag38  1  0.500000  0.500000  0.000000  1
  Ag  Ag39  1  0.000000  0.500000  0.000000  1
  Ag  Ag40  1  0.500000  0.000000  0.000000  1
  Ag  Ag41  1  0.515850  0.764991  0.752420  1
  Ag  Ag42  1  0.256538  0.951830  0.339322  1
  Bi  Bi43  1  0.000000  0.000000  0.500000  1
  Bi  Bi44  1  0.666667  0.333333  0.759159  1
  Bi  Bi45  1  0.333333  0.666667  0.240841  1
