# generated using pymatgen
data_BaCe2CoS5
_symmetry_space_group_name_H-M   'P 1'
_cell_length_a   7.75923636
_cell_length_b   7.75923636
_cell_length_c   8.66299862
_cell_angle_alpha   116.60504338
_cell_angle_beta   116.60504337
_cell_angle_gamma   89.99999999
_symmetry_Int_Tables_number   1
_chemical_formula_structural   BaCe2CoS5
_chemical_formula_sum   'Ba2 Ce4 Co2 S10'
_cell_volume   403.62407593
_cell_formula_units_Z   2
loop_
 _symmetry_equiv_pos_site_id
 _symmetry_equiv_pos_as_xyz
  1  'x, y, z'
loop_
 _atom_site_type_symbol
 _atom_site_label
 _atom_site_symmetry_multiplicity
 _atom_site_fract_x
 _atom_site_fract_y
 _atom_site_fract_z
 _atom_site_occupancy
  S  S0  1  0.488729  0.988729  0.268089  1
  S  S1  1  0.220640  0.720640  0.731911  1
  S  S2  1  0.511271  0.011271  0.731911  1
  S  S3  1  0.720640  0.511271  0.731911  1
  S  S4  1  0.011271  0.220640  0.731911  1
  S  S5  1  0.279360  0.488729  0.268089  1
  S  S6  1  0.988729  0.779360  0.268089  1
  S  S7  1  0.779360  0.279360  0.268089  1
  S  S8  1  0.000000  0.000000  0.000000  1
  S  S9  1  0.500000  0.500000  0.000000  1
  Co  Co10  1  0.750000  0.250000  0.500000  1
  Co  Co11  1  0.250000  0.750000  0.500000  1
  Ba  Ba12  1  0.750000  0.750000  0.500000  1
  Ba  Ba13  1  0.250000  0.250000  0.500000  1
  Ce  Ce14  1  0.662044  0.837956  0.000000  1
  Ce  Ce15  1  0.162044  0.662044  0.000000  1
  Ce  Ce16  1  0.837956  0.337956  0.000000  1
  Ce  Ce17  1  0.337956  0.162044  0.000000  1
