# generated using pymatgen
data_CsMnCl3
_symmetry_space_group_name_H-M   'P 1'
_cell_length_a   10.14957616
_cell_length_b   10.14957616
_cell_length_c   10.14957616
_cell_angle_alpha   42.90033526
_cell_angle_beta   42.90033524
_cell_angle_gamma   42.90033528
_symmetry_Int_Tables_number   1
_chemical_formula_structural   CsMnCl3
_chemical_formula_sum   'Cs3 Mn3 Cl9'
_cell_volume   439.05572013
_cell_formula_units_Z   3
loop_
 _symmetry_equiv_pos_site_id
 _symmetry_equiv_pos_as_xyz
  1  'x, y, z'
loop_
 _atom_site_type_symbol
 _atom_site_label
 _atom_site_symmetry_multiplicity
 _atom_site_fract_x
 _atom_site_fract_y
 _atom_site_fract_z
 _atom_site_occupancy
  Cl  Cl0  1  0.288017  0.288017  0.751942  1
  Cl  Cl1  1  0.288017  0.751942  0.288017  1
  Cl  Cl2  1  0.751942  0.288017  0.288017  1
  Cl  Cl3  1  0.248058  0.711983  0.711983  1
  Cl  Cl4  1  0.711983  0.711983  0.248058  1
  Cl  Cl5  1  0.711983  0.248058  0.711983  1
  Cl  Cl6  1  0.500000  0.500000  0.000000  1
  Cl  Cl7  1  0.000000  0.500000  0.500000  1
  Cl  Cl8  1  0.500000  0.000000  0.500000  1
  Mn  Mn9  1  0.616202  0.616202  0.616202  1
  Mn  Mn10  1  0.383798  0.383798  0.383798  1
  Mn  Mn11  1  0.500000  0.500000  0.500000  1
  Cs  Cs12  1  0.780912  0.780912  0.780912  1
  Cs  Cs13  1  0.219088  0.219088  0.219088  1
  Cs  Cs14  1  0.000000  0.000000  0.000000  1
