# generated using pymatgen
data_Al7(TlS4)3
_symmetry_space_group_name_H-M   'P 1'
_cell_length_a   9.20508530
_cell_length_b   9.73425115
_cell_length_c   12.62745950
_cell_angle_alpha   90.00000000
_cell_angle_beta   90.00000000
_cell_angle_gamma   96.10381213
_symmetry_Int_Tables_number   1
_chemical_formula_structural   Al7(TlS4)3
_chemical_formula_sum   'Al14 Tl6 S24'
_cell_volume   1125.06411372
_cell_formula_units_Z   2
loop_
 _symmetry_equiv_pos_site_id
 _symmetry_equiv_pos_as_xyz
  1  'x, y, z'
loop_
 _atom_site_type_symbol
 _atom_site_label
 _atom_site_symmetry_multiplicity
 _atom_site_fract_x
 _atom_site_fract_y
 _atom_site_fract_z
 _atom_site_occupancy
  Al  Al0  1  0.969394  0.029450  0.283914  1
  Al  Al1  1  0.030606  0.970550  0.783914  1
  Al  Al2  1  0.710468  0.191516  0.764306  1
  Al  Al3  1  0.289532  0.808484  0.264306  1
  Al  Al4  1  0.303147  0.179109  0.373247  1
  Al  Al5  1  0.696853  0.820891  0.873247  1
  Al  Al6  1  0.522012  0.477896  0.767159  1
  Al  Al7  1  0.477988  0.522104  0.267159  1
  Al  Al8  1  0.330934  0.174984  0.671797  1
  Al  Al9  1  0.669066  0.825016  0.171797  1
  Al  Al10  1  0.978664  0.198483  0.537826  1
  Al  Al11  1  0.021336  0.801517  0.037826  1
  Al  Al12  1  0.628445  0.359019  0.515465  1
  Al  Al13  1  0.371555  0.640981  0.015465  1
  S  S14  1  0.073952  0.006430  0.958753  1
  S  S15  1  0.754132  0.045530  0.204263  1
  S  S16  1  0.672023  0.677367  0.308050  1
  S  S17  1  0.327977  0.322633  0.808050  1
  S  S18  1  0.245868  0.954470  0.704264  1
  S  S19  1  0.569540  0.156913  0.613204  1
  S  S20  1  0.475859  0.685836  0.847730  1
  S  S21  1  0.524141  0.314164  0.347730  1
  S  S22  1  0.271091  0.595062  0.331348  1
  S  S23  1  0.728909  0.404938  0.831348  1
  S  S24  1  0.529450  0.531249  0.593937  1
  S  S25  1  0.470550  0.468751  0.093937  1
  S  S26  1  0.355439  0.958690  0.394838  1
  S  S27  1  0.644561  0.041310  0.894838  1
  S  S28  1  0.861478  0.792448  0.746090  1
  S  S29  1  0.138522  0.207552  0.246090  1
  S  S30  1  0.223859  0.271815  0.528188  1
  S  S31  1  0.776141  0.728185  0.028188  1
  S  S32  1  0.949445  0.172338  0.718959  1
  S  S33  1  0.050555  0.827662  0.218959  1
  S  S34  1  0.873414  0.388708  0.494496  1
  S  S35  1  0.126586  0.611292  0.994496  1
  S  S36  1  0.430460  0.843087  0.113203  1
  S  S37  1  0.926048  0.993570  0.458753  1
  Tl  Tl38  1  0.961612  0.478202  0.254656  1
  Tl  Tl39  1  0.038388  0.521798  0.754656  1
  Tl  Tl40  1  0.878337  0.225337  0.025990  1
  Tl  Tl41  1  0.121663  0.774663  0.525990  1
  Tl  Tl42  1  0.380730  0.166841  0.022742  1
  Tl  Tl43  1  0.619270  0.833159  0.522742  1
