# generated using pymatgen
data_C2N
_symmetry_space_group_name_H-M   'P 1'
_cell_length_a   11.12513302
_cell_length_b   11.12513302
_cell_length_c   11.12513302
_cell_angle_alpha   90.00000000
_cell_angle_beta   90.00000000
_cell_angle_gamma   90.00000000
_symmetry_Int_Tables_number   1
_chemical_formula_structural   C2N
_chemical_formula_sum   'C48 N24'
_cell_volume   1376.94196863
_cell_formula_units_Z   24
loop_
 _symmetry_equiv_pos_site_id
 _symmetry_equiv_pos_as_xyz
  1  'x, y, z'
loop_
 _atom_site_type_symbol
 _atom_site_label
 _atom_site_symmetry_multiplicity
 _atom_site_fract_x
 _atom_site_fract_y
 _atom_site_fract_z
 _atom_site_occupancy
  C  C0  1  0.091968  0.912789  0.995194  1
  C  C1  1  0.995194  0.091968  0.912789  1
  C  C2  1  0.912789  0.995194  0.091968  1
  C  C3  1  0.587211  0.004806  0.591968  1
  C  C4  1  0.495194  0.408032  0.087211  1
  C  C5  1  0.087211  0.495194  0.408032  1
  C  C6  1  0.504806  0.908032  0.412789  1
  C  C7  1  0.004806  0.591968  0.587211  1
  C  C8  1  0.412789  0.504806  0.908032  1
  C  C9  1  0.591968  0.587211  0.004806  1
  C  C10  1  0.908032  0.412789  0.504806  1
  C  C11  1  0.408032  0.087211  0.495194  1
  C  C12  1  0.908032  0.087211  0.004806  1
  C  C13  1  0.004806  0.908032  0.087211  1
  C  C14  1  0.087211  0.004806  0.908032  1
  C  C15  1  0.412789  0.995194  0.408032  1
  C  C16  1  0.504806  0.591968  0.912789  1
  C  C17  1  0.912789  0.504806  0.591968  1
  C  C18  1  0.495194  0.091968  0.587211  1
  C  C19  1  0.995194  0.408032  0.412789  1
  C  C20  1  0.587211  0.495194  0.091968  1
  C  C21  1  0.408032  0.412789  0.995194  1
  C  C22  1  0.091968  0.587211  0.495194  1
  C  C23  1  0.591968  0.912789  0.504806  1
  C  C24  1  0.184717  0.824743  0.989933  1
  C  C25  1  0.989933  0.184717  0.824743  1
  C  C26  1  0.824743  0.989933  0.184717  1
  C  C27  1  0.675257  0.010067  0.684717  1
  C  C28  1  0.489933  0.315283  0.175257  1
  C  C29  1  0.175257  0.489933  0.315283  1
  C  C30  1  0.510067  0.815283  0.324743  1
  C  C31  1  0.010067  0.684717  0.675257  1
  C  C32  1  0.324743  0.510067  0.815283  1
  C  C33  1  0.684717  0.675257  0.010067  1
  C  C34  1  0.815283  0.324743  0.510067  1
  C  C35  1  0.315283  0.175257  0.489933  1
  C  C36  1  0.815283  0.175257  0.010067  1
  C  C37  1  0.010067  0.815283  0.175257  1
  C  C38  1  0.175257  0.010067  0.815283  1
  C  C39  1  0.324743  0.989933  0.315283  1
  C  C40  1  0.510067  0.684717  0.824743  1
  C  C41  1  0.824743  0.510067  0.684717  1
  C  C42  1  0.489933  0.184717  0.675257  1
  C  C43  1  0.989933  0.315283  0.324743  1
  C  C44  1  0.675257  0.489933  0.184717  1
  C  C45  1  0.315283  0.324743  0.989933  1
  C  C46  1  0.184717  0.675257  0.489933  1
  C  C47  1  0.684717  0.824743  0.510067  1
  N  N48  1  0.260632  0.752622  0.984677  1
  N  N49  1  0.984677  0.260632  0.752622  1
  N  N50  1  0.752622  0.984677  0.260632  1
  N  N51  1  0.747378  0.015323  0.760632  1
  N  N52  1  0.484677  0.239368  0.247378  1
  N  N53  1  0.247378  0.484677  0.239368  1
  N  N54  1  0.515323  0.739368  0.252622  1
  N  N55  1  0.015323  0.760632  0.747378  1
  N  N56  1  0.252622  0.515323  0.739368  1
  N  N57  1  0.760632  0.747378  0.015323  1
  N  N58  1  0.739368  0.252622  0.515323  1
  N  N59  1  0.239368  0.247378  0.484677  1
  N  N60  1  0.739368  0.247378  0.015323  1
  N  N61  1  0.015323  0.739368  0.247378  1
  N  N62  1  0.247378  0.015323  0.739368  1
  N  N63  1  0.252622  0.984677  0.239368  1
  N  N64  1  0.515323  0.760632  0.752622  1
  N  N65  1  0.752622  0.515323  0.760632  1
  N  N66  1  0.484677  0.260632  0.747378  1
  N  N67  1  0.984677  0.239368  0.252622  1
  N  N68  1  0.747378  0.484677  0.260632  1
  N  N69  1  0.239368  0.252622  0.984677  1
  N  N70  1  0.260632  0.747378  0.484677  1
  N  N71  1  0.760632  0.752622  0.515323  1
