# generated using pymatgen
data_CsMoPO6
_symmetry_space_group_name_H-M   'P 1'
_cell_length_a   8.57345236
_cell_length_b   8.57345237
_cell_length_c   9.91000457
_cell_angle_alpha   111.65296294
_cell_angle_beta   111.65296293
_cell_angle_gamma   98.45237821
_symmetry_Int_Tables_number   1
_chemical_formula_structural   CsMoPO6
_chemical_formula_sum   'Cs4 Mo4 P4 O24'
_cell_volume   594.49194531
_cell_formula_units_Z   4
loop_
 _symmetry_equiv_pos_site_id
 _symmetry_equiv_pos_as_xyz
  1  'x, y, z'
loop_
 _atom_site_type_symbol
 _atom_site_label
 _atom_site_symmetry_multiplicity
 _atom_site_fract_x
 _atom_site_fract_y
 _atom_site_fract_z
 _atom_site_occupancy
  O  O0  1  0.597823  0.676867  0.408046  1
  O  O1  1  0.268821  0.689778  0.091955  1
  O  O2  1  0.323134  0.402177  0.091954  1
  O  O3  1  0.310222  0.731179  0.408046  1
  O  O4  1  0.402176  0.323134  0.591954  1
  O  O5  1  0.731179  0.310223  0.908045  1
  O  O6  1  0.676866  0.597823  0.908046  1
  O  O7  1  0.689778  0.268821  0.591955  1
  O  O8  1  0.666723  0.519556  0.125909  1
  O  O9  1  0.393647  0.040814  0.374091  1
  O  O10  1  0.480444  0.333277  0.374091  1
  O  O11  1  0.959186  0.606353  0.125909  1
  O  O12  1  0.920042  0.066470  0.611175  1
  O  O13  1  0.455295  0.808868  0.888826  1
  O  O14  1  0.933530  0.079959  0.888825  1
  O  O15  1  0.191133  0.544706  0.611176  1
  O  O16  1  0.079959  0.933530  0.388826  1
  O  O17  1  0.544706  0.191133  0.111175  1
  O  O18  1  0.333277  0.480444  0.874091  1
  O  O19  1  0.808867  0.455295  0.388825  1
  O  O20  1  0.040814  0.393646  0.874091  1
  O  O21  1  0.519556  0.666723  0.625910  1
  O  O22  1  0.606353  0.959185  0.625909  1
  O  O23  1  0.066469  0.920042  0.111175  1
  P  P24  1  0.505185  0.755185  0.510369  1
  P  P25  1  0.244815  0.494815  0.989631  1
  P  P26  1  0.494816  0.244816  0.489631  1
  P  P27  1  0.755185  0.505184  0.010369  1
  Mo  Mo28  1  0.591426  0.408574  0.250000  1
  Mo  Mo29  1  0.158575  0.841426  0.250000  1
  Mo  Mo30  1  0.841426  0.158575  0.750000  1
  Mo  Mo31  1  0.408574  0.591425  0.750000  1
  Cs  Cs32  1  0.067782  0.317781  0.250000  1
  Cs  Cs33  1  0.682219  0.932218  0.250000  1
  Cs  Cs34  1  0.932218  0.682218  0.749999  1
  Cs  Cs35  1  0.317781  0.067781  0.750000  1
