# generated using pymatgen
data_KNb3O8
_symmetry_space_group_name_H-M   'P 1'
_cell_length_a   3.88216051
_cell_length_b   9.12304247
_cell_length_c   11.03066618
_cell_angle_alpha   90.00000000
_cell_angle_beta   100.13518449
_cell_angle_gamma   90.00000000
_symmetry_Int_Tables_number   1
_chemical_formula_structural   KNb3O8
_chemical_formula_sum   'K2 Nb6 O16'
_cell_volume   384.57802045
_cell_formula_units_Z   2
loop_
 _symmetry_equiv_pos_site_id
 _symmetry_equiv_pos_as_xyz
  1  'x, y, z'
loop_
 _atom_site_type_symbol
 _atom_site_label
 _atom_site_symmetry_multiplicity
 _atom_site_fract_x
 _atom_site_fract_y
 _atom_site_fract_z
 _atom_site_occupancy
  O  O0  1  0.586502  0.750000  0.173006  1
  O  O1  1  0.413498  0.250000  0.826994  1
  O  O2  1  0.715063  0.750000  0.430125  1
  O  O3  1  0.284938  0.250000  0.569875  1
  O  O4  1  0.703768  0.405849  0.407534  1
  O  O5  1  0.296233  0.594151  0.592466  1
  O  O6  1  0.296233  0.905849  0.592466  1
  O  O7  1  0.703768  0.094151  0.407534  1
  O  O8  1  0.842473  0.406843  0.684946  1
  O  O9  1  0.157528  0.593156  0.315054  1
  O  O10  1  0.157528  0.906843  0.315054  1
  O  O11  1  0.842473  0.093157  0.684946  1
  O  O12  1  0.568907  0.435389  0.137815  1
  O  O13  1  0.431094  0.935388  0.862185  1
  O  O14  1  0.431094  0.564611  0.862185  1
  O  O15  1  0.568907  0.064611  0.137815  1
  K  K16  1  0.982852  0.750000  0.965707  1
  K  K17  1  0.017146  0.250000  0.034294  1
  Nb  Nb18  1  0.632454  0.559406  0.264906  1
  Nb  Nb19  1  0.758439  0.250000  0.516879  1
  Nb  Nb20  1  0.241562  0.750000  0.483121  1
  Nb  Nb21  1  0.367547  0.440594  0.735095  1
  Nb  Nb22  1  0.367547  0.059406  0.735095  1
  Nb  Nb23  1  0.632454  0.940594  0.264906  1
