# generated using pymatgen
data_RuClF8
_symmetry_space_group_name_H-M   'P 1'
_cell_length_a   5.85054191
_cell_length_b   10.93362328
_cell_length_c   20.05500537
_cell_angle_alpha   90.00000000
_cell_angle_beta   90.00000000
_cell_angle_gamma   90.00000000
_symmetry_Int_Tables_number   1
_chemical_formula_structural   RuClF8
_chemical_formula_sum   'Ru8 Cl8 F64'
_cell_volume   1282.87098723
_cell_formula_units_Z   8
loop_
 _symmetry_equiv_pos_site_id
 _symmetry_equiv_pos_as_xyz
  1  'x, y, z'
loop_
 _atom_site_type_symbol
 _atom_site_label
 _atom_site_symmetry_multiplicity
 _atom_site_fract_x
 _atom_site_fract_y
 _atom_site_fract_z
 _atom_site_occupancy
  F  F0  1  0.406671  0.801256  0.947831  1
  F  F1  1  0.406671  0.698744  0.052169  1
  F  F2  1  0.593329  0.801256  0.552169  1
  F  F3  1  0.593329  0.698744  0.447831  1
  F  F4  1  0.593329  0.198744  0.052169  1
  F  F5  1  0.593329  0.301256  0.947831  1
  F  F6  1  0.406671  0.198744  0.447831  1
  F  F7  1  0.406671  0.301256  0.552169  1
  F  F8  1  0.393282  0.167421  0.800839  1
  F  F9  1  0.393282  0.332579  0.199161  1
  F  F10  1  0.606718  0.167421  0.699161  1
  F  F11  1  0.606718  0.332579  0.300839  1
  F  F12  1  0.606718  0.832579  0.199161  1
  F  F13  1  0.606718  0.667421  0.800839  1
  F  F14  1  0.393282  0.832579  0.300839  1
  F  F15  1  0.393282  0.667421  0.699161  1
  F  F16  1  0.101954  0.525239  0.568416  1
  F  F17  1  0.101954  0.974761  0.431584  1
  F  F18  1  0.898046  0.525239  0.931584  1
  F  F19  1  0.898046  0.974761  0.068416  1
  F  F20  1  0.898046  0.474761  0.431584  1
  F  F21  1  0.898046  0.025239  0.568416  1
  F  F22  1  0.101954  0.474761  0.068416  1
  F  F23  1  0.101954  0.025239  0.931584  1
  F  F24  1  0.354498  0.462248  0.430295  1
  F  F25  1  0.354498  0.037752  0.569705  1
  F  F26  1  0.645502  0.462248  0.069705  1
  F  F27  1  0.645502  0.037752  0.930295  1
  F  F28  1  0.645502  0.537752  0.569705  1
  F  F29  1  0.645502  0.962248  0.430295  1
  F  F30  1  0.354498  0.537752  0.930295  1
  F  F31  1  0.354498  0.962248  0.069705  1
  F  F32  1  0.378750  0.592104  0.318613  1
  F  F33  1  0.378750  0.907896  0.681387  1
  F  F34  1  0.621250  0.592104  0.181387  1
  F  F35  1  0.621250  0.907896  0.818613  1
  F  F36  1  0.621250  0.407896  0.681387  1
  F  F37  1  0.621250  0.092104  0.318613  1
  F  F38  1  0.378750  0.407896  0.818613  1
  F  F39  1  0.378750  0.092104  0.181387  1
  F  F40  1  0.087093  0.387375  0.678297  1
  F  F41  1  0.087093  0.112625  0.321703  1
  F  F42  1  0.912907  0.387375  0.821703  1
  F  F43  1  0.912907  0.112625  0.178297  1
  F  F44  1  0.912907  0.612625  0.321703  1
  F  F45  1  0.912907  0.887375  0.678297  1
  F  F46  1  0.087093  0.612625  0.178297  1
  F  F47  1  0.087093  0.887375  0.821703  1
  F  F48  1  0.148129  0.684304  0.428700  1
  F  F49  1  0.148129  0.815696  0.571300  1
  F  F50  1  0.851871  0.684304  0.071300  1
  F  F51  1  0.851871  0.815696  0.928700  1
  F  F52  1  0.851871  0.315696  0.571300  1
  F  F53  1  0.851871  0.184304  0.428700  1
  F  F54  1  0.148129  0.315696  0.928700  1
  F  F55  1  0.148129  0.184304  0.071300  1
  F  F56  1  0.112330  0.392089  0.323149  1
  F  F57  1  0.112330  0.107911  0.676851  1
  F  F58  1  0.887670  0.392089  0.176851  1
  F  F59  1  0.887670  0.107911  0.823149  1
  F  F60  1  0.887670  0.607911  0.676851  1
  F  F61  1  0.887670  0.892089  0.323149  1
  F  F62  1  0.112330  0.607911  0.823149  1
  F  F63  1  0.112330  0.892089  0.176851  1
  Cl  Cl64  1  0.500000  0.731656  0.250000  1
  Cl  Cl65  1  0.500000  0.768344  0.750000  1
  Cl  Cl66  1  0.500000  0.268344  0.750000  1
  Cl  Cl67  1  0.500000  0.231656  0.250000  1
  Cl  Cl68  1  0.403003  0.250000  0.000000  1
  Cl  Cl69  1  0.596997  0.250000  0.500000  1
  Cl  Cl70  1  0.596997  0.750000  0.000000  1
  Cl  Cl71  1  0.403003  0.750000  0.500000  1
  Ru  Ru72  1  0.128177  0.532637  0.375726  1
  Ru  Ru73  1  0.128177  0.967363  0.624274  1
  Ru  Ru74  1  0.871823  0.532637  0.124274  1
  Ru  Ru75  1  0.871823  0.967363  0.875726  1
  Ru  Ru76  1  0.871823  0.467363  0.624274  1
  Ru  Ru77  1  0.871823  0.032637  0.375726  1
  Ru  Ru78  1  0.128177  0.467363  0.875726  1
  Ru  Ru79  1  0.128177  0.032637  0.124274  1
