# generated using pymatgen
data_Yb2MnS4
_symmetry_space_group_name_H-M   'P 1'
_cell_length_a   7.70266766
_cell_length_b   7.70266765
_cell_length_c   7.70266765
_cell_angle_alpha   59.99999997
_cell_angle_beta   60.00000000
_cell_angle_gamma   59.99999999
_symmetry_Int_Tables_number   1
_chemical_formula_structural   Yb2MnS4
_chemical_formula_sum   'Yb4 Mn2 S8'
_cell_volume   323.15321534
_cell_formula_units_Z   2
loop_
 _symmetry_equiv_pos_site_id
 _symmetry_equiv_pos_as_xyz
  1  'x, y, z'
loop_
 _atom_site_type_symbol
 _atom_site_label
 _atom_site_symmetry_multiplicity
 _atom_site_fract_x
 _atom_site_fract_y
 _atom_site_fract_z
 _atom_site_occupancy
  S  S0  1  0.756976  0.756976  0.756976  1
  S  S1  1  0.243024  0.243024  0.770929  1
  S  S2  1  0.243024  0.770929  0.243024  1
  S  S3  1  0.770929  0.243024  0.243024  1
  S  S4  1  0.756976  0.229071  0.756976  1
  S  S5  1  0.229071  0.756976  0.756976  1
  S  S6  1  0.243024  0.243024  0.243024  1
  S  S7  1  0.756976  0.756976  0.229071  1
  Mn  Mn8  1  0.875000  0.875000  0.875000  1
  Mn  Mn9  1  0.125000  0.125000  0.125000  1
  Yb  Yb10  1  0.500000  0.500000  0.000000  1
  Yb  Yb11  1  0.500000  0.500000  0.500000  1
  Yb  Yb12  1  0.000000  0.500000  0.500000  1
  Yb  Yb13  1  0.500000  0.000000  0.500000  1
