# generated using pymatgen
data_Sb2I2F11
_symmetry_space_group_name_H-M   'P 1'
_cell_length_a   5.58344035
_cell_length_b   8.00978422
_cell_length_c   8.00978421
_cell_angle_alpha   64.81706762
_cell_angle_beta   79.39793198
_cell_angle_gamma   79.39793192
_symmetry_Int_Tables_number   1
_chemical_formula_structural   Sb2I2F11
_chemical_formula_sum   'Sb2 I2 F11'
_cell_volume   316.37629772
_cell_formula_units_Z   1
loop_
 _symmetry_equiv_pos_site_id
 _symmetry_equiv_pos_as_xyz
  1  'x, y, z'
loop_
 _atom_site_type_symbol
 _atom_site_label
 _atom_site_symmetry_multiplicity
 _atom_site_fract_x
 _atom_site_fract_y
 _atom_site_fract_z
 _atom_site_occupancy
  F  F0  1  0.744150  0.798465  0.428101  1
  F  F1  1  0.255850  0.571899  0.201535  1
  F  F2  1  0.820168  0.470879  0.721564  1
  F  F3  1  0.179832  0.278436  0.529121  1
  F  F4  1  0.500000  0.518971  0.481029  1
  F  F5  1  0.411155  0.208963  0.222623  1
  F  F6  1  0.588845  0.777377  0.791037  1
  F  F7  1  0.736002  0.449755  0.183113  1
  F  F8  1  0.263998  0.816887  0.550245  1
  F  F9  1  0.660691  0.166000  0.512724  1
  F  F10  1  0.339309  0.487276  0.834000  1
  Sb  Sb11  1  0.546598  0.651839  0.642695  1
  Sb  Sb12  1  0.453402  0.357305  0.348161  1
  I  I13  1  0.868610  0.935687  0.925739  1
  I  I14  1  0.131390  0.074261  0.064313  1
