# generated using pymatgen
data_Ba(BrO3)2
_symmetry_space_group_name_H-M   'P 1'
_cell_length_a   7.39884107
_cell_length_b   7.39884112
_cell_length_c   7.98308521
_cell_angle_alpha   106.08408855
_cell_angle_beta   106.08408866
_cell_angle_gamma   113.71269048
_symmetry_Int_Tables_number   1
_chemical_formula_structural   Ba(BrO3)2
_chemical_formula_sum   'Ba2 Br4 O12'
_cell_volume   344.94704435
_cell_formula_units_Z   2
loop_
 _symmetry_equiv_pos_site_id
 _symmetry_equiv_pos_as_xyz
  1  'x, y, z'
loop_
 _atom_site_type_symbol
 _atom_site_label
 _atom_site_symmetry_multiplicity
 _atom_site_fract_x
 _atom_site_fract_y
 _atom_site_fract_z
 _atom_site_occupancy
  Ba  Ba0  1  0.999567  0.999567  1.000000  1
  Ba  Ba1  1  0.749567  0.249567  0.500000  1
  Br  Br2  1  0.612494  0.224251  0.956840  1
  Br  Br3  1  0.267411  0.655654  0.043160  1
  Br  Br4  1  0.974251  0.862494  0.456840  1
  Br  Br5  1  0.405654  0.517411  0.543160  1
  O  O6  1  0.718679  0.141978  0.116396  1
  O  O7  1  0.025582  0.602283  0.883604  1
  O  O8  1  0.891978  0.968679  0.616396  1
  O  O9  1  0.352283  0.275582  0.383604  1
  O  O10  1  0.843145  0.885022  0.260923  1
  O  O11  1  0.624100  0.582222  0.739077  1
  O  O12  1  0.635022  0.093145  0.760923  1
  O  O13  1  0.332222  0.874100  0.239077  1
  O  O14  1  0.342420  0.097512  0.893510  1
  O  O15  1  0.204002  0.448910  0.106490  1
  O  O16  1  0.847512  0.592420  0.393510  1
  O  O17  1  0.198910  0.454002  0.606490  1
