# generated using pymatgen
data_Na3HoCl6
_symmetry_space_group_name_H-M   'P 1'
_cell_length_a   6.91645017
_cell_length_b   7.31982015
_cell_length_c   10.21424412
_cell_angle_alpha   90.00000000
_cell_angle_beta   90.79851808
_cell_angle_gamma   90.00000000
_symmetry_Int_Tables_number   1
_chemical_formula_structural   Na3HoCl6
_chemical_formula_sum   'Na6 Ho2 Cl12'
_cell_volume   517.06806663
_cell_formula_units_Z   2
loop_
 _symmetry_equiv_pos_site_id
 _symmetry_equiv_pos_as_xyz
  1  'x, y, z'
loop_
 _atom_site_type_symbol
 _atom_site_label
 _atom_site_symmetry_multiplicity
 _atom_site_fract_x
 _atom_site_fract_y
 _atom_site_fract_z
 _atom_site_occupancy
  Ho  Ho0  1  0.000000  0.500000  0.000000  1
  Ho  Ho1  1  0.500000  0.000000  0.500000  1
  Cl  Cl2  1  0.138524  0.564740  0.238719  1
  Cl  Cl3  1  0.361476  0.064740  0.261281  1
  Cl  Cl4  1  0.861476  0.435260  0.761281  1
  Cl  Cl5  1  0.638524  0.935260  0.738719  1
  Cl  Cl6  1  0.167786  0.804816  0.921799  1
  Cl  Cl7  1  0.332214  0.304816  0.578201  1
  Cl  Cl8  1  0.832214  0.195184  0.078201  1
  Cl  Cl9  1  0.667786  0.695184  0.421799  1
  Cl  Cl10  1  0.313807  0.321576  0.935744  1
  Cl  Cl11  1  0.186193  0.821576  0.564256  1
  Cl  Cl12  1  0.686193  0.678424  0.064256  1
  Cl  Cl13  1  0.813807  0.178424  0.435744  1
  Na  Na14  1  0.000000  0.500000  0.500000  1
  Na  Na15  1  0.500000  0.000000  0.000000  1
  Na  Na16  1  0.976138  0.921983  0.260040  1
  Na  Na17  1  0.523862  0.421983  0.239960  1
  Na  Na18  1  0.023862  0.078017  0.739960  1
  Na  Na19  1  0.476138  0.578017  0.760040  1
