# generated using pymatgen
data_UP2(PbO5)2
_symmetry_space_group_name_H-M   'P 1'
_cell_length_a   6.72908977
_cell_length_b   6.97477191
_cell_length_c   10.61157598
_cell_angle_alpha   86.11301961
_cell_angle_beta   78.21816958
_cell_angle_gamma   81.53976602
_symmetry_Int_Tables_number   1
_chemical_formula_structural   UP2(PbO5)2
_chemical_formula_sum   'U2 P4 Pb4 O20'
_cell_volume   481.87761564
_cell_formula_units_Z   2
loop_
 _symmetry_equiv_pos_site_id
 _symmetry_equiv_pos_as_xyz
  1  'x, y, z'
loop_
 _atom_site_type_symbol
 _atom_site_label
 _atom_site_symmetry_multiplicity
 _atom_site_fract_x
 _atom_site_fract_y
 _atom_site_fract_z
 _atom_site_occupancy
  U  U0  1  0.114884  0.384151  0.160359  1
  U  U1  1  0.885116  0.615849  0.839641  1
  P  P2  1  0.633271  0.467871  0.179977  1
  P  P3  1  0.366729  0.532129  0.820023  1
  P  P4  1  0.722883  0.816046  0.550781  1
  P  P5  1  0.277117  0.183954  0.449219  1
  Pb  Pb6  1  0.274813  0.701496  0.451045  1
  Pb  Pb7  1  0.725187  0.298504  0.548955  1
  Pb  Pb8  1  0.267583  0.049999  0.771930  1
  Pb  Pb9  1  0.732417  0.950001  0.228070  1
  O  O10  1  0.143371  0.137516  0.105946  1
  O  O11  1  0.591233  0.982816  0.633025  1
  O  O12  1  0.233313  0.670070  0.736932  1
  O  O13  1  0.463860  0.361980  0.148896  1
  O  O14  1  0.840064  0.910456  0.425965  1
  O  O15  1  0.882884  0.704325  0.626905  1
  O  O16  1  0.928287  0.364782  0.788355  1
  O  O17  1  0.159936  0.089544  0.574035  1
  O  O18  1  0.544274  0.661421  0.244198  1
  O  O19  1  0.201219  0.496393  0.943864  1
  O  O20  1  0.071713  0.635218  0.211645  1
  O  O21  1  0.408766  0.017184  0.366975  1
  O  O22  1  0.798781  0.503607  0.056136  1
  O  O23  1  0.593569  0.664425  0.521653  1
  O  O24  1  0.117116  0.295675  0.373095  1
  O  O25  1  0.766687  0.329930  0.263068  1
  O  O26  1  0.856629  0.862484  0.894054  1
  O  O27  1  0.455726  0.338579  0.755802  1
  O  O28  1  0.406431  0.335575  0.478347  1
  O  O29  1  0.536140  0.638020  0.851104  1
