# generated using pymatgen
data_ZnNi10P3
_symmetry_space_group_name_H-M   'P 1'
_cell_length_a   7.64932883
_cell_length_b   7.64932883
_cell_length_c   9.34364541
_cell_angle_alpha   90.00000000
_cell_angle_beta   90.00000000
_cell_angle_gamma   119.99999996
_symmetry_Int_Tables_number   1
_chemical_formula_structural   ZnNi10P3
_chemical_formula_sum   'Zn3 Ni30 P9'
_cell_volume   473.47128167
_cell_formula_units_Z   3
loop_
 _symmetry_equiv_pos_site_id
 _symmetry_equiv_pos_as_xyz
  1  'x, y, z'
loop_
 _atom_site_type_symbol
 _atom_site_label
 _atom_site_symmetry_multiplicity
 _atom_site_fract_x
 _atom_site_fract_y
 _atom_site_fract_z
 _atom_site_occupancy
  P  P0  1  0.834839  0.165161  0.691051  1
  P  P1  1  0.834839  0.669678  0.691051  1
  P  P2  1  0.330322  0.165161  0.691051  1
  P  P3  1  0.165161  0.834839  0.308949  1
  P  P4  1  0.500000  0.500000  0.000000  1
  P  P5  1  0.000000  0.500000  0.000000  1
  P  P6  1  0.500000  0.000000  0.000000  1
  P  P7  1  0.669678  0.834839  0.308949  1
  P  P8  1  0.165161  0.330322  0.308949  1
  Ni  Ni9  1  0.000000  0.000000  0.621234  1
  Ni  Ni10  1  0.000000  0.340544  0.500000  1
  Ni  Ni11  1  0.659456  0.659456  0.500000  1
  Ni  Ni12  1  0.659456  0.000000  0.500000  1
  Ni  Ni13  1  0.000000  0.659456  0.500000  1
  Ni  Ni14  1  0.340544  0.340544  0.500000  1
  Ni  Ni15  1  0.182667  0.817333  0.066397  1
  Ni  Ni16  1  0.182667  0.365334  0.066397  1
  Ni  Ni17  1  0.634666  0.817333  0.066397  1
  Ni  Ni18  1  0.365334  0.182667  0.933603  1
  Ni  Ni19  1  0.340544  0.000000  0.500000  1
  Ni  Ni20  1  0.817333  0.182667  0.933603  1
  Ni  Ni21  1  0.140018  0.859982  0.794847  1
  Ni  Ni22  1  0.140018  0.280036  0.794847  1
  Ni  Ni23  1  0.719964  0.859982  0.794847  1
  Ni  Ni24  1  0.280036  0.140018  0.205153  1
  Ni  Ni25  1  0.859982  0.719964  0.205153  1
  Ni  Ni26  1  0.859982  0.140018  0.205153  1
  Ni  Ni27  1  0.491359  0.508641  0.240506  1
  Ni  Ni28  1  0.491359  0.982718  0.240506  1
  Ni  Ni29  1  0.017282  0.508641  0.240506  1
  Ni  Ni30  1  0.982718  0.491359  0.759494  1
  Ni  Ni31  1  0.508641  0.017282  0.759494  1
  Ni  Ni32  1  0.508641  0.491359  0.759494  1
  Ni  Ni33  1  0.666667  0.333333  0.097484  1
  Ni  Ni34  1  0.333333  0.666667  0.902516  1
  Ni  Ni35  1  0.666667  0.333333  0.614090  1
  Ni  Ni36  1  0.333333  0.666667  0.385910  1
  Ni  Ni37  1  0.817333  0.634666  0.933603  1
  Ni  Ni38  1  0.000000  0.000000  0.378766  1
  Zn  Zn39  1  0.666667  0.333333  0.360178  1
  Zn  Zn40  1  0.333333  0.666667  0.639822  1
  Zn  Zn41  1  0.000000  0.000000  0.000000  1
