# generated using pymatgen
data_S2N
_symmetry_space_group_name_H-M   'P 1'
_cell_length_a   4.23163263
_cell_length_b   11.79723312
_cell_length_c   11.79723312
_cell_angle_alpha   90.00000000
_cell_angle_beta   90.00000000
_cell_angle_gamma   90.00000000
_symmetry_Int_Tables_number   1
_chemical_formula_structural   S2N
_chemical_formula_sum   'S16 N8'
_cell_volume   588.93624109
_cell_formula_units_Z   8
loop_
 _symmetry_equiv_pos_site_id
 _symmetry_equiv_pos_as_xyz
  1  'x, y, z'
loop_
 _atom_site_type_symbol
 _atom_site_label
 _atom_site_symmetry_multiplicity
 _atom_site_fract_x
 _atom_site_fract_y
 _atom_site_fract_z
 _atom_site_occupancy
  S  S0  1  0.486421  0.818476  0.818476  1
  S  S1  1  0.346065  0.848373  0.652478  1
  S  S2  1  0.346065  0.652478  0.848373  1
  S  S3  1  0.548475  0.615985  0.615985  1
  S  S4  1  0.346065  0.151627  0.347522  1
  S  S5  1  0.048475  0.884015  0.115985  1
  S  S6  1  0.346065  0.347522  0.151627  1
  S  S7  1  0.986421  0.318476  0.681524  1
  S  S8  1  0.548475  0.384015  0.384015  1
  S  S9  1  0.846065  0.348373  0.847522  1
  S  S10  1  0.846065  0.847522  0.348373  1
  S  S11  1  0.486421  0.181524  0.181524  1
  S  S12  1  0.986421  0.681524  0.318476  1
  S  S13  1  0.846065  0.152478  0.651627  1
  S  S14  1  0.048475  0.115985  0.884015  1
  S  S15  1  0.846065  0.651627  0.152478  1
  N  N16  1  0.497002  0.742879  0.577118  1
  N  N17  1  0.497002  0.422882  0.257121  1
  N  N18  1  0.997002  0.242879  0.922882  1
  N  N19  1  0.997002  0.922882  0.242879  1
  N  N20  1  0.497002  0.257121  0.422882  1
  N  N21  1  0.497002  0.577118  0.742879  1
  N  N22  1  0.997002  0.077118  0.757121  1
  N  N23  1  0.997002  0.757121  0.077118  1
