# generated using pymatgen
data_Tl2Sn2S3
_symmetry_space_group_name_H-M   'P 1'
_cell_length_a   7.16992126
_cell_length_b   8.33205681
_cell_length_c   8.28568238
_cell_angle_alpha   120.18531760
_cell_angle_beta   103.29982754
_cell_angle_gamma   89.99999938
_symmetry_Int_Tables_number   1
_chemical_formula_structural   Tl2Sn2S3
_chemical_formula_sum   'Tl4 Sn4 S6'
_cell_volume   412.43904430
_cell_formula_units_Z   2
loop_
 _symmetry_equiv_pos_site_id
 _symmetry_equiv_pos_as_xyz
  1  'x, y, z'
loop_
 _atom_site_type_symbol
 _atom_site_label
 _atom_site_symmetry_multiplicity
 _atom_site_fract_x
 _atom_site_fract_y
 _atom_site_fract_z
 _atom_site_occupancy
  Tl  Tl0  1  0.030833  0.004454  0.243192  1
  Tl  Tl1  1  0.469167  0.761263  0.756808  1
  Tl  Tl2  1  0.969167  0.995546  0.756808  1
  Tl  Tl3  1  0.530833  0.238737  0.243192  1
  Sn  Sn4  1  0.534232  0.253925  0.757795  1
  Sn  Sn5  1  0.965768  0.496130  0.242205  1
  Sn  Sn6  1  0.465768  0.746075  0.242205  1
  Sn  Sn7  1  0.034232  0.503870  0.757795  1
  S  S8  1  0.750000  0.580884  0.000000  1
  S  S9  1  0.250000  0.419116  1.000000  1
  S  S10  1  0.188866  0.809884  0.457190  1
  S  S11  1  0.311134  0.352694  0.542810  1
  S  S12  1  0.811134  0.190116  0.542810  1
  S  S13  1  0.688866  0.647306  0.457190  1
