# generated using pymatgen
data_NdCl2
_symmetry_space_group_name_H-M   'P 1'
_cell_length_a   3.60158768
_cell_length_b   10.08942504
_cell_length_c   8.76235745
_cell_angle_alpha   90.00000000
_cell_angle_beta   90.00000000
_cell_angle_gamma   90.00000000
_symmetry_Int_Tables_number   1
_chemical_formula_structural   NdCl2
_chemical_formula_sum   'Nd4 Cl8'
_cell_volume   318.40609746
_cell_formula_units_Z   4
loop_
 _symmetry_equiv_pos_site_id
 _symmetry_equiv_pos_as_xyz
  1  'x, y, z'
loop_
 _atom_site_type_symbol
 _atom_site_label
 _atom_site_symmetry_multiplicity
 _atom_site_fract_x
 _atom_site_fract_y
 _atom_site_fract_z
 _atom_site_occupancy
  Nd  Nd0  1  0.750000  0.821094  0.872363  1
  Nd  Nd1  1  0.250000  0.178906  0.127637  1
  Nd  Nd2  1  0.750000  0.321094  0.627637  1
  Nd  Nd3  1  0.250000  0.678906  0.372363  1
  Cl  Cl4  1  0.750000  0.838323  0.549890  1
  Cl  Cl5  1  0.250000  0.161677  0.450110  1
  Cl  Cl6  1  0.750000  0.338323  0.950110  1
  Cl  Cl7  1  0.250000  0.661677  0.049890  1
  Cl  Cl8  1  0.750000  0.953047  0.167018  1
  Cl  Cl9  1  0.250000  0.046953  0.832982  1
  Cl  Cl10  1  0.750000  0.453047  0.332982  1
  Cl  Cl11  1  0.250000  0.546953  0.667018  1
