# generated using pymatgen
data_DyAgGe
_symmetry_space_group_name_H-M   'P 1'
_cell_length_a   7.41135069
_cell_length_b   7.41135070
_cell_length_c   4.09836260
_cell_angle_alpha   90.00000000
_cell_angle_beta   90.00000000
_cell_angle_gamma   120.00000001
_symmetry_Int_Tables_number   1
_chemical_formula_structural   DyAgGe
_chemical_formula_sum   'Dy3 Ag3 Ge3'
_cell_volume   194.95561103
_cell_formula_units_Z   3
loop_
 _symmetry_equiv_pos_site_id
 _symmetry_equiv_pos_as_xyz
  1  'x, y, z'
loop_
 _atom_site_type_symbol
 _atom_site_label
 _atom_site_symmetry_multiplicity
 _atom_site_fract_x
 _atom_site_fract_y
 _atom_site_fract_z
 _atom_site_occupancy
  Ge  Ge0  1  0.731822  0.731822  0.500000  1
  Ge  Ge1  1  0.268178  0.000000  0.500000  1
  Ge  Ge2  1  0.000000  0.268178  0.500000  1
  Ag  Ag3  1  0.666667  0.333333  0.500000  1
  Ag  Ag4  1  0.000000  0.000000  0.000000  1
  Ag  Ag5  1  0.333333  0.666667  0.500000  1
  Dy  Dy6  1  0.000000  0.605682  0.000000  1
  Dy  Dy7  1  0.394318  0.394318  0.000000  1
  Dy  Dy8  1  0.605682  0.000000  0.000000  1
