# generated using pymatgen
data_C2S7Cl6
_symmetry_space_group_name_H-M   'P 1'
_cell_length_a   6.20228611
_cell_length_b   11.66074917
_cell_length_c   13.42646573
_cell_angle_alpha   101.16038042
_cell_angle_beta   94.94722354
_cell_angle_gamma   94.12312012
_symmetry_Int_Tables_number   1
_chemical_formula_structural   C2S7Cl6
_chemical_formula_sum   'C4 S14 Cl12'
_cell_volume   945.22729686
_cell_formula_units_Z   2
loop_
 _symmetry_equiv_pos_site_id
 _symmetry_equiv_pos_as_xyz
  1  'x, y, z'
loop_
 _atom_site_type_symbol
 _atom_site_label
 _atom_site_symmetry_multiplicity
 _atom_site_fract_x
 _atom_site_fract_y
 _atom_site_fract_z
 _atom_site_occupancy
  C  C0  1  0.997417  0.460264  0.185047  1
  C  C1  1  0.561613  0.047388  0.821144  1
  C  C2  1  0.438387  0.952612  0.178856  1
  C  C3  1  0.002583  0.539736  0.814953  1
  S  S4  1  0.775023  0.772627  0.371306  1
  S  S5  1  0.154866  0.237077  0.379034  1
  S  S6  1  0.638768  0.712710  0.488462  1
  S  S7  1  0.361232  0.287290  0.511538  1
  S  S8  1  0.929501  0.501858  0.675460  1
  S  S9  1  0.224977  0.227373  0.628694  1
  S  S10  1  0.707610  0.946652  0.381551  1
  S  S11  1  0.292390  0.053348  0.618449  1
  S  S12  1  0.402512  0.949163  0.313536  1
  S  S13  1  0.597488  0.050837  0.686464  1
  S  S14  1  0.931532  0.362082  0.378287  1
  S  S15  1  0.068468  0.637918  0.621713  1
  S  S16  1  0.070499  0.498142  0.324540  1
  S  S17  1  0.845134  0.762923  0.620966  1
  Cl  Cl18  1  0.104176  0.328648  0.127049  1
  Cl  Cl19  1  0.122406  0.582938  0.143768  1
  Cl  Cl20  1  0.288164  0.553029  0.848137  1
  Cl  Cl21  1  0.711836  0.446971  0.151863  1
  Cl  Cl22  1  0.877594  0.417062  0.856232  1
  Cl  Cl23  1  0.895824  0.671352  0.872951  1
  Cl  Cl24  1  0.550033  0.825214  0.115748  1
  Cl  Cl25  1  0.449967  0.174786  0.884252  1
  Cl  Cl26  1  0.601820  0.079333  0.165904  1
  Cl  Cl27  1  0.398180  0.920667  0.834096  1
  Cl  Cl28  1  0.166240  0.957056  0.125521  1
  Cl  Cl29  1  0.833760  0.042944  0.874479  1
