# generated using pymatgen
data_MoS2Cl3
_symmetry_space_group_name_H-M   'P 1'
_cell_length_a   6.25592983
_cell_length_b   7.62125170
_cell_length_c   12.85864728
_cell_angle_alpha   90.00000000
_cell_angle_beta   91.36296483
_cell_angle_gamma   90.00000000
_symmetry_Int_Tables_number   1
_chemical_formula_structural   MoS2Cl3
_chemical_formula_sum   'Mo4 S8 Cl12'
_cell_volume   612.90133401
_cell_formula_units_Z   4
loop_
 _symmetry_equiv_pos_site_id
 _symmetry_equiv_pos_as_xyz
  1  'x, y, z'
loop_
 _atom_site_type_symbol
 _atom_site_label
 _atom_site_symmetry_multiplicity
 _atom_site_fract_x
 _atom_site_fract_y
 _atom_site_fract_z
 _atom_site_occupancy
  Mo  Mo0  1  0.803262  0.905283  0.505354  1
  Mo  Mo1  1  0.696738  0.405283  0.994646  1
  Mo  Mo2  1  0.196738  0.094717  0.494646  1
  Mo  Mo3  1  0.303262  0.594717  0.005353  1
  S  S4  1  0.988703  0.049757  0.651318  1
  S  S5  1  0.511297  0.549757  0.848682  1
  S  S6  1  0.011297  0.950243  0.348682  1
  S  S7  1  0.488703  0.450243  0.151318  1
  S  S8  1  0.861970  0.219034  0.548763  1
  S  S9  1  0.638030  0.719034  0.951237  1
  S  S10  1  0.138030  0.780966  0.451237  1
  S  S11  1  0.361970  0.280966  0.048763  1
  Cl  Cl12  1  0.467847  0.927187  0.612614  1
  Cl  Cl13  1  0.032153  0.427187  0.887386  1
  Cl  Cl14  1  0.532153  0.072813  0.387386  1
  Cl  Cl15  1  0.967847  0.572813  0.112614  1
  Cl  Cl16  1  0.641653  0.665383  0.414627  1
  Cl  Cl17  1  0.858347  0.165383  0.085373  1
  Cl  Cl18  1  0.358347  0.334617  0.585373  1
  Cl  Cl19  1  0.141653  0.834617  0.914627  1
  Cl  Cl20  1  0.869901  0.675046  0.637710  1
  Cl  Cl21  1  0.630099  0.175046  0.862290  1
  Cl  Cl22  1  0.130099  0.324954  0.362290  1
  Cl  Cl23  1  0.369901  0.824954  0.137710  1
