# generated using pymatgen
data_Rb3B12H12Cl
_symmetry_space_group_name_H-M   'P 1'
_cell_length_a   7.05809954
_cell_length_b   7.05809954
_cell_length_c   7.05809954
_cell_angle_alpha   92.84620129
_cell_angle_beta   92.84620133
_cell_angle_gamma   92.84620132
_symmetry_Int_Tables_number   1
_chemical_formula_structural   Rb3B12H12Cl
_chemical_formula_sum   'Rb3 B12 H12 Cl1'
_cell_volume   350.26567161
_cell_formula_units_Z   1
loop_
 _symmetry_equiv_pos_site_id
 _symmetry_equiv_pos_as_xyz
  1  'x, y, z'
loop_
 _atom_site_type_symbol
 _atom_site_label
 _atom_site_symmetry_multiplicity
 _atom_site_fract_x
 _atom_site_fract_y
 _atom_site_fract_z
 _atom_site_occupancy
  H  H0  1  0.790954  0.790954  0.272273  1
  H  H1  1  0.790954  0.272273  0.790954  1
  H  H2  1  0.272273  0.790954  0.790954  1
  H  H3  1  0.727727  0.209046  0.209046  1
  H  H4  1  0.900676  0.900676  0.604138  1
  H  H5  1  0.900676  0.604138  0.900676  1
  H  H6  1  0.604138  0.900676  0.900676  1
  H  H7  1  0.395862  0.099324  0.099324  1
  H  H8  1  0.099324  0.099324  0.395862  1
  H  H9  1  0.099324  0.395862  0.099324  1
  H  H10  1  0.209046  0.209046  0.727727  1
  H  H11  1  0.209046  0.727727  0.209046  1
  B  B12  1  0.839926  0.121327  0.121327  1
  B  B13  1  0.160074  0.878673  0.878673  1
  B  B14  1  0.878673  0.160074  0.878673  1
  B  B15  1  0.878673  0.878673  0.160074  1
  B  B16  1  0.057973  0.057973  0.231551  1
  B  B17  1  0.057973  0.231551  0.057973  1
  B  B18  1  0.231551  0.057973  0.057973  1
  B  B19  1  0.768449  0.942027  0.942027  1
  B  B20  1  0.942027  0.942027  0.768449  1
  B  B21  1  0.942027  0.768449  0.942027  1
  B  B22  1  0.121327  0.121327  0.839926  1
  B  B23  1  0.121327  0.839926  0.121327  1
  Cl  Cl24  1  0.500000  0.500000  0.500000  1
  Rb  Rb25  1  0.500000  0.000000  0.500000  1
  Rb  Rb26  1  0.000000  0.500000  0.500000  1
  Rb  Rb27  1  0.500000  0.500000  0.000000  1
