# generated using pymatgen
data_NbSeCl9
_symmetry_space_group_name_H-M   'P 1'
_cell_length_a   12.57725409
_cell_length_b   13.01837098
_cell_length_c   19.74334307
_cell_angle_alpha   90.00000000
_cell_angle_beta   90.00000000
_cell_angle_gamma   118.87076601
_symmetry_Int_Tables_number   1
_chemical_formula_structural   NbSeCl9
_chemical_formula_sum   'Nb8 Se8 Cl72'
_cell_volume   2830.89638674
_cell_formula_units_Z   8
loop_
 _symmetry_equiv_pos_site_id
 _symmetry_equiv_pos_as_xyz
  1  'x, y, z'
loop_
 _atom_site_type_symbol
 _atom_site_label
 _atom_site_symmetry_multiplicity
 _atom_site_fract_x
 _atom_site_fract_y
 _atom_site_fract_z
 _atom_site_occupancy
  Cl  Cl0  1  0.241650  0.686262  0.290007  1
  Cl  Cl1  1  0.758350  0.813738  0.790007  1
  Cl  Cl2  1  0.758350  0.313738  0.709993  1
  Cl  Cl3  1  0.241650  0.186262  0.209993  1
  Cl  Cl4  1  0.308298  0.833441  0.433075  1
  Cl  Cl5  1  0.691702  0.666559  0.933075  1
  Cl  Cl6  1  0.691702  0.166559  0.566925  1
  Cl  Cl7  1  0.308298  0.333441  0.066925  1
  Cl  Cl8  1  0.457445  0.692545  0.391161  1
  Cl  Cl9  1  0.542555  0.807455  0.891161  1
  Cl  Cl10  1  0.542555  0.307455  0.608839  1
  Cl  Cl11  1  0.457445  0.192545  0.108839  1
  Cl  Cl12  1  0.025783  0.835749  0.236213  1
  Cl  Cl13  1  0.974217  0.664251  0.736213  1
  Cl  Cl14  1  0.974217  0.164251  0.763787  1
  Cl  Cl15  1  0.025783  0.335749  0.263787  1
  Cl  Cl16  1  0.890164  0.989052  0.286244  1
  Cl  Cl17  1  0.109836  0.510948  0.786244  1
  Cl  Cl18  1  0.109836  0.010948  0.713756  1
  Cl  Cl19  1  0.890164  0.489052  0.213756  1
  Cl  Cl20  1  0.103212  0.982449  0.379545  1
  Cl  Cl21  1  0.896788  0.517551  0.879545  1
  Cl  Cl22  1  0.896788  0.017551  0.620455  1
  Cl  Cl23  1  0.103212  0.482449  0.120455  1
  Cl  Cl24  1  0.466457  0.160539  0.427129  1
  Cl  Cl25  1  0.533543  0.339461  0.927129  1
  Cl  Cl26  1  0.533543  0.839461  0.572871  1
  Cl  Cl27  1  0.466457  0.660539  0.072871  1
  Cl  Cl28  1  0.694294  0.162095  0.236464  1
  Cl  Cl29  1  0.305706  0.337905  0.736464  1
  Cl  Cl30  1  0.305706  0.837905  0.763536  1
  Cl  Cl31  1  0.694294  0.662095  0.263536  1
  Cl  Cl32  1  0.616945  0.012430  0.385648  1
  Cl  Cl33  1  0.383055  0.487570  0.885648  1
  Cl  Cl34  1  0.383055  0.987570  0.614352  1
  Cl  Cl35  1  0.616945  0.512430  0.114352  1
  Cl  Cl36  1  0.766529  0.305556  0.386622  1
  Cl  Cl37  1  0.233471  0.194444  0.886621  1
  Cl  Cl38  1  0.233471  0.694444  0.613379  1
  Cl  Cl39  1  0.766529  0.805556  0.113378  1
  Cl  Cl40  1  0.550435  0.313291  0.282726  1
  Cl  Cl41  1  0.449565  0.186709  0.782726  1
  Cl  Cl42  1  0.449565  0.686709  0.717274  1
  Cl  Cl43  1  0.550435  0.813291  0.217274  1
  Cl  Cl44  1  0.405722  0.008740  0.282249  1
  Cl  Cl45  1  0.594278  0.491260  0.782249  1
  Cl  Cl46  1  0.594278  0.991260  0.717751  1
  Cl  Cl47  1  0.405722  0.508740  0.217751  1
  Cl  Cl48  1  0.735117  0.682456  0.596603  1
  Cl  Cl49  1  0.264883  0.817544  0.096603  1
  Cl  Cl50  1  0.264883  0.317544  0.403397  1
  Cl  Cl51  1  0.735117  0.182456  0.903397  1
  Cl  Cl52  1  0.808776  0.828888  0.445086  1
  Cl  Cl53  1  0.191224  0.671112  0.945086  1
  Cl  Cl54  1  0.191224  0.171112  0.554914  1
  Cl  Cl55  1  0.808776  0.328888  0.054914  1
  Cl  Cl56  1  0.941736  0.674504  0.391593  1
  Cl  Cl57  1  0.058264  0.825496  0.891593  1
  Cl  Cl58  1  0.058264  0.325496  0.608407  1
  Cl  Cl59  1  0.941736  0.174504  0.108407  1
  Cl  Cl60  1  0.654119  0.535574  0.448423  1
  Cl  Cl61  1  0.345881  0.964426  0.948423  1
  Cl  Cl62  1  0.345881  0.464426  0.551577  1
  Cl  Cl63  1  0.654119  0.035574  0.051577  1
  Cl  Cl64  1  0.874275  0.522339  0.539783  1
  Cl  Cl65  1  0.125725  0.977661  0.039783  1
  Cl  Cl66  1  0.125725  0.477661  0.460217  1
  Cl  Cl67  1  0.874275  0.022339  0.960217  1
  Cl  Cl68  1  0.024445  0.817321  0.539888  1
  Cl  Cl69  1  0.975555  0.682679  0.039888  1
  Cl  Cl70  1  0.975555  0.182679  0.460112  1
  Cl  Cl71  1  0.024445  0.317321  0.960112  1
  Se  Se72  1  0.402994  0.814389  0.346301  1
  Se  Se73  1  0.597006  0.685611  0.846301  1
  Se  Se74  1  0.597006  0.185611  0.653699  1
  Se  Se75  1  0.402994  0.314389  0.153699  1
  Se  Se76  1  0.936987  0.857671  0.328537  1
  Se  Se77  1  0.063014  0.642329  0.828537  1
  Se  Se78  1  0.063014  0.142329  0.671463  1
  Se  Se79  1  0.936987  0.357671  0.171463  1
  Nb  Nb80  1  0.588482  0.171780  0.335536  1
  Nb  Nb81  1  0.411518  0.328220  0.835536  1
  Nb  Nb82  1  0.411518  0.828220  0.664464  1
  Nb  Nb83  1  0.588482  0.671780  0.164464  1
  Nb  Nb84  1  0.835442  0.668817  0.501628  1
  Nb  Nb85  1  0.164558  0.831183  0.001628  1
  Nb  Nb86  1  0.164558  0.331183  0.498372  1
  Nb  Nb87  1  0.835442  0.168817  0.998372  1
