# generated using pymatgen
data_Rb2Ta15O32
_symmetry_space_group_name_H-M   'P 1'
_cell_length_a   12.95987947
_cell_length_b   12.95987947
_cell_length_c   12.95987947
_cell_angle_alpha   35.41494477
_cell_angle_beta   35.41494478
_cell_angle_gamma   35.41494478
_symmetry_Int_Tables_number   1
_chemical_formula_structural   Rb2Ta15O32
_chemical_formula_sum   'Rb2 Ta15 O32'
_cell_volume   653.13566662
_cell_formula_units_Z   1
loop_
 _symmetry_equiv_pos_site_id
 _symmetry_equiv_pos_as_xyz
  1  'x, y, z'
loop_
 _atom_site_type_symbol
 _atom_site_label
 _atom_site_symmetry_multiplicity
 _atom_site_fract_x
 _atom_site_fract_y
 _atom_site_fract_z
 _atom_site_occupancy
  O  O0  1  0.528898  0.328369  0.739774  1
  O  O1  1  0.328369  0.739774  0.528898  1
  O  O2  1  0.739774  0.528898  0.328369  1
  O  O3  1  0.471102  0.671631  0.260226  1
  O  O4  1  0.671631  0.260226  0.471102  1
  O  O5  1  0.260226  0.471102  0.671631  1
  O  O6  1  0.034063  0.151294  0.446927  1
  O  O7  1  0.151294  0.446927  0.034063  1
  O  O8  1  0.446927  0.034063  0.151294  1
  O  O9  1  0.965937  0.848706  0.553073  1
  O  O10  1  0.848706  0.553073  0.965937  1
  O  O11  1  0.553073  0.965937  0.848706  1
  O  O12  1  0.263657  0.263657  0.263657  1
  O  O13  1  0.736343  0.736343  0.736343  1
  O  O14  1  0.142164  0.959829  0.700983  1
  O  O15  1  0.959829  0.700983  0.142164  1
  O  O16  1  0.700983  0.142164  0.959829  1
  O  O17  1  0.429057  0.829520  0.741823  1
  O  O18  1  0.741823  0.429057  0.829520  1
  O  O19  1  0.829520  0.741823  0.429057  1
  O  O20  1  0.570943  0.170480  0.258177  1
  O  O21  1  0.258177  0.570943  0.170480  1
  O  O22  1  0.170480  0.258177  0.570943  1
  O  O23  1  0.457127  0.154760  0.570276  1
  O  O24  1  0.570276  0.457127  0.154760  1
  O  O25  1  0.154760  0.570276  0.457127  1
  O  O26  1  0.542873  0.845240  0.429724  1
  O  O27  1  0.429724  0.542873  0.845240  1
  O  O28  1  0.845240  0.429724  0.542873  1
  O  O29  1  0.299017  0.857836  0.040171  1
  O  O30  1  0.040171  0.299017  0.857836  1
  O  O31  1  0.857836  0.040171  0.299017  1
  Rb  Rb32  1  0.859575  0.859575  0.859575  1
  Rb  Rb33  1  0.140425  0.140425  0.140425  1
  Ta  Ta34  1  0.500000  0.500000  0.500000  1
  Ta  Ta35  1  0.300692  0.974637  0.428931  1
  Ta  Ta36  1  0.974637  0.428931  0.300692  1
  Ta  Ta37  1  0.428931  0.300692  0.974637  1
  Ta  Ta38  1  0.699308  0.025363  0.571069  1
  Ta  Ta39  1  0.025363  0.571069  0.699308  1
  Ta  Ta40  1  0.571069  0.699308  0.025363  1
  Ta  Ta41  1  0.947168  0.185370  0.771507  1
  Ta  Ta42  1  0.185370  0.771507  0.947168  1
  Ta  Ta43  1  0.771507  0.947168  0.185370  1
  Ta  Ta44  1  0.052832  0.814630  0.228493  1
  Ta  Ta45  1  0.814630  0.228493  0.052832  1
  Ta  Ta46  1  0.228493  0.052832  0.814630  1
  Ta  Ta47  1  0.637798  0.637798  0.637798  1
  Ta  Ta48  1  0.362202  0.362202  0.362202  1
