# generated using pymatgen
data_SiH9C4F3
_symmetry_space_group_name_H-M   'P 1'
_cell_length_a   6.21530255
_cell_length_b   6.53783323
_cell_length_c   9.81033396
_cell_angle_alpha   90.00000000
_cell_angle_beta   90.00000000
_cell_angle_gamma   104.95921887
_symmetry_Int_Tables_number   1
_chemical_formula_structural   SiH9C4F3
_chemical_formula_sum   'Si2 H18 C8 F6'
_cell_volume   385.12915042
_cell_formula_units_Z   2
loop_
 _symmetry_equiv_pos_site_id
 _symmetry_equiv_pos_as_xyz
  1  'x, y, z'
loop_
 _atom_site_type_symbol
 _atom_site_label
 _atom_site_symmetry_multiplicity
 _atom_site_fract_x
 _atom_site_fract_y
 _atom_site_fract_z
 _atom_site_occupancy
  H  H0  1  0.190285  0.352987  0.840740  1
  H  H1  1  0.809715  0.647013  0.340740  1
  H  H2  1  0.809715  0.647013  0.159260  1
  H  H3  1  0.190285  0.352987  0.659260  1
  H  H4  1  0.885788  0.441671  0.250000  1
  H  H5  1  0.114212  0.558329  0.750000  1
  H  H6  1  0.726467  0.220760  0.499671  1
  H  H7  1  0.273533  0.779240  0.999671  1
  H  H8  1  0.273533  0.779240  0.500329  1
  H  H9  1  0.726467  0.220760  0.000329  1
  H  H10  1  0.657030  0.439360  0.579352  1
  H  H11  1  0.342970  0.560640  0.079352  1
  H  H12  1  0.342970  0.560640  0.420648  1
  H  H13  1  0.657030  0.439360  0.920648  1
  H  H14  1  0.475976  0.181469  0.904515  1
  H  H15  1  0.524024  0.818531  0.404515  1
  H  H16  1  0.524024  0.818531  0.095485  1
  H  H17  1  0.475976  0.181469  0.595485  1
  C  C18  1  0.651771  0.270817  0.591132  1
  C  C19  1  0.348229  0.729183  0.091132  1
  C  C20  1  0.348229  0.729183  0.408868  1
  C  C21  1  0.651771  0.270817  0.908868  1
  C  C22  1  0.811173  0.934603  0.750000  1
  C  C23  1  0.188827  0.065397  0.250000  1
  C  C24  1  0.102353  0.387666  0.750000  1
  C  C25  1  0.897647  0.612334  0.250000  1
  F  F26  1  0.080235  0.119917  0.137780  1
  F  F27  1  0.080235  0.119917  0.362220  1
  F  F28  1  0.397742  0.205214  0.250000  1
  F  F29  1  0.602258  0.794786  0.750000  1
  F  F30  1  0.919765  0.880083  0.637780  1
  F  F31  1  0.919765  0.880083  0.862220  1
  Si  Si32  1  0.196182  0.767582  0.250000  1
  Si  Si33  1  0.803818  0.232418  0.750000  1
