# generated using pymatgen
data_Sb2XeF14
_symmetry_space_group_name_H-M   'P 1'
_cell_length_a   8.20461311
_cell_length_b   8.47407150
_cell_length_c   9.80552190
_cell_angle_alpha   67.35885976
_cell_angle_beta   89.42059075
_cell_angle_gamma   67.69401998
_symmetry_Int_Tables_number   1
_chemical_formula_structural   Sb2XeF14
_chemical_formula_sum   'Sb4 Xe2 F28'
_cell_volume   574.68979868
_cell_formula_units_Z   2
loop_
 _symmetry_equiv_pos_site_id
 _symmetry_equiv_pos_as_xyz
  1  'x, y, z'
loop_
 _atom_site_type_symbol
 _atom_site_label
 _atom_site_symmetry_multiplicity
 _atom_site_fract_x
 _atom_site_fract_y
 _atom_site_fract_z
 _atom_site_occupancy
  Sb  Sb0  1  0.794630  0.130021  0.228279  1
  Sb  Sb1  1  0.205370  0.869979  0.771721  1
  Sb  Sb2  1  0.490478  0.834160  0.289996  1
  Sb  Sb3  1  0.509522  0.165840  0.710004  1
  Xe  Xe4  1  0.191786  0.446708  0.258119  1
  Xe  Xe5  1  0.808214  0.553292  0.741881  1
  F  F6  1  0.041120  0.588418  0.367643  1
  F  F7  1  0.077736  0.728824  0.759254  1
  F  F8  1  0.008142  0.370148  0.904459  1
  F  F9  1  0.958880  0.411582  0.632357  1
  F  F10  1  0.922264  0.271176  0.240746  1
  F  F11  1  0.346369  0.346602  0.767867  1
  F  F12  1  0.650646  0.708294  0.483971  1
  F  F13  1  0.649235  0.976752  0.215342  1
  F  F14  1  0.354224  0.691643  0.367906  1
  F  F15  1  0.350765  0.023248  0.784658  1
  F  F16  1  0.877408  0.947253  0.427901  1
  F  F17  1  0.412092  0.730686  0.707773  1
  F  F18  1  0.722320  0.642746  0.900942  1
  F  F19  1  0.122592  0.052747  0.572099  1
  F  F20  1  0.977588  0.974585  0.160761  1
  F  F21  1  0.022412  0.025415  0.839239  1
  F  F22  1  0.362900  0.021354  0.358849  1
  F  F23  1  0.645776  0.308357  0.632094  1
  F  F24  1  0.684477  0.291165  0.026358  1
  F  F25  1  0.349444  0.979060  0.098956  1
  F  F26  1  0.991858  0.629852  0.095541  1
  F  F27  1  0.653631  0.653398  0.232133  1
  F  F28  1  0.277680  0.357254  0.099058  1
  F  F29  1  0.315523  0.708835  0.973642  1
  F  F30  1  0.650556  0.020940  0.901044  1
  F  F31  1  0.637100  0.978646  0.641151  1
  F  F32  1  0.587908  0.269314  0.292227  1
  F  F33  1  0.349354  0.291706  0.516029  1
