# generated using pymatgen
data_BRh2
_symmetry_space_group_name_H-M   'P 1'
_cell_length_a   3.84564446
_cell_length_b   5.39987836
_cell_length_c   6.78833992
_cell_angle_alpha   90.00000000
_cell_angle_beta   90.00000000
_cell_angle_gamma   90.00000000
_symmetry_Int_Tables_number   1
_chemical_formula_structural   BRh2
_chemical_formula_sum   'B4 Rh8'
_cell_volume   140.96675027
_cell_formula_units_Z   4
loop_
 _symmetry_equiv_pos_site_id
 _symmetry_equiv_pos_as_xyz
  1  'x, y, z'
loop_
 _atom_site_type_symbol
 _atom_site_label
 _atom_site_symmetry_multiplicity
 _atom_site_fract_x
 _atom_site_fract_y
 _atom_site_fract_z
 _atom_site_occupancy
  B  B0  1  0.250000  0.732745  0.600847  1
  B  B1  1  0.250000  0.232745  0.899153  1
  B  B2  1  0.750000  0.767255  0.100847  1
  B  B3  1  0.750000  0.267255  0.399153  1
  Rh  Rh4  1  0.250000  0.506917  0.350683  1
  Rh  Rh5  1  0.250000  0.624926  0.903486  1
  Rh  Rh6  1  0.750000  0.375074  0.096514  1
  Rh  Rh7  1  0.250000  0.006917  0.149317  1
  Rh  Rh8  1  0.750000  0.493083  0.649317  1
  Rh  Rh9  1  0.750000  0.993083  0.850683  1
  Rh  Rh10  1  0.750000  0.875074  0.403486  1
  Rh  Rh11  1  0.250000  0.124926  0.596514  1
