# generated using pymatgen
data_SbPCl8O
_symmetry_space_group_name_H-M   'P 1'
_cell_length_a   8.51175846
_cell_length_b   9.35248919
_cell_length_c   17.27373268
_cell_angle_alpha   90.00000000
_cell_angle_beta   90.00000000
_cell_angle_gamma   90.00000000
_symmetry_Int_Tables_number   1
_chemical_formula_structural   SbPCl8O
_chemical_formula_sum   'Sb4 P4 Cl32 O4'
_cell_volume   1375.09499178
_cell_formula_units_Z   4
loop_
 _symmetry_equiv_pos_site_id
 _symmetry_equiv_pos_as_xyz
  1  'x, y, z'
loop_
 _atom_site_type_symbol
 _atom_site_label
 _atom_site_symmetry_multiplicity
 _atom_site_fract_x
 _atom_site_fract_y
 _atom_site_fract_z
 _atom_site_occupancy
  Sb  Sb0  1  0.750000  0.578708  0.645938  1
  Sb  Sb1  1  0.250000  0.421292  0.354062  1
  Sb  Sb2  1  0.250000  0.078708  0.854062  1
  Sb  Sb3  1  0.750000  0.921292  0.145938  1
  P  P4  1  0.250000  0.717235  0.923955  1
  P  P5  1  0.750000  0.282765  0.076045  1
  P  P6  1  0.750000  0.217235  0.576045  1
  P  P7  1  0.250000  0.782765  0.423955  1
  Cl  Cl8  1  0.563940  0.136106  0.629032  1
  Cl  Cl9  1  0.063940  0.636106  0.870968  1
  Cl  Cl10  1  0.250000  0.636742  0.030179  1
  Cl  Cl11  1  0.750000  0.712017  0.222143  1
  Cl  Cl12  1  0.750000  0.699031  0.524757  1
  Cl  Cl13  1  0.027346  0.557293  0.639279  1
  Cl  Cl14  1  0.750000  0.077023  0.256459  1
  Cl  Cl15  1  0.563940  0.363894  0.129032  1
  Cl  Cl16  1  0.250000  0.300969  0.475243  1
  Cl  Cl17  1  0.527346  0.057293  0.860721  1
  Cl  Cl18  1  0.936060  0.136106  0.629032  1
  Cl  Cl19  1  0.250000  0.212017  0.277857  1
  Cl  Cl20  1  0.750000  0.787983  0.722143  1
  Cl  Cl21  1  0.750000  0.136742  0.469821  1
  Cl  Cl22  1  0.936060  0.363894  0.129032  1
  Cl  Cl23  1  0.972654  0.057293  0.860721  1
  Cl  Cl24  1  0.750000  0.422977  0.756459  1
  Cl  Cl25  1  0.250000  0.577023  0.243541  1
  Cl  Cl26  1  0.472654  0.942707  0.139279  1
  Cl  Cl27  1  0.436060  0.636106  0.870968  1
  Cl  Cl28  1  0.972654  0.442707  0.360721  1
  Cl  Cl29  1  0.250000  0.863258  0.530179  1
  Cl  Cl30  1  0.527346  0.442707  0.360721  1
  Cl  Cl31  1  0.750000  0.363258  0.969821  1
  Cl  Cl32  1  0.027346  0.942707  0.139279  1
  Cl  Cl33  1  0.436060  0.863894  0.370968  1
  Cl  Cl34  1  0.750000  0.800969  0.024757  1
  Cl  Cl35  1  0.063940  0.863894  0.370968  1
  Cl  Cl36  1  0.472654  0.557293  0.639279  1
  Cl  Cl37  1  0.250000  0.922977  0.743541  1
  Cl  Cl38  1  0.250000  0.199031  0.975243  1
  Cl  Cl39  1  0.250000  0.287983  0.777857  1
  O  O40  1  0.750000  0.122760  0.072330  1
  O  O41  1  0.250000  0.622760  0.427670  1
  O  O42  1  0.250000  0.877240  0.927670  1
  O  O43  1  0.750000  0.377240  0.572330  1
