# generated using pymatgen
data_LiCa2Si3
_symmetry_space_group_name_H-M   'P 1'
_cell_length_a   4.37973429
_cell_length_b   10.51417029
_cell_length_c   11.23510583
_cell_angle_alpha   90.00000000
_cell_angle_beta   90.00000000
_cell_angle_gamma   90.00000000
_symmetry_Int_Tables_number   1
_chemical_formula_structural   LiCa2Si3
_chemical_formula_sum   'Li4 Ca8 Si12'
_cell_volume   517.36844600
_cell_formula_units_Z   4
loop_
 _symmetry_equiv_pos_site_id
 _symmetry_equiv_pos_as_xyz
  1  'x, y, z'
loop_
 _atom_site_type_symbol
 _atom_site_label
 _atom_site_symmetry_multiplicity
 _atom_site_fract_x
 _atom_site_fract_y
 _atom_site_fract_z
 _atom_site_occupancy
  Li  Li0  1  0.500000  0.861832  0.281996  1
  Li  Li1  1  0.500000  0.138168  0.718004  1
  Li  Li2  1  0.000000  0.361832  0.218004  1
  Li  Li3  1  0.000000  0.638168  0.781996  1
  Si  Si4  1  0.500000  0.891573  0.040025  1
  Si  Si5  1  0.500000  0.108427  0.959975  1
  Si  Si6  1  0.000000  0.391573  0.459975  1
  Si  Si7  1  0.000000  0.608427  0.540025  1
  Si  Si8  1  0.000000  0.965903  0.400721  1
  Si  Si9  1  0.000000  0.034097  0.599279  1
  Si  Si10  1  0.500000  0.465903  0.099279  1
  Si  Si11  1  0.500000  0.534097  0.900721  1
  Si  Si12  1  0.000000  0.255449  0.633733  1
  Si  Si13  1  0.000000  0.744551  0.366267  1
  Si  Si14  1  0.500000  0.755449  0.866267  1
  Si  Si15  1  0.500000  0.244551  0.133733  1
  Ca  Ca16  1  0.500000  0.551116  0.349444  1
  Ca  Ca17  1  0.500000  0.448884  0.650556  1
  Ca  Ca18  1  0.000000  0.051116  0.150556  1
  Ca  Ca19  1  0.000000  0.948884  0.849444  1
  Ca  Ca20  1  0.500000  0.822023  0.574250  1
  Ca  Ca21  1  0.500000  0.177977  0.425750  1
  Ca  Ca22  1  0.000000  0.322023  0.925750  1
  Ca  Ca23  1  0.000000  0.677977  0.074250  1
