# generated using pymatgen
data_TlH4NCl4
_symmetry_space_group_name_H-M   'P 1'
_cell_length_a   7.20272250
_cell_length_b   7.20272250
_cell_length_c   9.46317189
_cell_angle_alpha   112.36874495
_cell_angle_beta   112.36874489
_cell_angle_gamma   89.99999998
_symmetry_Int_Tables_number   1
_chemical_formula_structural   TlH4NCl4
_chemical_formula_sum   'Tl2 H8 N2 Cl8'
_cell_volume   413.77376146
_cell_formula_units_Z   2
loop_
 _symmetry_equiv_pos_site_id
 _symmetry_equiv_pos_as_xyz
  1  'x, y, z'
loop_
 _atom_site_type_symbol
 _atom_site_label
 _atom_site_symmetry_multiplicity
 _atom_site_fract_x
 _atom_site_fract_y
 _atom_site_fract_z
 _atom_site_occupancy
  H  H0  1  0.432168  0.575209  0.924769  1
  H  H1  1  0.599559  0.182168  0.424769  1
  H  H2  1  0.825209  0.242601  0.424769  1
  H  H3  1  0.492601  0.349559  0.924769  1
  H  H4  1  0.817832  0.174791  0.575231  1
  H  H5  1  0.650441  0.567832  0.075231  1
  H  H6  1  0.424791  0.507399  0.075231  1
  H  H7  1  0.757399  0.400441  0.575231  1
  N  N8  1  0.500000  0.500000  0.000000  1
  N  N9  1  0.750000  0.250000  0.500000  1
  Cl  Cl10  1  0.491032  0.594803  0.672483  1
  Cl  Cl11  1  0.758968  0.155197  0.827517  1
  Cl  Cl12  1  0.068549  0.672321  0.827517  1
  Cl  Cl13  1  0.922321  0.508968  0.327517  1
  Cl  Cl14  1  0.844803  0.931451  0.172483  1
  Cl  Cl15  1  0.327679  0.241032  0.172483  1
  Cl  Cl16  1  0.181451  0.077679  0.672483  1
  Cl  Cl17  1  0.405197  0.818549  0.327517  1
  Tl  Tl18  1  0.250000  0.750000  0.500000  1
  Tl  Tl19  1  0.000000  0.000000  0.000000  1
