# generated using pymatgen
data_H2NO2
_symmetry_space_group_name_H-M   'P 1'
_cell_length_a   4.86723592
_cell_length_b   7.01444278
_cell_length_c   11.05536003
_cell_angle_alpha   90.00000000
_cell_angle_beta   100.39050686
_cell_angle_gamma   90.00000000
_symmetry_Int_Tables_number   1
_chemical_formula_structural   H2NO2
_chemical_formula_sum   'H16 N8 O16'
_cell_volume   371.25096228
_cell_formula_units_Z   8
loop_
 _symmetry_equiv_pos_site_id
 _symmetry_equiv_pos_as_xyz
  1  'x, y, z'
loop_
 _atom_site_type_symbol
 _atom_site_label
 _atom_site_symmetry_multiplicity
 _atom_site_fract_x
 _atom_site_fract_y
 _atom_site_fract_z
 _atom_site_occupancy
  H  H0  1  0.459058  0.550075  0.143659  1
  H  H1  1  0.540942  0.050075  0.356341  1
  H  H2  1  0.540942  0.449925  0.856341  1
  H  H3  1  0.459058  0.949925  0.643659  1
  H  H4  1  0.261053  0.428051  0.342377  1
  H  H5  1  0.738947  0.928051  0.157623  1
  H  H6  1  0.738947  0.571949  0.657623  1
  H  H7  1  0.261053  0.071949  0.842377  1
  H  H8  1  0.466656  0.629311  0.365878  1
  H  H9  1  0.533344  0.129311  0.134122  1
  H  H10  1  0.533344  0.370689  0.634122  1
  H  H11  1  0.466656  0.870689  0.865878  1
  H  H12  1  0.181104  0.623615  0.250224  1
  H  H13  1  0.818896  0.123615  0.249776  1
  H  H14  1  0.818896  0.376385  0.749776  1
  H  H15  1  0.181104  0.876385  0.750224  1
  N  N16  1  0.056712  0.750088  0.525534  1
  N  N17  1  0.943288  0.250088  0.974466  1
  N  N18  1  0.943288  0.249912  0.474466  1
  N  N19  1  0.056712  0.749912  0.025534  1
  N  N20  1  0.344790  0.956569  0.801109  1
  N  N21  1  0.655210  0.456569  0.698891  1
  N  N22  1  0.655210  0.043431  0.198891  1
  N  N23  1  0.344790  0.543431  0.301109  1
  O  O24  1  0.511830  0.468708  0.219315  1
  O  O25  1  0.488170  0.968708  0.280685  1
  O  O26  1  0.488170  0.531292  0.780685  1
  O  O27  1  0.511830  0.031292  0.719315  1
  O  O28  1  0.916337  0.824174  0.931363  1
  O  O29  1  0.083663  0.324174  0.568637  1
  O  O30  1  0.083663  0.175826  0.068637  1
  O  O31  1  0.916337  0.675826  0.431363  1
  O  O32  1  0.307888  0.697163  0.026015  1
  O  O33  1  0.692112  0.197163  0.473985  1
  O  O34  1  0.692112  0.302837  0.973985  1
  O  O35  1  0.307888  0.802837  0.526015  1
  O  O36  1  0.951092  0.727017  0.122683  1
  O  O37  1  0.048908  0.227017  0.377317  1
  O  O38  1  0.048908  0.272983  0.877317  1
  O  O39  1  0.951092  0.772983  0.622683  1
