# generated using pymatgen
data_Ta7(Te12I5)2
_symmetry_space_group_name_H-M   'P 1'
_cell_length_a   6.90567290
_cell_length_b   8.17718173
_cell_length_c   27.57934743
_cell_angle_alpha   96.46707544
_cell_angle_beta   90.62340800
_cell_angle_gamma   101.52853298
_symmetry_Int_Tables_number   1
_chemical_formula_structural   Ta7(Te12I5)2
_chemical_formula_sum   'Ta7 Te24 I10'
_cell_volume   1515.35492094
_cell_formula_units_Z   1
loop_
 _symmetry_equiv_pos_site_id
 _symmetry_equiv_pos_as_xyz
  1  'x, y, z'
loop_
 _atom_site_type_symbol
 _atom_site_label
 _atom_site_symmetry_multiplicity
 _atom_site_fract_x
 _atom_site_fract_y
 _atom_site_fract_z
 _atom_site_occupancy
  Te  Te0  1  0.454484  0.793782  0.552101  1
  Te  Te1  1  0.545516  0.206218  0.447899  1
  Te  Te2  1  0.439971  0.752241  0.448395  1
  Te  Te3  1  0.560029  0.247759  0.551605  1
  Te  Te4  1  0.993025  0.984294  0.416062  1
  Te  Te5  1  0.006975  0.015706  0.583938  1
  Te  Te6  1  0.065559  0.276653  0.484190  1
  Te  Te7  1  0.934441  0.723347  0.515810  1
  Te  Te8  1  0.367383  0.453257  0.298410  1
  Te  Te9  1  0.632617  0.546743  0.701590  1
  Te  Te10  1  0.293803  0.159839  0.230447  1
  Te  Te11  1  0.706197  0.840161  0.769553  1
  Te  Te12  1  0.424673  0.713329  0.200436  1
  Te  Te13  1  0.575327  0.286671  0.799564  1
  Te  Te14  1  0.353772  0.430748  0.130697  1
  Te  Te15  1  0.646228  0.569252  0.869303  1
  Te  Te16  1  0.905048  0.641225  0.162513  1
  Te  Te17  1  0.185553  0.765100  0.732194  1
  Te  Te18  1  0.814447  0.234900  0.267806  1
  Te  Te19  1  0.201562  0.818930  0.834319  1
  Te  Te20  1  0.798438  0.181070  0.165681  1
  Te  Te21  1  0.080724  0.317431  0.733666  1
  Te  Te22  1  0.919276  0.682569  0.266334  1
  Te  Te23  1  0.094952  0.358775  0.837487  1
  I  I24  1  0.459995  0.851778  0.337277  1
  I  I25  1  0.540005  0.148222  0.662723  1
  I  I26  1  0.898928  0.576375  0.375468  1
  I  I27  1  0.101072  0.423625  0.624532  1
  I  I28  1  0.708375  0.772724  0.036575  1
  I  I29  1  0.291625  0.227276  0.963425  1
  I  I30  1  0.158840  0.736449  0.955299  1
  I  I31  1  0.841160  0.263551  0.044701  1
  I  I32  1  0.762468  0.990787  0.917019  1
  I  I33  1  0.237532  0.009213  0.082981  1
  Ta  Ta34  1  0.250252  0.999183  0.500129  1
  Ta  Ta35  1  0.749748  0.000817  0.499871  1
  Ta  Ta36  1  0.109249  0.436792  0.214762  1
  Ta  Ta37  1  0.890751  0.563208  0.785238  1
  Ta  Ta38  1  0.609504  0.435336  0.214631  1
  Ta  Ta39  1  0.390496  0.564664  0.785369  1
  Ta  Ta40  1  0.000000  0.000000  0.000000  1
