# generated using pymatgen
data_B5H11N2
_symmetry_space_group_name_H-M   'P 1'
_cell_length_a   7.81801651
_cell_length_b   7.81801644
_cell_length_c   9.91942259
_cell_angle_alpha   84.05230095
_cell_angle_beta   84.05230104
_cell_angle_gamma   82.92650160
_symmetry_Int_Tables_number   1
_chemical_formula_structural   B5H11N2
_chemical_formula_sum   'B20 H44 N8'
_cell_volume   595.89459123
_cell_formula_units_Z   4
loop_
 _symmetry_equiv_pos_site_id
 _symmetry_equiv_pos_as_xyz
  1  'x, y, z'
loop_
 _atom_site_type_symbol
 _atom_site_label
 _atom_site_symmetry_multiplicity
 _atom_site_fract_x
 _atom_site_fract_y
 _atom_site_fract_z
 _atom_site_occupancy
  N  N0  1  0.115479  0.766320  0.783168  1
  N  N1  1  0.233680  0.884521  0.716832  1
  N  N2  1  0.884521  0.233680  0.216832  1
  N  N3  1  0.766320  0.115479  0.283168  1
  N  N4  1  0.827156  0.716517  0.631293  1
  N  N5  1  0.283483  0.172844  0.868707  1
  N  N6  1  0.172844  0.283483  0.368707  1
  N  N7  1  0.716517  0.827156  0.131293  1
  B  B8  1  0.724095  0.558358  0.690907  1
  B  B9  1  0.441642  0.275905  0.809093  1
  B  B10  1  0.275905  0.441642  0.309093  1
  B  B11  1  0.558358  0.724095  0.190907  1
  B  B12  1  0.865414  0.369741  0.701137  1
  B  B13  1  0.630259  0.134586  0.798863  1
  B  B14  1  0.134586  0.630259  0.298863  1
  B  B15  1  0.369741  0.865414  0.201137  1
  B  B16  1  0.717439  0.384434  0.578187  1
  B  B17  1  0.615566  0.282561  0.921813  1
  B  B18  1  0.282561  0.615566  0.421813  1
  B  B19  1  0.384434  0.717439  0.078187  1
  B  B20  1  0.786349  0.180803  0.663032  1
  B  B21  1  0.819197  0.213651  0.836968  1
  B  B22  1  0.213651  0.819197  0.336968  1
  B  B23  1  0.180803  0.786349  0.163032  1
  B  B24  1  0.561917  0.226968  0.642361  1
  B  B25  1  0.773032  0.438083  0.857639  1
  B  B26  1  0.438083  0.773032  0.357639  1
  B  B27  1  0.226968  0.561917  0.142361  1
  H  H28  1  0.090866  0.794337  0.882334  1
  H  H29  1  0.205663  0.909134  0.617666  1
  H  H30  1  0.909134  0.205663  0.117666  1
  H  H31  1  0.794337  0.090866  0.382334  1
  H  H32  1  0.572272  0.606308  0.713614  1
  H  H33  1  0.393692  0.427728  0.786386  1
  H  H34  1  0.427728  0.393692  0.286386  1
  H  H35  1  0.606308  0.572272  0.213614  1
  H  H36  1  0.886481  0.697972  0.535678  1
  H  H37  1  0.302028  0.113519  0.964322  1
  H  H38  1  0.113519  0.302028  0.464322  1
  H  H39  1  0.697972  0.886481  0.035678  1
  H  H40  1  0.926088  0.737834  0.690937  1
  H  H41  1  0.262166  0.073912  0.809063  1
  H  H42  1  0.073912  0.262166  0.309063  1
  H  H43  1  0.737834  0.926088  0.190937  1
  H  H44  1  0.879738  0.071102  0.606372  1
  H  H45  1  0.928898  0.120262  0.893628  1
  H  H46  1  0.120262  0.928898  0.393628  1
  H  H47  1  0.071102  0.879738  0.106372  1
  H  H48  1  0.011335  0.399597  0.663806  1
  H  H49  1  0.600403  0.988665  0.836194  1
  H  H50  1  0.988665  0.600403  0.336194  1
  H  H51  1  0.399597  0.011335  0.163806  1
  H  H52  1  0.755817  0.411465  0.458193  1
  H  H53  1  0.588535  0.244183  0.041807  1
  H  H54  1  0.244183  0.588535  0.541807  1
  H  H55  1  0.411465  0.755817  0.958193  1
  H  H56  1  0.500746  0.150270  0.563480  1
  H  H57  1  0.849730  0.499254  0.936520  1
  H  H58  1  0.499254  0.849730  0.436520  1
  H  H59  1  0.150270  0.500746  0.063480  1
  H  H60  1  0.747746  0.830885  0.622887  1
  H  H61  1  0.169115  0.252254  0.877113  1
  H  H62  1  0.252254  0.169115  0.377113  1
  H  H63  1  0.830885  0.747746  0.122887  1
  H  H64  1  0.176545  0.642329  0.786480  1
  H  H65  1  0.357671  0.823455  0.713520  1
  H  H66  1  0.823455  0.357671  0.213520  1
  H  H67  1  0.642329  0.176545  0.286480  1
  H  H68  1  0.546251  0.395713  0.602609  1
  H  H69  1  0.604287  0.453749  0.897391  1
  H  H70  1  0.453749  0.604287  0.397391  1
  H  H71  1  0.395713  0.546251  0.102609  1
