# generated using pymatgen
data_WCl5
_symmetry_space_group_name_H-M   'P 1'
_cell_length_a   6.60088385
_cell_length_b   13.17168217
_cell_length_c   13.17168217
_cell_angle_alpha   89.27989685
_cell_angle_beta   94.17510676
_cell_angle_gamma   94.17510679
_symmetry_Int_Tables_number   1
_chemical_formula_structural   WCl5
_chemical_formula_sum   'W6 Cl30'
_cell_volume   1139.10789570
_cell_formula_units_Z   6
loop_
 _symmetry_equiv_pos_site_id
 _symmetry_equiv_pos_as_xyz
  1  'x, y, z'
loop_
 _atom_site_type_symbol
 _atom_site_label
 _atom_site_symmetry_multiplicity
 _atom_site_fract_x
 _atom_site_fract_y
 _atom_site_fract_z
 _atom_site_occupancy
  Cl  Cl0  1  0.811863  0.682854  0.497903  1
  Cl  Cl1  1  0.188137  0.502097  0.317146  1
  Cl  Cl2  1  0.188137  0.317146  0.502097  1
  Cl  Cl3  1  0.811863  0.497903  0.682854  1
  Cl  Cl4  1  0.384555  0.783872  0.410289  1
  Cl  Cl5  1  0.615445  0.589711  0.216128  1
  Cl  Cl6  1  0.128553  0.929009  0.929009  1
  Cl  Cl7  1  0.871447  0.070991  0.070991  1
  Cl  Cl8  1  0.129113  0.739891  0.113509  1
  Cl  Cl9  1  0.870887  0.886491  0.260109  1
  Cl  Cl10  1  0.870887  0.260109  0.886491  1
  Cl  Cl11  1  0.129113  0.113509  0.739891  1
  Cl  Cl12  1  0.702454  0.835488  0.019879  1
  Cl  Cl13  1  0.297546  0.980121  0.164512  1
  Cl  Cl14  1  0.297546  0.164512  0.980121  1
  Cl  Cl15  1  0.702454  0.019879  0.835488  1
  Cl  Cl16  1  0.744221  0.735629  0.735629  1
  Cl  Cl17  1  0.255779  0.264371  0.264371  1
  Cl  Cl18  1  0.748479  0.550652  0.924131  1
  Cl  Cl19  1  0.251521  0.075869  0.449348  1
  Cl  Cl20  1  0.251521  0.449348  0.075869  1
  Cl  Cl21  1  0.748479  0.924131  0.550652  1
  Cl  Cl22  1  0.322313  0.651696  0.835988  1
  Cl  Cl23  1  0.677687  0.164012  0.348304  1
  Cl  Cl24  1  0.677687  0.348304  0.164012  1
  Cl  Cl25  1  0.322313  0.835988  0.651696  1
  Cl  Cl26  1  0.389968  0.598269  0.598269  1
  Cl  Cl27  1  0.610032  0.401731  0.401731  1
  Cl  Cl28  1  0.384555  0.410289  0.783872  1
  Cl  Cl29  1  0.615445  0.216128  0.589711  1
  W  W30  1  0.566898  0.771257  0.562840  1
  W  W31  1  0.433102  0.437160  0.228743  1
  W  W32  1  0.433102  0.228743  0.437160  1
  W  W33  1  0.566898  0.562840  0.771257  1
  W  W34  1  0.000000  0.104203  0.895797  1
  W  W35  1  0.000000  0.895797  0.104203  1
