# generated using pymatgen
data_PuCo3
_symmetry_space_group_name_H-M   'P 1'
_cell_length_a   8.56196705
_cell_length_b   8.56196705
_cell_length_c   8.56196705
_cell_angle_alpha   32.23889162
_cell_angle_beta   32.23889160
_cell_angle_gamma   32.23889159
_symmetry_Int_Tables_number   1
_chemical_formula_structural   PuCo3
_chemical_formula_sum   'Pu3 Co9'
_cell_volume   158.75495095
_cell_formula_units_Z   3
loop_
 _symmetry_equiv_pos_site_id
 _symmetry_equiv_pos_as_xyz
  1  'x, y, z'
loop_
 _atom_site_type_symbol
 _atom_site_label
 _atom_site_symmetry_multiplicity
 _atom_site_fract_x
 _atom_site_fract_y
 _atom_site_fract_z
 _atom_site_occupancy
  Co  Co0  1  0.500000  0.500000  0.500000  1
  Co  Co1  1  0.333196  0.333196  0.333196  1
  Co  Co2  1  0.666804  0.666804  0.666804  1
  Co  Co3  1  0.581577  0.084895  0.581577  1
  Co  Co4  1  0.581577  0.581577  0.084895  1
  Co  Co5  1  0.084895  0.581577  0.581577  1
  Co  Co6  1  0.915105  0.418423  0.418423  1
  Co  Co7  1  0.418423  0.915105  0.418423  1
  Co  Co8  1  0.418423  0.418423  0.915105  1
  Pu  Pu9  1  0.000000  0.000000  0.000000  1
  Pu  Pu10  1  0.146398  0.146398  0.146398  1
  Pu  Pu11  1  0.853602  0.853602  0.853602  1
