# generated using pymatgen
data_B10(Pb2O7)3
_symmetry_space_group_name_H-M   'P 1'
_cell_length_a   6.95537695
_cell_length_b   7.10349889
_cell_length_c   11.38198087
_cell_angle_alpha   82.90036794
_cell_angle_beta   77.85696562
_cell_angle_gamma   60.83682976
_symmetry_Int_Tables_number   1
_chemical_formula_structural   B10(Pb2O7)3
_chemical_formula_sum   'B10 Pb6 O21'
_cell_volume   479.93472838
_cell_formula_units_Z   1
loop_
 _symmetry_equiv_pos_site_id
 _symmetry_equiv_pos_as_xyz
  1  'x, y, z'
loop_
 _atom_site_type_symbol
 _atom_site_label
 _atom_site_symmetry_multiplicity
 _atom_site_fract_x
 _atom_site_fract_y
 _atom_site_fract_z
 _atom_site_occupancy
  B  B0  1  0.527359  0.671418  0.575161  1
  B  B1  1  0.722885  0.175702  0.757878  1
  B  B2  1  0.277115  0.824298  0.242122  1
  B  B3  1  0.216699  0.870727  0.944573  1
  B  B4  1  0.555252  0.432281  0.203486  1
  B  B5  1  0.168275  0.535943  0.298216  1
  B  B6  1  0.831725  0.464057  0.701784  1
  B  B7  1  0.472641  0.328582  0.424839  1
  B  B8  1  0.783301  0.129273  0.055427  1
  B  B9  1  0.444748  0.567719  0.796514  1
  Pb  Pb10  1  0.244878  0.262669  0.066706  1
  Pb  Pb11  1  0.037745  0.757757  0.590826  1
  Pb  Pb12  1  0.755122  0.737331  0.933294  1
  Pb  Pb13  1  0.653408  0.856254  0.302543  1
  Pb  Pb14  1  0.346592  0.143746  0.697457  1
  Pb  Pb15  1  0.962255  0.242243  0.409174  1
  O  O16  1  0.886162  0.231890  0.705705  1
  O  O17  1  0.261547  0.683736  0.892440  1
  O  O18  1  0.552596  0.220026  0.524860  1
  O  O19  1  0.971213  0.520232  0.289182  1
  O  O20  1  0.627966  0.334995  0.324147  1
  O  O21  1  0.630063  0.060274  0.056488  1
  O  O22  1  0.233872  0.035174  0.239325  1
  O  O23  1  0.113838  0.768110  0.294295  1
  O  O24  1  0.028787  0.479768  0.710818  1
  O  O25  1  0.372034  0.665005  0.675853  1
  O  O26  1  0.501303  0.331759  0.800014  1
  O  O27  1  0.246019  0.430532  0.416673  1
  O  O28  1  0.352132  0.424008  0.200438  1
  O  O29  1  0.738453  0.316264  0.107560  1
  O  O30  1  0.369937  0.939726  0.943512  1
  O  O31  1  0.000000  0.000000  0.000000  1
  O  O32  1  0.447404  0.779974  0.475140  1
  O  O33  1  0.766128  0.964826  0.760675  1
  O  O34  1  0.753981  0.569468  0.583327  1
  O  O35  1  0.647868  0.575992  0.799562  1
  O  O36  1  0.498697  0.668241  0.199986  1
