# generated using pymatgen
data_TiH8N2F5
_symmetry_space_group_name_H-M   'P 1'
_cell_length_a   6.35276460
_cell_length_b   7.75244875
_cell_length_c   11.45059293
_cell_angle_alpha   90.00000000
_cell_angle_beta   90.00000000
_cell_angle_gamma   90.00000000
_symmetry_Int_Tables_number   1
_chemical_formula_structural   TiH8N2F5
_chemical_formula_sum   'Ti4 H32 N8 F20'
_cell_volume   563.93577019
_cell_formula_units_Z   4
loop_
 _symmetry_equiv_pos_site_id
 _symmetry_equiv_pos_as_xyz
  1  'x, y, z'
loop_
 _atom_site_type_symbol
 _atom_site_label
 _atom_site_symmetry_multiplicity
 _atom_site_fract_x
 _atom_site_fract_y
 _atom_site_fract_z
 _atom_site_occupancy
  H  H0  1  0.901276  0.643000  0.386340  1
  H  H1  1  0.401276  0.857000  0.113660  1
  H  H2  1  0.098724  0.143000  0.613660  1
  H  H3  1  0.598724  0.357000  0.886340  1
  H  H4  1  0.098724  0.357000  0.613660  1
  H  H5  1  0.598724  0.143000  0.886340  1
  H  H6  1  0.901276  0.857000  0.386340  1
  H  H7  1  0.401276  0.643000  0.113660  1
  H  H8  1  0.872918  0.250000  0.590179  1
  H  H9  1  0.372918  0.250000  0.909821  1
  H  H10  1  0.127082  0.750000  0.409821  1
  H  H11  1  0.627082  0.750000  0.090179  1
  H  H12  1  0.979677  0.250000  0.725054  1
  H  H13  1  0.479677  0.250000  0.774946  1
  H  H14  1  0.020323  0.750000  0.274946  1
  H  H15  1  0.927195  0.750000  0.633679  1
  H  H16  1  0.978543  0.361097  0.251169  1
  H  H17  1  0.478543  0.138903  0.248831  1
  H  H18  1  0.021457  0.861097  0.748831  1
  H  H19  1  0.521457  0.638903  0.751169  1
  H  H20  1  0.021457  0.638903  0.748831  1
  H  H21  1  0.521457  0.861097  0.751169  1
  H  H22  1  0.978543  0.138903  0.251169  1
  H  H23  1  0.478543  0.361097  0.248831  1
  H  H24  1  0.186031  0.750000  0.656477  1
  H  H25  1  0.686031  0.750000  0.843523  1
  H  H26  1  0.813969  0.250000  0.343523  1
  H  H27  1  0.313969  0.250000  0.156477  1
  H  H28  1  0.572805  0.250000  0.133679  1
  H  H29  1  0.072805  0.250000  0.366321  1
  H  H30  1  0.427195  0.750000  0.866321  1
  H  H31  1  0.520323  0.750000  0.225053  1
  N  N32  1  0.042140  0.750000  0.697915  1
  N  N33  1  0.542140  0.750000  0.802085  1
  N  N34  1  0.957860  0.250000  0.302085  1
  N  N35  1  0.457860  0.250000  0.197915  1
  N  N36  1  0.011997  0.250000  0.636722  1
  N  N37  1  0.511997  0.250000  0.863278  1
  N  N38  1  0.488003  0.750000  0.136722  1
  N  N39  1  0.988003  0.750000  0.363278  1
  F  F40  1  0.415863  0.027839  0.669215  1
  F  F41  1  0.915863  0.472161  0.830785  1
  F  F42  1  0.584137  0.527839  0.330785  1
  F  F43  1  0.084137  0.972161  0.169215  1
  F  F44  1  0.915863  0.027839  0.830785  1
  F  F45  1  0.415863  0.472161  0.669215  1
  F  F46  1  0.084137  0.527839  0.169215  1
  F  F47  1  0.584137  0.972161  0.330785  1
  F  F48  1  0.117618  0.250000  0.013800  1
  F  F49  1  0.277207  0.564338  0.953029  1
  F  F50  1  0.222793  0.435662  0.453029  1
  F  F51  1  0.722793  0.064338  0.046971  1
  F  F52  1  0.222793  0.064338  0.453029  1
  F  F53  1  0.722793  0.435662  0.046971  1
  F  F54  1  0.777207  0.564338  0.546971  1
  F  F55  1  0.277207  0.935662  0.953029  1
  F  F56  1  0.382382  0.750000  0.513800  1
  F  F57  1  0.882382  0.750000  0.986200  1
  F  F58  1  0.617618  0.250000  0.486200  1
  F  F59  1  0.777207  0.935662  0.546971  1
  Ti  Ti60  1  0.500000  0.000000  0.500000  1
  Ti  Ti61  1  0.000000  0.500000  0.000000  1
  Ti  Ti62  1  0.500000  0.500000  0.500000  1
  Ti  Ti63  1  0.000000  0.000000  0.000000  1
