# generated using pymatgen
data_Gd(CuGe)2
_symmetry_space_group_name_H-M   'P 1'
_cell_length_a   4.10316856
_cell_length_b   4.10924728
_cell_length_c   5.93295198
_cell_angle_alpha   110.73266604
_cell_angle_beta   110.23032439
_cell_angle_gamma   90.00000003
_symmetry_Int_Tables_number   1
_chemical_formula_structural   Gd(CuGe)2
_chemical_formula_sum   'Gd1 Cu2 Ge2'
_cell_volume   86.92724264
_cell_formula_units_Z   1
loop_
 _symmetry_equiv_pos_site_id
 _symmetry_equiv_pos_as_xyz
  1  'x, y, z'
loop_
 _atom_site_type_symbol
 _atom_site_label
 _atom_site_symmetry_multiplicity
 _atom_site_fract_x
 _atom_site_fract_y
 _atom_site_fract_z
 _atom_site_occupancy
  Cu  Cu0  1  0.249790  0.729158  0.499581  1
  Cu  Cu1  1  0.750210  0.270842  0.500419  1
  Ge  Ge2  1  0.620527  0.637091  0.241055  1
  Ge  Ge3  1  0.379473  0.362909  0.758945  1
  Gd  Gd4  1  0.000000  0.000000  0.000000  1
