# generated using pymatgen
data_Ga(Bi3O5)4
_symmetry_space_group_name_H-M   'P 1'
_cell_length_a   8.86849289
_cell_length_b   8.86849289
_cell_length_c   8.86849289
_cell_angle_alpha   109.47390447
_cell_angle_beta   109.47719159
_cell_angle_gamma   109.46256620
_symmetry_Int_Tables_number   1
_chemical_formula_structural   Ga(Bi3O5)4
_chemical_formula_sum   'Ga1 Bi12 O20'
_cell_volume   536.94223723
_cell_formula_units_Z   1
loop_
 _symmetry_equiv_pos_site_id
 _symmetry_equiv_pos_as_xyz
  1  'x, y, z'
loop_
 _atom_site_type_symbol
 _atom_site_label
 _atom_site_symmetry_multiplicity
 _atom_site_fract_x
 _atom_site_fract_y
 _atom_site_fract_z
 _atom_site_occupancy
  O  O0  1  0.617796  0.236834  0.356733  1
  O  O1  1  0.880101  0.261063  0.643267  1
  O  O2  1  0.119899  0.763166  0.380962  1
  O  O3  1  0.382204  0.738937  0.619038  1
  O  O4  1  0.213524  -0.000095  0.000045  1
  O  O5  1  -0.000140  0.213478  0.999955  1
  O  O6  1  1.000140  1.000095  0.213619  1
  O  O7  1  0.786476  0.786521  0.786381  1
  O  O8  1  0.616215  1.000006  0.999951  1
  O  O9  1  1.000055  0.616264  0.000049  1
  O  O10  1  -0.000055  -0.000006  0.616210  1
  O  O11  1  0.383785  0.383736  0.383790  1
  O  O12  1  0.619084  0.382107  0.739029  1
  O  O13  1  0.739037  0.619027  0.382428  1
  O  O14  1  0.236600  0.356609  0.617572  1
  O  O15  1  0.763400  0.380973  0.120010  1
  O  O16  1  0.260963  0.643391  0.879990  1
  O  O17  1  0.380916  0.119945  0.763023  1
  O  O18  1  0.356922  0.617893  0.236977  1
  O  O19  1  0.643078  0.880055  0.260971  1
  Ga  Ga20  1  0.000000  0.000000  0.000000  1
  Bi  Bi21  1  0.813599  0.140796  0.305505  1
  Bi  Bi22  1  0.835290  0.508094  0.694495  1
  Bi  Bi23  1  0.164710  0.859204  0.672803  1
  Bi  Bi24  1  0.186401  0.491906  0.327197  1
  Bi  Bi25  1  0.508084  0.694602  0.835440  1
  Bi  Bi26  1  0.859162  0.672643  0.164560  1
  Bi  Bi27  1  0.140838  0.305398  0.813481  1
  Bi  Bi28  1  0.491916  0.327357  0.186519  1
  Bi  Bi29  1  0.672891  0.164709  0.859154  1
  Bi  Bi30  1  0.305555  0.813737  0.140846  1
  Bi  Bi31  1  0.694445  0.835291  0.508182  1
  Bi  Bi32  1  0.327109  0.186263  0.491818  1
