# generated using pymatgen
data_CaCuH4(CO2)4
_symmetry_space_group_name_H-M   'P 1'
_cell_length_a   6.68722641
_cell_length_b   7.50022824
_cell_length_c   8.59227827
_cell_angle_alpha   90.00000000
_cell_angle_beta   90.00000000
_cell_angle_gamma   99.64771838
_symmetry_Int_Tables_number   1
_chemical_formula_structural   CaCuH4(CO2)4
_chemical_formula_sum   'Ca2 Cu2 H8 C8 O16'
_cell_volume   424.85690267
_cell_formula_units_Z   2
loop_
 _symmetry_equiv_pos_site_id
 _symmetry_equiv_pos_as_xyz
  1  'x, y, z'
loop_
 _atom_site_type_symbol
 _atom_site_label
 _atom_site_symmetry_multiplicity
 _atom_site_fract_x
 _atom_site_fract_y
 _atom_site_fract_z
 _atom_site_occupancy
  Ca  Ca0  1  0.250000  0.000000  0.863351  1
  Ca  Ca1  1  0.750000  0.000000  0.136649  1
  Cu  Cu2  1  0.250000  0.500000  0.599606  1
  Cu  Cu3  1  0.750000  0.500000  0.400394  1
  H  H4  1  0.088368  0.586305  0.151404  1
  H  H5  1  0.765159  0.163568  0.561587  1
  H  H6  1  0.588368  0.586305  0.848596  1
  H  H7  1  0.411632  0.413695  0.151404  1
  H  H8  1  0.911632  0.413695  0.848596  1
  H  H9  1  0.234841  0.836432  0.438413  1
  H  H10  1  0.734841  0.836432  0.561587  1
  H  H11  1  0.265159  0.163568  0.438413  1
  C  C12  1  0.509255  0.308327  0.142773  1
  C  C13  1  0.490745  0.691673  0.857227  1
  C  C14  1  0.879614  0.800014  0.602524  1
  C  C15  1  0.379614  0.800014  0.397476  1
  C  C16  1  0.009255  0.308327  0.857227  1
  C  C17  1  0.990745  0.691673  0.142773  1
  C  C18  1  0.620386  0.199986  0.602524  1
  C  C19  1  0.120386  0.199986  0.397476  1
  O  O20  1  0.159046  0.315808  0.763579  1
  O  O21  1  0.005425  0.090153  0.314719  1
  O  O22  1  0.417588  0.644250  0.439493  1
  O  O23  1  0.471732  0.184809  0.042252  1
  O  O24  1  0.994575  0.909847  0.685281  1
  O  O25  1  0.659046  0.315808  0.236421  1
  O  O26  1  0.505425  0.090153  0.685281  1
  O  O27  1  0.582412  0.355750  0.560507  1
  O  O28  1  0.340954  0.684192  0.763579  1
  O  O29  1  0.971732  0.184809  0.957748  1
  O  O30  1  0.082412  0.355750  0.439493  1
  O  O31  1  0.028268  0.815191  0.042252  1
  O  O32  1  0.528268  0.815191  0.957748  1
  O  O33  1  0.494575  0.909847  0.314719  1
  O  O34  1  0.917588  0.644250  0.560507  1
  O  O35  1  0.840954  0.684192  0.236421  1
