# generated using pymatgen
data_Fe3W3N
_symmetry_space_group_name_H-M   'P 1'
_cell_length_a   7.81613170
_cell_length_b   7.81613170
_cell_length_c   7.81613170
_cell_angle_alpha   60.00000000
_cell_angle_beta   59.99999999
_cell_angle_gamma   60.00000000
_symmetry_Int_Tables_number   1
_chemical_formula_structural   Fe3W3N
_chemical_formula_sum   'Fe12 W12 N4'
_cell_volume   337.64522146
_cell_formula_units_Z   4
loop_
 _symmetry_equiv_pos_site_id
 _symmetry_equiv_pos_as_xyz
  1  'x, y, z'
loop_
 _atom_site_type_symbol
 _atom_site_label
 _atom_site_symmetry_multiplicity
 _atom_site_fract_x
 _atom_site_fract_y
 _atom_site_fract_z
 _atom_site_occupancy
  N  N0  1  0.000000  0.500000  0.000000  1
  N  N1  1  0.500000  0.000000  0.000000  1
  N  N2  1  0.000000  0.000000  0.500000  1
  N  N3  1  0.000000  0.000000  0.000000  1
  Fe  Fe4  1  0.500000  0.000000  0.500000  1
  Fe  Fe5  1  0.000000  0.500000  0.500000  1
  Fe  Fe6  1  0.500000  0.500000  0.000000  1
  Fe  Fe7  1  0.500000  0.500000  0.500000  1
  Fe  Fe8  1  0.704460  0.704460  0.704460  1
  Fe  Fe9  1  0.295540  0.295540  0.613380  1
  Fe  Fe10  1  0.295540  0.613380  0.295540  1
  Fe  Fe11  1  0.613380  0.295540  0.295540  1
  Fe  Fe12  1  0.295540  0.295540  0.295540  1
  Fe  Fe13  1  0.704460  0.704460  0.386620  1
  Fe  Fe14  1  0.386620  0.704460  0.704460  1
  Fe  Fe15  1  0.704460  0.386620  0.704460  1
  W  W16  1  0.078227  0.671773  0.671773  1
  W  W17  1  0.328227  0.921773  0.921773  1
  W  W18  1  0.671773  0.078227  0.671773  1
  W  W19  1  0.671773  0.671773  0.078227  1
  W  W20  1  0.078227  0.078227  0.671773  1
  W  W21  1  0.078227  0.671773  0.078227  1
  W  W22  1  0.328227  0.921773  0.328227  1
  W  W23  1  0.921773  0.328227  0.921773  1
  W  W24  1  0.921773  0.328227  0.328227  1
  W  W25  1  0.328227  0.328227  0.921773  1
  W  W26  1  0.921773  0.921773  0.328227  1
  W  W27  1  0.671773  0.078227  0.078227  1
