# generated using pymatgen
data_Li2VPO4F
_symmetry_space_group_name_H-M   'P 1'
_cell_length_a   5.43072218
_cell_length_b   5.42353247
_cell_length_c   7.47481355
_cell_angle_alpha   72.25679870
_cell_angle_beta   72.58224459
_cell_angle_gamma   94.48864696
_symmetry_Int_Tables_number   1
_chemical_formula_structural   Li2VPO4F
_chemical_formula_sum   'Li4 V2 P2 O8 F2'
_cell_volume   196.56323774
_cell_formula_units_Z   2
loop_
 _symmetry_equiv_pos_site_id
 _symmetry_equiv_pos_as_xyz
  1  'x, y, z'
loop_
 _atom_site_type_symbol
 _atom_site_label
 _atom_site_symmetry_multiplicity
 _atom_site_fract_x
 _atom_site_fract_y
 _atom_site_fract_z
 _atom_site_occupancy
  Li  Li0  1  0.833776  0.453114  0.125793  1
  Li  Li1  1  0.489447  0.846231  0.863734  1
  Li  Li2  1  0.516363  0.040398  0.471633  1
  Li  Li3  1  0.219418  0.546715  0.712870  1
  O  O4  1  0.718349  0.210445  0.626292  1
  O  O5  1  0.280826  0.753174  0.423017  1
  O  O6  1  0.668036  0.675360  0.658917  1
  O  O7  1  0.853676  0.350002  0.880845  1
  O  O8  1  0.147253  0.664599  0.143504  1
  O  O9  1  0.622926  0.741331  0.101008  1
  O  O10  1  0.335778  0.323292  0.361708  1
  O  O11  1  0.364149  0.269476  0.902972  1
  F  F12  1  0.169187  0.894186  0.748580  1
  F  F13  1  0.853942  0.102666  0.271930  1
  P  P14  1  0.342560  0.619735  0.261304  1
  P  P15  1  0.653565  0.375322  0.766206  1
  V  V16  1  0.995427  0.001689  0.013316  1
  V  V17  1  0.007440  0.000631  0.507780  1
