# generated using pymatgen
data_Eu(AlGa)2
_symmetry_space_group_name_H-M   'P 1'
_cell_length_a   4.32981955
_cell_length_b   4.32981955
_cell_length_c   6.28422649
_cell_angle_alpha   110.15121620
_cell_angle_beta   110.15121619
_cell_angle_gamma   89.99999995
_symmetry_Int_Tables_number   1
_chemical_formula_structural   Eu(AlGa)2
_chemical_formula_sum   'Eu1 Al2 Ga2'
_cell_volume   102.88485754
_cell_formula_units_Z   1
loop_
 _symmetry_equiv_pos_site_id
 _symmetry_equiv_pos_as_xyz
  1  'x, y, z'
loop_
 _atom_site_type_symbol
 _atom_site_label
 _atom_site_symmetry_multiplicity
 _atom_site_fract_x
 _atom_site_fract_y
 _atom_site_fract_z
 _atom_site_occupancy
  Al  Al0  1  0.250000  0.750000  0.500000  1
  Al  Al1  1  0.750000  0.250000  0.500000  1
  Ga  Ga2  1  0.614340  0.614340  0.228681  1
  Ga  Ga3  1  0.385660  0.385660  0.771319  1
  Eu  Eu4  1  0.000000  0.000000  0.000000  1
