# generated using pymatgen
data_NdGe2
_symmetry_space_group_name_H-M   'P 1'
_cell_length_a   4.14949646
_cell_length_b   4.14949645
_cell_length_c   8.68228174
_cell_angle_alpha   103.82537199
_cell_angle_beta   103.82537197
_cell_angle_gamma   90.00000000
_symmetry_Int_Tables_number   1
_chemical_formula_structural   NdGe2
_chemical_formula_sum   'Nd2 Ge4'
_cell_volume   140.69892233
_cell_formula_units_Z   2
loop_
 _symmetry_equiv_pos_site_id
 _symmetry_equiv_pos_as_xyz
  1  'x, y, z'
loop_
 _atom_site_type_symbol
 _atom_site_label
 _atom_site_symmetry_multiplicity
 _atom_site_fract_x
 _atom_site_fract_y
 _atom_site_fract_z
 _atom_site_occupancy
  Ge  Ge0  1  0.704501  0.954501  0.909001  1
  Ge  Ge1  1  0.454501  0.204501  0.409001  1
  Ge  Ge2  1  0.545499  0.795499  0.590999  1
  Ge  Ge3  1  0.295499  0.045499  0.090999  1
  Nd  Nd4  1  0.875000  0.625000  0.250000  1
  Nd  Nd5  1  0.125000  0.375000  0.750000  1
