# generated using pymatgen
data_Er(PO3)3
_symmetry_space_group_name_H-M   'P 1'
_cell_length_a   7.04897954
_cell_length_b   9.75840566
_cell_length_c   11.05565579
_cell_angle_alpha   90.00000000
_cell_angle_beta   92.02937975
_cell_angle_gamma   90.00000000
_symmetry_Int_Tables_number   1
_chemical_formula_structural   Er(PO3)3
_chemical_formula_sum   'Er4 P12 O36'
_cell_volume   760.00622889
_cell_formula_units_Z   4
loop_
 _symmetry_equiv_pos_site_id
 _symmetry_equiv_pos_as_xyz
  1  'x, y, z'
loop_
 _atom_site_type_symbol
 _atom_site_label
 _atom_site_symmetry_multiplicity
 _atom_site_fract_x
 _atom_site_fract_y
 _atom_site_fract_z
 _atom_site_occupancy
  O  O0  1  0.666013  0.500000  0.890840  1
  O  O1  1  0.030735  0.500000  0.924575  1
  O  O2  1  0.877644  0.622523  0.742143  1
  O  O3  1  0.877644  0.377477  0.742143  1
  O  O4  1  0.943967  0.843554  0.859291  1
  O  O5  1  0.943967  0.156446  0.859291  1
  O  O6  1  0.893414  0.840758  0.626734  1
  O  O7  1  0.893414  0.159242  0.626734  1
  O  O8  1  0.622279  0.801942  0.768378  1
  O  O9  1  0.622279  0.198058  0.768378  1
  O  O10  1  0.324518  0.663622  0.784172  1
  O  O11  1  0.324518  0.336378  0.784172  1
  O  O12  1  0.502090  0.663157  0.584646  1
  O  O13  1  0.502090  0.336843  0.584646  1
  O  O14  1  0.325312  0.874408  0.657042  1
  O  O15  1  0.325312  0.125592  0.657042  1
  O  O16  1  0.679734  0.000000  0.039733  1
  O  O17  1  0.315175  0.000000  0.003833  1
  O  O18  1  0.401985  0.343212  0.068346  1
  O  O19  1  0.401985  0.656788  0.068346  1
  O  O20  1  0.723307  0.299899  0.159011  1
  O  O21  1  0.723307  0.700101  0.159011  1
  O  O22  1  0.453039  0.341409  0.300904  1
  O  O23  1  0.453039  0.658591  0.300904  1
  O  O24  1  0.465795  0.122546  0.187032  1
  O  O25  1  0.465795  0.877454  0.187032  1
  O  O26  1  0.021812  0.162480  0.143130  1
  O  O27  1  0.021812  0.837520  0.143130  1
  O  O28  1  0.021976  0.374637  0.267199  1
  O  O29  1  0.021976  0.625363  0.267199  1
  O  O30  1  0.847019  0.164228  0.343702  1
  O  O31  1  0.847019  0.835772  0.343702  1
  O  O32  1  0.164684  0.500000  0.446490  1
  O  O33  1  0.799117  0.500000  0.408799  1
  O  O34  1  0.182255  0.000000  0.478305  1
  O  O35  1  0.547748  0.000000  0.514956  1
  P  P36  1  0.860090  0.500000  0.839117  1
  P  P37  1  0.846705  0.785052  0.748229  1
  P  P38  1  0.846705  0.214948  0.748229  1
  P  P39  1  0.440481  0.739123  0.694818  1
  P  P40  1  0.440481  0.260877  0.694818  1
  P  P41  1  0.351910  0.000000  0.563935  1
  P  P42  1  0.906379  0.761327  0.232217  1
  P  P43  1  0.906379  0.238673  0.232217  1
  P  P44  1  0.995455  0.500000  0.360487  1
  P  P45  1  0.498831  0.715223  0.179631  1
  P  P46  1  0.498831  0.284777  0.179631  1
  P  P47  1  0.484773  0.000000  0.090162  1
  Er  Er48  1  0.348794  0.500000  0.925857  1
  Er  Er49  1  0.485011  0.500000  0.444370  1
  Er  Er50  1  0.862805  0.000000  0.483030  1
  Er  Er51  1  0.996996  0.000000  0.001762  1
