# generated using pymatgen
data_AgClO2
_symmetry_space_group_name_H-M   'P 1'
_cell_length_a   6.12946092
_cell_length_b   6.28252497
_cell_length_c   7.07005190
_cell_angle_alpha   90.00000000
_cell_angle_beta   90.00000000
_cell_angle_gamma   90.00000000
_symmetry_Int_Tables_number   1
_chemical_formula_structural   AgClO2
_chemical_formula_sum   'Ag4 Cl4 O8'
_cell_volume   272.25703196
_cell_formula_units_Z   4
loop_
 _symmetry_equiv_pos_site_id
 _symmetry_equiv_pos_as_xyz
  1  'x, y, z'
loop_
 _atom_site_type_symbol
 _atom_site_label
 _atom_site_symmetry_multiplicity
 _atom_site_fract_x
 _atom_site_fract_y
 _atom_site_fract_z
 _atom_site_occupancy
  O  O0  1  0.651149  0.393452  0.220051  1
  O  O1  1  0.151148  0.106548  0.779949  1
  O  O2  1  0.848851  0.393452  0.779949  1
  O  O3  1  0.348851  0.106548  0.220051  1
  O  O4  1  0.348851  0.606548  0.779949  1
  O  O5  1  0.651149  0.893452  0.779949  1
  O  O6  1  0.151148  0.606548  0.220051  1
  O  O7  1  0.848851  0.893452  0.220051  1
  Cl  Cl8  1  0.000000  0.750000  0.352649  1
  Cl  Cl9  1  0.000000  0.250000  0.647351  1
  Cl  Cl10  1  0.500000  0.750000  0.647351  1
  Cl  Cl11  1  0.500000  0.250000  0.352649  1
  Ag  Ag12  1  0.500000  0.250000  0.891123  1
  Ag  Ag13  1  0.000000  0.250000  0.108877  1
  Ag  Ag14  1  0.500000  0.750000  0.108877  1
  Ag  Ag15  1  0.000000  0.750000  0.891123  1
