# generated using pymatgen
data_U2FeS5
_symmetry_space_group_name_H-M   'P 1'
_cell_length_a   5.99064334
_cell_length_b   6.94821922
_cell_length_c   7.84221084
_cell_angle_alpha   96.87810359
_cell_angle_beta   112.45443748
_cell_angle_gamma   90.00000000
_symmetry_Int_Tables_number   1
_chemical_formula_structural   U2FeS5
_chemical_formula_sum   'U4 Fe2 S10'
_cell_volume   299.13453028
_cell_formula_units_Z   2
loop_
 _symmetry_equiv_pos_site_id
 _symmetry_equiv_pos_as_xyz
  1  'x, y, z'
loop_
 _atom_site_type_symbol
 _atom_site_label
 _atom_site_symmetry_multiplicity
 _atom_site_fract_x
 _atom_site_fract_y
 _atom_site_fract_z
 _atom_site_occupancy
  S  S0  1  0.307985  0.308615  0.442710  1
  S  S1  1  0.865275  0.191385  0.557290  1
  S  S2  1  0.692015  0.691385  0.557290  1
  S  S3  1  0.134725  0.808615  0.442710  1
  S  S4  1  0.524580  0.075170  0.815176  1
  S  S5  1  0.709405  0.424830  0.184824  1
  S  S6  1  0.902363  0.750000  0.000000  1
  S  S7  1  0.097637  0.250000  0.000000  1
  S  S8  1  0.290595  0.575170  0.815176  1
  S  S9  1  0.475420  0.924830  0.184824  1
  Fe  Fe10  1  0.000000  0.500000  0.500000  1
  Fe  Fe11  1  0.500000  0.000000  0.500000  1
  U  U12  1  0.313723  0.585295  0.218686  1
  U  U13  1  0.095037  0.914705  0.781314  1
  U  U14  1  0.904963  0.085295  0.218686  1
  U  U15  1  0.686277  0.414705  0.781314  1
