# generated using pymatgen
data_Rb3Mn2Cl7
_symmetry_space_group_name_H-M   'P 1'
_cell_length_a   5.09981029
_cell_length_b   5.09981029
_cell_length_c   13.70841623
_cell_angle_alpha   100.72003448
_cell_angle_beta   100.72003449
_cell_angle_gamma   90.00000001
_symmetry_Int_Tables_number   1
_chemical_formula_structural   Rb3Mn2Cl7
_chemical_formula_sum   'Rb3 Mn2 Cl7'
_cell_volume   343.97240942
_cell_formula_units_Z   1
loop_
 _symmetry_equiv_pos_site_id
 _symmetry_equiv_pos_as_xyz
  1  'x, y, z'
loop_
 _atom_site_type_symbol
 _atom_site_label
 _atom_site_symmetry_multiplicity
 _atom_site_fract_x
 _atom_site_fract_y
 _atom_site_fract_z
 _atom_site_occupancy
  Cl  Cl0  1  0.904037  0.404037  0.808075  1
  Cl  Cl1  1  0.404037  0.904037  0.808075  1
  Cl  Cl2  1  0.095963  0.595963  0.191925  1
  Cl  Cl3  1  0.595963  0.095963  0.191925  1
  Cl  Cl4  1  0.692787  0.692787  0.385573  1
  Cl  Cl5  1  0.500000  0.500000  0.000000  1
  Cl  Cl6  1  0.307213  0.307213  0.614427  1
  Mn  Mn7  1  0.401616  0.401616  0.803232  1
  Mn  Mn8  1  0.598384  0.598384  0.196768  1
  Rb  Rb9  1  0.183085  0.183085  0.366169  1
  Rb  Rb10  1  0.816915  0.816915  0.633831  1
  Rb  Rb11  1  0.000000  0.000000  0.000000  1
