# generated using pymatgen
data_Cr3BO6
_symmetry_space_group_name_H-M   'P 1'
_cell_length_a   4.47945328
_cell_length_b   8.57675653
_cell_length_c   10.09810811
_cell_angle_alpha   90.00000000
_cell_angle_beta   90.00000000
_cell_angle_gamma   90.00000000
_symmetry_Int_Tables_number   1
_chemical_formula_structural   Cr3BO6
_chemical_formula_sum   'Cr12 B4 O24'
_cell_volume   387.96103485
_cell_formula_units_Z   4
loop_
 _symmetry_equiv_pos_site_id
 _symmetry_equiv_pos_as_xyz
  1  'x, y, z'
loop_
 _atom_site_type_symbol
 _atom_site_label
 _atom_site_symmetry_multiplicity
 _atom_site_fract_x
 _atom_site_fract_y
 _atom_site_fract_z
 _atom_site_occupancy
  B  B0  1  0.081366  0.250000  0.722974  1
  B  B1  1  0.918636  0.750000  0.277026  1
  B  B2  1  0.418635  0.250000  0.222973  1
  B  B3  1  0.581364  0.750000  0.777026  1
  O  O4  1  0.244137  0.750000  0.275230  1
  O  O5  1  0.282678  0.250000  0.084648  1
  O  O6  1  0.217320  0.250000  0.584648  1
  O  O7  1  0.717321  0.750000  0.915352  1
  O  O8  1  0.764741  0.421511  0.969332  1
  O  O9  1  0.264741  0.578489  0.530668  1
  O  O10  1  0.235260  0.921510  0.030668  1
  O  O11  1  0.735258  0.078489  0.469332  1
  O  O12  1  0.255863  0.750000  0.775230  1
  O  O13  1  0.782679  0.750000  0.415352  1
  O  O14  1  0.755864  0.250000  0.724770  1
  O  O15  1  0.744136  0.250000  0.224769  1
  O  O16  1  0.728487  0.888547  0.710121  1
  O  O17  1  0.228488  0.111453  0.789879  1
  O  O18  1  0.271513  0.388548  0.289880  1
  O  O19  1  0.771513  0.611453  0.210121  1
  O  O20  1  0.235260  0.578489  0.030668  1
  O  O21  1  0.771513  0.888547  0.210121  1
  O  O22  1  0.728487  0.611453  0.710121  1
  O  O23  1  0.228488  0.388548  0.789879  1
  O  O24  1  0.264741  0.921510  0.530668  1
  O  O25  1  0.764741  0.078489  0.969332  1
  O  O26  1  0.735258  0.421511  0.469332  1
  O  O27  1  0.271513  0.111453  0.289880  1
  Cr  Cr28  1  0.474004  0.750000  0.092981  1
  Cr  Cr29  1  0.974005  0.250000  0.407019  1
  Cr  Cr30  1  0.525995  0.250000  0.907020  1
  Cr  Cr31  1  0.025996  0.750000  0.592980  1
  Cr  Cr32  1  0.502485  0.430741  0.630260  1
  Cr  Cr33  1  0.002485  0.569259  0.869741  1
  Cr  Cr34  1  0.497514  0.930740  0.369741  1
  Cr  Cr35  1  0.997515  0.069260  0.130259  1
  Cr  Cr36  1  0.497514  0.569259  0.369741  1
  Cr  Cr37  1  0.997515  0.430741  0.130259  1
  Cr  Cr38  1  0.502485  0.069260  0.630260  1
  Cr  Cr39  1  0.002485  0.930740  0.869741  1
