# generated using pymatgen
data_TlAs5S8
_symmetry_space_group_name_H-M   'P 1'
_cell_length_a   8.15640157
_cell_length_b   11.36088483
_cell_length_c   15.98780476
_cell_angle_alpha   91.59310549
_cell_angle_beta   90.00000000
_cell_angle_gamma   90.00000000
_symmetry_Int_Tables_number   1
_chemical_formula_structural   TlAs5S8
_chemical_formula_sum   'Tl4 As20 S32'
_cell_volume   1480.92031718
_cell_formula_units_Z   4
loop_
 _symmetry_equiv_pos_site_id
 _symmetry_equiv_pos_as_xyz
  1  'x, y, z'
loop_
 _atom_site_type_symbol
 _atom_site_label
 _atom_site_symmetry_multiplicity
 _atom_site_fract_x
 _atom_site_fract_y
 _atom_site_fract_z
 _atom_site_occupancy
  S  S0  1  0.319385  0.867201  0.684829  1
  S  S1  1  0.819385  0.632799  0.315171  1
  S  S2  1  0.680615  0.132799  0.315171  1
  S  S3  1  0.180615  0.367201  0.684829  1
  S  S4  1  0.168163  0.051443  0.848171  1
  S  S5  1  0.668163  0.448557  0.151829  1
  S  S6  1  0.831837  0.948557  0.151829  1
  S  S7  1  0.331837  0.551443  0.848171  1
  S  S8  1  0.043372  0.200079  0.129968  1
  S  S9  1  0.543372  0.299921  0.870032  1
  S  S10  1  0.956628  0.799921  0.870032  1
  S  S11  1  0.456628  0.700079  0.129968  1
  S  S12  1  0.083752  0.502809  0.182572  1
  S  S13  1  0.583752  0.997191  0.817428  1
  S  S14  1  0.916248  0.497191  0.817428  1
  S  S15  1  0.416248  0.002809  0.182572  1
  S  S16  1  0.308120  0.385570  0.032691  1
  S  S17  1  0.808120  0.114430  0.967309  1
  S  S18  1  0.691880  0.614430  0.967309  1
  S  S19  1  0.191880  0.885570  0.032691  1
  S  S20  1  0.390333  0.599326  0.340170  1
  S  S21  1  0.890333  0.900674  0.659830  1
  S  S22  1  0.609667  0.400674  0.659830  1
  S  S23  1  0.109667  0.099326  0.340170  1
  S  S24  1  0.114268  0.400496  0.430025  1
  S  S25  1  0.614268  0.099504  0.569975  1
  S  S26  1  0.885732  0.599504  0.569975  1
  S  S27  1  0.385732  0.900496  0.430025  1
  S  S28  1  0.142640  0.090792  0.562096  1
  S  S29  1  0.642640  0.409208  0.437904  1
  S  S30  1  0.857360  0.909208  0.437904  1
  S  S31  1  0.357360  0.590792  0.562096  1
  As  As32  1  0.278791  0.361905  0.889384  1
  As  As33  1  0.778791  0.138095  0.110616  1
  As  As34  1  0.721209  0.638095  0.110616  1
  As  As35  1  0.221209  0.861905  0.889384  1
  As  As36  1  0.379784  0.391573  0.576836  1
  As  As37  1  0.879784  0.108427  0.423164  1
  As  As38  1  0.620216  0.608427  0.423164  1
  As  As39  1  0.120216  0.891573  0.576836  1
  As  As40  1  0.857167  0.447103  0.261790  1
  As  As41  1  0.357167  0.052897  0.738210  1
  As  As42  1  0.142833  0.552897  0.738210  1
  As  As43  1  0.642833  0.947103  0.261790  1
  As  As44  1  0.036038  0.379894  0.067350  1
  As  As45  1  0.536038  0.120106  0.932650  1
  As  As46  1  0.963962  0.620106  0.932650  1
  As  As47  1  0.463962  0.879894  0.067350  1
  As  As48  1  0.826365  0.410956  0.552969  1
  As  As49  1  0.326365  0.089044  0.447031  1
  As  As50  1  0.173635  0.589044  0.447031  1
  As  As51  1  0.673635  0.910956  0.552969  1
  Tl  Tl52  1  0.335062  0.336339  0.285005  1
  Tl  Tl53  1  0.835062  0.163661  0.714995  1
  Tl  Tl54  1  0.664938  0.663661  0.714995  1
  Tl  Tl55  1  0.164938  0.836339  0.285005  1
