# generated using pymatgen
data_Ca2Fe2O5
_symmetry_space_group_name_H-M   'P 1'
_cell_length_a   5.52411217
_cell_length_b   5.66519441
_cell_length_c   14.89417163
_cell_angle_alpha   90.00000000
_cell_angle_beta   90.00000000
_cell_angle_gamma   90.00000000
_symmetry_Int_Tables_number   1
_chemical_formula_structural   Ca2Fe2O5
_chemical_formula_sum   'Ca8 Fe8 O20'
_cell_volume   466.11562402
_cell_formula_units_Z   4
loop_
 _symmetry_equiv_pos_site_id
 _symmetry_equiv_pos_as_xyz
  1  'x, y, z'
loop_
 _atom_site_type_symbol
 _atom_site_label
 _atom_site_symmetry_multiplicity
 _atom_site_fract_x
 _atom_site_fract_y
 _atom_site_fract_z
 _atom_site_occupancy
  O  O0  1  0.596693  0.875841  0.250000  1
  O  O1  1  0.096693  0.624159  0.250000  1
  O  O2  1  0.903307  0.375841  0.750000  1
  O  O3  1  0.403307  0.124159  0.750000  1
  O  O4  1  0.966293  0.920421  0.641058  1
  O  O5  1  0.466293  0.579579  0.858942  1
  O  O6  1  0.533707  0.420421  0.358942  1
  O  O7  1  0.033707  0.079579  0.141058  1
  O  O8  1  0.033707  0.079579  0.358942  1
  O  O9  1  0.533707  0.420421  0.141058  1
  O  O10  1  0.466293  0.579579  0.641058  1
  O  O11  1  0.966293  0.920421  0.858942  1
  O  O12  1  0.723277  0.777022  0.481345  1
  O  O13  1  0.223277  0.722978  0.018655  1
  O  O14  1  0.776723  0.277022  0.518655  1
  O  O15  1  0.276723  0.222978  0.981345  1
  O  O16  1  0.723277  0.777022  0.018655  1
  O  O17  1  0.223277  0.722978  0.481345  1
  O  O18  1  0.776723  0.277022  0.981345  1
  O  O19  1  0.276723  0.222978  0.518655  1
  Ca  Ca20  1  0.531272  0.977422  0.891049  1
  Ca  Ca21  1  0.031272  0.522578  0.608951  1
  Ca  Ca22  1  0.968728  0.477422  0.108951  1
  Ca  Ca23  1  0.468728  0.022578  0.391049  1
  Ca  Ca24  1  0.468728  0.022578  0.108951  1
  Ca  Ca25  1  0.968728  0.477422  0.391049  1
  Ca  Ca26  1  0.031272  0.522578  0.891049  1
  Ca  Ca27  1  0.531272  0.977422  0.608951  1
  Fe  Fe28  1  0.000000  0.000000  0.000000  1
  Fe  Fe29  1  0.500000  0.500000  0.500000  1
  Fe  Fe30  1  0.500000  0.500000  0.000000  1
  Fe  Fe31  1  0.000000  0.000000  0.500000  1
  Fe  Fe32  1  0.052868  0.064051  0.750000  1
  Fe  Fe33  1  0.552868  0.435949  0.750000  1
  Fe  Fe34  1  0.447132  0.564051  0.250000  1
  Fe  Fe35  1  0.947132  0.935949  0.250000  1
