# generated using pymatgen
data_K2CoH8(CO5)2
_symmetry_space_group_name_H-M   'P 1'
_cell_length_a   6.29878105
_cell_length_b   6.92171371
_cell_length_c   11.41739172
_cell_angle_alpha   99.47266442
_cell_angle_beta   90.00000000
_cell_angle_gamma   90.00000000
_symmetry_Int_Tables_number   1
_chemical_formula_structural   K2CoH8(CO5)2
_chemical_formula_sum   'K4 Co2 H16 C4 O20'
_cell_volume   490.99193850
_cell_formula_units_Z   2
loop_
 _symmetry_equiv_pos_site_id
 _symmetry_equiv_pos_as_xyz
  1  'x, y, z'
loop_
 _atom_site_type_symbol
 _atom_site_label
 _atom_site_symmetry_multiplicity
 _atom_site_fract_x
 _atom_site_fract_y
 _atom_site_fract_z
 _atom_site_occupancy
  H  H0  1  0.324066  0.776822  0.077816  1
  H  H1  1  0.824066  0.723178  0.422184  1
  H  H2  1  0.675934  0.223178  0.922184  1
  H  H3  1  0.175934  0.276822  0.577816  1
  H  H4  1  0.107602  0.682642  0.110908  1
  H  H5  1  0.607602  0.817358  0.389092  1
  H  H6  1  0.303704  0.225484  0.017624  1
  H  H7  1  0.803704  0.274516  0.482376  1
  H  H8  1  0.696296  0.774516  0.982376  1
  H  H9  1  0.392398  0.182642  0.610908  1
  H  H10  1  0.163391  0.331913  0.132801  1
  H  H11  1  0.663391  0.168087  0.367199  1
  H  H12  1  0.836609  0.668087  0.867199  1
  H  H13  1  0.336609  0.831913  0.632801  1
  H  H14  1  0.892398  0.317358  0.889092  1
  H  H15  1  0.196296  0.725484  0.517624  1
  C  C16  1  0.346849  0.076886  0.819636  1
  C  C17  1  0.153150  0.576886  0.319636  1
  C  C18  1  0.653150  0.923114  0.180364  1
  C  C19  1  0.846850  0.423114  0.680364  1
  O  O20  1  0.829241  0.239889  0.946898  1
  O  O21  1  0.417530  0.225596  0.895097  1
  O  O22  1  0.275800  0.703077  0.592189  1
  O  O23  1  0.775800  0.796923  0.907811  1
  O  O24  1  0.724200  0.296923  0.407811  1
  O  O25  1  0.224200  0.203077  0.092189  1
  O  O26  1  0.329241  0.260111  0.553102  1
  O  O27  1  0.917530  0.274404  0.604903  1
  O  O28  1  0.670759  0.739889  0.446898  1
  O  O29  1  0.170759  0.760111  0.053102  1
  O  O30  1  0.190674  0.970537  0.847454  1
  O  O31  1  0.690674  0.529463  0.652546  1
  O  O32  1  0.809326  0.029463  0.152546  1
  O  O33  1  0.309326  0.470537  0.347454  1
  O  O34  1  0.934348  0.466370  0.784501  1
  O  O35  1  0.565652  0.966370  0.284501  1
  O  O36  1  0.082470  0.725596  0.395097  1
  O  O37  1  0.434348  0.033630  0.715499  1
  O  O38  1  0.582470  0.774404  0.104903  1
  O  O39  1  0.065652  0.533630  0.215499  1
  K  K40  1  0.346447  0.583716  0.816773  1
  K  K41  1  0.846447  0.916284  0.683227  1
  K  K42  1  0.653553  0.416284  0.183227  1
  K  K43  1  0.153553  0.083716  0.316773  1
  Co  Co44  1  0.000000  0.000000  0.000000  1
  Co  Co45  1  0.500000  0.500000  0.500000  1
