# generated using pymatgen
data_SrH2Br2O7
_symmetry_space_group_name_H-M   'P 1'
_cell_length_a   7.61099560
_cell_length_b   7.61099560
_cell_length_c   7.65929150
_cell_angle_alpha   102.49500722
_cell_angle_beta   107.72659668
_cell_angle_gamma   118.41570205
_symmetry_Int_Tables_number   1
_chemical_formula_structural   SrH2Br2O7
_chemical_formula_sum   'Sr2 H4 Br4 O14'
_cell_volume   335.36672063
_cell_formula_units_Z   2
loop_
 _symmetry_equiv_pos_site_id
 _symmetry_equiv_pos_as_xyz
  1  'x, y, z'
loop_
 _atom_site_type_symbol
 _atom_site_label
 _atom_site_symmetry_multiplicity
 _atom_site_fract_x
 _atom_site_fract_y
 _atom_site_fract_z
 _atom_site_occupancy
  H  H0  1  0.082690  0.285206  0.365267  1
  H  H1  1  0.919940  0.217424  0.134733  1
  H  H2  1  0.917310  0.714794  0.634733  1
  H  H3  1  0.080060  0.782576  0.865267  1
  O  O4  1  0.074116  0.324116  0.250000  1
  O  O5  1  0.925884  0.675884  0.750000  1
  O  O6  1  0.736040  0.099128  0.512942  1
  O  O7  1  0.586187  0.723099  0.987058  1
  O  O8  1  0.263960  0.900872  0.487058  1
  O  O9  1  0.413813  0.276901  0.012942  1
  O  O10  1  0.167073  0.255193  0.600232  1
  O  O11  1  0.654962  0.066841  0.899768  1
  O  O12  1  0.832927  0.744807  0.399768  1
  O  O13  1  0.345038  0.933159  0.100232  1
  O  O14  1  0.067683  0.404012  0.878082  1
  O  O15  1  0.525931  0.689601  0.621918  1
  O  O16  1  0.932317  0.595988  0.121918  1
  O  O17  1  0.474069  0.310399  0.378082  1
  Br  Br18  1  0.525272  0.213897  0.195464  1
  Br  Br19  1  0.018433  0.829808  0.304536  1
  Br  Br20  1  0.474728  0.786103  0.804536  1
  Br  Br21  1  0.981567  0.170192  0.695464  1
  Sr  Sr22  1  0.398566  0.648566  0.250000  1
  Sr  Sr23  1  0.601434  0.351434  0.750000  1
