# generated using pymatgen
data_Na3H5(CO4)2
_symmetry_space_group_name_H-M   'P 1'
_cell_length_a   3.57124513
_cell_length_b   10.43678282
_cell_length_c   10.35080941
_cell_angle_alpha   106.55697931
_cell_angle_beta   99.93381287
_cell_angle_gamma   89.99999998
_symmetry_Int_Tables_number   1
_chemical_formula_structural   Na3H5(CO4)2
_chemical_formula_sum   'Na6 H10 C4 O16'
_cell_volume   363.76386364
_cell_formula_units_Z   2
loop_
 _symmetry_equiv_pos_site_id
 _symmetry_equiv_pos_as_xyz
  1  'x, y, z'
loop_
 _atom_site_type_symbol
 _atom_site_label
 _atom_site_symmetry_multiplicity
 _atom_site_fract_x
 _atom_site_fract_y
 _atom_site_fract_z
 _atom_site_occupancy
  H  H0  1  0.535106  0.362874  0.519910  1
  H  H1  1  0.015196  0.137126  0.480090  1
  H  H2  1  0.464894  0.637126  0.480090  1
  H  H3  1  0.984804  0.862874  0.519910  1
  H  H4  1  0.227465  0.242604  0.617478  1
  H  H5  1  0.609987  0.257396  0.382522  1
  H  H6  1  0.000000  0.500000  0.000000  1
  H  H7  1  0.390013  0.742604  0.617478  1
  H  H8  1  0.772535  0.757396  0.382522  1
  H  H9  1  0.000000  0.000000  0.000000  1
  C  C10  1  0.646645  0.394522  0.813183  1
  C  C11  1  0.166538  0.894522  0.813183  1
  C  C12  1  0.353355  0.605478  0.186817  1
  C  C13  1  0.833462  0.105478  0.186817  1
  O  O14  1  0.325543  0.709963  0.145443  1
  O  O15  1  0.174893  0.490262  0.108614  1
  O  O16  1  0.933721  0.990262  0.108614  1
  O  O17  1  0.825107  0.509738  0.891386  1
  O  O18  1  0.180100  0.790037  0.854557  1
  O  O19  1  0.243336  0.895993  0.695722  1
  O  O20  1  0.819900  0.209963  0.145443  1
  O  O21  1  0.674457  0.290037  0.854557  1
  O  O22  1  0.447221  0.646856  0.576361  1
  O  O23  1  0.870860  0.853144  0.423639  1
  O  O24  1  0.552779  0.353144  0.423639  1
  O  O25  1  0.129140  0.146856  0.576361  1
  O  O26  1  0.756664  0.104007  0.304278  1
  O  O27  1  0.547614  0.604007  0.304278  1
  O  O28  1  0.066279  0.009738  0.891386  1
  O  O29  1  0.452386  0.395993  0.695722  1
  Na  Na30  1  0.686195  0.072402  0.695015  1
  Na  Na31  1  0.991180  0.427598  0.304985  1
  Na  Na32  1  0.313805  0.927598  0.304985  1
  Na  Na33  1  0.008820  0.572402  0.695015  1
  Na  Na34  1  0.253268  0.250000  0.000000  1
  Na  Na35  1  0.746732  0.750000  0.000000  1
