# generated using pymatgen
data_CoH2SeO5
_symmetry_space_group_name_H-M   'P 1'
_cell_length_a   5.41182059
_cell_length_b   5.41182060
_cell_length_c   7.69537845
_cell_angle_alpha   106.69159596
_cell_angle_beta   106.69159599
_cell_angle_gamma   97.86179942
_symmetry_Int_Tables_number   1
_chemical_formula_structural   CoH2SeO5
_chemical_formula_sum   'Co2 H4 Se2 O10'
_cell_volume   200.79529038
_cell_formula_units_Z   2
loop_
 _symmetry_equiv_pos_site_id
 _symmetry_equiv_pos_as_xyz
  1  'x, y, z'
loop_
 _atom_site_type_symbol
 _atom_site_label
 _atom_site_symmetry_multiplicity
 _atom_site_fract_x
 _atom_site_fract_y
 _atom_site_fract_z
 _atom_site_occupancy
  H  H0  1  0.629745  0.032413  0.202287  1
  H  H1  1  0.467587  0.870253  0.297712  1
  H  H2  1  0.370253  0.967586  0.797713  1
  H  H3  1  0.532414  0.129746  0.702287  1
  O  O4  1  0.188190  0.283531  0.421672  1
  O  O5  1  0.783532  0.688190  0.921672  1
  O  O6  1  0.811810  0.716468  0.578327  1
  O  O7  1  0.216469  0.311809  0.078327  1
  O  O8  1  0.249476  0.685702  0.849566  1
  O  O9  1  0.620983  0.879018  0.250000  1
  O  O10  1  0.750524  0.314297  0.150435  1
  O  O11  1  0.185702  0.749475  0.349565  1
  O  O12  1  0.379016  0.120984  0.750000  1
  O  O13  1  0.814297  0.250524  0.650434  1
  Co  Co14  1  0.500001  0.500001  0.000001  1
  Co  Co15  1  0.000001  0.000000  0.500000  1
  Se  Se16  1  0.914594  0.585407  0.750000  1
  Se  Se17  1  0.085407  0.414594  0.250000  1
