# generated using pymatgen
data_SrBiSe3
_symmetry_space_group_name_H-M   'P 1'
_cell_length_a   4.26780097
_cell_length_b   16.12663110
_cell_length_c   33.81257199
_cell_angle_alpha   90.00000000
_cell_angle_beta   90.00000000
_cell_angle_gamma   90.00000000
_symmetry_Int_Tables_number   1
_chemical_formula_structural   SrBiSe3
_chemical_formula_sum   'Sr16 Bi16 Se48'
_cell_volume   2327.15878296
_cell_formula_units_Z   16
loop_
 _symmetry_equiv_pos_site_id
 _symmetry_equiv_pos_as_xyz
  1  'x, y, z'
loop_
 _atom_site_type_symbol
 _atom_site_label
 _atom_site_symmetry_multiplicity
 _atom_site_fract_x
 _atom_site_fract_y
 _atom_site_fract_z
 _atom_site_occupancy
  Se  Se0  1  0.140160  0.555738  0.841972  1
  Se  Se1  1  0.640160  0.444262  0.658028  1
  Se  Se2  1  0.359840  0.055738  0.158028  1
  Se  Se3  1  0.859840  0.944262  0.341972  1
  Se  Se4  1  0.953161  0.611228  0.972322  1
  Se  Se5  1  0.453161  0.388772  0.527678  1
  Se  Se6  1  0.546839  0.111228  0.027678  1
  Se  Se7  1  0.046839  0.888772  0.472322  1
  Se  Se8  1  1.011353  0.889739  0.009329  1
  Se  Se9  1  0.511353  0.110261  0.490671  1
  Se  Se10  1  0.488647  0.389739  0.990671  1
  Se  Se11  1  -0.011353  0.610261  0.509329  1
  Se  Se12  1  0.510910  0.581818  0.896902  1
  Se  Se13  1  1.010910  0.418182  0.603098  1
  Se  Se14  1  -0.010910  0.081818  0.103098  1
  Se  Se15  1  0.489090  0.918182  0.396902  1
  Se  Se16  1  1.025303  0.790676  0.886827  1
  Se  Se17  1  0.525303  0.209324  0.613173  1
  Se  Se18  1  0.474697  0.290676  0.113173  1
  Se  Se19  1  0.496960  0.521853  0.785824  1
  Se  Se20  1  -0.025303  0.709324  0.386827  1
  Se  Se21  1  0.514476  0.771959  0.558092  1
  Se  Se22  1  0.485524  0.728041  0.058092  1
  Se  Se23  1  -0.014476  0.271959  0.441908  1
  Se  Se24  1  1.021876  0.718885  0.758225  1
  Se  Se25  1  0.521876  0.281115  0.741775  1
  Se  Se26  1  0.478124  0.218885  0.241775  1
  Se  Se27  1  -0.021876  0.781115  0.258225  1
  Se  Se28  1  -0.014269  0.856591  0.135491  1
  Se  Se29  1  0.485731  0.143409  0.364509  1
  Se  Se30  1  0.514269  0.356591  0.864509  1
  Se  Se31  1  1.014269  0.643409  0.635491  1
  Se  Se32  1  1.035274  0.004851  0.584652  1
  Se  Se33  1  0.535274  0.995149  0.915348  1
  Se  Se34  1  0.464726  0.504851  0.415348  1
  Se  Se35  1  -0.035274  0.495149  0.084652  1
  Se  Se36  1  0.520666  0.855153  0.677274  1
  Se  Se37  1  1.020666  0.144847  0.822726  1
  Se  Se38  1  -0.020666  0.355153  0.322726  1
  Se  Se39  1  0.479334  0.644847  0.177274  1
  Se  Se40  1  0.530964  0.919088  0.797723  1
  Se  Se41  1  1.030964  0.080912  0.702277  1
  Se  Se42  1  -0.030964  0.419088  0.202277  1
  Se  Se43  1  0.469036  0.580912  0.297723  1
  Se  Se44  1  0.503040  0.978147  0.285824  1
  Se  Se45  1  0.003040  0.021853  0.214176  1
  Se  Se46  1  0.996960  0.478147  0.714176  1
  Se  Se47  1  1.014476  0.228041  0.941908  1
  Sr  Sr48  1  0.503878  0.564561  0.576687  1
  Sr  Sr49  1  0.003878  0.435439  0.923313  1
  Sr  Sr50  1  0.996122  0.064561  0.423313  1
  Sr  Sr51  1  0.496122  0.935439  0.076687  1
  Sr  Sr52  1  -0.012194  0.130805  0.296459  1
  Sr  Sr53  1  0.487806  0.869195  0.203541  1
  Sr  Sr54  1  0.512194  0.630805  0.703541  1
  Sr  Sr55  1  1.012194  0.369195  0.796459  1
  Sr  Sr56  1  0.462576  0.783016  0.326944  1
  Sr  Sr57  1  -0.037424  0.216984  0.173056  1
  Sr  Sr58  1  1.037424  0.283016  0.673056  1
  Sr  Sr59  1  0.537424  0.716984  0.826944  1
  Sr  Sr60  1  1.020749  0.204084  0.543573  1
  Sr  Sr61  1  0.520749  0.795916  0.956427  1
  Sr  Sr62  1  0.479251  0.704084  0.456427  1
  Sr  Sr63  1  -0.020749  0.295916  0.043573  1
  Bi  Bi64  1  1.012429  0.951631  0.859324  1
  Bi  Bi65  1  0.512429  0.048369  0.640676  1
  Bi  Bi66  1  0.487571  0.451631  0.140676  1
  Bi  Bi67  1  -0.012429  0.548369  0.359324  1
  Bi  Bi68  1  1.007541  0.879560  0.734620  1
  Bi  Bi69  1  0.507541  0.120440  0.765380  1
  Bi  Bi70  1  0.492459  0.379560  0.265380  1
  Bi  Bi71  1  -0.007541  0.620440  0.234620  1
  Bi  Bi72  1  0.522094  0.948934  0.521451  1
  Bi  Bi73  1  1.022094  0.051066  0.978549  1
  Bi  Bi74  1  -0.022094  0.448934  0.478549  1
  Bi  Bi75  1  0.477906  0.551066  0.021451  1
  Bi  Bi76  1  1.011250  0.803072  0.611022  1
  Bi  Bi77  1  0.511250  0.196928  0.888978  1
  Bi  Bi78  1  0.488750  0.303072  0.388978  1
  Bi  Bi79  1  -0.011250  0.696928  0.111022  1
