# generated using pymatgen
data_ZnPb2F6
_symmetry_space_group_name_H-M   'P 1'
_cell_length_a   5.74180958
_cell_length_b   5.74180958
_cell_length_c   16.40590631
_cell_angle_alpha   90.00000000
_cell_angle_beta   90.00000000
_cell_angle_gamma   90.00000000
_symmetry_Int_Tables_number   1
_chemical_formula_structural   ZnPb2F6
_chemical_formula_sum   'Zn4 Pb8 F24'
_cell_volume   540.87610841
_cell_formula_units_Z   4
loop_
 _symmetry_equiv_pos_site_id
 _symmetry_equiv_pos_as_xyz
  1  'x, y, z'
loop_
 _atom_site_type_symbol
 _atom_site_label
 _atom_site_symmetry_multiplicity
 _atom_site_fract_x
 _atom_site_fract_y
 _atom_site_fract_z
 _atom_site_occupancy
  F  F0  1  0.750000  0.750000  0.758331  1
  F  F1  1  0.750000  0.750000  0.258331  1
  F  F2  1  0.250000  0.250000  0.741669  1
  F  F3  1  0.250000  0.250000  0.241669  1
  F  F4  1  0.750000  0.250000  0.250000  1
  F  F5  1  0.250000  0.750000  0.750000  1
  F  F6  1  0.250000  0.750000  0.250000  1
  F  F7  1  0.750000  0.250000  0.750000  1
  F  F8  1  0.750000  0.750000  0.960190  1
  F  F9  1  0.750000  0.750000  0.460190  1
  F  F10  1  0.250000  0.250000  0.539810  1
  F  F11  1  0.250000  0.250000  0.039810  1
  F  F12  1  0.063116  0.063116  0.380563  1
  F  F13  1  0.436884  0.063116  0.880563  1
  F  F14  1  0.063116  0.436884  0.880563  1
  F  F15  1  0.563116  0.936884  0.119437  1
  F  F16  1  0.936884  0.563116  0.119437  1
  F  F17  1  0.436884  0.436884  0.380563  1
  F  F18  1  0.563116  0.563116  0.619437  1
  F  F19  1  0.936884  0.936884  0.619437  1
  F  F20  1  0.750000  0.250000  0.000000  1
  F  F21  1  0.250000  0.750000  0.500000  1
  F  F22  1  0.250000  0.750000  0.000000  1
  F  F23  1  0.750000  0.250000  0.500000  1
  Zn  Zn24  1  0.500000  0.500000  0.500000  1
  Zn  Zn25  1  0.000000  0.500000  0.000000  1
  Zn  Zn26  1  0.500000  0.000000  0.000000  1
  Zn  Zn27  1  0.000000  0.000000  0.500000  1
  Pb  Pb28  1  0.011843  0.011843  0.842784  1
  Pb  Pb29  1  0.488157  0.488157  0.842784  1
  Pb  Pb30  1  0.511843  0.511843  0.157216  1
  Pb  Pb31  1  0.011843  0.488157  0.342784  1
  Pb  Pb32  1  0.488157  0.011843  0.342784  1
  Pb  Pb33  1  0.988157  0.511843  0.657216  1
  Pb  Pb34  1  0.511843  0.988157  0.657216  1
  Pb  Pb35  1  0.988157  0.988157  0.157216  1
