# generated using pymatgen
data_ThP7
_symmetry_space_group_name_H-M   'P 1'
_cell_length_a   5.62862573
_cell_length_b   10.27023626
_cell_length_c   10.45030513
_cell_angle_alpha   90.00000000
_cell_angle_beta   90.00000000
_cell_angle_gamma   90.00000000
_symmetry_Int_Tables_number   1
_chemical_formula_structural   ThP7
_chemical_formula_sum   'Th4 P28'
_cell_volume   604.10409164
_cell_formula_units_Z   4
loop_
 _symmetry_equiv_pos_site_id
 _symmetry_equiv_pos_as_xyz
  1  'x, y, z'
loop_
 _atom_site_type_symbol
 _atom_site_label
 _atom_site_symmetry_multiplicity
 _atom_site_fract_x
 _atom_site_fract_y
 _atom_site_fract_z
 _atom_site_occupancy
  Th  Th0  1  0.862701  0.510961  0.169247  1
  Th  Th1  1  0.362701  0.989039  0.830753  1
  Th  Th2  1  0.137299  0.010961  0.330753  1
  Th  Th3  1  0.637299  0.489039  0.669247  1
  P  P4  1  0.678466  0.754426  0.794968  1
  P  P5  1  0.178466  0.745574  0.205032  1
  P  P6  1  0.321534  0.254426  0.705032  1
  P  P7  1  0.821534  0.245574  0.294968  1
  P  P8  1  0.549950  0.731377  0.286495  1
  P  P9  1  0.049950  0.768623  0.713505  1
  P  P10  1  0.450050  0.231377  0.213505  1
  P  P11  1  0.950050  0.268623  0.786495  1
  P  P12  1  0.273691  0.759091  0.000797  1
  P  P13  1  0.773691  0.740909  0.999203  1
  P  P14  1  0.726309  0.259091  0.499203  1
  P  P15  1  0.226308  0.240909  0.500797  1
  P  P16  1  0.636394  0.941310  0.260353  1
  P  P17  1  0.136394  0.558690  0.739647  1
  P  P18  1  0.363606  0.441310  0.239647  1
  P  P19  1  0.863606  0.058690  0.760353  1
  P  P20  1  0.207162  0.550942  0.948076  1
  P  P21  1  0.707162  0.949058  0.051924  1
  P  P22  1  0.792838  0.050942  0.551924  1
  P  P23  1  0.292838  0.449058  0.448076  1
  P  P24  1  0.557812  0.448498  0.948729  1
  P  P25  1  0.057812  0.051502  0.051271  1
  P  P26  1  0.442188  0.948498  0.551271  1
  P  P27  1  0.942188  0.551502  0.448729  1
  P  P28  1  0.489364  0.240827  0.998595  1
  P  P29  1  0.989364  0.259173  0.001405  1
  P  P30  1  0.510636  0.740827  0.501405  1
  P  P31  1  0.010636  0.759173  0.498595  1
