# generated using pymatgen
data_RbCr5Se8
_symmetry_space_group_name_H-M   'P 1'
_cell_length_a   3.70307847
_cell_length_b   9.15595861
_cell_length_c   9.70429827
_cell_angle_alpha   104.72406647
_cell_angle_beta   100.99922904
_cell_angle_gamma   90.00000002
_symmetry_Int_Tables_number   1
_chemical_formula_structural   RbCr5Se8
_chemical_formula_sum   'Rb1 Cr5 Se8'
_cell_volume   311.96805034
_cell_formula_units_Z   1
loop_
 _symmetry_equiv_pos_site_id
 _symmetry_equiv_pos_as_xyz
  1  'x, y, z'
loop_
 _atom_site_type_symbol
 _atom_site_label
 _atom_site_symmetry_multiplicity
 _atom_site_fract_x
 _atom_site_fract_y
 _atom_site_fract_z
 _atom_site_occupancy
  Cr  Cr0  1  0.000000  0.000000  0.000000  1
  Cr  Cr1  1  0.295694  0.666320  0.591387  1
  Cr  Cr2  1  0.658875  0.979171  0.317750  1
  Cr  Cr3  1  0.341125  0.020828  0.682250  1
  Cr  Cr4  1  0.704306  0.333680  0.408613  1
  Se  Se5  1  0.238733  0.156910  0.477466  1
  Se  Se6  1  0.424636  0.847330  0.849272  1
  Se  Se7  1  0.575364  0.152670  0.150728  1
  Se  Se8  1  0.913460  0.169869  0.826920  1
  Se  Se9  1  0.086540  0.830131  0.173080  1
  Se  Se10  1  0.828366  0.511544  0.656732  1
  Se  Se11  1  0.171634  0.488456  0.343268  1
  Se  Se12  1  0.761267  0.843090  0.522534  1
  Rb  Rb13  1  0.500000  0.500000  0.000000  1
