# generated using pymatgen
data_KIn5S8
_symmetry_space_group_name_H-M   'P 1'
_cell_length_a   3.91682426
_cell_length_b   9.35456199
_cell_length_c   9.83857875
_cell_angle_alpha   102.65219776
_cell_angle_beta   101.48166679
_cell_angle_gamma   89.99999999
_symmetry_Int_Tables_number   1
_chemical_formula_structural   KIn5S8
_chemical_formula_sum   'K1 In5 S8'
_cell_volume   344.33651550
_cell_formula_units_Z   1
loop_
 _symmetry_equiv_pos_site_id
 _symmetry_equiv_pos_as_xyz
  1  'x, y, z'
loop_
 _atom_site_type_symbol
 _atom_site_label
 _atom_site_symmetry_multiplicity
 _atom_site_fract_x
 _atom_site_fract_y
 _atom_site_fract_z
 _atom_site_occupancy
  S  S0  1  0.835246  0.524184  0.670491  1
  S  S1  1  0.931173  0.217445  0.862346  1
  S  S2  1  0.068827  0.782555  0.137654  1
  S  S3  1  0.585416  0.124382  0.170832  1
  S  S4  1  0.414584  0.875618  0.829168  1
  S  S5  1  0.762506  0.847304  0.525013  1
  S  S6  1  0.237494  0.152696  0.474987  1
  S  S7  1  0.164754  0.475816  0.329509  1
  K  K8  1  0.500000  0.500000  0.000000  1
  In  In9  1  0.713060  0.338262  0.426120  1
  In  In10  1  0.644779  0.908047  0.289558  1
  In  In11  1  0.355221  0.091953  0.710442  1
  In  In12  1  0.286940  0.661738  0.573880  1
  In  In13  1  0.000000  0.000000  0.000000  1
