# generated using pymatgen
data_Zr(IO3)4
_symmetry_space_group_name_H-M   'P 1'
_cell_length_a   7.54299003
_cell_length_b   8.52943825
_cell_length_c   8.52943825
_cell_angle_alpha   90.00000000
_cell_angle_beta   90.00000000
_cell_angle_gamma   90.00000000
_symmetry_Int_Tables_number   1
_chemical_formula_structural   Zr(IO3)4
_chemical_formula_sum   'Zr2 I8 O24'
_cell_volume   548.76245775
_cell_formula_units_Z   2
loop_
 _symmetry_equiv_pos_site_id
 _symmetry_equiv_pos_as_xyz
  1  'x, y, z'
loop_
 _atom_site_type_symbol
 _atom_site_label
 _atom_site_symmetry_multiplicity
 _atom_site_fract_x
 _atom_site_fract_y
 _atom_site_fract_z
 _atom_site_occupancy
  O  O0  1  0.901328  0.339047  0.454379  1
  O  O1  1  0.901328  0.045621  0.339047  1
  O  O2  1  0.901328  0.454379  0.160953  1
  O  O3  1  0.901328  0.160953  0.045621  1
  O  O4  1  0.098672  0.660953  0.545621  1
  O  O5  1  0.098672  0.954379  0.660953  1
  O  O6  1  0.098672  0.545621  0.839047  1
  O  O7  1  0.098672  0.839047  0.954379  1
  O  O8  1  0.782744  0.543198  0.677622  1
  O  O9  1  0.782744  0.822378  0.543198  1
  O  O10  1  0.554531  0.150646  0.994168  1
  O  O11  1  0.554531  0.505832  0.150646  1
  O  O12  1  0.554531  0.994168  0.349354  1
  O  O13  1  0.554531  0.349354  0.505832  1
  O  O14  1  0.445469  0.849354  0.005832  1
  O  O15  1  0.445469  0.494168  0.849354  1
  O  O16  1  0.445469  0.005832  0.650646  1
  O  O17  1  0.445469  0.650646  0.494168  1
  O  O18  1  0.217256  0.043198  0.177622  1
  O  O19  1  0.217256  0.322378  0.043198  1
  O  O20  1  0.217256  0.177622  0.456802  1
  O  O21  1  0.217256  0.456802  0.322378  1
  O  O22  1  0.782744  0.956802  0.822378  1
  O  O23  1  0.782744  0.677622  0.956802  1
  Zr  Zr24  1  0.054523  0.250000  0.250000  1
  Zr  Zr25  1  0.945477  0.750000  0.750000  1
  I  I26  1  0.727685  0.471703  0.004372  1
  I  I27  1  0.727685  0.004372  0.028297  1
  I  I28  1  0.272315  0.504372  0.528297  1
  I  I29  1  0.272315  0.971703  0.504372  1
  I  I30  1  0.272315  0.528297  0.995628  1
  I  I31  1  0.272315  0.995628  0.971703  1
  I  I32  1  0.727685  0.028297  0.495628  1
  I  I33  1  0.727685  0.495628  0.471703  1
