# generated using pymatgen
data_RhF3
_symmetry_space_group_name_H-M   'P 1'
_cell_length_a   5.07968734
_cell_length_b   5.07968734
_cell_length_c   7.32240375
_cell_angle_alpha   90.00000000
_cell_angle_beta   90.00000000
_cell_angle_gamma   120.00000000
_symmetry_Int_Tables_number   1
_chemical_formula_structural   RhF3
_chemical_formula_sum   'Rh3 F9'
_cell_volume   163.62824303
_cell_formula_units_Z   3
loop_
 _symmetry_equiv_pos_site_id
 _symmetry_equiv_pos_as_xyz
  1  'x, y, z'
loop_
 _atom_site_type_symbol
 _atom_site_label
 _atom_site_symmetry_multiplicity
 _atom_site_fract_x
 _atom_site_fract_y
 _atom_site_fract_z
 _atom_site_occupancy
  F  F0  1  0.666616  -0.044598  0.822756  1
  F  F1  1  1.044598  0.711214  0.822756  1
  F  F2  1  0.288786  0.333384  0.822756  1
  F  F3  1  0.643073  0.643073  0.500000  1
  F  F4  1  0.356927  0.000000  0.500000  1
  F  F5  1  1.000000  0.356927  0.500000  1
  F  F6  1  -0.044598  0.666616  0.177244  1
  F  F7  1  0.333384  0.288786  0.177244  1
  F  F8  1  0.711214  1.044598  0.177244  1
  Rh  Rh9  1  0.666667  0.333333  0.339073  1
  Rh  Rh10  1  0.333333  0.666667  0.660927  1
  Rh  Rh11  1  0.000000  0.000000  0.000000  1
