# generated using pymatgen
data_S(ClO)2
_symmetry_space_group_name_H-M   'P 1'
_cell_length_a   5.78202941
_cell_length_b   6.18914720
_cell_length_c   8.70895155
_cell_angle_alpha   81.07963832
_cell_angle_beta   70.61227904
_cell_angle_gamma   62.15311413
_symmetry_Int_Tables_number   1
_chemical_formula_structural   S(ClO)2
_chemical_formula_sum   'S2 Cl4 O4'
_cell_volume   259.94053353
_cell_formula_units_Z   2
loop_
 _symmetry_equiv_pos_site_id
 _symmetry_equiv_pos_as_xyz
  1  'x, y, z'
loop_
 _atom_site_type_symbol
 _atom_site_label
 _atom_site_symmetry_multiplicity
 _atom_site_fract_x
 _atom_site_fract_y
 _atom_site_fract_z
 _atom_site_occupancy
  O  O0  1  0.009740  0.606326  0.635223  1
  O  O1  1  0.894964  0.106326  0.864777  1
  O  O2  1  0.251290  0.393674  0.364777  1
  O  O3  1  0.866067  0.893674  0.135223  1
  S  S4  1  0.249893  0.500000  0.500000  1
  S  S5  1  0.999893  0.000000  0.000000  1
  Cl  Cl6  1  0.391252  0.753809  0.411284  1
  Cl  Cl7  1  0.052536  0.253809  0.088716  1
  Cl  Cl8  1  0.395061  0.746191  0.911284  1
  Cl  Cl9  1  0.556345  0.246191  0.588716  1
