# generated using pymatgen
data_VPCl9
_symmetry_space_group_name_H-M   'P 1'
_cell_length_a   6.43891707
_cell_length_b   10.48731548
_cell_length_c   10.48731548
_cell_angle_alpha   107.88867532
_cell_angle_beta   90.00000000
_cell_angle_gamma   90.00000000
_symmetry_Int_Tables_number   1
_chemical_formula_structural   VPCl9
_chemical_formula_sum   'V2 P2 Cl18'
_cell_volume   673.93978149
_cell_formula_units_Z   2
loop_
 _symmetry_equiv_pos_site_id
 _symmetry_equiv_pos_as_xyz
  1  'x, y, z'
loop_
 _atom_site_type_symbol
 _atom_site_label
 _atom_site_symmetry_multiplicity
 _atom_site_fract_x
 _atom_site_fract_y
 _atom_site_fract_z
 _atom_site_occupancy
  P  P0  1  0.000000  0.031000  0.969000  1
  P  P1  1  0.000000  0.531000  0.469000  1
  Cl  Cl2  1  0.177354  0.372769  0.443507  1
  Cl  Cl3  1  0.822646  0.556493  0.627231  1
  Cl  Cl4  1  0.232264  0.689281  0.126905  1
  Cl  Cl5  1  0.767736  0.873095  0.310719  1
  Cl  Cl6  1  0.767736  0.189281  0.626905  1
  Cl  Cl7  1  0.232264  0.373095  0.810719  1
  Cl  Cl8  1  0.730191  0.531368  0.968632  1
  Cl  Cl9  1  0.269809  0.031368  0.468632  1
  Cl  Cl10  1  0.608479  0.168511  0.331489  1
  Cl  Cl11  1  0.391521  0.668511  0.831489  1
  Cl  Cl12  1  0.607820  0.893975  0.606025  1
  Cl  Cl13  1  0.392180  0.393975  0.106025  1
  Cl  Cl14  1  0.178086  0.688878  0.494120  1
  Cl  Cl15  1  0.821914  0.505880  0.311122  1
  Cl  Cl16  1  0.821914  0.188878  0.994120  1
  Cl  Cl17  1  0.178086  0.005880  0.811122  1
  Cl  Cl18  1  0.177354  0.056493  0.127231  1
  Cl  Cl19  1  0.822646  0.872769  0.943507  1
  V  V20  1  0.386641  0.531250  0.968750  1
  V  V21  1  0.613359  0.031250  0.468750  1
