# generated using pymatgen
data_CsCuBr3
_symmetry_space_group_name_H-M   'P 1'
_cell_length_a   7.58896499
_cell_length_b   7.58896500
_cell_length_c   13.05974548
_cell_angle_alpha   90.00000000
_cell_angle_beta   90.00000000
_cell_angle_gamma   117.81092302
_symmetry_Int_Tables_number   1
_chemical_formula_structural   CsCuBr3
_chemical_formula_sum   'Cs4 Cu4 Br12'
_cell_volume   665.26357352
_cell_formula_units_Z   4
loop_
 _symmetry_equiv_pos_site_id
 _symmetry_equiv_pos_as_xyz
  1  'x, y, z'
loop_
 _atom_site_type_symbol
 _atom_site_label
 _atom_site_symmetry_multiplicity
 _atom_site_fract_x
 _atom_site_fract_y
 _atom_site_fract_z
 _atom_site_occupancy
  Cu  Cu0  1  0.656364  0.354677  0.871735  1
  Cu  Cu1  1  0.343636  0.645323  0.371735  1
  Cu  Cu2  1  0.354677  0.656364  0.628265  1
  Cu  Cu3  1  0.645323  0.343636  0.128265  1
  Br  Br4  1  0.935555  0.472954  0.231937  1
  Br  Br5  1  0.064445  0.527046  0.731937  1
  Br  Br6  1  0.500379  0.500379  0.250000  1
  Br  Br7  1  0.499621  0.499621  0.750000  1
  Br  Br8  1  0.797466  0.202534  0.000000  1
  Br  Br9  1  0.202534  0.797466  0.500000  1
  Br  Br10  1  0.333460  0.191547  0.037811  1
  Br  Br11  1  0.666540  0.808453  0.537811  1
  Br  Br12  1  0.191547  0.333460  0.462189  1
  Br  Br13  1  0.808453  0.666540  0.962189  1
  Br  Br14  1  0.472954  0.935555  0.268063  1
  Br  Br15  1  0.527046  0.064445  0.768063  1
  Cs  Cs16  1  1.011761  1.011761  0.750000  1
  Cs  Cs17  1  -0.011761  -0.011761  0.250000  1
  Cs  Cs18  1  0.681406  0.318594  0.500000  1
  Cs  Cs19  1  0.318594  0.681406  0.000000  1
