# generated using pymatgen
data_Be2TlF5
_symmetry_space_group_name_H-M   'P 1'
_cell_length_a   4.71503127
_cell_length_b   8.18590887
_cell_length_c   12.80519858
_cell_angle_alpha   91.26756569
_cell_angle_beta   90.00000000
_cell_angle_gamma   90.00000000
_symmetry_Int_Tables_number   1
_chemical_formula_structural   Be2TlF5
_chemical_formula_sum   'Be8 Tl4 F20'
_cell_volume   494.11895283
_cell_formula_units_Z   4
loop_
 _symmetry_equiv_pos_site_id
 _symmetry_equiv_pos_as_xyz
  1  'x, y, z'
loop_
 _atom_site_type_symbol
 _atom_site_label
 _atom_site_symmetry_multiplicity
 _atom_site_fract_x
 _atom_site_fract_y
 _atom_site_fract_z
 _atom_site_occupancy
  Be  Be0  1  0.024344  0.332943  0.296959  1
  Be  Be1  1  0.024344  0.667057  0.203041  1
  Be  Be2  1  0.975656  0.667057  0.703041  1
  Be  Be3  1  0.975656  0.332943  0.796959  1
  Be  Be4  1  0.475151  0.168569  0.706390  1
  Be  Be5  1  0.475151  0.831431  0.793610  1
  Be  Be6  1  0.524849  0.831431  0.293610  1
  Be  Be7  1  0.524849  0.168569  0.206390  1
  F  F8  1  0.924281  0.500000  0.250000  1
  F  F9  1  0.155262  0.193129  0.741165  1
  F  F10  1  0.844738  0.193129  0.241165  1
  F  F11  1  0.844738  0.806871  0.258835  1
  F  F12  1  0.654673  0.306443  0.764255  1
  F  F13  1  0.155262  0.806871  0.758835  1
  F  F14  1  0.345327  0.693557  0.235745  1
  F  F15  1  0.345327  0.306443  0.264255  1
  F  F16  1  0.504116  0.827077  0.911494  1
  F  F17  1  0.504116  0.172923  0.588506  1
  F  F18  1  0.495884  0.172923  0.088506  1
  F  F19  1  0.495884  0.827077  0.411494  1
  F  F20  1  0.007237  0.331293  0.914805  1
  F  F21  1  0.007237  0.668707  0.585195  1
  F  F22  1  0.992763  0.668707  0.085195  1
  F  F23  1  0.992763  0.331293  0.414805  1
  F  F24  1  0.421802  0.000000  0.250000  1
  F  F25  1  0.578198  0.000000  0.750000  1
  F  F26  1  0.654673  0.693557  0.735745  1
  F  F27  1  0.075719  0.500000  0.750000  1
  Tl  Tl28  1  0.500000  0.500000  0.500000  1
  Tl  Tl29  1  0.500000  0.500000  0.000000  1
  Tl  Tl30  1  0.000000  0.000000  0.500000  1
  Tl  Tl31  1  0.000000  0.000000  0.000000  1
