# generated using pymatgen
data_Ni8Ge2B3
_symmetry_space_group_name_H-M   'P 1'
_cell_length_a   2.93299331
_cell_length_b   6.08446372
_cell_length_c   14.67955565
_cell_angle_alpha   90.00000000
_cell_angle_beta   90.00000000
_cell_angle_gamma   90.00000000
_symmetry_Int_Tables_number   1
_chemical_formula_structural   Ni8Ge2B3
_chemical_formula_sum   'Ni16 Ge4 B6'
_cell_volume   261.96681981
_cell_formula_units_Z   2
loop_
 _symmetry_equiv_pos_site_id
 _symmetry_equiv_pos_as_xyz
  1  'x, y, z'
loop_
 _atom_site_type_symbol
 _atom_site_label
 _atom_site_symmetry_multiplicity
 _atom_site_fract_x
 _atom_site_fract_y
 _atom_site_fract_z
 _atom_site_occupancy
  B  B0  1  0.250000  0.457080  0.250000  1
  B  B1  1  0.750000  0.542920  0.750000  1
  B  B2  1  0.250000  0.539418  0.532407  1
  B  B3  1  0.750000  0.460582  0.467593  1
  B  B4  1  0.250000  0.539418  0.967593  1
  B  B5  1  0.750000  0.460582  0.032406  1
  Ni  Ni6  1  0.250000  0.075677  0.250000  1
  Ni  Ni7  1  0.750000  0.366481  0.895351  1
  Ni  Ni8  1  0.250000  0.633519  0.104649  1
  Ni  Ni9  1  0.750000  0.366481  0.604649  1
  Ni  Ni10  1  0.250000  0.297425  0.750000  1
  Ni  Ni11  1  0.750000  0.924323  0.750000  1
  Ni  Ni12  1  0.750000  0.702575  0.250000  1
  Ni  Ni13  1  0.250000  0.200248  0.476424  1
  Ni  Ni14  1  0.250000  0.200248  0.023576  1
  Ni  Ni15  1  0.750000  0.799752  0.976424  1
  Ni  Ni16  1  0.750000  0.340890  0.336733  1
  Ni  Ni17  1  0.750000  0.799752  0.523576  1
  Ni  Ni18  1  0.250000  0.659110  0.836733  1
  Ni  Ni19  1  0.750000  0.340890  0.163267  1
  Ni  Ni20  1  0.250000  0.659110  0.663267  1
  Ni  Ni21  1  0.250000  0.633519  0.395351  1
  Ge  Ge22  1  0.250000  0.037510  0.874530  1
  Ge  Ge23  1  0.750000  0.962490  0.374530  1
  Ge  Ge24  1  0.250000  0.037510  0.625470  1
  Ge  Ge25  1  0.750000  0.962490  0.125470  1
