# generated using pymatgen
data_NaTeF5
_symmetry_space_group_name_H-M   'P 1'
_cell_length_a   6.04739345
_cell_length_b   7.38624951
_cell_length_c   10.39612735
_cell_angle_alpha   90.00000000
_cell_angle_beta   90.00000000
_cell_angle_gamma   90.00000000
_symmetry_Int_Tables_number   1
_chemical_formula_structural   NaTeF5
_chemical_formula_sum   'Na4 Te4 F20'
_cell_volume   464.36961002
_cell_formula_units_Z   4
loop_
 _symmetry_equiv_pos_site_id
 _symmetry_equiv_pos_as_xyz
  1  'x, y, z'
loop_
 _atom_site_type_symbol
 _atom_site_label
 _atom_site_symmetry_multiplicity
 _atom_site_fract_x
 _atom_site_fract_y
 _atom_site_fract_z
 _atom_site_occupancy
  Te  Te0  1  0.250000  0.651284  0.265179  1
  Te  Te1  1  0.750000  0.348716  0.734821  1
  Te  Te2  1  0.750000  0.151284  0.234821  1
  Te  Te3  1  0.250000  0.848716  0.765179  1
  F  F4  1  0.250000  0.397812  0.307681  1
  F  F5  1  0.750000  0.602188  0.692319  1
  F  F6  1  0.750000  0.897812  0.192319  1
  F  F7  1  0.250000  0.102188  0.807681  1
  F  F8  1  0.019378  0.651607  0.400640  1
  F  F9  1  0.519378  0.348393  0.599360  1
  F  F10  1  0.980622  0.151607  0.099360  1
  F  F11  1  0.480622  0.848393  0.900640  1
  F  F12  1  0.980622  0.348393  0.599360  1
  F  F13  1  0.480622  0.651607  0.400640  1
  F  F14  1  0.019378  0.848393  0.900640  1
  F  F15  1  0.519378  0.151607  0.099360  1
  F  F16  1  0.025419  0.557393  0.136136  1
  F  F17  1  0.525419  0.442607  0.863864  1
  F  F18  1  0.974581  0.057393  0.363864  1
  F  F19  1  0.474581  0.942607  0.636136  1
  F  F20  1  0.974581  0.442607  0.863864  1
  F  F21  1  0.474581  0.557393  0.136136  1
  F  F22  1  0.025419  0.942607  0.636136  1
  F  F23  1  0.525419  0.057393  0.363864  1
  Na  Na24  1  0.250000  0.315126  0.995289  1
  Na  Na25  1  0.750000  0.684874  0.004711  1
  Na  Na26  1  0.750000  0.815126  0.504711  1
  Na  Na27  1  0.250000  0.184874  0.495289  1
