# generated using pymatgen
data_B9H11C2
_symmetry_space_group_name_H-M   'P 1'
_cell_length_a   7.22261153
_cell_length_b   11.26214476
_cell_length_c   22.63239336
_cell_angle_alpha   94.25075360
_cell_angle_beta   90.00000000
_cell_angle_gamma   108.70277070
_symmetry_Int_Tables_number   1
_chemical_formula_structural   B9H11C2
_chemical_formula_sum   'B72 H88 C16'
_cell_volume   1738.40640489
_cell_formula_units_Z   8
loop_
 _symmetry_equiv_pos_site_id
 _symmetry_equiv_pos_as_xyz
  1  'x, y, z'
loop_
 _atom_site_type_symbol
 _atom_site_label
 _atom_site_symmetry_multiplicity
 _atom_site_fract_x
 _atom_site_fract_y
 _atom_site_fract_z
 _atom_site_occupancy
  H  H0  1  0.450842  0.587820  0.197405  1
  H  H1  1  0.182552  0.121117  0.298011  1
  H  H2  1  0.061436  0.878883  0.201989  1
  H  H3  1  0.794867  0.621404  0.634901  1
  H  H4  1  0.173463  0.378596  0.865099  1
  H  H5  1  0.205133  0.378596  0.365099  1
  H  H6  1  0.826537  0.621404  0.134901  1
  H  H7  1  0.145905  0.635268  0.562829  1
  H  H8  1  0.510637  0.364732  0.937171  1
  H  H9  1  0.854095  0.364732  0.437171  1
  H  H10  1  0.489363  0.635268  0.062829  1
  H  H11  1  0.399029  0.883882  0.560358  1
  H  H12  1  0.515147  0.116118  0.939642  1
  H  H13  1  0.600971  0.116118  0.439642  1
  H  H14  1  0.484853  0.883882  0.060358  1
  H  H15  1  0.566230  0.986084  0.656241  1
  H  H16  1  0.580146  0.013916  0.843759  1
  H  H17  1  0.433770  0.013916  0.343759  1
  H  H18  1  0.419854  0.986084  0.156241  1
  H  H19  1  0.537531  0.613528  0.741267  1
  H  H20  1  0.924004  0.386472  0.758733  1
  H  H21  1  0.462469  0.386472  0.258733  1
  H  H22  1  0.075996  0.613528  0.241267  1
  H  H23  1  0.136978  0.587820  0.697405  1
  H  H24  1  0.549158  0.412180  0.802595  1
  H  H25  1  0.863022  0.412180  0.302595  1
  H  H26  1  0.817448  0.878883  0.701989  1
  H  H27  1  0.150800  0.857776  0.668619  1
  H  H28  1  0.293024  0.142224  0.831381  1
  H  H29  1  0.849200  0.142224  0.331381  1
  H  H30  1  0.706976  0.857776  0.168619  1
  H  H31  1  0.450619  0.852171  0.756834  1
  H  H32  1  0.598448  0.147829  0.743166  1
  H  H33  1  0.549381  0.147829  0.243166  1
  H  H34  1  0.401552  0.852171  0.256834  1
  H  H35  1  0.491515  0.120592  0.585047  1
  H  H36  1  0.370924  0.879408  0.914953  1
  H  H37  1  0.508485  0.879408  0.414953  1
  H  H38  1  0.629076  0.120592  0.085047  1
  H  H39  1  0.245118  0.128338  0.698981  1
  H  H40  1  0.116780  0.871662  0.801019  1
  H  H41  1  0.754882  0.871662  0.301019  1
  H  H42  1  0.883220  0.128338  0.198981  1
  H  H43  1  0.043923  0.996109  0.578849  1
  H  H44  1  0.047814  0.003891  0.921151  1
  H  H45  1  0.956077  0.003891  0.421151  1
  H  H46  1  0.952186  0.996109  0.078849  1
  H  H47  1  0.252747  0.158034  0.479986  1
  H  H48  1  0.094713  0.841966  0.020014  1
  H  H49  1  0.747253  0.841966  0.520014  1
  H  H50  1  0.905287  0.158034  0.979986  1
  H  H51  1  0.585265  0.379933  0.537848  1
  H  H52  1  0.205332  0.620067  0.962152  1
  H  H53  1  0.414735  0.620067  0.462152  1
  H  H54  1  0.794668  0.379933  0.037848  1
  H  H55  1  0.569807  0.357098  0.674222  1
  H  H56  1  0.212710  0.642902  0.825778  1
  H  H57  1  0.430193  0.642902  0.325778  1
  H  H58  1  0.787290  0.357098  0.174222  1
  H  H59  1  0.874216  0.171251  0.662411  1
  H  H60  1  0.702965  0.828749  0.837589  1
  H  H61  1  0.125784  0.828749  0.337589  1
  H  H62  1  0.297035  0.171251  0.162411  1
  H  H63  1  0.865591  0.189402  0.530636  1
  H  H64  1  0.738638  0.782155  0.623378  1
  H  H65  1  0.956483  0.217845  0.876622  1
  H  H66  1  0.261362  0.217845  0.376622  1
  H  H67  1  0.043517  0.782155  0.123378  1
  H  H68  1  0.550976  0.633932  0.590512  1
  H  H69  1  0.917044  0.366068  0.909488  1
  H  H70  1  0.449024  0.366068  0.409488  1
  H  H71  1  0.082956  0.633932  0.090512  1
  H  H72  1  0.676188  0.810598  0.969364  1
  H  H73  1  0.134409  0.810598  0.469364  1
  H  H74  1  0.323812  0.189402  0.030636  1
  H  H75  1  0.188997  0.418094  0.505818  1
  H  H76  1  0.770903  0.581906  0.994182  1
  H  H77  1  0.811003  0.581906  0.494182  1
  H  H78  1  0.229097  0.418094  0.005818  1
  H  H79  1  0.191512  0.366479  0.703622  1
  H  H80  1  0.406787  0.399120  0.114963  1
  H  H81  1  0.007667  0.600880  0.385037  1
  H  H82  1  0.593213  0.600880  0.885037  1
  H  H83  1  0.992333  0.399120  0.614963  1
  H  H84  1  0.174967  0.366479  0.203622  1
  H  H85  1  0.808488  0.633521  0.296378  1
  H  H86  1  0.825033  0.633521  0.796378  1
  H  H87  1  0.938564  0.121117  0.798011  1
  B  B88  1  0.828733  0.416212  0.870985  1
  B  B89  1  0.587479  0.416212  0.370985  1
  B  B90  1  0.171267  0.583788  0.129015  1
  B  B91  1  0.273083  0.688130  0.598450  1
  B  B92  1  0.584952  0.311870  0.901550  1
  B  B93  1  0.726917  0.311870  0.401550  1
  B  B94  1  0.415048  0.688130  0.098450  1
  B  B95  1  0.516004  0.664217  0.698413  1
  B  B96  1  0.851787  0.335783  0.801587  1
  B  B97  1  0.483996  0.335783  0.301587  1
  B  B98  1  0.148213  0.664217  0.198413  1
  B  B99  1  0.274500  0.657435  0.674336  1
  B  B100  1  0.617065  0.342565  0.825664  1
  B  B101  1  0.725500  0.342565  0.325664  1
  B  B102  1  0.382935  0.657435  0.174336  1
  B  B103  1  0.267000  0.805813  0.656732  1
  B  B104  1  0.461187  0.194187  0.843268  1
  B  B105  1  0.733000  0.194187  0.343268  1
  B  B106  1  0.538813  0.805813  0.156732  1
  B  B107  1  0.442230  0.800103  0.708682  1
  B  B108  1  0.642127  0.199897  0.791318  1
  B  B109  1  0.557770  0.199897  0.291318  1
  B  B110  1  0.357873  0.800103  0.208682  1
  B  B111  1  0.380762  0.179763  0.590050  1
  B  B112  1  0.200999  0.820237  0.909950  1
  B  B113  1  0.619238  0.820237  0.409950  1
  B  B114  1  0.799001  0.179763  0.090050  1
  B  B115  1  0.241174  0.178387  0.654744  1
  B  B116  1  0.062787  0.821613  0.845256  1
  B  B117  1  0.758826  0.821613  0.345256  1
  B  B118  1  0.937213  0.178387  0.154744  1
  B  B119  1  0.121515  0.106928  0.586260  1
  B  B120  1  0.014587  0.893072  0.913740  1
  B  B121  1  0.878485  0.893072  0.413740  1
  B  B122  1  0.985413  0.106928  0.086260  1
  B  B123  1  0.243317  0.201956  0.529145  1
  B  B124  1  0.041361  0.798044  0.970855  1
  B  B125  1  0.756683  0.798044  0.470855  1
  B  B126  1  0.958639  0.201956  0.029145  1
  B  B127  1  0.437175  0.331532  0.562522  1
  B  B128  1  0.105643  0.668468  0.937478  1
  B  B129  1  0.562825  0.668468  0.437478  1
  B  B130  1  0.894357  0.331532  0.062522  1
  B  B131  1  0.435188  0.316582  0.639973  1
  B  B132  1  0.118606  0.683418  0.860027  1
  B  B133  1  0.564812  0.683418  0.360027  1
  B  B134  1  0.881394  0.316582  0.139973  1
  B  B135  1  0.017113  0.198478  0.633683  1
  B  B136  1  0.818635  0.801522  0.866317  1
  B  B137  1  0.982887  0.801522  0.366317  1
  B  B138  1  0.181365  0.198478  0.133683  1
  B  B139  1  0.018728  0.213985  0.556199  1
  B  B140  1  0.804743  0.786015  0.943801  1
  B  B141  1  0.981272  0.786015  0.443801  1
  B  B142  1  0.195257  0.213985  0.056199  1
  B  B143  1  0.213026  0.352121  0.541718  1
  B  B144  1  0.860905  0.647879  0.958282  1
  B  B145  1  0.786974  0.647879  0.458282  1
  B  B146  1  0.139095  0.352121  0.041718  1
  B  B147  1  0.335108  0.426508  0.609994  1
  B  B148  1  0.908599  0.573492  0.890006  1
  B  B149  1  0.664892  0.573492  0.390006  1
  B  B150  1  0.091401  0.426508  0.109994  1
  B  B151  1  0.999799  0.665506  0.139149  1
  B  B152  1  0.334293  0.334494  0.360851  1
  B  B153  1  0.000201  0.334494  0.860851  1
  B  B154  1  0.665707  0.665506  0.639149  1
  B  B155  1  0.137559  0.811864  0.175853  1
  B  B156  1  0.325695  0.188136  0.324147  1
  B  B157  1  0.862441  0.188136  0.824147  1
  B  B158  1  0.412521  0.583788  0.629015  1
  B  B159  1  0.674305  0.811864  0.675853  1
  C  C160  1  0.404385  0.823357  0.595322  1
  C  C161  1  0.581028  0.176643  0.904678  1
  C  C162  1  0.595615  0.176643  0.404678  1
  C  C163  1  0.418972  0.823357  0.095322  1
  C  C164  1  0.511546  0.883774  0.650259  1
  C  C165  1  0.627772  0.116226  0.849741  1
  C  C166  1  0.488454  0.116226  0.349741  1
  C  C167  1  0.372228  0.883774  0.150259  1
  C  C168  1  0.213583  0.322836  0.660825  1
  C  C169  1  0.890746  0.677164  0.839175  1
  C  C170  1  0.786417  0.677164  0.339175  1
  C  C171  1  0.109254  0.322836  0.160825  1
  C  C172  1  0.087819  0.342907  0.605187  1
  C  C173  1  0.744912  0.657093  0.894813  1
  C  C174  1  0.912181  0.657093  0.394813  1
  C  C175  1  0.255088  0.342907  0.105187  1
