# generated using pymatgen
data_Ho6(Ga3Co)7
_symmetry_space_group_name_H-M   'P 1'
_cell_length_a   4.13139471
_cell_length_b   16.66509146
_cell_length_c   16.66509146
_cell_angle_alpha   90.00000000
_cell_angle_beta   90.00000000
_cell_angle_gamma   90.00000000
_symmetry_Int_Tables_number   1
_chemical_formula_structural   Ho6(Ga3Co)7
_chemical_formula_sum   'Ho12 Ga42 Co14'
_cell_volume   1147.39272523
_cell_formula_units_Z   2
loop_
 _symmetry_equiv_pos_site_id
 _symmetry_equiv_pos_as_xyz
  1  'x, y, z'
loop_
 _atom_site_type_symbol
 _atom_site_label
 _atom_site_symmetry_multiplicity
 _atom_site_fract_x
 _atom_site_fract_y
 _atom_site_fract_z
 _atom_site_occupancy
  Co  Co0  1  0.000000  0.218897  0.718897  1
  Co  Co1  1  0.000000  0.281103  0.218897  1
  Co  Co2  1  0.000000  0.718897  0.781103  1
  Co  Co3  1  0.000000  0.781103  0.281103  1
  Co  Co4  1  0.000000  0.148575  0.463802  1
  Co  Co5  1  0.000000  0.536198  0.148575  1
  Co  Co6  1  0.000000  0.463802  0.851425  1
  Co  Co7  1  0.000000  0.851425  0.536198  1
  Co  Co8  1  0.000000  0.648575  0.036198  1
  Co  Co9  1  0.000000  0.351425  0.963802  1
  Co  Co10  1  0.000000  0.963802  0.648575  1
  Co  Co11  1  0.000000  0.036198  0.351425  1
  Co  Co12  1  0.000000  0.000000  0.000000  1
  Co  Co13  1  0.000000  0.500000  0.500000  1
  Ga  Ga14  1  0.000000  0.000000  0.500000  1
  Ga  Ga15  1  0.000000  0.500000  0.000000  1
  Ga  Ga16  1  0.000000  0.320491  0.820491  1
  Ga  Ga17  1  0.000000  0.179509  0.320491  1
  Ga  Ga18  1  0.000000  0.820491  0.679509  1
  Ga  Ga19  1  0.000000  0.679509  0.179509  1
  Ga  Ga20  1  0.500000  0.424413  0.924413  1
  Ga  Ga21  1  0.500000  0.075587  0.424413  1
  Ga  Ga22  1  0.500000  0.924413  0.575587  1
  Ga  Ga23  1  0.500000  0.575587  0.075587  1
  Ga  Ga24  1  0.000000  0.259844  0.075474  1
  Ga  Ga25  1  0.000000  0.924526  0.259844  1
  Ga  Ga26  1  0.000000  0.075474  0.740156  1
  Ga  Ga27  1  0.000000  0.740156  0.924526  1
  Ga  Ga28  1  0.000000  0.759844  0.424526  1
  Ga  Ga29  1  0.000000  0.240156  0.575474  1
  Ga  Ga30  1  0.000000  0.575474  0.759844  1
  Ga  Ga31  1  0.000000  0.424526  0.240156  1
  Ga  Ga32  1  0.500000  0.109702  0.031329  1
  Ga  Ga33  1  0.500000  0.968671  0.109702  1
  Ga  Ga34  1  0.500000  0.031329  0.890298  1
  Ga  Ga35  1  0.500000  0.890298  0.968671  1
  Ga  Ga36  1  0.500000  0.609702  0.468671  1
  Ga  Ga37  1  0.500000  0.390298  0.531329  1
  Ga  Ga38  1  0.500000  0.531329  0.609702  1
  Ga  Ga39  1  0.500000  0.468671  0.390298  1
  Ga  Ga40  1  0.500000  0.210449  0.178592  1
  Ga  Ga41  1  0.500000  0.821408  0.210449  1
  Ga  Ga42  1  0.500000  0.178592  0.789551  1
  Ga  Ga43  1  0.500000  0.789551  0.821408  1
  Ga  Ga44  1  0.500000  0.710449  0.321408  1
  Ga  Ga45  1  0.500000  0.289551  0.678592  1
  Ga  Ga46  1  0.500000  0.678592  0.710449  1
  Ga  Ga47  1  0.500000  0.321408  0.289551  1
  Ga  Ga48  1  0.500000  0.041363  0.270856  1
  Ga  Ga49  1  0.500000  0.729144  0.041363  1
  Ga  Ga50  1  0.500000  0.270856  0.958637  1
  Ga  Ga51  1  0.500000  0.958637  0.729144  1
  Ga  Ga52  1  0.500000  0.541363  0.229144  1
  Ga  Ga53  1  0.500000  0.458637  0.770856  1
  Ga  Ga54  1  0.500000  0.770856  0.541363  1
  Ga  Ga55  1  0.500000  0.229144  0.458637  1
  Ho  Ho56  1  0.500000  0.106699  0.606699  1
  Ho  Ho57  1  0.500000  0.393301  0.106699  1
  Ho  Ho58  1  0.500000  0.606699  0.893301  1
  Ho  Ho59  1  0.500000  0.893301  0.393301  1
  Ho  Ho60  1  0.000000  0.087675  0.157536  1
  Ho  Ho61  1  0.000000  0.842464  0.087675  1
  Ho  Ho62  1  0.000000  0.157536  0.912325  1
  Ho  Ho63  1  0.000000  0.912325  0.842464  1
  Ho  Ho64  1  0.000000  0.587675  0.342464  1
  Ho  Ho65  1  0.000000  0.412325  0.657536  1
  Ho  Ho66  1  0.000000  0.657536  0.587675  1
  Ho  Ho67  1  0.000000  0.342464  0.412325  1
