# generated using pymatgen
data_CrHO2
_symmetry_space_group_name_H-M   'P 1'
_cell_length_a   3.04076442
_cell_length_b   4.36961474
_cell_length_c   4.94854274
_cell_angle_alpha   90.00000000
_cell_angle_beta   90.00000000
_cell_angle_gamma   90.00000000
_symmetry_Int_Tables_number   1
_chemical_formula_structural   CrHO2
_chemical_formula_sum   'Cr2 H2 O4'
_cell_volume   65.75113413
_cell_formula_units_Z   2
loop_
 _symmetry_equiv_pos_site_id
 _symmetry_equiv_pos_as_xyz
  1  'x, y, z'
loop_
 _atom_site_type_symbol
 _atom_site_label
 _atom_site_symmetry_multiplicity
 _atom_site_fract_x
 _atom_site_fract_y
 _atom_site_fract_z
 _atom_site_occupancy
  H  H0  1  0.500001  0.209115  0.968218  1
  H  H1  1  0.000000  0.790885  0.468217  1
  O  O2  1  0.000000  0.514406  0.628565  1
  O  O3  1  0.500001  0.485594  0.128563  1
  O  O4  1  0.500001  0.012543  0.841585  1
  O  O5  1  0.000000  0.987457  0.341586  1
  Cr  Cr6  1  0.500001  0.263404  0.484532  1
  Cr  Cr7  1  0.000000  0.736597  0.984533  1
