# generated using pymatgen
data_CI4
_symmetry_space_group_name_H-M   'P 1'
_cell_length_a   6.68794412
_cell_length_b   6.68794412
_cell_length_c   6.81991086
_cell_angle_alpha   119.36193810
_cell_angle_beta   119.36193809
_cell_angle_gamma   89.99999997
_symmetry_Int_Tables_number   1
_chemical_formula_structural   CI4
_chemical_formula_sum   'C1 I4'
_cell_volume   219.79400150
_cell_formula_units_Z   1
loop_
 _symmetry_equiv_pos_site_id
 _symmetry_equiv_pos_as_xyz
  1  'x, y, z'
loop_
 _atom_site_type_symbol
 _atom_site_label
 _atom_site_symmetry_multiplicity
 _atom_site_fract_x
 _atom_site_fract_y
 _atom_site_fract_z
 _atom_site_occupancy
  C  C0  1  0.000000  0.000000  0.000000  1
  I  I1  1  0.316838  0.316838  0.258401  1
  I  I2  1  0.058438  0.683162  0.741599  1
  I  I3  1  0.683162  0.058438  0.741599  1
  I  I4  1  0.941562  0.941562  0.258401  1
