# generated using pymatgen
data_InFe2CuSe4
_symmetry_space_group_name_H-M   'P 1'
_cell_length_a   5.76497850
_cell_length_b   5.76497850
_cell_length_c   7.07047743
_cell_angle_alpha   114.05915260
_cell_angle_beta   114.05915261
_cell_angle_gamma   89.99999998
_symmetry_Int_Tables_number   1
_chemical_formula_structural   InFe2CuSe4
_chemical_formula_sum   'In1 Fe2 Cu1 Se4'
_cell_volume   191.99971006
_cell_formula_units_Z   1
loop_
 _symmetry_equiv_pos_site_id
 _symmetry_equiv_pos_as_xyz
  1  'x, y, z'
loop_
 _atom_site_type_symbol
 _atom_site_label
 _atom_site_symmetry_multiplicity
 _atom_site_fract_x
 _atom_site_fract_y
 _atom_site_fract_z
 _atom_site_occupancy
  Fe  Fe0  1  0.750000  0.250000  0.500000  1
  Fe  Fe1  1  0.250000  0.750000  0.500000  1
  Cu  Cu2  1  0.500000  0.500000  0.000000  1
  Se  Se3  1  0.399611  0.399611  0.264828  1
  Se  Se4  1  0.600389  0.134783  0.735172  1
  Se  Se5  1  0.134783  0.600389  0.735172  1
  Se  Se6  1  0.865217  0.865217  0.264828  1
  In  In7  1  0.000000  0.000000  0.000000  1
