# generated using pymatgen
data_SrRuO3
_symmetry_space_group_name_H-M   'P 1'
_cell_length_a   5.18836642
_cell_length_b   5.18407637
_cell_length_c   13.26736874
_cell_angle_alpha   90.00000000
_cell_angle_beta   90.00000000
_cell_angle_gamma   90.00000000
_symmetry_Int_Tables_number   1
_chemical_formula_structural   SrRuO3
_chemical_formula_sum   'Sr4 Ru4 O12'
_cell_volume   356.85092783
_cell_formula_units_Z   4
loop_
 _symmetry_equiv_pos_site_id
 _symmetry_equiv_pos_as_xyz
  1  'x, y, z'
loop_
 _atom_site_type_symbol
 _atom_site_label
 _atom_site_symmetry_multiplicity
 _atom_site_fract_x
 _atom_site_fract_y
 _atom_site_fract_z
 _atom_site_occupancy
  O  O0  1  0.750334  0.749646  0.503721  1
  O  O1  1  0.250334  0.750354  0.996279  1
  O  O2  1  0.749666  0.249646  0.496279  1
  O  O3  1  0.249666  0.250354  0.003721  1
  O  O4  1  0.249666  0.250354  0.496279  1
  O  O5  1  0.749666  0.249646  0.003721  1
  O  O6  1  0.250334  0.750354  0.503721  1
  O  O7  1  0.750334  0.749646  0.996279  1
  O  O8  1  0.503529  0.001374  0.750000  1
  O  O9  1  0.003529  0.498626  0.750000  1
  O  O10  1  0.996471  0.501374  0.250000  1
  O  O11  1  0.496471  0.998626  0.250000  1
  Sr  Sr12  1  0.003809  0.999797  0.750000  1
  Sr  Sr13  1  0.503809  0.500203  0.750000  1
  Sr  Sr14  1  0.496191  0.499797  0.250000  1
  Sr  Sr15  1  0.996191  0.000203  0.250000  1
  Ru  Ru16  1  0.000000  0.000000  0.500000  1
  Ru  Ru17  1  0.500000  0.500000  0.000000  1
  Ru  Ru18  1  0.500000  0.500000  0.500000  1
  Ru  Ru19  1  0.000000  0.000000  0.000000  1
