# generated using pymatgen
data_EuIn2Rh
_symmetry_space_group_name_H-M   'P 1'
_cell_length_a   4.33534485
_cell_length_b   5.71422015
_cell_length_c   8.23025435
_cell_angle_alpha   90.00000000
_cell_angle_beta   90.00000000
_cell_angle_gamma   112.29324184
_symmetry_Int_Tables_number   1
_chemical_formula_structural   EuIn2Rh
_chemical_formula_sum   'Eu2 In4 Rh2'
_cell_volume   188.64924233
_cell_formula_units_Z   2
loop_
 _symmetry_equiv_pos_site_id
 _symmetry_equiv_pos_as_xyz
  1  'x, y, z'
loop_
 _atom_site_type_symbol
 _atom_site_label
 _atom_site_symmetry_multiplicity
 _atom_site_fract_x
 _atom_site_fract_y
 _atom_site_fract_z
 _atom_site_occupancy
  Rh  Rh0  1  0.781692  0.563385  0.750000  1
  Rh  Rh1  1  0.218308  0.436615  0.250000  1
  In  In2  1  0.351065  0.702129  0.551280  1
  In  In3  1  0.648935  0.297871  0.448720  1
  In  In4  1  0.351065  0.702129  0.948720  1
  In  In5  1  0.648935  0.297871  0.051280  1
  Eu  Eu6  1  0.936695  0.873391  0.250000  1
  Eu  Eu7  1  0.063305  0.126609  0.750000  1
