# generated using pymatgen
data_LaP2
_symmetry_space_group_name_H-M   'P 1'
_cell_length_a   8.84827661
_cell_length_b   8.93346582
_cell_length_c   9.40460668
_cell_angle_alpha   118.25407500
_cell_angle_beta   117.95890072
_cell_angle_gamma   90.19113237
_symmetry_Int_Tables_number   1
_chemical_formula_structural   LaP2
_chemical_formula_sum   'La8 P16'
_cell_volume   553.62085314
_cell_formula_units_Z   8
loop_
 _symmetry_equiv_pos_site_id
 _symmetry_equiv_pos_as_xyz
  1  'x, y, z'
loop_
 _atom_site_type_symbol
 _atom_site_label
 _atom_site_symmetry_multiplicity
 _atom_site_fract_x
 _atom_site_fract_y
 _atom_site_fract_z
 _atom_site_occupancy
  P  P0  1  0.183830  0.278764  0.730926  1
  P  P1  1  0.452905  0.047839  0.269074  1
  P  P2  1  0.246760  0.350594  0.567328  1
  P  P3  1  0.679432  0.283266  0.432672  1
  P  P4  1  0.797576  0.207658  0.242285  1
  P  P5  1  0.555291  0.465374  0.757715  1
  P  P6  1  0.662995  0.411299  0.990137  1
  P  P7  1  0.672858  0.921162  0.009863  1
  P  P8  1  0.231933  0.431341  0.234481  1
  P  P9  1  0.997452  0.696860  0.765519  1
  P  P10  1  0.280987  0.681196  0.245437  1
  P  P11  1  0.035550  0.935759  0.754563  1
  P  P12  1  0.807045  0.047125  0.742843  1
  P  P13  1  0.064202  0.804282  0.257157  1
  P  P14  1  0.409865  0.864578  0.760444  1
  P  P15  1  0.649421  0.604134  0.239556  1
  La  La16  1  0.034262  0.591924  0.423231  1
  La  La17  1  0.611031  0.668693  0.576769  1
  La  La18  1  0.942533  0.440930  0.884472  1
  La  La19  1  0.058061  0.056457  0.115528  1
  La  La20  1  0.421973  0.069205  0.585862  1
  La  La21  1  0.836111  0.983342  0.414138  1
  La  La22  1  0.376334  0.679780  0.954142  1
  La  La23  1  0.422192  0.225637  0.045858  1
