# generated using pymatgen
data_Tb(AlCl4)3
_symmetry_space_group_name_H-M   'P 1'
_cell_length_a   10.84032475
_cell_length_b   10.84032475
_cell_length_c   16.04380664
_cell_angle_alpha   90.00000000
_cell_angle_beta   90.00000000
_cell_angle_gamma   119.99999997
_symmetry_Int_Tables_number   1
_chemical_formula_structural   Tb(AlCl4)3
_chemical_formula_sum   'Tb3 Al9 Cl36'
_cell_volume   1632.76106878
_cell_formula_units_Z   3
loop_
 _symmetry_equiv_pos_site_id
 _symmetry_equiv_pos_as_xyz
  1  'x, y, z'
loop_
 _atom_site_type_symbol
 _atom_site_label
 _atom_site_symmetry_multiplicity
 _atom_site_fract_x
 _atom_site_fract_y
 _atom_site_fract_z
 _atom_site_occupancy
  Al  Al0  1  0.731871  0.268129  0.833333  1
  Al  Al1  1  0.128429  0.763352  0.603472  1
  Al  Al2  1  0.236648  0.365077  0.936806  1
  Al  Al3  1  0.634923  0.871571  0.270139  1
  Al  Al4  1  0.731871  0.463743  0.166667  1
  Al  Al5  1  0.536257  0.268129  0.500000  1
  Al  Al6  1  0.128429  0.365077  0.396528  1
  Al  Al7  1  0.634923  0.763352  0.729861  1
  Al  Al8  1  0.236648  0.871571  0.063194  1
  Cl  Cl9  1  1.008584  0.841620  0.544400  1
  Cl  Cl10  1  0.833036  -0.008584  0.211067  1
  Cl  Cl11  1  0.158380  0.166964  0.877733  1
  Cl  Cl12  1  0.791110  0.591001  0.279257  1
  Cl  Cl13  1  0.408999  0.200109  0.612591  1
  Cl  Cl14  1  0.799891  0.208890  0.945924  1
  Cl  Cl15  1  0.408999  0.208890  0.387409  1
  Cl  Cl16  1  0.799891  0.591001  0.054076  1
  Cl  Cl17  1  0.791110  0.200109  0.720743  1
  Cl  Cl18  1  0.225744  0.345438  0.278305  1
  Cl  Cl19  1  0.654562  0.880306  0.611638  1
  Cl  Cl20  1  0.119694  0.774256  0.944972  1
  Cl  Cl21  1  0.654562  0.774256  0.388362  1
  Cl  Cl22  1  0.119694  0.345438  0.055028  1
  Cl  Cl23  1  0.225744  0.880306  0.721695  1
  Cl  Cl24  1  0.503991  0.662964  0.205151  1
  Cl  Cl25  1  0.337036  0.841028  0.538485  1
  Cl  Cl26  1  0.158972  0.496009  0.871818  1
  Cl  Cl27  1  0.337036  0.496009  0.461515  1
  Cl  Cl28  1  0.158972  0.662964  0.128182  1
  Cl  Cl29  1  0.503991  0.841028  0.794849  1
  Cl  Cl30  1  0.660888  0.495775  0.482123  1
  Cl  Cl31  1  0.504225  0.165113  0.815456  1
  Cl  Cl32  1  0.834887  0.339112  0.148790  1
  Cl  Cl33  1  0.504225  0.339112  0.184544  1
  Cl  Cl34  1  0.834887  0.495775  0.851210  1
  Cl  Cl35  1  0.660888  0.165113  0.517877  1
  Cl  Cl36  1  0.030023  0.487875  0.375963  1
  Cl  Cl37  1  0.512125  0.542147  0.709296  1
  Cl  Cl38  1  0.457853  0.969977  0.042630  1
  Cl  Cl39  1  0.512125  0.969977  0.290704  1
  Cl  Cl40  1  0.457853  0.487875  0.957370  1
  Cl  Cl41  1  0.030023  0.542147  0.624037  1
  Cl  Cl42  1  1.008584  0.166964  0.455600  1
  Cl  Cl43  1  0.833036  0.841620  0.788933  1
  Cl  Cl44  1  0.158380  -0.008584  0.122267  1
  Tb  Tb45  1  0.990765  0.495383  0.000000  1
  Tb  Tb46  1  0.504617  0.009235  0.666667  1
  Tb  Tb47  1  0.504617  0.495383  0.333333  1
