# generated using pymatgen
data_H4I3N
_symmetry_space_group_name_H-M   'P 1'
_cell_length_a   6.82521959
_cell_length_b   9.82810230
_cell_length_c   10.93783134
_cell_angle_alpha   90.00000000
_cell_angle_beta   90.00000000
_cell_angle_gamma   90.00000000
_symmetry_Int_Tables_number   1
_chemical_formula_structural   H4I3N
_chemical_formula_sum   'H16 I12 N4'
_cell_volume   733.69831102
_cell_formula_units_Z   4
loop_
 _symmetry_equiv_pos_site_id
 _symmetry_equiv_pos_as_xyz
  1  'x, y, z'
loop_
 _atom_site_type_symbol
 _atom_site_label
 _atom_site_symmetry_multiplicity
 _atom_site_fract_x
 _atom_site_fract_y
 _atom_site_fract_z
 _atom_site_occupancy
  I  I0  1  0.250000  0.349279  0.158219  1
  I  I1  1  0.750000  0.650721  0.841781  1
  I  I2  1  0.750000  0.849279  0.341781  1
  I  I3  1  0.250000  0.150721  0.658219  1
  I  I4  1  0.250000  0.553280  0.375152  1
  I  I5  1  0.750000  0.446720  0.624848  1
  I  I6  1  0.750000  0.053280  0.124848  1
  I  I7  1  0.250000  0.946720  0.875152  1
  I  I8  1  0.250000  0.734981  0.577541  1
  I  I9  1  0.750000  0.265019  0.422459  1
  I  I10  1  0.750000  0.234981  0.922459  1
  I  I11  1  0.250000  0.765019  0.077541  1
  N  N12  1  0.250000  0.026107  0.337568  1
  N  N13  1  0.750000  0.973893  0.662432  1
  N  N14  1  0.750000  0.526107  0.162432  1
  N  N15  1  0.250000  0.473893  0.837568  1
  H  H16  1  0.250000  0.069838  0.424174  1
  H  H17  1  0.750000  0.930162  0.575826  1
  H  H18  1  0.750000  0.569838  0.075826  1
  H  H19  1  0.250000  0.430162  0.924174  1
  H  H20  1  0.250000  0.102645  0.271985  1
  H  H21  1  0.750000  0.897355  0.728015  1
  H  H22  1  0.750000  0.602645  0.228015  1
  H  H23  1  0.250000  0.397355  0.771985  1
  H  H24  1  0.125662  0.966307  0.328128  1
  H  H25  1  0.625662  0.033693  0.671872  1
  H  H26  1  0.874338  0.466307  0.171872  1
  H  H27  1  0.374338  0.533693  0.828128  1
  H  H28  1  0.874338  0.033693  0.671872  1
  H  H29  1  0.374338  0.966307  0.328128  1
  H  H30  1  0.125662  0.533693  0.828128  1
  H  H31  1  0.625662  0.466307  0.171872  1
