# generated using pymatgen
data_Na5LiN2
_symmetry_space_group_name_H-M   'P 1'
_cell_length_a   4.42927067
_cell_length_b   4.40026693
_cell_length_c   7.67275169
_cell_angle_alpha   89.99514827
_cell_angle_beta   90.08443310
_cell_angle_gamma   90.13768767
_symmetry_Int_Tables_number   1
_chemical_formula_structural   Na5LiN2
_chemical_formula_sum   'Na5 Li1 N2'
_cell_volume   149.54113021
_cell_formula_units_Z   1
loop_
 _symmetry_equiv_pos_site_id
 _symmetry_equiv_pos_as_xyz
  1  'x, y, z'
loop_
 _atom_site_type_symbol
 _atom_site_label
 _atom_site_symmetry_multiplicity
 _atom_site_fract_x
 _atom_site_fract_y
 _atom_site_fract_z
 _atom_site_occupancy
  Li  Li0  1  0.268342  0.998592  0.212706  1
  N  N1  1  0.768708  0.501814  0.711640  1
  N  N2  1  0.268575  0.496658  0.211153  1
  Na  Na3  1  0.769301  0.394826  0.044142  1
  Na  Na4  1  0.270394  0.592925  0.881945  1
  Na  Na5  1  0.769111  0.591395  0.372126  1
  Na  Na6  1  0.270365  0.419179  0.543282  1
  Na  Na7  1  0.774204  0.001611  0.706005  1
