# generated using pymatgen
data_RbH3(CO2)2
_symmetry_space_group_name_H-M   'P 1'
_cell_length_a   7.85319946
_cell_length_b   7.98421866
_cell_length_c   18.20060091
_cell_angle_alpha   90.00000000
_cell_angle_beta   90.00000000
_cell_angle_gamma   90.00000000
_symmetry_Int_Tables_number   1
_chemical_formula_structural   RbH3(CO2)2
_chemical_formula_sum   'Rb8 H24 C16 O32'
_cell_volume   1141.20792044
_cell_formula_units_Z   8
loop_
 _symmetry_equiv_pos_site_id
 _symmetry_equiv_pos_as_xyz
  1  'x, y, z'
loop_
 _atom_site_type_symbol
 _atom_site_label
 _atom_site_symmetry_multiplicity
 _atom_site_fract_x
 _atom_site_fract_y
 _atom_site_fract_z
 _atom_site_occupancy
  H  H0  1  0.029257  0.078576  0.768477  1
  H  H1  1  0.529257  0.921424  0.731523  1
  H  H2  1  0.470743  0.578576  0.231523  1
  H  H3  1  0.970743  0.421424  0.268477  1
  H  H4  1  0.970743  0.921424  0.231523  1
  H  H5  1  0.470743  0.078576  0.268477  1
  H  H6  1  0.529257  0.421424  0.768477  1
  H  H7  1  0.029257  0.578576  0.731523  1
  H  H8  1  0.237161  0.683454  0.797325  1
  H  H9  1  0.737161  0.316546  0.702675  1
  H  H10  1  0.262839  0.183454  0.202675  1
  H  H11  1  0.762839  0.816546  0.297325  1
  H  H12  1  0.762839  0.316546  0.202675  1
  H  H13  1  0.262839  0.683454  0.297325  1
  H  H14  1  0.737161  0.816546  0.797325  1
  H  H15  1  0.237161  0.183454  0.702675  1
  H  H16  1  0.862494  0.248247  0.844408  1
  H  H17  1  0.362494  0.751753  0.655592  1
  H  H18  1  0.637506  0.748247  0.155592  1
  H  H19  1  0.137506  0.251753  0.344408  1
  H  H20  1  0.137506  0.751753  0.155592  1
  H  H21  1  0.637506  0.248247  0.344408  1
  H  H22  1  0.362494  0.251753  0.844408  1
  H  H23  1  0.862494  0.748247  0.655592  1
  C  C24  1  0.632938  0.372201  0.669342  1
  C  C25  1  0.132938  0.627799  0.830658  1
  C  C26  1  0.867062  0.872201  0.330658  1
  C  C27  1  0.367062  0.127799  0.169342  1
  C  C28  1  0.367062  0.627799  0.330658  1
  C  C29  1  0.867062  0.372201  0.169342  1
  C  C30  1  0.132938  0.127799  0.669342  1
  C  C31  1  0.632938  0.872201  0.830658  1
  C  C32  1  0.967667  0.186703  0.875250  1
  C  C33  1  0.467667  0.813297  0.624750  1
  C  C34  1  0.532333  0.686703  0.124750  1
  C  C35  1  0.032333  0.313297  0.375250  1
  C  C36  1  0.032333  0.813297  0.124750  1
  C  C37  1  0.532333  0.186703  0.375250  1
  C  C38  1  0.467667  0.313297  0.875250  1
  C  C39  1  0.967667  0.686703  0.624750  1
  O  O40  1  0.994963  0.432425  0.206600  1
  O  O41  1  0.494963  0.567575  0.293400  1
  O  O42  1  0.505037  0.932425  0.793400  1
  O  O43  1  0.005037  0.067575  0.706600  1
  O  O44  1  0.005037  0.567575  0.793400  1
  O  O45  1  0.505037  0.432425  0.706600  1
  O  O46  1  0.494963  0.067575  0.206600  1
  O  O47  1  0.994963  0.932425  0.293400  1
  O  O48  1  0.641845  0.373814  0.601237  1
  O  O49  1  0.141845  0.626186  0.898763  1
  O  O50  1  0.858155  0.873814  0.398763  1
  O  O51  1  0.358155  0.126186  0.101237  1
  O  O52  1  0.358155  0.626186  0.398763  1
  O  O53  1  0.858155  0.373814  0.101237  1
  O  O54  1  0.141845  0.126186  0.601237  1
  O  O55  1  0.641845  0.873814  0.898763  1
  O  O56  1  0.935883  0.413022  0.338080  1
  O  O57  1  0.435883  0.586978  0.161920  1
  O  O58  1  0.564117  0.913022  0.661920  1
  O  O59  1  0.064117  0.086978  0.838080  1
  O  O60  1  0.064117  0.586978  0.661920  1
  O  O61  1  0.564117  0.413022  0.838080  1
  O  O62  1  0.435883  0.086978  0.338080  1
  O  O63  1  0.935883  0.913022  0.161920  1
  O  O64  1  0.984985  0.217135  0.942358  1
  O  O65  1  0.484985  0.782865  0.557642  1
  O  O66  1  0.515015  0.717135  0.057642  1
  O  O67  1  0.015015  0.282865  0.442358  1
  O  O68  1  0.015015  0.782865  0.057642  1
  O  O69  1  0.515015  0.217135  0.442358  1
  O  O70  1  0.484985  0.282865  0.942358  1
  O  O71  1  0.984985  0.717135  0.557642  1
  Rb  Rb72  1  0.780366  0.558792  0.960450  1
  Rb  Rb73  1  0.280366  0.441208  0.539550  1
  Rb  Rb74  1  0.719634  0.058792  0.039550  1
  Rb  Rb75  1  0.219634  0.941208  0.460450  1
  Rb  Rb76  1  0.219634  0.441208  0.039550  1
  Rb  Rb77  1  0.719634  0.558792  0.460450  1
  Rb  Rb78  1  0.280366  0.941208  0.960450  1
  Rb  Rb79  1  0.780366  0.058792  0.539550  1
