# generated using pymatgen
data_KBH4
_symmetry_space_group_name_H-M   'P 1'
_cell_length_a   3.41186530
_cell_length_b   8.81751252
_cell_length_c   8.16051625
_cell_angle_alpha   90.00000000
_cell_angle_beta   90.00000000
_cell_angle_gamma   90.00000000
_symmetry_Int_Tables_number   1
_chemical_formula_structural   KBH4
_chemical_formula_sum   'K4 B4 H16'
_cell_volume   245.50231734
_cell_formula_units_Z   4
loop_
 _symmetry_equiv_pos_site_id
 _symmetry_equiv_pos_as_xyz
  1  'x, y, z'
loop_
 _atom_site_type_symbol
 _atom_site_label
 _atom_site_symmetry_multiplicity
 _atom_site_fract_x
 _atom_site_fract_y
 _atom_site_fract_z
 _atom_site_occupancy
  H  H0  1  0.640081  0.007365  0.393093  1
  H  H1  1  0.140081  0.992635  0.606907  1
  H  H2  1  0.359919  0.507365  0.106907  1
  H  H3  1  0.859919  0.492635  0.893093  1
  H  H4  1  0.359919  0.992635  0.606907  1
  H  H5  1  0.859919  0.007365  0.393093  1
  H  H6  1  0.640081  0.492635  0.893093  1
  H  H7  1  0.140081  0.507365  0.106907  1
  H  H8  1  0.250000  0.682001  0.493878  1
  H  H9  1  0.750000  0.317999  0.506122  1
  H  H10  1  0.750000  0.182001  0.006122  1
  H  H11  1  0.250000  0.817999  0.993878  1
  H  H12  1  0.250000  0.951330  0.185903  1
  H  H13  1  0.750000  0.048670  0.814097  1
  H  H14  1  0.750000  0.451330  0.314097  1
  H  H15  1  0.250000  0.548670  0.685903  1
  B  B16  1  0.250000  0.960961  0.029166  1
  B  B17  1  0.750000  0.039039  0.970834  1
  B  B18  1  0.750000  0.460961  0.470834  1
  B  B19  1  0.250000  0.539039  0.529166  1
  K  K20  1  0.250000  0.259940  0.753520  1
  K  K21  1  0.750000  0.740060  0.246480  1
  K  K22  1  0.750000  0.759940  0.746480  1
  K  K23  1  0.250000  0.240060  0.253520  1
