# generated using pymatgen
data_NaTiF4
_symmetry_space_group_name_H-M   'P 1'
_cell_length_a   5.07689065
_cell_length_b   5.83558192
_cell_length_c   11.16039603
_cell_angle_alpha   90.00000000
_cell_angle_beta   90.00000000
_cell_angle_gamma   90.00000000
_symmetry_Int_Tables_number   1
_chemical_formula_structural   NaTiF4
_chemical_formula_sum   'Na4 Ti4 F16'
_cell_volume   330.64471499
_cell_formula_units_Z   4
loop_
 _symmetry_equiv_pos_site_id
 _symmetry_equiv_pos_as_xyz
  1  'x, y, z'
loop_
 _atom_site_type_symbol
 _atom_site_label
 _atom_site_symmetry_multiplicity
 _atom_site_fract_x
 _atom_site_fract_y
 _atom_site_fract_z
 _atom_site_occupancy
  Ti  Ti0  1  0.000000  0.844102  0.250000  1
  Ti  Ti1  1  0.500000  0.655898  0.750000  1
  Ti  Ti2  1  0.000000  0.155898  0.750000  1
  Ti  Ti3  1  0.500000  0.344102  0.250000  1
  Na  Na4  1  0.000000  0.500000  0.000000  1
  Na  Na5  1  0.500000  0.000000  0.000000  1
  Na  Na6  1  0.000000  0.500000  0.500000  1
  Na  Na7  1  0.500000  0.000000  0.500000  1
  F  F8  1  0.745466  0.086315  0.190358  1
  F  F9  1  0.245466  0.413685  0.809642  1
  F  F10  1  0.254534  0.086315  0.309642  1
  F  F11  1  0.754534  0.413685  0.690358  1
  F  F12  1  0.254534  0.913685  0.809642  1
  F  F13  1  0.754534  0.586315  0.190358  1
  F  F14  1  0.745466  0.913685  0.690358  1
  F  F15  1  0.245466  0.586315  0.309642  1
  F  F16  1  0.831078  0.820641  0.402566  1
  F  F17  1  0.331078  0.679359  0.597434  1
  F  F18  1  0.168922  0.820641  0.097434  1
  F  F19  1  0.668922  0.679359  0.902566  1
  F  F20  1  0.168922  0.179359  0.597434  1
  F  F21  1  0.668922  0.320641  0.402566  1
  F  F22  1  0.831078  0.179359  0.902566  1
  F  F23  1  0.331078  0.320641  0.097434  1
