# generated using pymatgen
data_SOF2
_symmetry_space_group_name_H-M   'P 1'
_cell_length_a   5.42409806
_cell_length_b   7.28013525
_cell_length_c   14.99343540
_cell_angle_alpha   90.00000000
_cell_angle_beta   97.26279561
_cell_angle_gamma   90.00000000
_symmetry_Int_Tables_number   1
_chemical_formula_structural   SOF2
_chemical_formula_sum   'S8 O8 F16'
_cell_volume   587.31301191
_cell_formula_units_Z   8
loop_
 _symmetry_equiv_pos_site_id
 _symmetry_equiv_pos_as_xyz
  1  'x, y, z'
loop_
 _atom_site_type_symbol
 _atom_site_label
 _atom_site_symmetry_multiplicity
 _atom_site_fract_x
 _atom_site_fract_y
 _atom_site_fract_z
 _atom_site_occupancy
  S  S0  1  0.047467  0.339483  0.363906  1
  S  S1  1  0.952533  0.839483  0.136094  1
  S  S2  1  0.952533  0.660517  0.636094  1
  S  S3  1  0.047467  0.160517  0.863906  1
  S  S4  1  0.465639  0.278160  0.148684  1
  S  S5  1  0.534361  0.778160  0.351316  1
  S  S6  1  0.534361  0.721840  0.851316  1
  S  S7  1  0.465639  0.221840  0.648684  1
  O  O8  1  0.027844  0.525514  0.332200  1
  O  O9  1  0.972156  0.025514  0.167800  1
  O  O10  1  0.972156  0.474486  0.667800  1
  O  O11  1  0.027844  0.974486  0.832200  1
  O  O12  1  0.505422  0.301235  0.244476  1
  O  O13  1  0.494578  0.801235  0.255524  1
  O  O14  1  0.494578  0.698765  0.755524  1
  O  O15  1  0.505422  0.198765  0.744476  1
  F  F16  1  0.864096  0.324448  0.441440  1
  F  F17  1  0.135904  0.824448  0.058560  1
  F  F18  1  0.135904  0.675552  0.558560  1
  F  F19  1  0.864096  0.175552  0.941440  1
  F  F20  1  0.298546  0.333415  0.436483  1
  F  F21  1  0.701454  0.833415  0.063517  1
  F  F22  1  0.701454  0.666585  0.563517  1
  F  F23  1  0.298546  0.166585  0.936483  1
  F  F24  1  0.231170  0.410074  0.113235  1
  F  F25  1  0.768830  0.910074  0.386765  1
  F  F26  1  0.768830  0.589926  0.886765  1
  F  F27  1  0.231170  0.089926  0.613235  1
  F  F28  1  0.666112  0.411967  0.108912  1
  F  F29  1  0.333888  0.911967  0.391088  1
  F  F30  1  0.333888  0.588033  0.891088  1
  F  F31  1  0.666112  0.088033  0.608912  1
