# generated using pymatgen
data_BePH4NO4
_symmetry_space_group_name_H-M   'P 1'
_cell_length_a   4.98352718
_cell_length_b   8.70223882
_cell_length_c   8.77421201
_cell_angle_alpha   90.00000000
_cell_angle_beta   90.00000000
_cell_angle_gamma   90.00000000
_symmetry_Int_Tables_number   1
_chemical_formula_structural   BePH4NO4
_chemical_formula_sum   'Be4 P4 H16 N4 O16'
_cell_volume   380.51865492
_cell_formula_units_Z   4
loop_
 _symmetry_equiv_pos_site_id
 _symmetry_equiv_pos_as_xyz
  1  'x, y, z'
loop_
 _atom_site_type_symbol
 _atom_site_label
 _atom_site_symmetry_multiplicity
 _atom_site_fract_x
 _atom_site_fract_y
 _atom_site_fract_z
 _atom_site_occupancy
  H  H0  1  0.346203  0.720216  0.012433  1
  H  H1  1  0.846203  0.279784  0.987567  1
  H  H2  1  0.346203  0.779784  0.512433  1
  H  H3  1  0.846203  0.220216  0.487567  1
  H  H4  1  0.032543  0.710701  0.508033  1
  H  H5  1  0.532543  0.289299  0.491967  1
  H  H6  1  0.103929  0.634870  0.901432  1
  H  H7  1  0.603929  0.365130  0.098568  1
  H  H8  1  0.103929  0.865130  0.401432  1
  H  H9  1  0.603929  0.134870  0.598568  1
  H  H10  1  0.089824  0.624273  0.098781  1
  H  H11  1  0.532543  0.210701  0.991967  1
  H  H12  1  0.089824  0.875727  0.598781  1
  H  H13  1  0.589824  0.124273  0.401219  1
  H  H14  1  0.032543  0.789299  0.008033  1
  H  H15  1  0.589824  0.375727  0.901219  1
  Be  Be16  1  0.661054  0.593291  0.674150  1
  Be  Be17  1  0.161054  0.093291  0.825850  1
  Be  Be18  1  0.661054  0.906709  0.174150  1
  Be  Be19  1  0.161054  0.406709  0.325850  1
  N  N20  1  0.146478  0.690385  0.004311  1
  N  N21  1  0.646478  0.309615  0.995689  1
  N  N22  1  0.646478  0.190385  0.495689  1
  N  N23  1  0.146478  0.809615  0.504311  1
  O  O24  1  0.962060  0.956598  0.233121  1
  O  O25  1  0.447068  0.463979  0.736454  1
  O  O26  1  0.583499  0.763359  0.736760  1
  O  O27  1  0.583499  0.736641  0.236760  1
  O  O28  1  0.947068  0.963979  0.763546  1
  O  O29  1  0.447068  0.036021  0.236454  1
  O  O30  1  0.654710  0.609372  0.489182  1
  O  O31  1  0.154710  0.390628  0.510818  1
  O  O32  1  0.654710  0.890628  0.989182  1
  O  O33  1  0.154710  0.109372  0.010818  1
  O  O34  1  0.083499  0.263359  0.763240  1
  O  O35  1  0.947068  0.536021  0.263546  1
  O  O36  1  0.962060  0.543402  0.733121  1
  O  O37  1  0.462060  0.043402  0.766879  1
  O  O38  1  0.462060  0.456598  0.266879  1
  O  O39  1  0.083499  0.236641  0.263240  1
  P  P40  1  0.660931  0.585715  0.315499  1
  P  P41  1  0.160931  0.414285  0.684501  1
  P  P42  1  0.660931  0.914285  0.815499  1
  P  P43  1  0.160931  0.085715  0.184501  1
