# generated using pymatgen
data_Y7(O2F3)3
_symmetry_space_group_name_H-M   'P 1'
_cell_length_a   5.52327112
_cell_length_b   5.57892779
_cell_length_c   19.91694737
_cell_angle_alpha   98.05101675
_cell_angle_beta   90.00000000
_cell_angle_gamma   90.00000000
_symmetry_Int_Tables_number   1
_chemical_formula_structural   Y7(O2F3)3
_chemical_formula_sum   'Y14 O12 F18'
_cell_volume   607.67046768
_cell_formula_units_Z   2
loop_
 _symmetry_equiv_pos_site_id
 _symmetry_equiv_pos_as_xyz
  1  'x, y, z'
loop_
 _atom_site_type_symbol
 _atom_site_label
 _atom_site_symmetry_multiplicity
 _atom_site_fract_x
 _atom_site_fract_y
 _atom_site_fract_z
 _atom_site_occupancy
  O  O0  1  0.520526  0.374779  0.714966  1
  O  O1  1  0.000000  0.980445  0.000000  1
  O  O2  1  0.479474  0.659813  0.285034  1
  O  O3  1  0.000000  0.480445  0.000000  1
  O  O4  1  0.520526  0.159813  0.285034  1
  O  O5  1  0.479474  0.874779  0.714966  1
  O  O6  1  0.461065  0.545035  0.140234  1
  O  O7  1  0.538935  0.404801  0.859766  1
  O  O8  1  0.538935  0.045035  0.140234  1
  O  O9  1  0.461065  0.904801  0.859766  1
  O  O10  1  0.500000  0.995860  0.000000  1
  O  O11  1  0.500000  0.495860  0.000000  1
  F  F12  1  0.955444  0.005044  0.846331  1
  F  F13  1  0.044556  0.505044  0.846331  1
  F  F14  1  0.955444  0.658713  0.153669  1
  F  F15  1  0.044556  0.158713  0.153669  1
  F  F16  1  0.965636  0.797515  0.716729  1
  F  F17  1  0.034364  0.080786  0.283271  1
  F  F18  1  0.034364  0.297515  0.716729  1
  F  F19  1  0.965636  0.580786  0.283271  1
  F  F20  1  0.901282  0.414652  0.602311  1
  F  F21  1  0.098718  0.812342  0.397689  1
  F  F22  1  0.871092  0.056828  0.500000  1
  F  F23  1  0.901282  0.312342  0.397689  1
  F  F24  1  0.550103  0.756402  0.568565  1
  F  F25  1  0.449897  0.187836  0.431435  1
  F  F26  1  0.449897  0.256402  0.568565  1
  F  F27  1  0.550103  0.687836  0.431435  1
  F  F28  1  0.128908  0.556828  0.500000  1
  F  F29  1  0.098718  0.914652  0.602311  1
  Y  Y30  1  0.258006  0.933544  0.500000  1
  Y  Y31  1  0.741994  0.433544  0.500000  1
  Y  Y32  1  0.265960  0.417498  0.337960  1
  Y  Y33  1  0.734040  0.079538  0.662040  1
  Y  Y34  1  0.734040  0.917498  0.337960  1
  Y  Y35  1  0.265960  0.579538  0.662040  1
  Y  Y36  1  0.699962  0.358364  0.199451  1
  Y  Y37  1  0.300038  0.158913  0.800549  1
  Y  Y38  1  0.300038  0.858364  0.199451  1
  Y  Y39  1  0.699962  0.658913  0.800549  1
  Y  Y40  1  0.262037  0.269992  0.057692  1
  Y  Y41  1  0.737963  0.212300  0.942308  1
  Y  Y42  1  0.737963  0.769992  0.057692  1
  Y  Y43  1  0.262037  0.712300  0.942308  1
