# generated using pymatgen
data_Pr5C2Br9
_symmetry_space_group_name_H-M   'P 1'
_cell_length_a   10.36139046
_cell_length_b   10.66395476
_cell_length_c   19.46911481
_cell_angle_alpha   90.00000000
_cell_angle_beta   90.00000000
_cell_angle_gamma   109.02910409
_symmetry_Int_Tables_number   1
_chemical_formula_structural   Pr5C2Br9
_chemical_formula_sum   'Pr20 C8 Br36'
_cell_volume   2033.65173952
_cell_formula_units_Z   4
loop_
 _symmetry_equiv_pos_site_id
 _symmetry_equiv_pos_as_xyz
  1  'x, y, z'
loop_
 _atom_site_type_symbol
 _atom_site_label
 _atom_site_symmetry_multiplicity
 _atom_site_fract_x
 _atom_site_fract_y
 _atom_site_fract_z
 _atom_site_occupancy
  C  C0  1  0.245705  0.683084  0.617686  1
  C  C1  1  0.254295  0.816916  0.117686  1
  C  C2  1  0.754295  0.316916  0.382314  1
  C  C3  1  0.745705  0.183084  0.882314  1
  C  C4  1  0.318542  0.650506  0.674456  1
  C  C5  1  0.181458  0.849494  0.174456  1
  C  C6  1  0.681458  0.349494  0.325544  1
  C  C7  1  0.818542  0.150506  0.825544  1
  Br  Br8  1  0.563317  0.668990  0.530664  1
  Br  Br9  1  0.936683  0.831010  0.030664  1
  Br  Br10  1  0.436683  0.331010  0.469336  1
  Br  Br11  1  0.063317  0.168989  0.969336  1
  Br  Br12  1  0.832216  0.500406  0.972712  1
  Br  Br13  1  0.667784  0.999594  0.472712  1
  Br  Br14  1  0.167784  0.499594  0.027288  1
  Br  Br15  1  0.332216  0.000406  0.527288  1
  Br  Br16  1  0.155488  0.501272  0.450579  1
  Br  Br17  1  0.344512  -0.001272  0.950579  1
  Br  Br18  1  0.844512  0.498728  0.549421  1
  Br  Br19  1  0.655488  1.001272  0.049421  1
  Br  Br20  1  0.979239  0.845539  0.627895  1
  Br  Br21  1  0.520761  0.654461  0.127895  1
  Br  Br22  1  0.020761  0.154461  0.372105  1
  Br  Br23  1  0.479239  0.345539  0.872105  1
  Br  Br24  1  0.078334  0.219604  0.589153  1
  Br  Br25  1  0.421666  0.280396  0.089153  1
  Br  Br26  1  0.921666  0.780396  0.410847  1
  Br  Br27  1  0.578334  0.719604  0.910847  1
  Br  Br28  1  0.217081  0.649842  0.860062  1
  Br  Br29  1  0.282919  0.850158  0.360062  1
  Br  Br30  1  0.782919  0.350158  0.139938  1
  Br  Br31  1  0.717081  0.149842  0.639938  1
  Br  Br32  1  0.003136  0.901637  0.822483  1
  Br  Br33  1  0.496864  0.598363  0.322483  1
  Br  Br34  1  0.996864  0.098363  0.177517  1
  Br  Br35  1  0.503136  0.401637  0.677517  1
  Br  Br36  1  0.168973  0.322390  0.773276  1
  Br  Br37  1  0.331027  0.177610  0.273276  1
  Br  Br38  1  0.831027  0.677610  0.226724  1
  Br  Br39  1  0.668973  0.822390  0.726724  1
  Br  Br40  1  0.870155  0.494015  0.765005  1
  Br  Br41  1  0.629845  0.005985  0.265005  1
  Br  Br42  1  0.129845  0.505985  0.234995  1
  Br  Br43  1  0.370155  0.994015  0.734995  1
  Pr  Pr44  1  0.302832  0.480234  0.583824  1
  Pr  Pr45  1  0.197168  0.019766  0.083824  1
  Pr  Pr46  1  0.697168  0.519766  0.416176  1
  Pr  Pr47  1  0.802832  0.980234  0.916176  1
  Pr  Pr48  1  0.428868  0.592273  0.767347  1
  Pr  Pr49  1  0.071132  0.907727  0.267347  1
  Pr  Pr50  1  0.571132  0.407727  0.232653  1
  Pr  Pr51  1  0.928868  0.092273  0.732653  1
  Pr  Pr52  1  0.132651  0.726958  0.722989  1
  Pr  Pr53  1  0.367349  0.773042  0.222989  1
  Pr  Pr54  1  0.867349  0.273042  0.277011  1
  Pr  Pr55  1  0.632651  0.226958  0.777011  1
  Pr  Pr56  1  0.124511  0.735296  0.525897  1
  Pr  Pr57  1  0.375489  0.764704  0.025897  1
  Pr  Pr58  1  0.875489  0.264704  0.474103  1
  Pr  Pr59  1  0.624511  0.235296  0.974103  1
  Pr  Pr60  1  0.477425  0.860337  0.617760  1
  Pr  Pr61  1  0.022575  0.639663  0.117760  1
  Pr  Pr62  1  0.522575  0.139663  0.382240  1
  Pr  Pr63  1  0.977425  0.360337  0.882240  1
