# generated using pymatgen
data_Fe4Co3(PO4)6
_symmetry_space_group_name_H-M   'P 1'
_cell_length_a   6.41213940
_cell_length_b   7.95518916
_cell_length_c   9.41112431
_cell_angle_alpha   104.46658347
_cell_angle_beta   108.38712622
_cell_angle_gamma   101.41293028
_symmetry_Int_Tables_number   1
_chemical_formula_structural   Fe4Co3(PO4)6
_chemical_formula_sum   'Fe4 Co3 P6 O24'
_cell_volume   420.63468721
_cell_formula_units_Z   1
loop_
 _symmetry_equiv_pos_site_id
 _symmetry_equiv_pos_as_xyz
  1  'x, y, z'
loop_
 _atom_site_type_symbol
 _atom_site_label
 _atom_site_symmetry_multiplicity
 _atom_site_fract_x
 _atom_site_fract_y
 _atom_site_fract_z
 _atom_site_occupancy
  O  O0  1  0.789519  0.050011  0.294302  1
  O  O1  1  0.210482  0.949990  0.705699  1
  O  O2  1  0.774354  0.804648  0.056639  1
  O  O3  1  0.225648  0.195353  0.943362  1
  O  O4  1  0.628131  0.226897  0.490287  1
  O  O5  1  0.371871  0.773104  0.509714  1
  O  O6  1  0.017170  0.191794  0.663285  1
  O  O7  1  0.982831  0.808206  0.336715  1
  O  O8  1  0.875375  0.464553  0.838003  1
  O  O9  1  0.124624  0.535447  0.161997  1
  O  O10  1  0.890495  0.210111  0.084785  1
  O  O11  1  0.109505  0.789889  0.915216  1
  O  O12  1  0.937572  0.449747  0.345991  1
  O  O13  1  0.270817  0.032626  0.235665  1
  O  O14  1  0.729183  0.967375  0.764336  1
  O  O15  1  0.307988  0.541559  0.916117  1
  O  O16  1  0.692011  0.458440  0.083882  1
  O  O17  1  0.247964  0.271952  0.463228  1
  O  O18  1  0.062428  0.550252  0.654009  1
  O  O19  1  0.447988  0.363372  0.287113  1
  O  O20  1  0.552012  0.636629  0.712888  1
  O  O21  1  0.454694  0.268563  0.775680  1
  O  O22  1  0.545306  0.731438  0.224320  1
  O  O23  1  0.752035  0.728048  0.536772  1
  P  P24  1  0.773837  0.851626  0.229171  1
  P  P25  1  0.226163  0.148375  0.770830  1
  P  P26  1  0.606625  0.776498  0.632766  1
  P  P27  1  0.393374  0.223502  0.367234  1
  P  P28  1  0.089088  0.595953  0.832511  1
  P  P29  1  0.910912  0.404047  0.167489  1
  Fe  Fe30  1  0.615893  0.549553  0.886481  1
  Fe  Fe31  1  0.046154  0.724161  0.526631  1
  Fe  Fe32  1  0.384108  0.450448  0.113519  1
  Fe  Fe33  1  0.953846  0.275839  0.473369  1
  Co  Co34  1  0.292843  0.805741  0.290057  1
  Co  Co35  1  0.707157  0.194259  0.709943  1
  Co  Co36  1  0.000000  0.000000  0.000000  1
