# generated using pymatgen
data_U3Fe2Si7
_symmetry_space_group_name_H-M   'P 1'
_cell_length_a   3.99471625
_cell_length_b   4.02515464
_cell_length_c   12.27028143
_cell_angle_alpha   90.00000000
_cell_angle_beta   99.36830248
_cell_angle_gamma   90.00000000
_symmetry_Int_Tables_number   1
_chemical_formula_structural   U3Fe2Si7
_chemical_formula_sum   'U3 Fe2 Si7'
_cell_volume   194.66666715
_cell_formula_units_Z   1
loop_
 _symmetry_equiv_pos_site_id
 _symmetry_equiv_pos_as_xyz
  1  'x, y, z'
loop_
 _atom_site_type_symbol
 _atom_site_label
 _atom_site_symmetry_multiplicity
 _atom_site_fract_x
 _atom_site_fract_y
 _atom_site_fract_z
 _atom_site_occupancy
  Si  Si0  1  0.221832  0.500000  0.443664  1
  Si  Si1  1  0.778168  0.500000  0.556336  1
  Si  Si2  1  0.086569  0.000000  0.173138  1
  Si  Si3  1  0.913431  0.000000  0.826862  1
  Si  Si4  1  0.413991  0.500000  0.827983  1
  Si  Si5  1  0.500000  0.000000  0.000000  1
  Si  Si6  1  0.586009  0.500000  0.172017  1
  Fe  Fe7  1  0.127729  0.500000  0.255457  1
  Fe  Fe8  1  0.872271  0.500000  0.744543  1
  U  U9  1  0.000000  0.500000  0.000000  1
  U  U10  1  0.315154  0.000000  0.630307  1
  U  U11  1  0.684846  0.000000  0.369693  1
