# generated using pymatgen
data_TaPCl10
_symmetry_space_group_name_H-M   'P 1'
_cell_length_a   7.29701148
_cell_length_b   7.54006847
_cell_length_c   14.13854294
_cell_angle_alpha   90.46857393
_cell_angle_beta   91.25973964
_cell_angle_gamma   105.67621151
_symmetry_Int_Tables_number   1
_chemical_formula_structural   TaPCl10
_chemical_formula_sum   'Ta2 P2 Cl20'
_cell_volume   748.70574600
_cell_formula_units_Z   2
loop_
 _symmetry_equiv_pos_site_id
 _symmetry_equiv_pos_as_xyz
  1  'x, y, z'
loop_
 _atom_site_type_symbol
 _atom_site_label
 _atom_site_symmetry_multiplicity
 _atom_site_fract_x
 _atom_site_fract_y
 _atom_site_fract_z
 _atom_site_occupancy
  Ta  Ta0  1  0.000000  0.000000  0.000000  1
  Ta  Ta1  1  0.000000  0.000000  0.500000  1
  Cl  Cl2  1  0.295327  0.076232  0.922692  1
  Cl  Cl3  1  0.704673  0.923768  0.077308  1
  Cl  Cl4  1  0.108527  0.268189  0.097741  1
  Cl  Cl5  1  0.891473  0.731811  0.902259  1
  Cl  Cl6  1  0.124754  0.825990  0.111211  1
  Cl  Cl7  1  0.875246  0.174010  0.888789  1
  Cl  Cl8  1  0.224941  0.289387  0.479350  1
  Cl  Cl9  1  0.775059  0.710613  0.520650  1
  Cl  Cl10  1  0.233692  0.845654  0.460259  1
  Cl  Cl11  1  0.766308  0.154346  0.539741  1
  Cl  Cl12  1  0.092285  0.004712  0.661635  1
  Cl  Cl13  1  0.907715  0.995288  0.338365  1
  Cl  Cl14  1  0.655427  0.411692  0.102383  1
  Cl  Cl15  1  0.344573  0.588308  0.897617  1
  Cl  Cl16  1  0.863484  0.479596  0.305256  1
  Cl  Cl17  1  0.136516  0.520404  0.694744  1
  Cl  Cl18  1  0.474315  0.163981  0.277431  1
  Cl  Cl19  1  0.525685  0.836019  0.722569  1
  Cl  Cl20  1  0.473540  0.585203  0.271892  1
  Cl  Cl21  1  0.526460  0.414797  0.728108  1
  P  P22  1  0.616990  0.409130  0.238563  1
  P  P23  1  0.383010  0.590870  0.761437  1
