# generated using pymatgen
data_ErSiIr
_symmetry_space_group_name_H-M   'P 1'
_cell_length_a   4.21155741
_cell_length_b   6.80193558
_cell_length_c   7.44360868
_cell_angle_alpha   90.00000000
_cell_angle_beta   90.00000000
_cell_angle_gamma   90.00000000
_symmetry_Int_Tables_number   1
_chemical_formula_structural   ErSiIr
_chemical_formula_sum   'Er4 Si4 Ir4'
_cell_volume   213.23513885
_cell_formula_units_Z   4
loop_
 _symmetry_equiv_pos_site_id
 _symmetry_equiv_pos_as_xyz
  1  'x, y, z'
loop_
 _atom_site_type_symbol
 _atom_site_label
 _atom_site_symmetry_multiplicity
 _atom_site_fract_x
 _atom_site_fract_y
 _atom_site_fract_z
 _atom_site_occupancy
  Si  Si0  1  0.250000  0.703864  0.388769  1
  Si  Si1  1  0.250000  0.203864  0.111231  1
  Si  Si2  1  0.750000  0.296136  0.611231  1
  Si  Si3  1  0.750000  0.796136  0.888769  1
  Er  Er4  1  0.750000  0.503882  0.187096  1
  Er  Er5  1  0.250000  0.996118  0.687096  1
  Er  Er6  1  0.750000  0.003882  0.312904  1
  Er  Er7  1  0.250000  0.496118  0.812904  1
  Ir  Ir8  1  0.250000  0.842236  0.066526  1
  Ir  Ir9  1  0.250000  0.342236  0.433474  1
  Ir  Ir10  1  0.750000  0.657764  0.566526  1
  Ir  Ir11  1  0.750000  0.157764  0.933474  1
