# generated using pymatgen
data_Tb7O12
_symmetry_space_group_name_H-M   'P 1'
_cell_length_a   6.64329364
_cell_length_b   6.64329364
_cell_length_c   6.64329364
_cell_angle_alpha   99.50261450
_cell_angle_beta   99.50261456
_cell_angle_gamma   99.50261451
_symmetry_Int_Tables_number   1
_chemical_formula_structural   Tb7O12
_chemical_formula_sum   'Tb7 O12'
_cell_volume   279.56844925
_cell_formula_units_Z   1
loop_
 _symmetry_equiv_pos_site_id
 _symmetry_equiv_pos_as_xyz
  1  'x, y, z'
loop_
 _atom_site_type_symbol
 _atom_site_label
 _atom_site_symmetry_multiplicity
 _atom_site_fract_x
 _atom_site_fract_y
 _atom_site_fract_z
 _atom_site_occupancy
  O  O0  1  0.179406  0.435951  0.579038  1
  O  O1  1  0.435951  0.579038  0.179406  1
  O  O2  1  0.579038  0.179406  0.435951  1
  O  O3  1  0.820594  0.564049  0.420962  1
  O  O4  1  0.564049  0.420962  0.820594  1
  O  O5  1  0.420962  0.820594  0.564049  1
  O  O6  1  0.326204  0.063006  0.935778  1
  O  O7  1  0.064222  0.673796  0.936994  1
  O  O8  1  0.936994  0.064222  0.673796  1
  O  O9  1  0.673796  0.936994  0.064222  1
  O  O10  1  0.935778  0.326204  0.063006  1
  O  O11  1  0.063006  0.935778  0.326204  1
  Tb  Tb12  1  0.391527  0.697780  0.861685  1
  Tb  Tb13  1  0.697780  0.861685  0.391527  1
  Tb  Tb14  1  0.861685  0.391527  0.697780  1
  Tb  Tb15  1  0.608473  0.302220  0.138315  1
  Tb  Tb16  1  0.302220  0.138315  0.608473  1
  Tb  Tb17  1  0.138315  0.608473  0.302220  1
  Tb  Tb18  1  0.000000  0.000000  0.000000  1
