# generated using pymatgen
data_Ca10P6O25
_symmetry_space_group_name_H-M   'P 1'
_cell_length_a   9.59496099
_cell_length_b   9.59496099
_cell_length_c   6.90069663
_cell_angle_alpha   90.00000000
_cell_angle_beta   90.00000000
_cell_angle_gamma   119.99999997
_symmetry_Int_Tables_number   1
_chemical_formula_structural   Ca10P6O25
_chemical_formula_sum   'Ca10 P6 O25'
_cell_volume   550.18658088
_cell_formula_units_Z   1
loop_
 _symmetry_equiv_pos_site_id
 _symmetry_equiv_pos_as_xyz
  1  'x, y, z'
loop_
 _atom_site_type_symbol
 _atom_site_label
 _atom_site_symmetry_multiplicity
 _atom_site_fract_x
 _atom_site_fract_y
 _atom_site_fract_z
 _atom_site_occupancy
  O  O0  1  0.324816  0.478959  0.000000  1
  O  O1  1  0.154143  0.675184  0.000000  1
  O  O2  1  0.521041  0.845857  0.000000  1
  O  O3  1  0.655407  0.502102  0.500000  1
  O  O4  1  0.846695  0.344593  0.500000  1
  O  O5  1  0.497898  0.153305  0.500000  1
  O  O6  1  0.573619  0.447553  0.000000  1
  O  O7  1  0.873935  0.426381  0.000000  1
  O  O8  1  0.552447  0.126065  0.000000  1
  O  O9  1  0.400191  0.526267  0.500000  1
  O  O10  1  0.126076  0.599809  0.500000  1
  O  O11  1  0.473733  0.873924  0.500000  1
  O  O12  1  0.324182  0.241913  0.821375  1
  O  O13  1  0.917731  0.675818  0.178625  1
  O  O14  1  0.758087  0.082269  0.178625  1
  O  O15  1  0.758087  0.082269  0.821375  1
  O  O16  1  0.917731  0.675818  0.821375  1
  O  O17  1  0.324182  0.241913  0.178625  1
  O  O18  1  0.643552  0.727580  0.682909  1
  O  O19  1  0.084028  0.356448  0.317091  1
  O  O20  1  0.272420  0.915972  0.317091  1
  O  O21  1  0.272420  0.915972  0.682909  1
  O  O22  1  0.084028  0.356448  0.682909  1
  O  O23  1  0.643552  0.727580  0.317091  1
  O  O24  1  0.000000  0.000000  0.500000  1
  P  P25  1  0.970734  0.615675  0.000000  1
  P  P26  1  0.644941  0.029266  0.000000  1
  P  P27  1  0.587598  0.618324  0.500000  1
  P  P28  1  0.030726  0.412402  0.500000  1
  P  P29  1  0.381676  0.969274  0.500000  1
  P  P30  1  0.384325  0.355059  0.000000  1
  Ca  Ca31  1  0.333333  0.666667  0.746463  1
  Ca  Ca32  1  0.666667  0.333333  0.743806  1
  Ca  Ca33  1  0.333333  0.666667  0.253537  1
  Ca  Ca34  1  0.275324  0.995637  0.000000  1
  Ca  Ca35  1  0.720313  0.724676  0.000000  1
  Ca  Ca36  1  0.004363  0.279687  0.000000  1
  Ca  Ca37  1  0.769939  -0.008129  0.500000  1
  Ca  Ca38  1  0.221932  0.230061  0.500000  1
  Ca  Ca39  1  1.008129  0.778068  0.500000  1
  Ca  Ca40  1  0.666667  0.333333  0.256194  1
