# generated using pymatgen
data_TlPbI3
_symmetry_space_group_name_H-M   'P 1'
_cell_length_a   4.69768193
_cell_length_b   8.07142826
_cell_length_c   12.00853390
_cell_angle_alpha   90.00000000
_cell_angle_beta   90.00000000
_cell_angle_gamma   106.91824461
_symmetry_Int_Tables_number   1
_chemical_formula_structural   TlPbI3
_chemical_formula_sum   'Tl2 Pb2 I6'
_cell_volume   435.62147396
_cell_formula_units_Z   2
loop_
 _symmetry_equiv_pos_site_id
 _symmetry_equiv_pos_as_xyz
  1  'x, y, z'
loop_
 _atom_site_type_symbol
 _atom_site_label
 _atom_site_symmetry_multiplicity
 _atom_site_fract_x
 _atom_site_fract_y
 _atom_site_fract_z
 _atom_site_occupancy
  I  I0  1  0.081068  0.162135  0.250000  1
  I  I1  1  0.918932  0.837865  0.750000  1
  I  I2  1  0.640621  0.281242  0.557028  1
  I  I3  1  0.359379  0.718758  0.442972  1
  I  I4  1  0.640621  0.281242  0.942972  1
  I  I5  1  0.359379  0.718758  0.057028  1
  Tl  Tl6  1  0.250447  0.500894  0.750000  1
  Tl  Tl7  1  0.749553  0.499106  0.250000  1
  Pb  Pb8  1  0.000000  0.000000  0.000000  1
  Pb  Pb9  1  0.000000  0.000000  0.500000  1
