# generated using pymatgen
data_La3SbI3
_symmetry_space_group_name_H-M   'P 1'
_cell_length_a   11.22880971
_cell_length_b   11.22880970
_cell_length_c   11.22880971
_cell_angle_alpha   109.47122064
_cell_angle_beta   109.47122064
_cell_angle_gamma   109.47122064
_symmetry_Int_Tables_number   1
_chemical_formula_structural   La3SbI3
_chemical_formula_sum   'La12 Sb4 I12'
_cell_volume   1089.88148594
_cell_formula_units_Z   4
loop_
 _symmetry_equiv_pos_site_id
 _symmetry_equiv_pos_as_xyz
  1  'x, y, z'
loop_
 _atom_site_type_symbol
 _atom_site_label
 _atom_site_symmetry_multiplicity
 _atom_site_fract_x
 _atom_site_fract_y
 _atom_site_fract_z
 _atom_site_occupancy
  Sb  Sb0  1  0.500000  0.000000  0.250000  1
  Sb  Sb1  1  0.000000  0.250000  0.500000  1
  Sb  Sb2  1  0.250000  0.500000  0.000000  1
  Sb  Sb3  1  0.250000  0.250000  0.250000  1
  I  I4  1  0.250000  0.756480  0.743520  1
  I  I5  1  0.993520  0.506480  0.250000  1
  I  I6  1  0.506480  0.250000  0.993520  1
  I  I7  1  0.756480  0.512960  0.506480  1
  I  I8  1  0.743520  0.993520  0.987040  1
  I  I9  1  0.987040  0.743520  0.993520  1
  I  I10  1  0.512960  0.506480  0.756480  1
  I  I11  1  0.506480  0.756480  0.512960  1
  I  I12  1  0.250000  0.993520  0.506480  1
  I  I13  1  0.993520  0.987040  0.743520  1
  I  I14  1  0.743520  0.250000  0.756480  1
  I  I15  1  0.756480  0.743520  0.250000  1
  La  La16  1  0.018977  0.259489  0.009489  1
  La  La17  1  0.009489  0.018977  0.259489  1
  La  La18  1  0.009489  0.490511  0.750000  1
  La  La19  1  0.259489  0.750000  0.240511  1
  La  La20  1  0.259489  0.009489  0.018977  1
  La  La21  1  0.750000  0.009489  0.490511  1
  La  La22  1  0.750000  0.240511  0.259489  1
  La  La23  1  0.240511  0.259489  0.750000  1
  La  La24  1  0.490511  0.240511  0.481023  1
  La  La25  1  0.240511  0.481023  0.490511  1
  La  La26  1  0.490511  0.750000  0.009489  1
  La  La27  1  0.481023  0.490511  0.240511  1
