# generated using pymatgen
data_Th2Se5
_symmetry_space_group_name_H-M   'P 1'
_cell_length_a   8.02664657
_cell_length_b   8.03113294
_cell_length_c   10.77294409
_cell_angle_alpha   90.00000000
_cell_angle_beta   90.00000000
_cell_angle_gamma   90.00000000
_symmetry_Int_Tables_number   1
_chemical_formula_structural   Th2Se5
_chemical_formula_sum   'Th8 Se20'
_cell_volume   694.45700229
_cell_formula_units_Z   4
loop_
 _symmetry_equiv_pos_site_id
 _symmetry_equiv_pos_as_xyz
  1  'x, y, z'
loop_
 _atom_site_type_symbol
 _atom_site_label
 _atom_site_symmetry_multiplicity
 _atom_site_fract_x
 _atom_site_fract_y
 _atom_site_fract_z
 _atom_site_occupancy
  Se  Se0  1  0.500000  0.750000  0.749940  1
  Se  Se1  1  0.000000  0.250000  0.750060  1
  Se  Se2  1  0.500000  0.250000  0.250060  1
  Se  Se3  1  0.000000  0.750000  0.249940  1
  Se  Se4  1  0.111882  0.638599  0.897272  1
  Se  Se5  1  0.611882  0.361401  0.602728  1
  Se  Se6  1  0.388118  0.138599  0.602728  1
  Se  Se7  1  0.888118  0.861401  0.897272  1
  Se  Se8  1  0.631208  0.617744  0.107082  1
  Se  Se9  1  0.131208  0.382256  0.392918  1
  Se  Se10  1  0.868792  0.117744  0.392918  1
  Se  Se11  1  0.368792  0.882256  0.107082  1
  Se  Se12  1  0.368792  0.382256  0.892918  1
  Se  Se13  1  0.868792  0.617744  0.607082  1
  Se  Se14  1  0.131208  0.882256  0.607082  1
  Se  Se15  1  0.631208  0.117744  0.892918  1
  Se  Se16  1  0.111882  0.138599  0.102728  1
  Se  Se17  1  0.611882  0.861401  0.397272  1
  Se  Se18  1  0.388118  0.638599  0.397272  1
  Se  Se19  1  0.888118  0.361401  0.102728  1
  Th  Th20  1  0.259903  0.510067  0.147278  1
  Th  Th21  1  0.759903  0.489933  0.352722  1
  Th  Th22  1  0.240097  0.010067  0.352722  1
  Th  Th23  1  0.740097  0.989933  0.147278  1
  Th  Th24  1  0.740097  0.489933  0.852722  1
  Th  Th25  1  0.240097  0.510067  0.647278  1
  Th  Th26  1  0.759903  0.989933  0.647278  1
  Th  Th27  1  0.259903  0.010067  0.852722  1
