# generated using pymatgen
data_V5(PbO6)2
_symmetry_space_group_name_H-M   'P 1'
_cell_length_a   5.34458743
_cell_length_b   8.46581575
_cell_length_c   12.05114555
_cell_angle_alpha   98.80250361
_cell_angle_beta   90.00000000
_cell_angle_gamma   90.00000000
_symmetry_Int_Tables_number   1
_chemical_formula_structural   V5(PbO6)2
_chemical_formula_sum   'V10 Pb4 O24'
_cell_volume   538.84730387
_cell_formula_units_Z   2
loop_
 _symmetry_equiv_pos_site_id
 _symmetry_equiv_pos_as_xyz
  1  'x, y, z'
loop_
 _atom_site_type_symbol
 _atom_site_label
 _atom_site_symmetry_multiplicity
 _atom_site_fract_x
 _atom_site_fract_y
 _atom_site_fract_z
 _atom_site_occupancy
  O  O0  1  0.417386  1.000000  0.250000  1
  O  O1  1  0.582613  1.000000  0.750000  1
  O  O2  1  0.058820  0.500000  0.750000  1
  O  O3  1  0.941179  0.500000  0.250000  1
  O  O4  1  0.022755  0.938653  0.894446  1
  O  O5  1  0.022755  0.061348  0.605554  1
  O  O6  1  0.977246  0.061348  0.105554  1
  O  O7  1  0.977246  0.938653  0.394446  1
  O  O8  1  0.584997  0.454150  0.862623  1
  O  O9  1  0.584997  0.545851  0.637377  1
  O  O10  1  0.415002  0.545851  0.137377  1
  O  O11  1  0.415002  0.454150  0.362623  1
  O  O12  1  0.013711  0.787288  0.670317  1
  O  O13  1  0.013711  0.212712  0.829683  1
  O  O14  1  0.428510  0.826496  0.506828  1
  O  O15  1  0.428510  0.173504  0.993172  1
  O  O16  1  0.571489  0.173504  0.493172  1
  O  O17  1  0.571489  0.826497  0.006829  1
  O  O18  1  0.964170  0.635630  0.469447  1
  O  O19  1  0.986288  0.212712  0.329683  1
  O  O20  1  0.035831  0.364371  0.530553  1
  O  O21  1  0.035831  0.635630  0.969447  1
  O  O22  1  0.986288  0.787288  0.170317  1
  O  O23  1  0.964170  0.364370  0.030553  1
  V  V24  1  0.878371  0.846777  0.024570  1
  V  V25  1  0.878371  0.153223  0.475430  1
  V  V26  1  0.121628  0.153223  0.975430  1
  V  V27  1  0.121628  0.846777  0.524570  1
  V  V28  1  0.106598  0.564119  0.117679  1
  V  V29  1  0.106598  0.435880  0.382321  1
  V  V30  1  0.893401  0.435880  0.882321  1
  V  V31  1  0.893025  1.000000  0.750000  1
  V  V32  1  0.106977  1.000000  0.250000  1
  V  V33  1  0.893401  0.564119  0.617679  1
  Pb  Pb34  1  0.350749  0.718965  0.822088  1
  Pb  Pb35  1  0.350749  0.281036  0.677912  1
  Pb  Pb36  1  0.649250  0.281036  0.177912  1
  Pb  Pb37  1  0.649250  0.718965  0.322088  1
