# generated using pymatgen
data_PuI3
_symmetry_space_group_name_H-M   'P 1'
_cell_length_a   4.24513456
_cell_length_b   8.18202596
_cell_length_c   10.01061840
_cell_angle_alpha   90.00000000
_cell_angle_beta   90.00000000
_cell_angle_gamma   105.03554903
_symmetry_Int_Tables_number   1
_chemical_formula_structural   PuI3
_chemical_formula_sum   'Pu2 I6'
_cell_volume   335.80310576
_cell_formula_units_Z   2
loop_
 _symmetry_equiv_pos_site_id
 _symmetry_equiv_pos_as_xyz
  1  'x, y, z'
loop_
 _atom_site_type_symbol
 _atom_site_label
 _atom_site_symmetry_multiplicity
 _atom_site_fract_x
 _atom_site_fract_y
 _atom_site_fract_z
 _atom_site_occupancy
  I  I0  1  0.342191  0.684382  0.431015  1
  I  I1  1  0.657809  0.315618  0.568985  1
  I  I2  1  0.904738  0.809476  0.750000  1
  I  I3  1  0.095262  0.190524  0.250000  1
  I  I4  1  0.342191  0.684382  0.068985  1
  I  I5  1  0.657809  0.315618  0.931015  1
  Pu  Pu6  1  0.739178  0.478356  0.250000  1
  Pu  Pu7  1  0.260822  0.521644  0.750000  1
