# generated using pymatgen
data_CsCrCl3
_symmetry_space_group_name_H-M   'P 1'
_cell_length_a   6.31714193
_cell_length_b   7.36564478
_cell_length_c   7.42028559
_cell_angle_alpha   119.75670800
_cell_angle_beta   88.81918328
_cell_angle_gamma   90.00000000
_symmetry_Int_Tables_number   1
_chemical_formula_structural   CsCrCl3
_chemical_formula_sum   'Cs2 Cr2 Cl6'
_cell_volume   299.65377719
_cell_formula_units_Z   2
loop_
 _symmetry_equiv_pos_site_id
 _symmetry_equiv_pos_as_xyz
  1  'x, y, z'
loop_
 _atom_site_type_symbol
 _atom_site_label
 _atom_site_symmetry_multiplicity
 _atom_site_fract_x
 _atom_site_fract_y
 _atom_site_fract_z
 _atom_site_occupancy
  Cl  Cl0  1  0.769126  0.304108  0.150076  1
  Cl  Cl1  1  0.230874  0.154031  0.849924  1
  Cl  Cl2  1  0.230874  0.695892  0.849924  1
  Cl  Cl3  1  0.769126  0.845969  0.150076  1
  Cl  Cl4  1  0.293688  0.157627  0.315253  1
  Cl  Cl5  1  0.706312  0.842373  0.684747  1
  Cr  Cr6  1  0.500000  0.000000  0.000000  1
  Cr  Cr7  1  0.000000  0.000000  0.000000  1
  Cs  Cs8  1  0.253352  0.667054  0.334109  1
  Cs  Cs9  1  0.746648  0.332946  0.665891  1
