# generated using pymatgen
data_SmCoO3
_symmetry_space_group_name_H-M   'P 1'
_cell_length_a   5.29581949
_cell_length_b   5.46027511
_cell_length_c   7.54920605
_cell_angle_alpha   90.00000000
_cell_angle_beta   90.00000000
_cell_angle_gamma   90.00000000
_symmetry_Int_Tables_number   1
_chemical_formula_structural   SmCoO3
_chemical_formula_sum   'Sm4 Co4 O12'
_cell_volume   218.29760832
_cell_formula_units_Z   4
loop_
 _symmetry_equiv_pos_site_id
 _symmetry_equiv_pos_as_xyz
  1  'x, y, z'
loop_
 _atom_site_type_symbol
 _atom_site_label
 _atom_site_symmetry_multiplicity
 _atom_site_fract_x
 _atom_site_fract_y
 _atom_site_fract_z
 _atom_site_occupancy
  O  O0  1  0.702846  0.294606  0.455753  1
  O  O1  1  0.202846  0.205394  0.544247  1
  O  O2  1  0.797154  0.794606  0.044247  1
  O  O3  1  0.297154  0.705394  0.955753  1
  O  O4  1  0.297154  0.705394  0.544247  1
  O  O5  1  0.797154  0.794606  0.455753  1
  O  O6  1  0.202846  0.205394  0.955753  1
  O  O7  1  0.702846  0.294606  0.044247  1
  O  O8  1  0.084953  0.482567  0.250000  1
  O  O9  1  0.584953  0.017434  0.750000  1
  O  O10  1  0.415047  0.982567  0.250000  1
  O  O11  1  0.915047  0.517433  0.750000  1
  Co  Co12  1  0.500000  0.000000  0.500000  1
  Co  Co13  1  0.000000  0.500000  0.500000  1
  Co  Co14  1  0.000000  0.500000  0.000000  1
  Co  Co15  1  0.500000  0.000000  0.000000  1
  Sm  Sm16  1  0.013956  0.941154  0.750000  1
  Sm  Sm17  1  0.513956  0.558846  0.250000  1
  Sm  Sm18  1  0.486044  0.441154  0.750000  1
  Sm  Sm19  1  0.986044  0.058846  0.250000  1
