# generated using pymatgen
data_PH3O4
_symmetry_space_group_name_H-M   'P 1'
_cell_length_a   4.82173444
_cell_length_b   5.95778293
_cell_length_c   12.03267321
_cell_angle_alpha   96.44654800
_cell_angle_beta   90.00000000
_cell_angle_gamma   90.00000000
_symmetry_Int_Tables_number   1
_chemical_formula_structural   PH3O4
_chemical_formula_sum   'P4 H12 O16'
_cell_volume   343.47516183
_cell_formula_units_Z   4
loop_
 _symmetry_equiv_pos_site_id
 _symmetry_equiv_pos_as_xyz
  1  'x, y, z'
loop_
 _atom_site_type_symbol
 _atom_site_label
 _atom_site_symmetry_multiplicity
 _atom_site_fract_x
 _atom_site_fract_y
 _atom_site_fract_z
 _atom_site_occupancy
  H  H0  1  0.383044  0.512338  0.820127  1
  H  H1  1  0.883044  0.487662  0.679873  1
  H  H2  1  0.616956  0.487662  0.179873  1
  H  H3  1  0.116956  0.512338  0.320127  1
  H  H4  1  0.514848  0.125994  0.825461  1
  H  H5  1  0.014848  0.874006  0.674539  1
  H  H6  1  0.485152  0.874006  0.174539  1
  H  H7  1  0.985152  0.125994  0.325461  1
  H  H8  1  0.082249  0.725731  0.938734  1
  H  H9  1  0.582249  0.274269  0.561266  1
  H  H10  1  0.917751  0.274269  0.061266  1
  H  H11  1  0.417751  0.725731  0.438734  1
  O  O12  1  0.831396  0.719455  0.739910  1
  O  O13  1  0.331396  0.280545  0.760090  1
  O  O14  1  0.168604  0.280545  0.260090  1
  O  O15  1  0.668604  0.719455  0.239910  1
  O  O16  1  0.410397  0.669727  0.865190  1
  O  O17  1  0.910397  0.330273  0.634810  1
  O  O18  1  0.589603  0.330273  0.134810  1
  O  O19  1  0.089603  0.669727  0.365190  1
  O  O20  1  0.646296  0.048176  0.876009  1
  O  O21  1  0.146296  0.951824  0.623991  1
  O  O22  1  0.353704  0.951824  0.123991  1
  O  O23  1  0.853704  0.048176  0.376009  1
  O  O24  1  0.879619  0.727777  0.953439  1
  O  O25  1  0.379619  0.272223  0.546561  1
  O  O26  1  0.120381  0.272223  0.046561  1
  O  O27  1  0.620381  0.727777  0.453439  1
  P  P28  1  0.697589  0.789472  0.852947  1
  P  P29  1  0.197589  0.210528  0.647053  1
  P  P30  1  0.302411  0.210528  0.147053  1
  P  P31  1  0.802411  0.789472  0.352947  1
