# generated using pymatgen
data_CsCrH18N6(ClO2)4
_symmetry_space_group_name_H-M   'P 1'
_cell_length_a   10.23949361
_cell_length_b   10.23949361
_cell_length_c   10.23949361
_cell_angle_alpha   42.60552169
_cell_angle_beta   42.60552167
_cell_angle_gamma   42.60552165
_symmetry_Int_Tables_number   1
_chemical_formula_structural   CsCrH18N6(ClO2)4
_chemical_formula_sum   'Cs1 Cr1 H18 N6 Cl4 O8'
_cell_volume   445.57087174
_cell_formula_units_Z   1
loop_
 _symmetry_equiv_pos_site_id
 _symmetry_equiv_pos_as_xyz
  1  'x, y, z'
loop_
 _atom_site_type_symbol
 _atom_site_label
 _atom_site_symmetry_multiplicity
 _atom_site_fract_x
 _atom_site_fract_y
 _atom_site_fract_z
 _atom_site_occupancy
  H  H0  1  0.914137  0.663312  0.272914  1
  H  H1  1  0.336688  0.727086  0.085863  1
  H  H2  1  0.727086  0.085863  0.336688  1
  H  H3  1  0.085863  0.336688  0.727086  1
  H  H4  1  0.663312  0.272914  0.914137  1
  H  H5  1  0.272914  0.914137  0.663312  1
  H  H6  1  0.961138  0.920877  0.343798  1
  H  H7  1  0.168565  0.575780  0.181763  1
  H  H8  1  0.181763  0.168565  0.575780  1
  H  H9  1  0.575780  0.181763  0.168565  1
  H  H10  1  0.831435  0.424220  0.818237  1
  H  H11  1  0.343798  0.961138  0.920877  1
  H  H12  1  0.424220  0.818237  0.831435  1
  H  H13  1  0.079123  0.656202  0.038862  1
  H  H14  1  0.038862  0.079123  0.656202  1
  H  H15  1  0.656202  0.038862  0.079123  1
  H  H16  1  0.920877  0.343798  0.961138  1
  H  H17  1  0.818237  0.831435  0.424220  1
  N  N18  1  0.309506  0.864966  0.953732  1
  N  N19  1  0.046268  0.690494  0.135034  1
  N  N20  1  0.864966  0.953732  0.309506  1
  N  N21  1  0.953732  0.309506  0.864966  1
  N  N22  1  0.690494  0.135034  0.046268  1
  N  N23  1  0.135034  0.046268  0.690494  1
  O  O24  1  0.003160  0.726484  0.651530  1
  O  O25  1  0.726484  0.651530  0.003160  1
  O  O26  1  0.651530  0.003160  0.726484  1
  O  O27  1  0.996840  0.273516  0.348470  1
  O  O28  1  0.863910  0.863910  0.863910  1
  O  O29  1  0.348470  0.996840  0.273516  1
  O  O30  1  0.273516  0.348470  0.996840  1
  O  O31  1  0.136090  0.136090  0.136090  1
  Cl  Cl32  1  0.811436  0.811436  0.811436  1
  Cl  Cl33  1  0.188564  0.188564  0.188564  1
  Cl  Cl34  1  0.631600  0.631600  0.631600  1
  Cl  Cl35  1  0.368400  0.368400  0.368400  1
  Cr  Cr36  1  0.000000  0.000000  0.000000  1
  Cs  Cs37  1  0.500000  0.500000  0.500000  1
