# generated using pymatgen
data_Rb4PbO3
_symmetry_space_group_name_H-M   'P 1'
_cell_length_a   6.92891535
_cell_length_b   12.25143364
_cell_length_c   20.05215671
_cell_angle_alpha   90.00000000
_cell_angle_beta   90.00000000
_cell_angle_gamma   90.00000000
_symmetry_Int_Tables_number   1
_chemical_formula_structural   Rb4PbO3
_chemical_formula_sum   'Rb32 Pb8 O24'
_cell_volume   1702.21047076
_cell_formula_units_Z   8
loop_
 _symmetry_equiv_pos_site_id
 _symmetry_equiv_pos_as_xyz
  1  'x, y, z'
loop_
 _atom_site_type_symbol
 _atom_site_label
 _atom_site_symmetry_multiplicity
 _atom_site_fract_x
 _atom_site_fract_y
 _atom_site_fract_z
 _atom_site_occupancy
  O  O0  1  0.955072  0.356276  0.567331  1
  O  O1  1  0.455072  0.143724  0.432669  1
  O  O2  1  0.044928  0.856276  0.932669  1
  O  O3  1  0.544928  0.643724  0.067331  1
  O  O4  1  0.044928  0.643724  0.432669  1
  O  O5  1  0.544928  0.856276  0.567331  1
  O  O6  1  0.955072  0.143724  0.067331  1
  O  O7  1  0.455072  0.356276  0.932669  1
  O  O8  1  0.539241  0.400189  0.156572  1
  O  O9  1  0.039241  0.099811  0.843428  1
  O  O10  1  0.460759  0.900189  0.343428  1
  O  O11  1  0.960759  0.599811  0.656572  1
  O  O12  1  0.460759  0.599811  0.843428  1
  O  O13  1  0.960759  0.900189  0.156572  1
  O  O14  1  0.539241  0.099811  0.656572  1
  O  O15  1  0.039241  0.400189  0.343428  1
  O  O16  1  0.877829  0.485153  0.899622  1
  O  O17  1  0.377829  0.014847  0.100378  1
  O  O18  1  0.122171  0.985153  0.600378  1
  O  O19  1  0.622171  0.514847  0.399622  1
  O  O20  1  0.122171  0.514847  0.100378  1
  O  O21  1  0.622171  0.985153  0.899622  1
  O  O22  1  0.877829  0.014847  0.399622  1
  O  O23  1  0.377829  0.485153  0.600378  1
  Rb  Rb24  1  0.956448  0.385361  0.202873  1
  Rb  Rb25  1  0.456448  0.114639  0.797127  1
  Rb  Rb26  1  0.043552  0.885361  0.297127  1
  Rb  Rb27  1  0.543552  0.614639  0.702873  1
  Rb  Rb28  1  0.043552  0.614639  0.797127  1
  Rb  Rb29  1  0.543552  0.885361  0.202873  1
  Rb  Rb30  1  0.956448  0.114639  0.702873  1
  Rb  Rb31  1  0.456448  0.385361  0.297127  1
  Rb  Rb32  1  0.766358  0.188174  0.943342  1
  Rb  Rb33  1  0.266358  0.311826  0.056658  1
  Rb  Rb34  1  0.233642  0.688174  0.556658  1
  Rb  Rb35  1  0.733642  0.811826  0.443342  1
  Rb  Rb36  1  0.233642  0.811826  0.056658  1
  Rb  Rb37  1  0.733642  0.688174  0.943342  1
  Rb  Rb38  1  0.766358  0.311826  0.443342  1
  Rb  Rb39  1  0.266358  0.188174  0.556658  1
  Rb  Rb40  1  0.750366  0.055467  0.534870  1
  Rb  Rb41  1  0.250366  0.444533  0.465130  1
  Rb  Rb42  1  0.249634  0.555467  0.965130  1
  Rb  Rb43  1  0.749634  0.944533  0.034870  1
  Rb  Rb44  1  0.249634  0.944533  0.465130  1
  Rb  Rb45  1  0.749634  0.555467  0.534870  1
  Rb  Rb46  1  0.750366  0.444533  0.034870  1
  Rb  Rb47  1  0.250366  0.055467  0.965130  1
  Rb  Rb48  1  0.625973  0.173275  0.151646  1
  Rb  Rb49  1  0.125973  0.326725  0.848354  1
  Rb  Rb50  1  0.374027  0.673275  0.348354  1
  Rb  Rb51  1  0.874027  0.826725  0.651646  1
  Rb  Rb52  1  0.374027  0.826725  0.848354  1
  Rb  Rb53  1  0.874027  0.673275  0.151646  1
  Rb  Rb54  1  0.625973  0.326725  0.651646  1
  Rb  Rb55  1  0.125973  0.173275  0.348354  1
  Pb  Pb56  1  0.607792  0.062408  0.349133  1
  Pb  Pb57  1  0.107792  0.437592  0.650867  1
  Pb  Pb58  1  0.392208  0.562408  0.150867  1
  Pb  Pb59  1  0.892208  0.937592  0.849133  1
  Pb  Pb60  1  0.392208  0.937592  0.650867  1
  Pb  Pb61  1  0.892208  0.562408  0.349133  1
  Pb  Pb62  1  0.607792  0.437592  0.849133  1
  Pb  Pb63  1  0.107792  0.062408  0.150867  1
