# generated using pymatgen
data_U2C3
_symmetry_space_group_name_H-M   'P 1'
_cell_length_a   6.97181272
_cell_length_b   6.97181272
_cell_length_c   6.97181272
_cell_angle_alpha   109.47122061
_cell_angle_beta   109.47122060
_cell_angle_gamma   109.47122063
_symmetry_Int_Tables_number   1
_chemical_formula_structural   U2C3
_chemical_formula_sum   'U8 C12'
_cell_volume   260.86465908
_cell_formula_units_Z   4
loop_
 _symmetry_equiv_pos_site_id
 _symmetry_equiv_pos_as_xyz
  1  'x, y, z'
loop_
 _atom_site_type_symbol
 _atom_site_label
 _atom_site_symmetry_multiplicity
 _atom_site_fract_x
 _atom_site_fract_y
 _atom_site_fract_z
 _atom_site_occupancy
  C  C0  1  0.750000  0.785754  0.035754  1
  C  C1  1  0.750000  0.964246  0.214246  1
  C  C2  1  0.285754  0.250000  0.535754  1
  C  C3  1  0.535754  0.285754  0.250000  1
  C  C4  1  0.214246  0.750000  0.964246  1
  C  C5  1  0.964246  0.214246  0.750000  1
  C  C6  1  0.250000  0.714246  0.464246  1
  C  C7  1  0.714246  0.464246  0.250000  1
  C  C8  1  0.250000  0.535754  0.285754  1
  C  C9  1  0.464246  0.250000  0.714246  1
  C  C10  1  0.035754  0.750000  0.785754  1
  C  C11  1  0.785754  0.035754  0.750000  1
  U  U12  1  0.598275  0.598275  0.598275  1
  U  U13  1  0.401725  0.500000  0.000000  1
  U  U14  1  0.500000  0.000000  0.401725  1
  U  U15  1  0.000000  0.401725  0.500000  1
  U  U16  1  0.500000  0.000000  0.901725  1
  U  U17  1  0.000000  0.901725  0.500000  1
  U  U18  1  0.901725  0.500000  0.000000  1
  U  U19  1  0.098275  0.098275  0.098275  1
