# generated using pymatgen
data_CoP4H16(NO8)2
_symmetry_space_group_name_H-M   'P 1'
_cell_length_a   7.17113329
_cell_length_b   7.39777990
_cell_length_c   7.82726997
_cell_angle_alpha   81.01494893
_cell_angle_beta   70.87482178
_cell_angle_gamma   90.26783115
_symmetry_Int_Tables_number   1
_chemical_formula_structural   CoP4H16(NO8)2
_chemical_formula_sum   'Co1 P4 H16 N2 O16'
_cell_volume   386.81259935
_cell_formula_units_Z   1
loop_
 _symmetry_equiv_pos_site_id
 _symmetry_equiv_pos_as_xyz
  1  'x, y, z'
loop_
 _atom_site_type_symbol
 _atom_site_label
 _atom_site_symmetry_multiplicity
 _atom_site_fract_x
 _atom_site_fract_y
 _atom_site_fract_z
 _atom_site_occupancy
  H  H0  1  0.350832  0.171192  0.189974  1
  H  H1  1  0.649168  0.828808  0.810026  1
  H  H2  1  0.327838  0.400864  0.176953  1
  H  H3  1  0.672162  0.599136  0.823047  1
  H  H4  1  0.431609  0.285661  0.325195  1
  H  H5  1  0.445872  0.681904  0.905057  1
  H  H6  1  0.882043  0.295878  0.340653  1
  H  H7  1  0.117957  0.704122  0.659347  1
  H  H8  1  0.554128  0.318096  0.094943  1
  H  H9  1  0.567481  0.268195  0.574346  1
  H  H10  1  0.432519  0.731805  0.425654  1
  H  H11  1  0.120541  0.837033  0.802506  1
  H  H12  1  0.236945  0.983436  0.027087  1
  H  H13  1  0.763055  0.016564  0.972913  1
  H  H14  1  0.568391  0.714339  0.674805  1
  H  H15  1  0.879459  0.162967  0.197494  1
  N  N16  1  0.416653  0.294019  0.196295  1
  N  N17  1  0.583347  0.705981  0.803705  1
  O  O18  1  0.939204  0.279730  0.210658  1
  O  O19  1  0.750486  0.051928  0.840980  1
  O  O20  1  0.249514  0.948072  0.159020  1
  O  O21  1  0.073483  0.237432  0.645143  1
  O  O22  1  0.773528  0.975460  0.155901  1
  O  O23  1  0.060796  0.720270  0.789342  1
  O  O24  1  0.234474  0.699853  0.424265  1
  O  O25  1  0.226472  0.024540  0.844099  1
  O  O26  1  0.570100  0.753822  0.442369  1
  O  O27  1  0.429900  0.246178  0.557631  1
  O  O28  1  0.759904  0.629934  0.150518  1
  O  O29  1  0.798198  0.383381  0.874509  1
  O  O30  1  0.765526  0.300147  0.575735  1
  O  O31  1  0.240096  0.370065  0.849482  1
  O  O32  1  0.201802  0.616619  0.125491  1
  O  O33  1  0.926517  0.762568  0.354857  1
  P  P34  1  0.162898  0.749465  0.262513  1
  P  P35  1  0.837102  0.250535  0.737487  1
  P  P36  1  0.754655  0.780751  0.261261  1
  P  P37  1  0.245345  0.219249  0.738739  1
  Co  Co38  1  0.000000  0.500000  0.000000  1
