# generated using pymatgen
data_Ag5BiO4
_symmetry_space_group_name_H-M   'P 1'
_cell_length_a   6.03921563
_cell_length_b   9.01400124
_cell_length_c   12.74873753
_cell_angle_alpha   90.00000000
_cell_angle_beta   91.10401204
_cell_angle_gamma   90.00000000
_symmetry_Int_Tables_number   1
_chemical_formula_structural   Ag5BiO4
_chemical_formula_sum   'Ag20 Bi4 O16'
_cell_volume   693.88053140
_cell_formula_units_Z   4
loop_
 _symmetry_equiv_pos_site_id
 _symmetry_equiv_pos_as_xyz
  1  'x, y, z'
loop_
 _atom_site_type_symbol
 _atom_site_label
 _atom_site_symmetry_multiplicity
 _atom_site_fract_x
 _atom_site_fract_y
 _atom_site_fract_z
 _atom_site_occupancy
  O  O0  1  0.097393  0.362326  0.128387  1
  O  O1  1  0.402607  0.862326  0.371613  1
  O  O2  1  0.902607  0.637674  0.871613  1
  O  O3  1  0.597393  0.137674  0.628387  1
  O  O4  1  0.997629  0.904925  0.695080  1
  O  O5  1  0.502371  0.404925  0.804920  1
  O  O6  1  0.008905  0.135726  0.939809  1
  O  O7  1  0.491095  0.635726  0.560191  1
  O  O8  1  0.991095  0.864274  0.060191  1
  O  O9  1  0.508905  0.364274  0.439809  1
  O  O10  1  0.663989  0.135167  0.120813  1
  O  O11  1  0.836011  0.635167  0.379187  1
  O  O12  1  0.336011  0.864833  0.879187  1
  O  O13  1  0.163989  0.364833  0.620813  1
  O  O14  1  0.002371  0.095075  0.304920  1
  O  O15  1  0.497629  0.595075  0.195080  1
  Ag  Ag16  1  0.246987  0.729598  0.124861  1
  Ag  Ag17  1  0.746987  0.770402  0.624861  1
  Ag  Ag18  1  0.000000  0.500000  0.000000  1
  Ag  Ag19  1  0.500000  0.000000  0.500000  1
  Ag  Ag20  1  0.029939  0.138643  0.647214  1
  Ag  Ag21  1  0.470061  0.638643  0.852786  1
  Ag  Ag22  1  0.970061  0.861357  0.352786  1
  Ag  Ag23  1  0.529939  0.361357  0.147214  1
  Ag  Ag24  1  0.531527  0.992342  0.246072  1
  Ag  Ag25  1  0.968473  0.492342  0.253928  1
  Ag  Ag26  1  0.468473  0.007658  0.753928  1
  Ag  Ag27  1  0.031527  0.507658  0.746072  1
  Ag  Ag28  1  0.500000  0.000000  0.000000  1
  Ag  Ag29  1  0.000000  0.500000  0.500000  1
  Ag  Ag30  1  0.259427  0.268011  0.874292  1
  Ag  Ag31  1  0.240573  0.768011  0.625708  1
  Ag  Ag32  1  0.740573  0.731989  0.125708  1
  Ag  Ag33  1  0.759427  0.231989  0.374292  1
  Ag  Ag34  1  0.753013  0.270402  0.875139  1
  Ag  Ag35  1  0.253013  0.229598  0.375139  1
  Bi  Bi36  1  0.527759  0.379285  0.622282  1
  Bi  Bi37  1  0.972241  0.879285  0.877718  1
  Bi  Bi38  1  0.472241  0.620715  0.377718  1
  Bi  Bi39  1  0.027759  0.120715  0.122282  1
