# generated using pymatgen
data_V2Pb3O8
_symmetry_space_group_name_H-M   'P 1'
_cell_length_a   6.57058872
_cell_length_b   7.50825433
_cell_length_c   9.37334661
_cell_angle_alpha   112.26152232
_cell_angle_beta   90.00000000
_cell_angle_gamma   90.00000000
_symmetry_Int_Tables_number   1
_chemical_formula_structural   V2Pb3O8
_chemical_formula_sum   'V4 Pb6 O16'
_cell_volume   427.95452613
_cell_formula_units_Z   2
loop_
 _symmetry_equiv_pos_site_id
 _symmetry_equiv_pos_as_xyz
  1  'x, y, z'
loop_
 _atom_site_type_symbol
 _atom_site_label
 _atom_site_symmetry_multiplicity
 _atom_site_fract_x
 _atom_site_fract_y
 _atom_site_fract_z
 _atom_site_occupancy
  O  O0  1  0.460476  0.813191  0.770748  1
  O  O1  1  0.960476  0.686809  0.729252  1
  O  O2  1  0.539524  0.186809  0.229252  1
  O  O3  1  0.039524  0.313191  0.270748  1
  O  O4  1  0.525169  0.455459  0.783393  1
  O  O5  1  0.025169  0.044541  0.716607  1
  O  O6  1  0.474831  0.544541  0.216607  1
  O  O7  1  0.974831  0.955459  0.283393  1
  O  O8  1  0.697775  0.778685  0.020679  1
  O  O9  1  0.197775  0.721315  0.479321  1
  O  O10  1  0.234016  0.242723  0.514466  1
  O  O11  1  0.734016  0.257277  0.985534  1
  O  O12  1  0.765984  0.757277  0.485534  1
  O  O13  1  0.265984  0.742723  0.014466  1
  O  O14  1  0.802225  0.278685  0.520679  1
  O  O15  1  0.302225  0.221315  0.979321  1
  V  V16  1  0.481267  0.700848  0.900181  1
  V  V17  1  0.981267  0.799152  0.599819  1
  V  V18  1  0.518733  0.299152  0.099819  1
  V  V19  1  0.018733  0.200848  0.400181  1
  Pb  Pb20  1  0.888138  0.401480  0.786595  1
  Pb  Pb21  1  0.388138  0.098520  0.713405  1
  Pb  Pb22  1  0.111862  0.598520  0.213405  1
  Pb  Pb23  1  0.611862  0.901480  0.286595  1
  Pb  Pb24  1  0.500000  0.500000  0.500000  1
  Pb  Pb25  1  0.000000  0.000000  0.000000  1
