# generated using pymatgen
data_U(SiPt)2
_symmetry_space_group_name_H-M   'P 1'
_cell_length_a   4.21159354
_cell_length_b   4.21159354
_cell_length_c   9.83417116
_cell_angle_alpha   90.00000000
_cell_angle_beta   90.00000000
_cell_angle_gamma   90.00000000
_symmetry_Int_Tables_number   1
_chemical_formula_structural   U(SiPt)2
_chemical_formula_sum   'U2 Si4 Pt4'
_cell_volume   174.43380907
_cell_formula_units_Z   2
loop_
 _symmetry_equiv_pos_site_id
 _symmetry_equiv_pos_as_xyz
  1  'x, y, z'
loop_
 _atom_site_type_symbol
 _atom_site_label
 _atom_site_symmetry_multiplicity
 _atom_site_fract_x
 _atom_site_fract_y
 _atom_site_fract_z
 _atom_site_occupancy
  Si  Si0  1  0.250000  0.250000  0.865563  1
  Si  Si1  1  0.750000  0.750000  0.134437  1
  Si  Si2  1  0.250000  0.750000  0.500000  1
  Si  Si3  1  0.750000  0.250000  0.500000  1
  Pt  Pt4  1  0.250000  0.250000  0.622324  1
  Pt  Pt5  1  0.750000  0.750000  0.377676  1
  Pt  Pt6  1  0.250000  0.750000  0.000000  1
  Pt  Pt7  1  0.750000  0.250000  0.000000  1
  U  U8  1  0.250000  0.250000  0.253516  1
  U  U9  1  0.750000  0.750000  0.746484  1
