# generated using pymatgen
data_VMoO5
_symmetry_space_group_name_H-M   'P 1'
_cell_length_a   4.46381523
_cell_length_b   6.75420205
_cell_length_c   6.75420205
_cell_angle_alpha   90.00000000
_cell_angle_beta   90.00000000
_cell_angle_gamma   90.00000000
_symmetry_Int_Tables_number   1
_chemical_formula_structural   VMoO5
_chemical_formula_sum   'V2 Mo2 O10'
_cell_volume   203.63588210
_cell_formula_units_Z   2
loop_
 _symmetry_equiv_pos_site_id
 _symmetry_equiv_pos_as_xyz
  1  'x, y, z'
loop_
 _atom_site_type_symbol
 _atom_site_label
 _atom_site_symmetry_multiplicity
 _atom_site_fract_x
 _atom_site_fract_y
 _atom_site_fract_z
 _atom_site_occupancy
  O  O0  1  0.731304  0.215259  0.964180  1
  O  O1  1  0.731304  0.535820  0.215259  1
  O  O2  1  0.731304  0.964180  0.284741  1
  O  O3  1  0.731304  0.284741  0.535821  1
  O  O4  1  0.199645  0.250000  0.250000  1
  O  O5  1  0.800356  0.750000  0.750001  1
  O  O6  1  0.268697  0.715259  0.464180  1
  O  O7  1  0.268697  0.784741  0.035820  1
  O  O8  1  0.268697  0.464180  0.784741  1
  O  O9  1  0.268697  0.035820  0.715259  1
  V  V10  1  0.832551  0.250000  0.250000  1
  V  V11  1  0.167449  0.750000  0.750001  1
  Mo  Mo12  1  0.499999  0.250000  0.750000  1
  Mo  Mo13  1  0.499999  0.750000  0.250000  1
