# generated using pymatgen
data_LaTlO3
_symmetry_space_group_name_H-M   'P 1'
_cell_length_a   3.75349724
_cell_length_b   3.75349580
_cell_length_c   13.04958575
_cell_angle_alpha   90.00000000
_cell_angle_beta   90.00000000
_cell_angle_gamma   120.00000387
_symmetry_Int_Tables_number   1
_chemical_formula_structural   LaTlO3
_chemical_formula_sum   'La2 Tl2 O6'
_cell_volume   159.22064376
_cell_formula_units_Z   2
loop_
 _symmetry_equiv_pos_site_id
 _symmetry_equiv_pos_as_xyz
  1  'x, y, z'
loop_
 _atom_site_type_symbol
 _atom_site_label
 _atom_site_symmetry_multiplicity
 _atom_site_fract_x
 _atom_site_fract_y
 _atom_site_fract_z
 _atom_site_occupancy
  La  La0  1  -0.000000  -0.000000  0.493333  1
  La  La1  1  -0.000000  0.000000  0.993333  1
  Tl  Tl2  1  0.666667  0.333333  0.261603  1
  Tl  Tl3  1  0.333333  0.666667  0.761603  1
  O  O4  1  0.333333  0.666667  0.045066  1
  O  O5  1  0.333333  0.666667  0.371809  1
  O  O6  1  0.666667  0.333333  0.871809  1
  O  O7  1  -0.000000  -0.000000  0.703190  1
  O  O8  1  -0.000000  -0.000000  0.203190  1
  O  O9  1  0.666667  0.333333  0.545066  1
