# generated using pymatgen
data_Mg3P4H48(NO15)2
_symmetry_space_group_name_H-M   'P 1'
_cell_length_a   6.18963137
_cell_length_b   7.05124768
_cell_length_c   17.70827363
_cell_angle_alpha   101.48402592
_cell_angle_beta   91.18298986
_cell_angle_gamma   89.99999996
_symmetry_Int_Tables_number   1
_chemical_formula_structural   Mg3P4H48(NO15)2
_chemical_formula_sum   'Mg3 P4 H48 N2 O30'
_cell_volume   757.23016098
_cell_formula_units_Z   1
loop_
 _symmetry_equiv_pos_site_id
 _symmetry_equiv_pos_as_xyz
  1  'x, y, z'
loop_
 _atom_site_type_symbol
 _atom_site_label
 _atom_site_symmetry_multiplicity
 _atom_site_fract_x
 _atom_site_fract_y
 _atom_site_fract_z
 _atom_site_occupancy
  H  H0  1  0.946707  0.412232  0.824464  1
  H  H1  1  0.053293  0.587768  0.175536  1
  H  H2  1  0.917307  0.740289  0.243829  1
  H  H3  1  0.082693  0.496460  0.756171  1
  H  H4  1  0.082693  0.259711  0.756171  1
  H  H5  1  0.917307  0.503540  0.243829  1
  H  H6  1  0.845537  0.366093  0.732186  1
  H  H7  1  0.154463  0.633907  0.267814  1
  H  H8  1  0.351057  0.429808  0.090496  1
  H  H9  1  0.648943  0.339312  0.909504  1
  H  H10  1  0.648943  0.570191  0.909504  1
  H  H11  1  0.351057  0.660688  0.090496  1
  H  H12  1  0.279475  0.706120  0.917230  1
  H  H13  1  0.720525  0.788890  0.082770  1
  H  H14  1  0.720525  0.293880  0.082770  1
  H  H15  1  0.279475  0.211110  0.917230  1
  H  H16  1  0.036705  0.136437  0.909123  1
  H  H17  1  0.963295  0.227314  0.090877  1
  H  H18  1  0.963295  0.863563  0.090877  1
  H  H19  1  0.036705  0.772686  0.909123  1
  H  H20  1  0.585747  0.306404  0.206869  1
  H  H21  1  0.414253  0.693596  0.793131  1
  H  H22  1  0.797589  0.432184  0.465798  1
  H  H23  1  0.585747  0.900465  0.206869  1
  H  H24  1  0.560361  0.464414  0.284200  1
  H  H25  1  0.439639  0.180214  0.715800  1
  H  H26  1  0.439639  0.535586  0.715800  1
  H  H27  1  0.560361  0.819786  0.284200  1
  H  H28  1  0.914466  0.887172  0.774344  1
  H  H29  1  0.085534  0.112828  0.225656  1
  H  H30  1  0.803476  0.844751  0.689502  1
  H  H31  1  0.196524  0.155249  0.310498  1
  H  H32  1  0.997861  0.951092  0.415642  1
  H  H33  1  0.002139  0.535450  0.584358  1
  H  H34  1  0.002139  0.048908  0.584358  1
  H  H35  1  0.997861  0.464550  0.415642  1
  H  H36  1  0.797589  0.033614  0.465798  1
  H  H37  1  0.202411  0.567816  0.534202  1
  H  H38  1  0.202411  0.966386  0.534202  1
  H  H39  1  0.319298  0.007956  0.015911  1
  H  H40  1  0.680702  0.992044  0.984089  1
  H  H41  1  0.584586  0.720927  0.441853  1
  H  H42  1  0.415414  0.279073  0.558147  1
  H  H43  1  0.375114  0.318900  0.405858  1
  H  H44  1  0.624886  0.913042  0.594142  1
  H  H45  1  0.624886  0.681100  0.594142  1
  H  H46  1  0.375114  0.086958  0.405858  1
  H  H47  1  0.414253  0.099535  0.793131  1
  N  N48  1  0.987635  0.383469  0.766938  1
  N  N49  1  0.012365  0.616531  0.233062  1
  O  O50  1  0.735735  0.461556  0.923111  1
  O  O51  1  0.264265  0.538444  0.076889  1
  O  O52  1  0.128354  0.252746  0.929092  1
  O  O53  1  0.871646  0.323654  0.070908  1
  O  O54  1  0.871646  0.747254  0.070908  1
  O  O55  1  0.128354  0.676346  0.929092  1
  O  O56  1  0.655148  0.355275  0.258848  1
  O  O57  1  0.344852  0.096427  0.741152  1
  O  O58  1  0.344852  0.644725  0.741152  1
  O  O59  1  0.655148  0.903573  0.258848  1
  O  O60  1  0.944025  0.858912  0.717823  1
  O  O61  1  0.055975  0.141088  0.282177  1
  O  O62  1  0.845341  0.994284  0.411454  1
  O  O63  1  0.154659  0.582830  0.588546  1
  O  O64  1  0.154659  0.005716  0.588546  1
  O  O65  1  0.845341  0.417170  0.411454  1
  O  O66  1  0.569789  0.810734  0.621467  1
  O  O67  1  0.430210  0.189266  0.378533  1
  O  O68  1  0.262484  0.535977  0.436987  1
  O  O69  1  0.737516  0.098989  0.563013  1
  O  O70  1  0.737516  0.464023  0.563013  1
  O  O71  1  0.262484  0.901011  0.436987  1
  O  O72  1  0.597849  0.339885  0.679771  1
  O  O73  1  0.402151  0.660115  0.320229  1
  O  O74  1  0.881429  0.935309  0.870619  1
  O  O75  1  0.118571  0.064691  0.129381  1
  O  O76  1  0.475451  0.241002  0.117875  1
  O  O77  1  0.524549  0.123127  0.882125  1
  O  O78  1  0.524549  0.758998  0.882125  1
  O  O79  1  0.475451  0.876873  0.117875  1
  Mg  Mg80  1  0.000000  0.500000  0.000000  1
  Mg  Mg81  1  0.247594  0.833149  0.666298  1
  Mg  Mg82  1  0.752406  0.166851  0.333702  1
  P  P83  1  0.625008  0.295510  0.591020  1
  P  P84  1  0.374992  0.704490  0.408980  1
  P  P85  1  0.651265  0.951721  0.903442  1
  P  P86  1  0.348735  0.048279  0.096558  1
