# generated using pymatgen
data_Mn3GeIr
_symmetry_space_group_name_H-M   'P 1'
_cell_length_a   6.60948578
_cell_length_b   6.60948578
_cell_length_c   6.60948578
_cell_angle_alpha   90.00000000
_cell_angle_beta   90.00000000
_cell_angle_gamma   90.00000000
_symmetry_Int_Tables_number   1
_chemical_formula_structural   Mn3GeIr
_chemical_formula_sum   'Mn12 Ge4 Ir4'
_cell_volume   288.73738419
_cell_formula_units_Z   4
loop_
 _symmetry_equiv_pos_site_id
 _symmetry_equiv_pos_as_xyz
  1  'x, y, z'
loop_
 _atom_site_type_symbol
 _atom_site_label
 _atom_site_symmetry_multiplicity
 _atom_site_fract_x
 _atom_site_fract_y
 _atom_site_fract_z
 _atom_site_occupancy
  Mn  Mn0  1  0.120630  0.206179  0.453031  1
  Mn  Mn1  1  0.453031  0.120630  0.206179  1
  Mn  Mn2  1  0.206179  0.453031  0.120630  1
  Mn  Mn3  1  0.293821  0.546969  0.620630  1
  Mn  Mn4  1  0.953031  0.379370  0.793821  1
  Mn  Mn5  1  0.793821  0.953031  0.379370  1
  Mn  Mn6  1  0.046969  0.879370  0.706179  1
  Mn  Mn7  1  0.546969  0.620630  0.293821  1
  Mn  Mn8  1  0.706179  0.046969  0.879370  1
  Mn  Mn9  1  0.620630  0.293821  0.546969  1
  Mn  Mn10  1  0.879370  0.706179  0.046969  1
  Mn  Mn11  1  0.379370  0.793821  0.953031  1
  Ge  Ge12  1  0.938139  0.561861  0.438139  1
  Ge  Ge13  1  0.561861  0.438139  0.938139  1
  Ge  Ge14  1  0.438139  0.938139  0.561861  1
  Ge  Ge15  1  0.061861  0.061861  0.061861  1
  Ir  Ir16  1  0.310346  0.189654  0.810346  1
  Ir  Ir17  1  0.189654  0.810346  0.310346  1
  Ir  Ir18  1  0.810346  0.310346  0.189654  1
  Ir  Ir19  1  0.689654  0.689654  0.689654  1
