# generated using pymatgen
data_Li5B4
_symmetry_space_group_name_H-M   'P 1'
_cell_length_a   4.78725449
_cell_length_b   4.78725449
_cell_length_c   4.78725449
_cell_angle_alpha   84.69414269
_cell_angle_beta   84.69414269
_cell_angle_gamma   84.69414269
_symmetry_Int_Tables_number   1
_chemical_formula_structural   Li5B4
_chemical_formula_sum   'Li5 B4'
_cell_volume   108.38481688
_cell_formula_units_Z   1
loop_
 _symmetry_equiv_pos_site_id
 _symmetry_equiv_pos_as_xyz
  1  'x, y, z'
loop_
 _atom_site_type_symbol
 _atom_site_label
 _atom_site_symmetry_multiplicity
 _atom_site_fract_x
 _atom_site_fract_y
 _atom_site_fract_z
 _atom_site_occupancy
  Li  Li0  1  0.287965  0.720421  0.287965  1
  Li  Li1  1  0.287965  0.287965  0.720421  1
  Li  Li2  1  0.720421  0.287965  0.287965  1
  Li  Li3  1  0.210067  0.210067  0.210067  1
  Li  Li4  1  0.694299  0.694299  0.694299  1
  B  B5  1  0.779560  0.191932  0.779560  1
  B  B6  1  0.779560  0.779560  0.191932  1
  B  B7  1  0.191932  0.779560  0.779560  1
  B  B8  1  0.973232  0.973232  0.973232  1
