# generated using pymatgen
data_SiH3F
_symmetry_space_group_name_H-M   'P 1'
_cell_length_a   4.85376432
_cell_length_b   7.96117168
_cell_length_c   7.91477806
_cell_angle_alpha   90.00000000
_cell_angle_beta   98.55924659
_cell_angle_gamma   90.00000000
_symmetry_Int_Tables_number   1
_chemical_formula_structural   SiH3F
_chemical_formula_sum   'Si4 H12 F4'
_cell_volume   302.43379571
_cell_formula_units_Z   4
loop_
 _symmetry_equiv_pos_site_id
 _symmetry_equiv_pos_as_xyz
  1  'x, y, z'
loop_
 _atom_site_type_symbol
 _atom_site_label
 _atom_site_symmetry_multiplicity
 _atom_site_fract_x
 _atom_site_fract_y
 _atom_site_fract_z
 _atom_site_occupancy
  Si  Si0  1  0.695319  0.730508  0.591113  1
  Si  Si1  1  0.804681  0.230508  0.908887  1
  Si  Si2  1  0.304681  0.269492  0.408887  1
  Si  Si3  1  0.195319  0.769492  0.091113  1
  F  F4  1  0.519926  0.664588  0.409498  1
  F  F5  1  0.980074  0.164588  0.090502  1
  F  F6  1  0.480074  0.335412  0.590502  1
  F  F7  1  0.019926  0.835412  0.909498  1
  H  H8  1  0.773864  0.907222  0.560828  1
  H  H9  1  0.726136  0.407222  0.939172  1
  H  H10  1  0.226136  0.092778  0.439172  1
  H  H11  1  0.273864  0.592778  0.060828  1
  H  H12  1  0.942083  0.619371  0.629479  1
  H  H13  1  0.557917  0.119371  0.870521  1
  H  H14  1  0.057917  0.380629  0.370521  1
  H  H15  1  0.442083  0.880629  0.129479  1
  H  H16  1  0.503307  0.718400  0.719970  1
  H  H17  1  0.996693  0.218400  0.780030  1
  H  H18  1  0.496693  0.281600  0.280030  1
  H  H19  1  0.003307  0.781600  0.219970  1
