# generated using pymatgen
data_Er5C2Br9
_symmetry_space_group_name_H-M   'P 1'
_cell_length_a   10.15748122
_cell_length_b   11.79412174
_cell_length_c   16.45405176
_cell_angle_alpha   90.00000000
_cell_angle_beta   90.00000000
_cell_angle_gamma   104.95284982
_symmetry_Int_Tables_number   1
_chemical_formula_structural   Er5C2Br9
_chemical_formula_sum   'Er20 C8 Br36'
_cell_volume   1904.42501287
_cell_formula_units_Z   4
loop_
 _symmetry_equiv_pos_site_id
 _symmetry_equiv_pos_as_xyz
  1  'x, y, z'
loop_
 _atom_site_type_symbol
 _atom_site_label
 _atom_site_symmetry_multiplicity
 _atom_site_fract_x
 _atom_site_fract_y
 _atom_site_fract_z
 _atom_site_occupancy
  C  C0  1  0.508388  0.382081  0.588504  1
  C  C1  1  0.991612  0.117919  0.088504  1
  C  C2  1  0.491612  0.617919  0.411496  1
  C  C3  1  0.008388  0.882081  0.911496  1
  C  C4  1  0.095382  0.168530  0.029444  1
  C  C5  1  0.404618  0.331470  0.529444  1
  C  C6  1  0.904618  0.831470  0.970556  1
  C  C7  1  0.595382  0.668530  0.470556  1
  Br  Br8  1  0.365684  0.063863  0.682264  1
  Br  Br9  1  0.134316  0.436137  0.182264  1
  Br  Br10  1  0.634316  0.936137  0.317736  1
  Br  Br11  1  0.865684  0.563863  0.817736  1
  Br  Br12  1  0.068263  0.155649  0.566614  1
  Br  Br13  1  0.431737  0.344351  0.066614  1
  Br  Br14  1  0.931737  0.844351  0.433386  1
  Br  Br15  1  0.568263  0.655649  0.933386  1
  Br  Br16  1  0.728220  0.265158  0.438665  1
  Br  Br17  1  0.771780  0.234842  0.938665  1
  Br  Br18  1  0.271780  0.734842  0.561335  1
  Br  Br19  1  0.228220  0.765158  0.061335  1
  Br  Br20  1  0.189169  0.468710  0.671152  1
  Br  Br21  1  0.310831  0.031290  0.171152  1
  Br  Br22  1  0.810831  0.531290  0.328848  1
  Br  Br23  1  0.689169  0.968710  0.828848  1
  Br  Br24  1  0.955291  0.860100  0.693405  1
  Br  Br25  1  0.544709  0.639900  0.193405  1
  Br  Br26  1  0.044709  0.139900  0.306595  1
  Br  Br27  1  0.455291  0.360100  0.806595  1
  Br  Br28  1  0.094099  0.173288  0.798554  1
  Br  Br29  1  0.405901  0.326712  0.298554  1
  Br  Br30  1  0.905901  0.826712  0.201446  1
  Br  Br31  1  0.594099  0.673288  0.701446  1
  Br  Br32  1  0.249076  0.748910  0.820163  1
  Br  Br33  1  0.250924  0.751090  0.320163  1
  Br  Br34  1  0.750924  0.251090  0.179837  1
  Br  Br35  1  0.749076  0.248910  0.679837  1
  Br  Br36  1  0.138329  0.458276  0.942835  1
  Br  Br37  1  0.361671  0.041724  0.442835  1
  Br  Br38  1  0.861671  0.541724  0.057165  1
  Br  Br39  1  0.638329  0.958276  0.557165  1
  Br  Br40  1  0.354787  0.059360  0.929671  1
  Br  Br41  1  0.145213  0.440640  0.429671  1
  Br  Br42  1  0.645213  0.940640  0.070329  1
  Br  Br43  1  0.854787  0.559360  0.570329  1
  Er  Er44  1  0.844644  0.054298  0.186176  1
  Er  Er45  1  0.655356  0.445702  0.686176  1
  Er  Er46  1  0.155356  0.945702  0.813824  1
  Er  Er47  1  0.344644  0.554298  0.313824  1
  Er  Er48  1  0.748484  0.737504  0.055973  1
  Er  Er49  1  0.751516  0.762496  0.555973  1
  Er  Er50  1  0.251516  0.262496  0.944027  1
  Er  Er51  1  0.248484  0.237504  0.444027  1
  Er  Er52  1  0.544563  0.190050  0.558478  1
  Er  Er53  1  0.955437  0.309950  0.058478  1
  Er  Er54  1  0.455437  0.809950  0.441522  1
  Er  Er55  1  0.044563  0.690050  0.941522  1
  Er  Er56  1  0.372201  0.532980  0.537632  1
  Er  Er57  1  0.127799  0.967020  0.037632  1
  Er  Er58  1  0.627799  0.467020  0.462368  1
  Er  Er59  1  0.872201  0.032980  0.962368  1
  Er  Er60  1  0.293689  0.280545  0.660661  1
  Er  Er61  1  0.206311  0.219455  0.160661  1
  Er  Er62  1  0.706311  0.719455  0.339339  1
  Er  Er63  1  0.793689  0.780545  0.839339  1
