# generated using pymatgen
data_HoGeIr
_symmetry_space_group_name_H-M   'P 1'
_cell_length_a   4.39216554
_cell_length_b   6.90768394
_cell_length_c   7.49471435
_cell_angle_alpha   90.00000000
_cell_angle_beta   90.00000000
_cell_angle_gamma   90.00000000
_symmetry_Int_Tables_number   1
_chemical_formula_structural   HoGeIr
_chemical_formula_sum   'Ho4 Ge4 Ir4'
_cell_volume   227.38732023
_cell_formula_units_Z   4
loop_
 _symmetry_equiv_pos_site_id
 _symmetry_equiv_pos_as_xyz
  1  'x, y, z'
loop_
 _atom_site_type_symbol
 _atom_site_label
 _atom_site_symmetry_multiplicity
 _atom_site_fract_x
 _atom_site_fract_y
 _atom_site_fract_z
 _atom_site_occupancy
  Ho  Ho0  1  0.250000  0.485368  0.802114  1
  Ho  Ho1  1  0.750000  0.514632  0.197886  1
  Ho  Ho2  1  0.250000  0.985368  0.697886  1
  Ho  Ho3  1  0.750000  0.014632  0.302114  1
  Ge  Ge4  1  0.750000  0.677473  0.580529  1
  Ge  Ge5  1  0.250000  0.822527  0.080529  1
  Ge  Ge6  1  0.250000  0.322527  0.419471  1
  Ge  Ge7  1  0.750000  0.177473  0.919471  1
  Ir  Ir8  1  0.750000  0.291325  0.594846  1
  Ir  Ir9  1  0.250000  0.208675  0.094846  1
  Ir  Ir10  1  0.250000  0.708675  0.405154  1
  Ir  Ir11  1  0.750000  0.791325  0.905154  1
