# generated using pymatgen
data_Ti(SeO3)2
_symmetry_space_group_name_H-M   'P 1'
_cell_length_a   4.87599053
_cell_length_b   6.90407036
_cell_length_c   8.44663465
_cell_angle_alpha   90.00000000
_cell_angle_beta   90.00000000
_cell_angle_gamma   109.35456592
_symmetry_Int_Tables_number   1
_chemical_formula_structural   Ti(SeO3)2
_chemical_formula_sum   'Ti2 Se4 O12'
_cell_volume   268.27927260
_cell_formula_units_Z   2
loop_
 _symmetry_equiv_pos_site_id
 _symmetry_equiv_pos_as_xyz
  1  'x, y, z'
loop_
 _atom_site_type_symbol
 _atom_site_label
 _atom_site_symmetry_multiplicity
 _atom_site_fract_x
 _atom_site_fract_y
 _atom_site_fract_z
 _atom_site_occupancy
  O  O0  1  0.736051  0.903751  0.846837  1
  O  O1  1  0.763949  0.596249  0.346837  1
  O  O2  1  0.263949  0.096249  0.153163  1
  O  O3  1  0.236051  0.403751  0.653163  1
  O  O4  1  0.155703  0.755952  0.948685  1
  O  O5  1  0.344297  0.744048  0.448685  1
  O  O6  1  0.085736  0.329714  0.338093  1
  O  O7  1  0.414264  0.170286  0.838093  1
  O  O8  1  0.914264  0.670286  0.661907  1
  O  O9  1  0.585736  0.829714  0.161907  1
  O  O10  1  0.655703  0.255952  0.551315  1
  O  O11  1  0.844297  0.244048  0.051315  1
  Ti  Ti12  1  0.000000  0.500000  0.500000  1
  Ti  Ti13  1  0.500000  0.000000  0.000000  1
  Se  Se14  1  0.680198  0.820528  0.359845  1
  Se  Se15  1  0.819802  0.679472  0.859845  1
  Se  Se16  1  0.319802  0.179472  0.640155  1
  Se  Se17  1  0.180198  0.320528  0.140155  1
