# generated using pymatgen
data_Ba2Ho2Co4O11
_symmetry_space_group_name_H-M   'P 1'
_cell_length_a   7.59967785
_cell_length_b   7.80002965
_cell_length_c   7.89930439
_cell_angle_alpha   90.00000000
_cell_angle_beta   90.00000000
_cell_angle_gamma   90.00000000
_symmetry_Int_Tables_number   1
_chemical_formula_structural   Ba2Ho2Co4O11
_chemical_formula_sum   'Ba4 Ho4 Co8 O22'
_cell_volume   468.25269506
_cell_formula_units_Z   2
loop_
 _symmetry_equiv_pos_site_id
 _symmetry_equiv_pos_as_xyz
  1  'x, y, z'
loop_
 _atom_site_type_symbol
 _atom_site_label
 _atom_site_symmetry_multiplicity
 _atom_site_fract_x
 _atom_site_fract_y
 _atom_site_fract_z
 _atom_site_occupancy
  O  O0  1  0.301712  0.750000  0.237017  1
  O  O1  1  0.301712  0.750000  0.762983  1
  O  O2  1  0.698288  0.250000  0.762983  1
  O  O3  1  0.698288  0.250000  0.237017  1
  O  O4  1  0.689943  0.750000  0.228577  1
  O  O5  1  0.689943  0.750000  0.771423  1
  O  O6  1  0.310057  0.250000  0.771423  1
  O  O7  1  0.310057  0.250000  0.228577  1
  O  O8  1  0.721072  0.997194  0.500000  1
  O  O9  1  0.721072  0.502806  0.500000  1
  O  O10  1  0.278927  0.497195  0.500000  1
  O  O11  1  0.278927  0.002806  0.500000  1
  O  O12  1  0.682560  0.006199  0.000000  1
  O  O13  1  0.682560  0.493801  0.000000  1
  O  O14  1  0.317439  0.506199  0.000000  1
  O  O15  1  0.317439  0.993801  0.000000  1
  O  O16  1  0.009730  0.250000  0.000000  1
  O  O17  1  0.990270  0.750000  0.000000  1
  O  O18  1  -0.009434  0.250000  0.500000  1
  O  O19  1  0.494353  0.750000  0.500000  1
  O  O20  1  0.505647  0.250000  0.500000  1
  O  O21  1  1.009434  0.750000  0.500000  1
  Co  Co22  1  0.252637  0.750000  0.500000  1
  Co  Co23  1  0.747364  0.250000  0.500000  1
  Co  Co24  1  0.745755  0.750000  0.500000  1
  Co  Co25  1  0.254247  0.250000  0.500000  1
  Co  Co26  1  0.272205  0.750000  0.000000  1
  Co  Co27  1  0.262664  0.250000  0.000000  1
  Co  Co28  1  0.737336  0.750000  0.000000  1
  Co  Co29  1  0.727795  0.250000  0.000000  1
  Ba  Ba30  1  0.000000  0.000000  0.241586  1
  Ba  Ba31  1  0.000000  0.000000  0.758414  1
  Ba  Ba32  1  0.000000  0.500000  0.758414  1
  Ba  Ba33  1  0.000000  0.500000  0.241586  1
  Ho  Ho34  1  0.500001  0.500000  0.268911  1
  Ho  Ho35  1  0.500001  0.000000  0.731090  1
  Ho  Ho36  1  0.500001  0.500000  0.731090  1
  Ho  Ho37  1  0.500001  0.000000  0.268911  1
