# generated using pymatgen
data_DyFeO3
_symmetry_space_group_name_H-M   'P 1'
_cell_length_a   5.33683919
_cell_length_b   5.65107405
_cell_length_c   7.72368625
_cell_angle_alpha   90.00000000
_cell_angle_beta   90.00000000
_cell_angle_gamma   90.00000000
_symmetry_Int_Tables_number   1
_chemical_formula_structural   DyFeO3
_chemical_formula_sum   'Dy4 Fe4 O12'
_cell_volume   232.93767622
_cell_formula_units_Z   4
loop_
 _symmetry_equiv_pos_site_id
 _symmetry_equiv_pos_as_xyz
  1  'x, y, z'
loop_
 _atom_site_type_symbol
 _atom_site_label
 _atom_site_symmetry_multiplicity
 _atom_site_fract_x
 _atom_site_fract_y
 _atom_site_fract_z
 _atom_site_occupancy
  O  O0  1  0.307821  0.694582  0.560056  1
  O  O1  1  0.807822  0.805417  0.439944  1
  O  O2  1  0.192177  0.194584  0.939943  1
  O  O3  1  0.692177  0.305417  0.060056  1
  O  O4  1  0.692177  0.305417  0.439944  1
  O  O5  1  0.192177  0.194584  0.560056  1
  O  O6  1  0.807822  0.805417  0.060056  1
  O  O7  1  0.307821  0.694582  0.939943  1
  O  O8  1  0.116965  0.456745  0.250001  1
  O  O9  1  0.616965  0.043253  0.750000  1
  O  O10  1  0.883034  0.543254  0.750000  1
  O  O11  1  0.383036  0.956746  0.250001  1
  Fe  Fe12  1  0.500000  0.000000  0.500000  1
  Fe  Fe13  1  0.000000  0.500001  0.500000  1
  Fe  Fe14  1  0.000000  0.500001  0.000000  1
  Fe  Fe15  1  0.500000  0.000000  0.000000  1
  Dy  Dy16  1  0.019401  0.931392  0.750000  1
  Dy  Dy17  1  0.519401  0.568608  0.250001  1
  Dy  Dy18  1  0.480599  0.431391  0.750000  1
  Dy  Dy19  1  0.980600  0.068609  0.250001  1
