# generated using pymatgen
data_Co(SbO3)2
_symmetry_space_group_name_H-M   'P 1'
_cell_length_a   4.72851296
_cell_length_b   4.72851296
_cell_length_c   9.42576391
_cell_angle_alpha   90.00000000
_cell_angle_beta   90.00000000
_cell_angle_gamma   90.00000000
_symmetry_Int_Tables_number   1
_chemical_formula_structural   Co(SbO3)2
_chemical_formula_sum   'Co2 Sb4 O12'
_cell_volume   210.74909825
_cell_formula_units_Z   2
loop_
 _symmetry_equiv_pos_site_id
 _symmetry_equiv_pos_as_xyz
  1  'x, y, z'
loop_
 _atom_site_type_symbol
 _atom_site_label
 _atom_site_symmetry_multiplicity
 _atom_site_fract_x
 _atom_site_fract_y
 _atom_site_fract_z
 _atom_site_occupancy
  O  O0  1  0.697453  0.697453  0.671750  1
  O  O1  1  0.302547  0.302547  0.671750  1
  O  O2  1  0.697453  0.697453  0.328250  1
  O  O3  1  0.197453  0.802547  0.171750  1
  O  O4  1  0.802547  0.197453  0.171750  1
  O  O5  1  0.802547  0.197453  0.828250  1
  O  O6  1  0.309631  0.309631  0.000000  1
  O  O7  1  0.190369  0.809631  0.500000  1
  O  O8  1  0.809631  0.190369  0.500000  1
  O  O9  1  0.690369  0.690369  0.000000  1
  O  O10  1  0.302547  0.302547  0.328250  1
  O  O11  1  0.197453  0.802547  0.828250  1
  Co  Co12  1  0.000000  0.000000  0.000000  1
  Co  Co13  1  0.500000  0.500000  0.500000  1
  Sb  Sb14  1  0.500000  0.500000  0.832213  1
  Sb  Sb15  1  0.000000  0.000000  0.332213  1
  Sb  Sb16  1  0.500000  0.500000  0.167787  1
  Sb  Sb17  1  0.000000  0.000000  0.667787  1
