# generated using pymatgen
data_Mo3O8
_symmetry_space_group_name_H-M   'P 1'
_cell_length_a   10.61951430
_cell_length_b   10.61951430
_cell_length_c   10.61951430
_cell_angle_alpha   33.76080672
_cell_angle_beta   33.76080672
_cell_angle_gamma   33.76080676
_symmetry_Int_Tables_number   1
_chemical_formula_structural   Mo3O8
_chemical_formula_sum   'Mo6 O16'
_cell_volume   329.55332939
_cell_formula_units_Z   2
loop_
 _symmetry_equiv_pos_site_id
 _symmetry_equiv_pos_as_xyz
  1  'x, y, z'
loop_
 _atom_site_type_symbol
 _atom_site_label
 _atom_site_symmetry_multiplicity
 _atom_site_fract_x
 _atom_site_fract_y
 _atom_site_fract_z
 _atom_site_occupancy
  O  O0  1  0.655350  0.096061  0.096061  1
  O  O1  1  0.903939  0.344650  0.903939  1
  O  O2  1  0.596803  0.155714  0.596803  1
  O  O3  1  0.844286  0.403197  0.403197  1
  O  O4  1  0.403197  0.403197  0.844286  1
  O  O5  1  0.596803  0.596803  0.155714  1
  O  O6  1  0.096061  0.655350  0.096061  1
  O  O7  1  0.344650  0.903939  0.903939  1
  O  O8  1  0.155714  0.596803  0.596803  1
  O  O9  1  0.403197  0.844286  0.403197  1
  O  O10  1  0.096061  0.096061  0.655350  1
  O  O11  1  0.120337  0.120337  0.120337  1
  O  O12  1  0.619538  0.619538  0.619538  1
  O  O13  1  0.380462  0.380462  0.380462  1
  O  O14  1  0.903939  0.903939  0.344650  1
  O  O15  1  0.879663  0.879663  0.879663  1
  Mo  Mo16  1  0.750539  0.250286  0.250286  1
  Mo  Mo17  1  0.749714  0.249461  0.749714  1
  Mo  Mo18  1  0.250286  0.250286  0.750539  1
  Mo  Mo19  1  0.749714  0.749714  0.249461  1
  Mo  Mo20  1  0.249461  0.749714  0.749714  1
  Mo  Mo21  1  0.250286  0.750539  0.250286  1
