# generated using pymatgen
data_H5N2ClO4
_symmetry_space_group_name_H-M   'P 1'
_cell_length_a   5.45266586
_cell_length_b   7.73744104
_cell_length_c   12.40787441
_cell_angle_alpha   78.07969517
_cell_angle_beta   77.30705830
_cell_angle_gamma   69.36852024
_symmetry_Int_Tables_number   1
_chemical_formula_structural   H5N2ClO4
_chemical_formula_sum   'H20 N8 Cl4 O16'
_cell_volume   473.13409168
_cell_formula_units_Z   4
loop_
 _symmetry_equiv_pos_site_id
 _symmetry_equiv_pos_as_xyz
  1  'x, y, z'
loop_
 _atom_site_type_symbol
 _atom_site_label
 _atom_site_symmetry_multiplicity
 _atom_site_fract_x
 _atom_site_fract_y
 _atom_site_fract_z
 _atom_site_occupancy
  H  H0  1  0.340325  0.011657  0.302849  1
  H  H1  1  0.345169  0.511657  0.802849  1
  H  H2  1  0.659675  0.988343  0.697151  1
  H  H3  1  0.654831  0.488343  0.197151  1
  H  H4  1  0.603254  0.504049  0.702403  1
  H  H5  1  0.809705  0.995951  0.797597  1
  H  H6  1  0.396746  0.495951  0.297597  1
  H  H7  1  0.190295  0.004049  0.202403  1
  H  H8  1  0.600341  0.042867  0.128671  1
  H  H9  1  0.771879  0.457133  0.371329  1
  H  H10  1  0.399659  0.957133  0.871329  1
  H  H11  1  0.228121  0.542867  0.628671  1
  H  H12  1  0.353487  0.232116  0.088833  1
  H  H13  1  0.062245  0.740621  0.692966  1
  H  H14  1  0.646513  0.767884  0.911167  1
  H  H15  1  0.325564  0.732116  0.588833  1
  H  H16  1  0.504168  0.240621  0.192966  1
  H  H17  1  0.937755  0.259379  0.307034  1
  H  H18  1  0.495832  0.759379  0.807034  1
  H  H19  1  0.674436  0.267884  0.411167  1
  N  N20  1  0.440511  0.153982  0.156775  1
  N  N21  1  0.756388  0.908607  0.761827  1
  N  N22  1  0.573178  0.408607  0.261827  1
  N  N23  1  0.243612  0.091393  0.238173  1
  N  N24  1  0.751268  0.346018  0.343225  1
  N  N25  1  0.248732  0.653982  0.656775  1
  N  N26  1  0.559489  0.846018  0.843225  1
  N  N27  1  0.426822  0.591393  0.738173  1
  O  O28  1  0.218373  0.044606  0.657816  1
  O  O29  1  0.869945  0.153215  0.895445  1
  O  O30  1  0.918606  0.346785  0.604555  1
  O  O31  1  0.130055  0.846785  0.104555  1
  O  O32  1  0.781627  0.955394  0.342184  1
  O  O33  1  0.079204  0.544606  0.157816  1
  O  O34  1  0.081394  0.653215  0.395445  1
  O  O35  1  0.920796  0.455394  0.842184  1
  O  O36  1  0.789610  0.831560  0.535043  1
  O  O37  1  0.156213  0.668440  0.964957  1
  O  O38  1  0.210390  0.168440  0.464957  1
  O  O39  1  0.843787  0.331560  0.035043  1
  O  O40  1  0.614062  0.702813  0.422177  1
  O  O41  1  0.739051  0.797187  0.077823  1
  O  O42  1  0.385938  0.297187  0.577823  1
  O  O43  1  0.260949  0.202813  0.922177  1
  Cl  Cl44  1  0.819107  0.786202  0.423704  1
  Cl  Cl45  1  0.970988  0.286202  0.923704  1
  Cl  Cl46  1  0.180893  0.213798  0.576296  1
  Cl  Cl47  1  0.029012  0.713798  0.076297  1
