# generated using pymatgen
data_ScNiB4
_symmetry_space_group_name_H-M   'P 1'
_cell_length_a   3.25367440
_cell_length_b   5.78500920
_cell_length_c   11.22387154
_cell_angle_alpha   90.00000000
_cell_angle_beta   90.00000000
_cell_angle_gamma   90.00000000
_symmetry_Int_Tables_number   1
_chemical_formula_structural   ScNiB4
_chemical_formula_sum   'Sc4 Ni4 B16'
_cell_volume   211.26172991
_cell_formula_units_Z   4
loop_
 _symmetry_equiv_pos_site_id
 _symmetry_equiv_pos_as_xyz
  1  'x, y, z'
loop_
 _atom_site_type_symbol
 _atom_site_label
 _atom_site_symmetry_multiplicity
 _atom_site_fract_x
 _atom_site_fract_y
 _atom_site_fract_z
 _atom_site_occupancy
  B  B0  1  0.500000  0.020597  0.694067  1
  B  B1  1  0.500000  0.979403  0.305933  1
  B  B2  1  0.500000  0.520597  0.805933  1
  B  B3  1  0.500000  0.479403  0.194067  1
  B  B4  1  0.500000  0.115853  0.549195  1
  B  B5  1  0.500000  0.884147  0.450805  1
  B  B6  1  0.500000  0.615853  0.950805  1
  B  B7  1  0.500000  0.384147  0.049195  1
  B  B8  1  0.500000  0.289603  0.313692  1
  B  B9  1  0.500000  0.710397  0.686308  1
  B  B10  1  0.500000  0.789603  0.186308  1
  B  B11  1  0.500000  0.210397  0.813692  1
  B  B12  1  0.500000  0.365886  0.467623  1
  B  B13  1  0.500000  0.634114  0.532377  1
  B  B14  1  0.500000  0.865886  0.032377  1
  B  B15  1  0.500000  0.134114  0.967623  1
  Sc  Sc16  1  0.000000  0.127504  0.150391  1
  Sc  Sc17  1  0.000000  0.872496  0.849609  1
  Sc  Sc18  1  0.000000  0.627504  0.349609  1
  Sc  Sc19  1  0.000000  0.372496  0.650391  1
  Ni  Ni20  1  0.000000  0.135043  0.411436  1
  Ni  Ni21  1  0.000000  0.864957  0.588564  1
  Ni  Ni22  1  0.000000  0.635043  0.088564  1
  Ni  Ni23  1  0.000000  0.364957  0.911436  1
