# generated using pymatgen
data_Ge3Cl8
_symmetry_space_group_name_H-M   'P 1'
_cell_length_a   13.07925672
_cell_length_b   13.07925672
_cell_length_c   13.07925672
_cell_angle_alpha   59.99999999
_cell_angle_beta   60.00000000
_cell_angle_gamma   60.00000001
_symmetry_Int_Tables_number   1
_chemical_formula_structural   Ge3Cl8
_chemical_formula_sum   'Ge12 Cl32'
_cell_volume   1582.10096188
_cell_formula_units_Z   4
loop_
 _symmetry_equiv_pos_site_id
 _symmetry_equiv_pos_as_xyz
  1  'x, y, z'
loop_
 _atom_site_type_symbol
 _atom_site_label
 _atom_site_symmetry_multiplicity
 _atom_site_fract_x
 _atom_site_fract_y
 _atom_site_fract_z
 _atom_site_occupancy
  Cl  Cl0  1  0.287106  0.982833  0.553327  1
  Cl  Cl1  1  0.982833  0.553327  0.287106  1
  Cl  Cl2  1  0.553327  0.287106  0.982833  1
  Cl  Cl3  1  0.287106  0.553327  0.176733  1
  Cl  Cl4  1  0.287106  0.176733  0.982833  1
  Cl  Cl5  1  0.176733  0.553327  0.982833  1
  Cl  Cl6  1  0.053327  0.787106  0.676733  1
  Cl  Cl7  1  0.676733  0.482833  0.053327  1
  Cl  Cl8  1  0.482833  0.676733  0.787106  1
  Cl  Cl9  1  0.787106  0.676733  0.053327  1
  Cl  Cl10  1  0.787106  0.482833  0.676733  1
  Cl  Cl11  1  0.482833  0.053327  0.676733  1
  Cl  Cl12  1  0.933382  0.933382  0.199853  1
  Cl  Cl13  1  0.433382  0.699853  0.433382  1
  Cl  Cl14  1  0.433382  0.433382  0.433382  1
  Cl  Cl15  1  0.699853  0.433382  0.433382  1
  Cl  Cl16  1  0.199853  0.933382  0.933382  1
  Cl  Cl17  1  0.933382  0.199853  0.933382  1
  Cl  Cl18  1  0.933382  0.933382  0.933382  1
  Cl  Cl19  1  0.433382  0.433382  0.699853  1
  Cl  Cl20  1  0.787106  0.053327  0.482833  1
  Cl  Cl21  1  0.553327  0.982833  0.176733  1
  Cl  Cl22  1  0.176733  0.287106  0.553327  1
  Cl  Cl23  1  0.553327  0.176733  0.287106  1
  Cl  Cl24  1  0.982833  0.287106  0.176733  1
  Cl  Cl25  1  0.982833  0.176733  0.553327  1
  Cl  Cl26  1  0.176733  0.982833  0.287106  1
  Cl  Cl27  1  0.482833  0.787106  0.053327  1
  Cl  Cl28  1  0.053327  0.482833  0.787106  1
  Cl  Cl29  1  0.676733  0.787106  0.482833  1
  Cl  Cl30  1  0.053327  0.676733  0.482833  1
  Cl  Cl31  1  0.676733  0.053327  0.787106  1
  Ge  Ge32  1  0.172493  0.482520  0.172493  1
  Ge  Ge33  1  0.672493  0.672493  0.672493  1
  Ge  Ge34  1  0.982520  0.672493  0.672493  1
  Ge  Ge35  1  0.672493  0.672493  0.982520  1
  Ge  Ge36  1  0.172493  0.172493  0.172493  1
  Ge  Ge37  1  0.172493  0.172493  0.482520  1
  Ge  Ge38  1  0.482520  0.172493  0.172493  1
  Ge  Ge39  1  0.672493  0.982520  0.672493  1
  Ge  Ge40  1  0.250000  0.250000  0.250000  1
  Ge  Ge41  1  0.750000  0.750000  0.750000  1
  Ge  Ge42  1  0.500000  0.500000  0.500000  1
  Ge  Ge43  1  0.000000  0.000000  0.000000  1
