# generated using pymatgen
data_FeSn2(CN)6
_symmetry_space_group_name_H-M   'P 1'
_cell_length_a   7.24406953
_cell_length_b   7.24406953
_cell_length_c   5.56480728
_cell_angle_alpha   90.00000000
_cell_angle_beta   90.00000000
_cell_angle_gamma   119.99999999
_symmetry_Int_Tables_number   1
_chemical_formula_structural   FeSn2(CN)6
_chemical_formula_sum   'Fe1 Sn2 C6 N6'
_cell_volume   252.89834100
_cell_formula_units_Z   1
loop_
 _symmetry_equiv_pos_site_id
 _symmetry_equiv_pos_as_xyz
  1  'x, y, z'
loop_
 _atom_site_type_symbol
 _atom_site_label
 _atom_site_symmetry_multiplicity
 _atom_site_fract_x
 _atom_site_fract_y
 _atom_site_fract_z
 _atom_site_occupancy
  C  C0  1  0.242120  0.161985  0.809140  1
  C  C1  1  0.838015  0.080135  0.809140  1
  C  C2  1  0.919865  0.757880  0.809140  1
  C  C3  1  0.080135  0.242120  0.190860  1
  C  C4  1  0.757880  0.838015  0.190860  1
  C  C5  1  0.161985  0.919865  0.190860  1
  N  N6  1  0.730081  0.127315  0.695437  1
  N  N7  1  0.397234  0.269919  0.695437  1
  N  N8  1  0.872685  0.602766  0.695437  1
  N  N9  1  0.269919  0.872685  0.304563  1
  N  N10  1  0.127315  0.397234  0.304563  1
  N  N11  1  0.602766  0.730081  0.304563  1
  Fe  Fe12  1  0.000000  0.000000  0.000000  1
  Sn  Sn13  1  0.666667  0.333333  0.443723  1
  Sn  Sn14  1  0.333333  0.666667  0.556277  1
