# generated using pymatgen
data_H8C3SN(OF)3
_symmetry_space_group_name_H-M   'P 1'
_cell_length_a   8.28635427
_cell_length_b   9.09961827
_cell_length_c   11.11454676
_cell_angle_alpha   90.77033995
_cell_angle_beta   90.00000000
_cell_angle_gamma   90.00000000
_symmetry_Int_Tables_number   1
_chemical_formula_structural   H8C3SN(OF)3
_chemical_formula_sum   'H32 C12 S4 N4 O12 F12'
_cell_volume   837.99065195
_cell_formula_units_Z   4
loop_
 _symmetry_equiv_pos_site_id
 _symmetry_equiv_pos_as_xyz
  1  'x, y, z'
loop_
 _atom_site_type_symbol
 _atom_site_label
 _atom_site_symmetry_multiplicity
 _atom_site_fract_x
 _atom_site_fract_y
 _atom_site_fract_z
 _atom_site_occupancy
  H  H0  1  0.400773  0.666660  0.201297  1
  H  H1  1  0.900773  0.333340  0.298703  1
  H  H2  1  0.599227  0.333340  0.798703  1
  H  H3  1  0.099227  0.666660  0.701297  1
  H  H4  1  0.488300  0.831264  0.144313  1
  H  H5  1  0.988300  0.168736  0.355687  1
  H  H6  1  0.511700  0.168736  0.855687  1
  H  H7  1  0.011700  0.831264  0.644313  1
  H  H8  1  0.295110  0.768645  0.088856  1
  H  H9  1  0.795110  0.231355  0.411144  1
  H  H10  1  0.704890  0.231355  0.911144  1
  H  H11  1  0.204890  0.768645  0.588856  1
  H  H12  1  0.055705  0.785879  0.220993  1
  H  H13  1  0.555705  0.214121  0.279007  1
  H  H14  1  0.136381  0.872027  0.838649  1
  H  H15  1  0.444295  0.785879  0.720993  1
  H  H16  1  0.078877  0.866116  0.368700  1
  H  H17  1  0.578877  0.133884  0.131300  1
  H  H18  1  0.921123  0.133884  0.631300  1
  H  H19  1  0.421123  0.866116  0.868700  1
  H  H20  1  0.158987  0.686716  0.336224  1
  H  H21  1  0.658987  0.313284  0.163776  1
  H  H22  1  0.841013  0.313284  0.663776  1
  H  H23  1  0.341013  0.686716  0.836224  1
  H  H24  1  0.267030  0.968788  0.231591  1
  H  H25  1  0.767030  0.031212  0.268409  1
  H  H26  1  0.732970  0.031212  0.768409  1
  H  H27  1  0.232970  0.968788  0.731591  1
  H  H28  1  0.363619  0.872027  0.338649  1
  H  H29  1  0.863619  0.127973  0.161351  1
  H  H30  1  0.636381  0.127973  0.661351  1
  H  H31  1  0.944295  0.214121  0.779007  1
  C  C32  1  0.865472  0.204318  0.700204  1
  C  C33  1  0.722368  0.627259  0.464361  1
  C  C34  1  0.222368  0.372741  0.035639  1
  C  C35  1  0.277632  0.372741  0.535639  1
  C  C36  1  0.777632  0.627259  0.964361  1
  C  C37  1  0.134528  0.795682  0.299796  1
  C  C38  1  0.634528  0.204318  0.200204  1
  C  C39  1  0.365472  0.795682  0.799796  1
  C  C40  1  0.374931  0.776547  0.167211  1
  C  C41  1  0.874931  0.223453  0.332789  1
  C  C42  1  0.625069  0.223453  0.832789  1
  C  C43  1  0.125069  0.776547  0.667211  1
  N  N44  1  0.209727  0.863021  0.762820  1
  N  N45  1  0.290273  0.863021  0.262820  1
  N  N46  1  0.709727  0.136979  0.737180  1
  N  N47  1  0.790273  0.136979  0.237180  1
  O  O48  1  0.799899  0.867232  0.838133  1
  O  O49  1  0.019519  0.813071  0.978769  1
  O  O50  1  0.980481  0.186929  0.021231  1
  O  O51  1  0.519519  0.186929  0.521231  1
  O  O52  1  0.480481  0.813071  0.478769  1
  O  O53  1  0.299899  0.132768  0.661867  1
  O  O54  1  0.746076  0.893780  0.556969  1
  O  O55  1  0.700101  0.867232  0.338133  1
  O  O56  1  0.753924  0.893780  0.056969  1
  O  O57  1  0.253924  0.106220  0.443031  1
  O  O58  1  0.246076  0.106220  0.943031  1
  O  O59  1  0.200101  0.132768  0.161867  1
  F  F60  1  0.643666  0.544621  0.380272  1
  F  F61  1  0.143666  0.455379  0.119728  1
  F  F62  1  0.356334  0.455379  0.619728  1
  F  F63  1  0.856334  0.544621  0.880272  1
  F  F64  1  0.694415  0.568113  0.573964  1
  F  F65  1  0.194415  0.431887  0.926036  1
  F  F66  1  0.305585  0.431887  0.426036  1
  F  F67  1  0.805585  0.568113  0.073964  1
  F  F68  1  0.616357  0.615700  0.941825  1
  F  F69  1  0.383643  0.384300  0.058175  1
  F  F70  1  0.116357  0.384300  0.558175  1
  F  F71  1  0.883643  0.615700  0.441825  1
  S  S72  1  0.655291  0.823708  0.460224  1
  S  S73  1  0.155291  0.176292  0.039776  1
  S  S74  1  0.344709  0.176292  0.539776  1
  S  S75  1  0.844709  0.823708  0.960224  1
