# generated using pymatgen
data_Na3H(SO4)2
_symmetry_space_group_name_H-M   'P 1'
_cell_length_a   8.76019215
_cell_length_b   9.24518608
_cell_length_c   9.78555898
_cell_angle_alpha   90.00000000
_cell_angle_beta   90.00000000
_cell_angle_gamma   108.54570536
_symmetry_Int_Tables_number   1
_chemical_formula_structural   Na3H(SO4)2
_chemical_formula_sum   'Na12 H4 S8 O32'
_cell_volume   751.37274949
_cell_formula_units_Z   4
loop_
 _symmetry_equiv_pos_site_id
 _symmetry_equiv_pos_as_xyz
  1  'x, y, z'
loop_
 _atom_site_type_symbol
 _atom_site_label
 _atom_site_symmetry_multiplicity
 _atom_site_fract_x
 _atom_site_fract_y
 _atom_site_fract_z
 _atom_site_occupancy
  H  H0  1  0.395368  0.382802  0.263548  1
  H  H1  1  0.604632  0.117198  0.763548  1
  H  H2  1  0.604632  0.617198  0.736452  1
  H  H3  1  0.395368  0.882802  0.236452  1
  O  O4  1  0.036155  0.276179  0.093613  1
  O  O5  1  0.963845  0.223821  0.593613  1
  O  O6  1  0.963845  0.723821  0.906387  1
  O  O7  1  0.036155  0.776179  0.406387  1
  O  O8  1  0.310379  0.416759  0.163727  1
  O  O9  1  0.689621  0.083241  0.663727  1
  O  O10  1  0.689621  0.583241  0.836273  1
  O  O11  1  0.310379  0.916759  0.336273  1
  O  O12  1  0.115024  0.549728  0.134491  1
  O  O13  1  0.884976  0.950272  0.634491  1
  O  O14  1  0.884976  0.450272  0.865509  1
  O  O15  1  0.115024  0.049728  0.365509  1
  O  O16  1  0.090056  0.373497  0.326469  1
  O  O17  1  0.909944  0.126503  0.826469  1
  O  O18  1  0.909944  0.626503  0.673531  1
  O  O19  1  0.090056  0.873497  0.173531  1
  O  O20  1  0.466212  0.855518  0.151793  1
  O  O21  1  0.533788  0.644482  0.651793  1
  O  O22  1  0.533788  0.144482  0.848207  1
  O  O23  1  0.466212  0.355518  0.348207  1
  O  O24  1  0.754158  0.992264  0.124707  1
  O  O25  1  0.245842  0.507736  0.624707  1
  O  O26  1  0.245842  0.007736  0.875293  1
  O  O27  1  0.754158  0.492264  0.375293  1
  O  O28  1  0.653888  0.873818  0.342520  1
  O  O29  1  0.346112  0.626182  0.842520  1
  O  O30  1  0.346112  0.126182  0.657480  1
  O  O31  1  0.653888  0.373818  0.157480  1
  O  O32  1  0.657321  0.714715  0.142394  1
  O  O33  1  0.342679  0.785285  0.642394  1
  O  O34  1  0.342679  0.285285  0.857606  1
  O  O35  1  0.657321  0.214715  0.357606  1
  Na  Na36  1  0.000000  0.500000  0.500000  1
  Na  Na37  1  0.000000  0.000000  0.000000  1
  Na  Na38  1  0.500000  0.500000  0.000000  1
  Na  Na39  1  0.500000  0.000000  0.500000  1
  Na  Na40  1  0.886723  0.628336  0.156031  1
  Na  Na41  1  0.113277  0.871664  0.656031  1
  Na  Na42  1  0.113277  0.371664  0.843969  1
  Na  Na43  1  0.886723  0.128336  0.343969  1
  Na  Na44  1  0.759428  0.724973  0.495675  1
  Na  Na45  1  0.240572  0.775027  0.995675  1
  Na  Na46  1  0.240572  0.275027  0.504325  1
  Na  Na47  1  0.759428  0.224973  0.004325  1
  S  S48  1  0.134787  0.404549  0.180065  1
  S  S49  1  0.865213  0.095451  0.680065  1
  S  S50  1  0.865213  0.595451  0.819935  1
  S  S51  1  0.134787  0.904549  0.319935  1
  S  S52  1  0.639150  0.357992  0.308368  1
  S  S53  1  0.360850  0.142008  0.808368  1
  S  S54  1  0.360850  0.642008  0.691632  1
  S  S55  1  0.639150  0.857992  0.191632  1
