# generated using pymatgen
data_ThSi2
_symmetry_space_group_name_H-M   'P 1'
_cell_length_a   4.12281561
_cell_length_b   4.12281562
_cell_length_c   7.81708098
_cell_angle_alpha   105.29005173
_cell_angle_beta   105.29005178
_cell_angle_gamma   90.00000002
_symmetry_Int_Tables_number   1
_chemical_formula_structural   ThSi2
_chemical_formula_sum   'Th2 Si4'
_cell_volume   123.28593043
_cell_formula_units_Z   2
loop_
 _symmetry_equiv_pos_site_id
 _symmetry_equiv_pos_as_xyz
  1  'x, y, z'
loop_
 _atom_site_type_symbol
 _atom_site_label
 _atom_site_symmetry_multiplicity
 _atom_site_fract_x
 _atom_site_fract_y
 _atom_site_fract_z
 _atom_site_occupancy
  Si  Si0  1  0.542006  0.792006  0.584012  1
  Si  Si1  1  0.292006  0.042006  0.084012  1
  Si  Si2  1  0.457994  0.207994  0.415988  1
  Si  Si3  1  0.707994  0.957994  0.915988  1
  Th  Th4  1  0.125000  0.375000  0.750000  1
  Th  Th5  1  0.875000  0.625000  0.250000  1
