# generated using pymatgen
data_Na3TiP3NO9
_symmetry_space_group_name_H-M   'P 1'
_cell_length_a   9.62969704
_cell_length_b   9.62969704
_cell_length_c   9.62969704
_cell_angle_alpha   90.00000000
_cell_angle_beta   90.00000000
_cell_angle_gamma   90.00000000
_symmetry_Int_Tables_number   1
_chemical_formula_structural   Na3TiP3NO9
_chemical_formula_sum   'Na12 Ti4 P12 N4 O36'
_cell_volume   892.97206294
_cell_formula_units_Z   4
loop_
 _symmetry_equiv_pos_site_id
 _symmetry_equiv_pos_as_xyz
  1  'x, y, z'
loop_
 _atom_site_type_symbol
 _atom_site_label
 _atom_site_symmetry_multiplicity
 _atom_site_fract_x
 _atom_site_fract_y
 _atom_site_fract_z
 _atom_site_occupancy
  N  N0  1  0.050726  0.949274  0.449274  1
  N  N1  1  0.550726  0.550726  0.550726  1
  N  N2  1  0.949274  0.449274  0.050726  1
  N  N3  1  0.449274  0.050726  0.949274  1
  O  O4  1  0.124315  0.363107  0.242765  1
  O  O5  1  0.800035  0.062312  0.418364  1
  O  O6  1  0.081636  0.199965  0.562312  1
  O  O7  1  0.199965  0.562312  0.081636  1
  O  O8  1  0.581636  0.300035  0.437688  1
  O  O9  1  0.918364  0.699965  0.937688  1
  O  O10  1  0.699965  0.937688  0.918364  1
  O  O11  1  0.937688  0.918364  0.699965  1
  O  O12  1  0.363107  0.242765  0.124315  1
  O  O13  1  0.863107  0.257235  0.875685  1
  O  O14  1  0.636893  0.742765  0.375685  1
  O  O15  1  0.257235  0.875685  0.863107  1
  O  O16  1  0.478033  0.400803  0.770665  1
  O  O17  1  0.875685  0.863107  0.257235  1
  O  O18  1  0.242765  0.124315  0.363107  1
  O  O19  1  0.300035  0.437688  0.581636  1
  O  O20  1  0.742765  0.375685  0.636893  1
  O  O21  1  0.757235  0.624315  0.136893  1
  O  O22  1  0.624315  0.136893  0.757235  1
  O  O23  1  0.136893  0.757235  0.624315  1
  O  O24  1  0.599197  0.270665  0.021967  1
  O  O25  1  0.099197  0.229335  0.978033  1
  O  O26  1  0.400803  0.770665  0.478033  1
  O  O27  1  0.229335  0.978033  0.099197  1
  O  O28  1  0.562312  0.081636  0.199965  1
  O  O29  1  0.418364  0.800035  0.062312  1
  O  O30  1  0.437688  0.581636  0.300035  1
  O  O31  1  0.062312  0.418364  0.800035  1
  O  O32  1  0.900803  0.729335  0.521967  1
  O  O33  1  0.521967  0.900803  0.729335  1
  O  O34  1  0.729335  0.521967  0.900803  1
  O  O35  1  0.770665  0.478033  0.400803  1
  O  O36  1  0.021967  0.599197  0.270665  1
  O  O37  1  0.270665  0.021967  0.599197  1
  O  O38  1  0.978033  0.099197  0.229335  1
  O  O39  1  0.375685  0.636893  0.742765  1
  Na  Na40  1  0.741312  0.741312  0.741312  1
  Na  Na41  1  0.642429  0.857571  0.142429  1
  Na  Na42  1  0.357571  0.357571  0.357571  1
  Na  Na43  1  0.944421  0.944421  0.944421  1
  Na  Na44  1  0.555579  0.055579  0.444421  1
  Na  Na45  1  0.444421  0.555579  0.055579  1
  Na  Na46  1  0.055579  0.444421  0.555579  1
  Na  Na47  1  0.258688  0.241312  0.758688  1
  Na  Na48  1  0.142429  0.642429  0.857571  1
  Na  Na49  1  0.241312  0.758688  0.258688  1
  Na  Na50  1  0.758688  0.258688  0.241312  1
  Na  Na51  1  0.857571  0.142429  0.642429  1
  P  P52  1  0.583006  0.004031  0.836356  1
  P  P53  1  0.836356  0.583006  0.004031  1
  P  P54  1  0.663644  0.416994  0.504031  1
  P  P55  1  0.083006  0.495969  0.163644  1
  P  P56  1  0.163644  0.083006  0.495969  1
  P  P57  1  0.916994  0.995969  0.336356  1
  P  P58  1  0.416994  0.504031  0.663644  1
  P  P59  1  0.336356  0.916994  0.995969  1
  P  P60  1  0.504031  0.663644  0.416994  1
  P  P61  1  0.995969  0.336356  0.916994  1
  P  P62  1  0.004031  0.836356  0.583006  1
  P  P63  1  0.495969  0.163644  0.083006  1
  Ti  Ti64  1  0.331177  0.831177  0.668823  1
  Ti  Ti65  1  0.831177  0.668823  0.331177  1
  Ti  Ti66  1  0.168823  0.168823  0.168823  1
  Ti  Ti67  1  0.668823  0.331177  0.831177  1
