# generated using pymatgen
data_HgH12C2(Br2N3)2
_symmetry_space_group_name_H-M   'P 1'
_cell_length_a   7.68039414
_cell_length_b   7.68039414
_cell_length_c   13.53489655
_cell_angle_alpha   102.58000625
_cell_angle_beta   102.58000626
_cell_angle_gamma   94.94010083
_symmetry_Int_Tables_number   1
_chemical_formula_structural   HgH12C2(Br2N3)2
_chemical_formula_sum   'Hg2 H24 C4 Br8 N12'
_cell_volume   753.01607284
_cell_formula_units_Z   2
loop_
 _symmetry_equiv_pos_site_id
 _symmetry_equiv_pos_as_xyz
  1  'x, y, z'
loop_
 _atom_site_type_symbol
 _atom_site_label
 _atom_site_symmetry_multiplicity
 _atom_site_fract_x
 _atom_site_fract_y
 _atom_site_fract_z
 _atom_site_occupancy
  H  H0  1  0.564765  0.877417  0.849006  1
  H  H1  1  0.122583  0.435235  0.650994  1
  H  H2  1  0.435235  0.122583  0.150994  1
  H  H3  1  0.877417  0.564765  0.349006  1
  H  H4  1  0.607810  0.659962  0.852686  1
  H  H5  1  0.340038  0.392190  0.647314  1
  H  H6  1  0.392190  0.340038  0.147314  1
  H  H7  1  0.659962  0.607810  0.352686  1
  H  H8  1  0.166389  0.855177  0.937292  1
  H  H9  1  0.144823  0.833611  0.562708  1
  H  H10  1  0.833611  0.144823  0.062708  1
  H  H11  1  0.855177  0.166389  0.437292  1
  H  H12  1  0.311428  0.983313  0.888133  1
  H  H13  1  0.385673  0.466349  0.894936  1
  H  H14  1  0.688572  0.016687  0.111867  1
  H  H15  1  0.983313  0.311428  0.388133  1
  H  H16  1  0.614327  0.533651  0.105064  1
  H  H17  1  0.533651  0.614327  0.605064  1
  H  H18  1  0.555362  0.207009  0.436929  1
  H  H19  1  0.792991  0.444638  0.063071  1
  H  H20  1  0.444638  0.792991  0.563071  1
  H  H21  1  0.207009  0.555362  0.936929  1
  H  H22  1  0.466349  0.385673  0.394936  1
  H  H23  1  0.016687  0.688572  0.611867  1
  C  C24  1  0.734217  0.378371  0.398275  1
  C  C25  1  0.378371  0.734217  0.898275  1
  C  C26  1  0.265783  0.621629  0.601725  1
  C  C27  1  0.621629  0.265783  0.101725  1
  N  N28  1  0.328363  0.577896  0.919727  1
  N  N29  1  0.280635  0.869263  0.911405  1
  N  N30  1  0.671637  0.422104  0.080273  1
  N  N31  1  0.577896  0.328363  0.419727  1
  N  N32  1  0.719365  0.130737  0.088595  1
  N  N33  1  0.869263  0.280635  0.411405  1
  N  N34  1  0.422104  0.671637  0.580273  1
  N  N35  1  0.130737  0.719365  0.588595  1
  N  N36  1  0.529757  0.758652  0.866005  1
  N  N37  1  0.241348  0.470243  0.633995  1
  N  N38  1  0.470243  0.241348  0.133995  1
  N  N39  1  0.758652  0.529757  0.366005  1
  Br  Br40  1  0.824823  0.553132  0.719347  1
  Br  Br41  1  0.222471  0.008191  0.430247  1
  Br  Br42  1  0.777529  0.991809  0.569753  1
  Br  Br43  1  0.008191  0.222471  0.930247  1
  Br  Br44  1  0.553132  0.824823  0.219347  1
  Br  Br45  1  0.991809  0.777529  0.069753  1
  Br  Br46  1  0.446868  0.175177  0.780653  1
  Br  Br47  1  0.175177  0.446868  0.280653  1
  Hg  Hg48  1  0.212060  0.787940  0.250000  1
  Hg  Hg49  1  0.787940  0.212060  0.750000  1
