# generated using pymatgen
data_NaCr(GeO3)2
_symmetry_space_group_name_H-M   'P 1'
_cell_length_a   5.55523970
_cell_length_b   6.75508487
_cell_length_c   6.75508487
_cell_angle_alpha   83.10021531
_cell_angle_beta   76.80982201
_cell_angle_gamma   76.80982196
_symmetry_Int_Tables_number   1
_chemical_formula_structural   NaCr(GeO3)2
_chemical_formula_sum   'Na2 Cr2 Ge4 O12'
_cell_volume   239.67303703
_cell_formula_units_Z   2
loop_
 _symmetry_equiv_pos_site_id
 _symmetry_equiv_pos_as_xyz
  1  'x, y, z'
loop_
 _atom_site_type_symbol
 _atom_site_label
 _atom_site_symmetry_multiplicity
 _atom_site_fract_x
 _atom_site_fract_y
 _atom_site_fract_z
 _atom_site_occupancy
  O  O0  1  0.493375  0.350694  0.375166  1
  O  O1  1  0.006625  0.624834  0.649306  1
  O  O2  1  0.506625  0.649306  0.624834  1
  O  O3  1  0.993375  0.375166  0.350694  1
  O  O4  1  0.190265  0.086122  0.632234  1
  O  O5  1  0.309735  0.367766  0.913878  1
  O  O6  1  0.809735  0.913878  0.367766  1
  O  O7  1  0.690265  0.632234  0.086122  1
  O  O8  1  0.870587  0.187727  0.022974  1
  O  O9  1  0.629413  0.977026  0.812273  1
  O  O10  1  0.129413  0.812273  0.977026  1
  O  O11  1  0.370588  0.022974  0.187727  1
  Na  Na12  1  0.250000  0.697232  0.302768  1
  Na  Na13  1  0.750000  0.302768  0.697232  1
  Cr  Cr14  1  0.750000  0.910915  0.089085  1
  Cr  Cr15  1  0.250000  0.089085  0.910915  1
  Ge  Ge16  1  0.773956  0.385833  0.193893  1
  Ge  Ge17  1  0.726044  0.806107  0.614167  1
  Ge  Ge18  1  0.226044  0.614167  0.806107  1
  Ge  Ge19  1  0.273956  0.193893  0.385833  1
