# generated using pymatgen
data_HfFeSi2
_symmetry_space_group_name_H-M   'P 1'
_cell_length_a   5.14658369
_cell_length_b   7.70827062
_cell_length_c   9.66902763
_cell_angle_alpha   113.49204704
_cell_angle_beta   105.43456038
_cell_angle_gamma   90.00000001
_symmetry_Int_Tables_number   1
_chemical_formula_structural   HfFeSi2
_chemical_formula_sum   'Hf6 Fe6 Si12'
_cell_volume   336.65161069
_cell_formula_units_Z   6
loop_
 _symmetry_equiv_pos_site_id
 _symmetry_equiv_pos_as_xyz
  1  'x, y, z'
loop_
 _atom_site_type_symbol
 _atom_site_label
 _atom_site_symmetry_multiplicity
 _atom_site_fract_x
 _atom_site_fract_y
 _atom_site_fract_z
 _atom_site_occupancy
  Si  Si0  1  0.139309  0.488040  0.278617  1
  Si  Si1  1  0.860691  0.511960  0.721383  1
  Si  Si2  1  0.860687  0.209384  0.721373  1
  Si  Si3  1  0.139313  0.790616  0.278627  1
  Si  Si4  1  0.702224  0.702218  0.404447  1
  Si  Si5  1  0.297776  0.297781  0.595553  1
  Si  Si6  1  0.741404  0.500000  0.000000  1
  Si  Si7  1  0.258596  0.500000  0.000000  1
  Si  Si8  1  0.254359  0.000000  0.000000  1
  Si  Si9  1  0.714339  0.214339  0.428677  1
  Si  Si10  1  0.745641  0.000000  0.000000  1
  Si  Si11  1  0.285661  0.785661  0.571323  1
  Fe  Fe12  1  0.000000  0.745199  0.000001  1
  Fe  Fe13  1  0.000000  0.000000  0.500000  1
  Fe  Fe14  1  0.500000  0.500000  0.500000  1
  Fe  Fe15  1  0.000000  0.500000  0.500000  1
  Fe  Fe16  1  1.000000  0.254801  0.999999  1
  Fe  Fe17  1  0.500000  0.000000  0.500000  1
  Hf  Hf18  1  0.595783  0.857322  0.191566  1
  Hf  Hf19  1  0.404217  0.142678  0.808434  1
  Hf  Hf20  1  0.404222  0.665766  0.808444  1
  Hf  Hf21  1  0.595778  0.334234  0.191556  1
  Hf  Hf22  1  0.141696  0.141711  0.283391  1
  Hf  Hf23  1  0.858304  0.858289  0.716609  1
