# generated using pymatgen
data_BaGdCuSe3
_symmetry_space_group_name_H-M   'P 1'
_cell_length_a   4.21554982
_cell_length_b   7.37170466
_cell_length_c   10.77255229
_cell_angle_alpha   90.00000000
_cell_angle_beta   90.00000000
_cell_angle_gamma   106.61431249
_symmetry_Int_Tables_number   1
_chemical_formula_structural   BaGdCuSe3
_chemical_formula_sum   'Ba2 Gd2 Cu2 Se6'
_cell_volume   320.78948709
_cell_formula_units_Z   2
loop_
 _symmetry_equiv_pos_site_id
 _symmetry_equiv_pos_as_xyz
  1  'x, y, z'
loop_
 _atom_site_type_symbol
 _atom_site_label
 _atom_site_symmetry_multiplicity
 _atom_site_fract_x
 _atom_site_fract_y
 _atom_site_fract_z
 _atom_site_occupancy
  Cu  Cu0  1  0.472540  0.945079  0.750000  1
  Cu  Cu1  1  0.527460  0.054921  0.250000  1
  Se  Se2  1  0.367029  0.734057  0.565905  1
  Se  Se3  1  0.632971  0.265943  0.434095  1
  Se  Se4  1  0.928433  0.856866  0.250000  1
  Se  Se5  1  0.071567  0.143134  0.750000  1
  Se  Se6  1  0.367029  0.734057  0.934095  1
  Se  Se7  1  0.632971  0.265943  0.065905  1
  Ba  Ba8  1  0.748811  0.497621  0.750000  1
  Ba  Ba9  1  0.251189  0.502379  0.250000  1
  Gd  Gd10  1  0.000000  0.000000  0.000000  1
  Gd  Gd11  1  0.000000  0.000000  0.500000  1
