# generated using pymatgen
data_Yb2Cu2O5
_symmetry_space_group_name_H-M   'P 1'
_cell_length_a   3.46708780
_cell_length_b   10.34606006
_cell_length_c   12.59758481
_cell_angle_alpha   90.00000000
_cell_angle_beta   90.00000000
_cell_angle_gamma   90.00000000
_symmetry_Int_Tables_number   1
_chemical_formula_structural   Yb2Cu2O5
_chemical_formula_sum   'Yb8 Cu8 O20'
_cell_volume   451.88416796
_cell_formula_units_Z   4
loop_
 _symmetry_equiv_pos_site_id
 _symmetry_equiv_pos_as_xyz
  1  'x, y, z'
loop_
 _atom_site_type_symbol
 _atom_site_label
 _atom_site_symmetry_multiplicity
 _atom_site_fract_x
 _atom_site_fract_y
 _atom_site_fract_z
 _atom_site_occupancy
  Yb  Yb0  1  0.654069  0.293410  0.461345  1
  Yb  Yb1  1  0.838001  0.955825  0.129015  1
  Yb  Yb2  1  0.161999  0.044175  0.629015  1
  Yb  Yb3  1  0.845931  0.793410  0.461345  1
  Yb  Yb4  1  0.661999  0.455825  0.129015  1
  Yb  Yb5  1  0.154069  0.206590  0.961345  1
  Yb  Yb6  1  0.345931  0.706590  0.961345  1
  Yb  Yb7  1  0.338001  0.544175  0.629015  1
  Cu  Cu8  1  0.122722  0.237842  0.249003  1
  Cu  Cu9  1  0.627957  0.988675  0.846898  1
  Cu  Cu10  1  0.872043  0.488675  0.846898  1
  Cu  Cu11  1  0.377278  0.737842  0.249003  1
  Cu  Cu12  1  0.127957  0.511325  0.346898  1
  Cu  Cu13  1  0.622722  0.262158  0.749003  1
  Cu  Cu14  1  0.372043  0.011325  0.346898  1
  Cu  Cu15  1  0.877278  0.762158  0.749003  1
  O  O16  1  0.651403  0.061192  0.979877  1
  O  O17  1  0.668831  0.876032  0.296298  1
  O  O18  1  0.138974  0.165446  0.386380  1
  O  O19  1  0.657684  0.189702  0.616928  1
  O  O20  1  0.361026  0.665446  0.386380  1
  O  O21  1  0.651363  0.917445  0.710256  1
  O  O22  1  0.168831  0.623968  0.796298  1
  O  O23  1  0.861026  0.834554  0.886380  1
  O  O24  1  0.331169  0.123968  0.796298  1
  O  O25  1  0.151403  0.438808  0.479877  1
  O  O26  1  0.151363  0.582555  0.210256  1
  O  O27  1  0.157684  0.310298  0.116928  1
  O  O28  1  0.342316  0.810298  0.116928  1
  O  O29  1  0.831169  0.376032  0.296298  1
  O  O30  1  0.848597  0.561192  0.979877  1
  O  O31  1  0.348637  0.082555  0.210256  1
  O  O32  1  0.638974  0.334554  0.886380  1
  O  O33  1  0.842316  0.689702  0.616928  1
  O  O34  1  0.348597  0.938808  0.479877  1
  O  O35  1  0.848637  0.417445  0.710256  1
