# generated using pymatgen
data_Nb4B3C2
_symmetry_space_group_name_H-M   'P 1'
_cell_length_a   3.15409830
_cell_length_b   3.25544785
_cell_length_c   19.01891640
_cell_angle_alpha   94.90963523
_cell_angle_beta   90.00000000
_cell_angle_gamma   90.00000000
_symmetry_Int_Tables_number   1
_chemical_formula_structural   Nb4B3C2
_chemical_formula_sum   'Nb8 B6 C4'
_cell_volume   194.56976015
_cell_formula_units_Z   2
loop_
 _symmetry_equiv_pos_site_id
 _symmetry_equiv_pos_as_xyz
  1  'x, y, z'
loop_
 _atom_site_type_symbol
 _atom_site_label
 _atom_site_symmetry_multiplicity
 _atom_site_fract_x
 _atom_site_fract_y
 _atom_site_fract_z
 _atom_site_occupancy
  B  B0  1  0.250000  0.914587  0.829175  1
  B  B1  1  0.750000  0.085413  0.170825  1
  B  B2  1  0.250000  0.060280  0.120561  1
  B  B3  1  0.750000  0.939720  0.879439  1
  B  B4  1  0.250000  0.011784  0.023569  1
  B  B5  1  0.750000  0.988216  0.976431  1
  C  C6  1  0.750000  0.338285  0.676571  1
  C  C7  1  0.250000  0.661715  0.323429  1
  C  C8  1  0.750000  0.220219  0.440438  1
  C  C9  1  0.250000  0.779781  0.559562  1
  Nb  Nb10  1  0.250000  0.464209  0.928419  1
  Nb  Nb11  1  0.750000  0.535791  0.071581  1
  Nb  Nb12  1  0.750000  0.394557  0.789114  1
  Nb  Nb13  1  0.250000  0.605443  0.210886  1
  Nb  Nb14  1  0.750000  0.280537  0.561074  1
  Nb  Nb15  1  0.250000  0.719463  0.438926  1
  Nb  Nb16  1  0.250000  0.837864  0.675728  1
  Nb  Nb17  1  0.750000  0.162136  0.324272  1
