# generated using pymatgen
data_Ga2PbO4
_symmetry_space_group_name_H-M   'P 1'
_cell_length_a   5.32934539
_cell_length_b   5.45292199
_cell_length_c   8.70627272
_cell_angle_alpha   90.00000000
_cell_angle_beta   90.00000000
_cell_angle_gamma   119.25312127
_symmetry_Int_Tables_number   1
_chemical_formula_structural   Ga2PbO4
_chemical_formula_sum   'Ga4 Pb2 O8'
_cell_volume   220.74232729
_cell_formula_units_Z   2
loop_
 _symmetry_equiv_pos_site_id
 _symmetry_equiv_pos_as_xyz
  1  'x, y, z'
loop_
 _atom_site_type_symbol
 _atom_site_label
 _atom_site_symmetry_multiplicity
 _atom_site_fract_x
 _atom_site_fract_y
 _atom_site_fract_z
 _atom_site_occupancy
  O  O0  1  0.868615  0.382515  0.250000  1
  O  O1  1  0.486100  0.617485  0.750000  1
  O  O2  1  0.676592  0.000000  0.500000  1
  O  O3  1  0.676592  0.000000  0.000000  1
  O  O4  1  0.373376  0.366170  0.440960  1
  O  O5  1  0.007206  0.633830  0.559040  1
  O  O6  1  0.007206  0.633830  0.940960  1
  O  O7  1  0.373376  0.366170  0.059040  1
  Ga  Ga8  1  0.709953  0.345002  0.447522  1
  Ga  Ga9  1  0.364951  0.654998  0.552478  1
  Ga  Ga10  1  0.709953  0.345002  0.052478  1
  Ga  Ga11  1  0.364951  0.654998  0.947522  1
  Pb  Pb12  1  0.027529  0.057328  0.250000  1
  Pb  Pb13  1  0.970201  0.942672  0.750000  1
