# generated using pymatgen
data_SmCuSeF
_symmetry_space_group_name_H-M   'P 1'
_cell_length_a   3.82496577
_cell_length_b   3.82496577
_cell_length_c   9.35121659
_cell_angle_alpha   90.00000000
_cell_angle_beta   90.00000000
_cell_angle_gamma   90.00000000
_symmetry_Int_Tables_number   1
_chemical_formula_structural   SmCuSeF
_chemical_formula_sum   'Sm2 Cu2 Se2 F2'
_cell_volume   136.81169453
_cell_formula_units_Z   2
loop_
 _symmetry_equiv_pos_site_id
 _symmetry_equiv_pos_as_xyz
  1  'x, y, z'
loop_
 _atom_site_type_symbol
 _atom_site_label
 _atom_site_symmetry_multiplicity
 _atom_site_fract_x
 _atom_site_fract_y
 _atom_site_fract_z
 _atom_site_occupancy
  F  F0  1  0.750000  0.250000  0.000000  1
  F  F1  1  0.250000  0.750000  0.000000  1
  Cu  Cu2  1  0.250000  0.750000  0.500000  1
  Cu  Cu3  1  0.750000  0.250000  0.500000  1
  Se  Se4  1  0.750000  0.750000  0.301470  1
  Se  Se5  1  0.250000  0.250000  0.698530  1
  Sm  Sm6  1  0.250000  0.250000  0.174529  1
  Sm  Sm7  1  0.750000  0.750000  0.825471  1
