# generated using pymatgen
data_KCrClO3
_symmetry_space_group_name_H-M   'P 1'
_cell_length_a   7.42168982
_cell_length_b   7.93210933
_cell_length_c   8.38952865
_cell_angle_alpha   92.00650361
_cell_angle_beta   90.00000000
_cell_angle_gamma   90.00000000
_symmetry_Int_Tables_number   1
_chemical_formula_structural   KCrClO3
_chemical_formula_sum   'K4 Cr4 Cl4 O12'
_cell_volume   493.58583433
_cell_formula_units_Z   4
loop_
 _symmetry_equiv_pos_site_id
 _symmetry_equiv_pos_as_xyz
  1  'x, y, z'
loop_
 _atom_site_type_symbol
 _atom_site_label
 _atom_site_symmetry_multiplicity
 _atom_site_fract_x
 _atom_site_fract_y
 _atom_site_fract_z
 _atom_site_occupancy
  O  O0  1  0.510586  0.536851  0.275350  1
  O  O1  1  0.010586  0.963149  0.724650  1
  O  O2  1  0.489414  0.463149  0.724650  1
  O  O3  1  0.989414  0.036851  0.275350  1
  O  O4  1  0.500558  0.204155  0.290450  1
  O  O5  1  1.000558  0.295845  0.709550  1
  O  O6  1  0.499442  0.795845  0.709550  1
  O  O7  1  0.261815  0.889093  0.427610  1
  O  O8  1  0.238185  0.389093  0.427610  1
  O  O9  1  0.738185  0.110907  0.572390  1
  O  O10  1  0.761815  0.610907  0.572390  1
  O  O11  1  -0.000558  0.704155  0.290450  1
  Cl  Cl12  1  0.279288  0.858836  0.058424  1
  Cl  Cl13  1  0.720712  0.141164  0.941576  1
  Cl  Cl14  1  0.779288  0.641164  0.941576  1
  Cl  Cl15  1  0.220712  0.358836  0.058424  1
  K  K16  1  0.142373  0.633696  0.676353  1
  K  K17  1  0.357627  0.133696  0.676353  1
  K  K18  1  0.857627  0.366304  0.323647  1
  K  K19  1  0.642373  0.866304  0.323647  1
  Cr  Cr20  1  0.121668  0.873695  0.277911  1
  Cr  Cr21  1  0.878332  0.126305  0.722089  1
  Cr  Cr22  1  0.378332  0.373695  0.277911  1
  Cr  Cr23  1  0.621668  0.626305  0.722089  1
