# generated using pymatgen
data_K3Rh(NO2)6
_symmetry_space_group_name_H-M   'P 1'
_cell_length_a   7.53560633
_cell_length_b   7.53560555
_cell_length_c   7.53560628
_cell_angle_alpha   59.99999679
_cell_angle_beta   60.00000022
_cell_angle_gamma   59.99999669
_symmetry_Int_Tables_number   1
_chemical_formula_structural   K3Rh(NO2)6
_chemical_formula_sum   'K3 Rh1 N6 O12'
_cell_volume   302.57952758
_cell_formula_units_Z   1
loop_
 _symmetry_equiv_pos_site_id
 _symmetry_equiv_pos_as_xyz
  1  'x, y, z'
loop_
 _atom_site_type_symbol
 _atom_site_label
 _atom_site_symmetry_multiplicity
 _atom_site_fract_x
 _atom_site_fract_y
 _atom_site_fract_z
 _atom_site_occupancy
  K  K0  1  0.250000  0.250000  0.250000  1
  K  K1  1  0.500000  0.500000  0.500000  1
  K  K2  1  0.750000  0.750000  0.750000  1
  Rh  Rh3  1  0.000000  0.000000  0.000000  1
  N  N4  1  0.191461  0.808539  0.191461  1
  N  N5  1  0.191461  0.191461  0.808539  1
  N  N6  1  0.808539  0.191461  0.191461  1
  N  N7  1  0.191461  0.808539  0.808539  1
  N  N8  1  0.808539  0.808539  0.191461  1
  N  N9  1  0.808539  0.191461  0.808539  1
  O  O10  1  0.413266  -0.000000  1.000000  1
  O  O11  1  0.586734  0.000000  0.413266  1
  O  O12  1  0.413266  0.586734  1.000000  1
  O  O13  1  0.413266  -0.000000  0.586734  1
  O  O14  1  0.000000  -0.000000  0.413266  1
  O  O15  1  0.000000  0.413266  0.000000  1
  O  O16  1  1.000000  0.586734  0.413266  1
  O  O17  1  0.000000  0.413266  0.586734  1
  O  O18  1  0.586734  0.413266  0.000000  1
  O  O19  1  0.000000  0.000000  0.586734  1
  O  O20  1  0.586734  0.000000  0.000000  1
  O  O21  1  1.000000  0.586734  1.000000  1
