# generated using pymatgen
data_Cd7(P2Cl3)2
_symmetry_space_group_name_H-M   'P 1'
_cell_length_a   12.13177671
_cell_length_b   12.13177671
_cell_length_c   12.13177671
_cell_angle_alpha   90.00000000
_cell_angle_beta   90.00000000
_cell_angle_gamma   90.00000000
_symmetry_Int_Tables_number   1
_chemical_formula_structural   Cd7(P2Cl3)2
_chemical_formula_sum   'Cd28 P16 Cl24'
_cell_volume   1785.55497068
_cell_formula_units_Z   4
loop_
 _symmetry_equiv_pos_site_id
 _symmetry_equiv_pos_as_xyz
  1  'x, y, z'
loop_
 _atom_site_type_symbol
 _atom_site_label
 _atom_site_symmetry_multiplicity
 _atom_site_fract_x
 _atom_site_fract_y
 _atom_site_fract_z
 _atom_site_occupancy
  P  P0  1  0.213207  0.286793  0.713207  1
  P  P1  1  0.286793  0.713207  0.213207  1
  P  P2  1  0.713207  0.213207  0.286793  1
  P  P3  1  0.786793  0.786793  0.786793  1
  P  P4  1  0.786793  0.713207  0.286793  1
  P  P5  1  0.713207  0.286793  0.786793  1
  P  P6  1  0.286793  0.786793  0.713207  1
  P  P7  1  0.213207  0.213207  0.213207  1
  P  P8  1  0.317736  0.182264  0.817736  1
  P  P9  1  0.182264  0.817736  0.317736  1
  P  P10  1  0.817736  0.317736  0.182264  1
  P  P11  1  0.682264  0.682264  0.682264  1
  P  P12  1  0.682264  0.817736  0.182264  1
  P  P13  1  0.817736  0.182264  0.682264  1
  P  P14  1  0.182264  0.682264  0.817736  1
  P  P15  1  0.317736  0.317736  0.317736  1
  Cl  Cl16  1  0.962444  0.021228  0.217807  1
  Cl  Cl17  1  0.462444  0.478772  0.782193  1
  Cl  Cl18  1  0.037556  0.521228  0.282193  1
  Cl  Cl19  1  0.478772  0.782193  0.462444  1
  Cl  Cl20  1  0.282193  0.037556  0.521228  1
  Cl  Cl21  1  0.782193  0.462444  0.478772  1
  Cl  Cl22  1  0.021228  0.217807  0.962444  1
  Cl  Cl23  1  0.217807  0.962444  0.021228  1
  Cl  Cl24  1  0.521228  0.282193  0.037556  1
  Cl  Cl25  1  0.978772  0.717807  0.537556  1
  Cl  Cl26  1  0.717807  0.537556  0.978772  1
  Cl  Cl27  1  0.537556  0.978772  0.717807  1
  Cl  Cl28  1  0.037556  0.978772  0.782193  1
  Cl  Cl29  1  0.537556  0.521228  0.217807  1
  Cl  Cl30  1  0.962444  0.478772  0.717807  1
  Cl  Cl31  1  0.521228  0.217807  0.537556  1
  Cl  Cl32  1  0.717807  0.962444  0.478772  1
  Cl  Cl33  1  0.217807  0.537556  0.521228  1
  Cl  Cl34  1  0.978772  0.782193  0.037556  1
  Cl  Cl35  1  0.782193  0.037556  0.978772  1
  Cl  Cl36  1  0.478772  0.717807  0.962444  1
  Cl  Cl37  1  0.021228  0.282193  0.462444  1
  Cl  Cl38  1  0.282193  0.462444  0.021228  1
  Cl  Cl39  1  0.462444  0.021228  0.282193  1
  Cd  Cd40  1  0.000000  0.500000  0.500000  1
  Cd  Cd41  1  0.500000  0.500000  0.000000  1
  Cd  Cd42  1  0.500000  0.000000  0.500000  1
  Cd  Cd43  1  0.000000  0.000000  0.000000  1
  Cd  Cd44  1  0.015190  0.274694  0.232109  1
  Cd  Cd45  1  0.515190  0.225306  0.767891  1
  Cd  Cd46  1  0.984810  0.774694  0.267891  1
  Cd  Cd47  1  0.225306  0.767891  0.515190  1
  Cd  Cd48  1  0.267891  0.984810  0.774694  1
  Cd  Cd49  1  0.767891  0.515190  0.225306  1
  Cd  Cd50  1  0.274694  0.232109  0.015190  1
  Cd  Cd51  1  0.232109  0.015190  0.274694  1
  Cd  Cd52  1  0.774694  0.267891  0.984810  1
  Cd  Cd53  1  0.725306  0.732109  0.484810  1
  Cd  Cd54  1  0.732109  0.484810  0.725306  1
  Cd  Cd55  1  0.484810  0.725306  0.732109  1
  Cd  Cd56  1  0.984810  0.725306  0.767891  1
  Cd  Cd57  1  0.484810  0.774694  0.232109  1
  Cd  Cd58  1  0.015190  0.225306  0.732109  1
  Cd  Cd59  1  0.774694  0.232109  0.484810  1
  Cd  Cd60  1  0.732109  0.015190  0.225306  1
  Cd  Cd61  1  0.232109  0.484810  0.774694  1
  Cd  Cd62  1  0.725306  0.767891  0.984810  1
  Cd  Cd63  1  0.767891  0.984810  0.725306  1
  Cd  Cd64  1  0.225306  0.732109  0.015190  1
  Cd  Cd65  1  0.274694  0.267891  0.515190  1
  Cd  Cd66  1  0.267891  0.515190  0.274694  1
  Cd  Cd67  1  0.515190  0.274694  0.267891  1
