# generated using pymatgen
data_NaSn2(PO4)3
_symmetry_space_group_name_H-M   'P 1'
_cell_length_a   9.04092972
_cell_length_b   9.04093007
_cell_length_c   9.04093000
_cell_angle_alpha   57.93930605
_cell_angle_beta   57.93930451
_cell_angle_gamma   57.93930244
_symmetry_Int_Tables_number   1
_chemical_formula_structural   NaSn2(PO4)3
_chemical_formula_sum   'Na2 Sn4 P6 O24'
_cell_volume   497.83694248
_cell_formula_units_Z   2
loop_
 _symmetry_equiv_pos_site_id
 _symmetry_equiv_pos_as_xyz
  1  'x, y, z'
loop_
 _atom_site_type_symbol
 _atom_site_label
 _atom_site_symmetry_multiplicity
 _atom_site_fract_x
 _atom_site_fract_y
 _atom_site_fract_z
 _atom_site_occupancy
  Na  Na0  1  0.000000  0.000000  0.000000  1
  Na  Na1  1  0.500000  0.500000  0.500000  1
  Sn  Sn2  1  0.854861  0.854861  0.854861  1
  Sn  Sn3  1  0.354861  0.354861  0.354861  1
  Sn  Sn4  1  0.145139  0.145139  0.145139  1
  Sn  Sn5  1  0.645139  0.645139  0.645139  1
  P  P6  1  0.042298  0.750000  0.457702  1
  P  P7  1  0.457702  0.042298  0.750000  1
  P  P8  1  0.250000  0.542298  0.957702  1
  P  P9  1  0.542298  0.957702  0.250000  1
  P  P10  1  0.957702  0.250000  0.542298  1
  P  P11  1  0.750000  0.457702  0.042298  1
  O  O12  1  0.273707  0.062426  0.918370  1
  O  O13  1  0.012492  0.790583  0.618374  1
  O  O14  1  0.618374  0.012492  0.790583  1
  O  O15  1  0.918370  0.273707  0.062426  1
  O  O16  1  0.118374  0.290583  0.512492  1
  O  O17  1  0.226293  0.581630  0.437574  1
  O  O18  1  0.987508  0.209417  0.381626  1
  O  O19  1  0.726293  0.937574  0.081630  1
  O  O20  1  0.418370  0.562426  0.773707  1
  O  O21  1  0.487508  0.881626  0.709417  1
  O  O22  1  0.709417  0.487508  0.881626  1
  O  O23  1  0.381626  0.987508  0.209417  1
  O  O24  1  0.773707  0.418370  0.562426  1
  O  O25  1  0.062426  0.918370  0.273707  1
  O  O26  1  0.081630  0.726293  0.937574  1
  O  O27  1  0.937574  0.081630  0.726293  1
  O  O28  1  0.581630  0.437574  0.226293  1
  O  O29  1  0.790583  0.618374  0.012492  1
  O  O30  1  0.881626  0.709417  0.487508  1
  O  O31  1  0.512492  0.118374  0.290583  1
  O  O32  1  0.209417  0.381626  0.987508  1
  O  O33  1  0.562426  0.773707  0.418370  1
  O  O34  1  0.437574  0.226293  0.581630  1
  O  O35  1  0.290583  0.512492  0.118374  1
