# generated using pymatgen
data_Pb7(ClF6)2
_symmetry_space_group_name_H-M   'P 1'
_cell_length_a   10.44164316
_cell_length_b   10.44164350
_cell_length_c   4.03498741
_cell_angle_alpha   90.00000000
_cell_angle_beta   90.00000000
_cell_angle_gamma   119.99999893
_symmetry_Int_Tables_number   1
_chemical_formula_structural   Pb7(ClF6)2
_chemical_formula_sum   'Pb7 Cl2 F12'
_cell_volume   380.98732652
_cell_formula_units_Z   1
loop_
 _symmetry_equiv_pos_site_id
 _symmetry_equiv_pos_as_xyz
  1  'x, y, z'
loop_
 _atom_site_type_symbol
 _atom_site_label
 _atom_site_symmetry_multiplicity
 _atom_site_fract_x
 _atom_site_fract_y
 _atom_site_fract_z
 _atom_site_occupancy
  Pb  Pb0  1  0.320401  0.894806  0.750000  1
  Pb  Pb1  1  0.105194  0.425595  0.750000  1
  Pb  Pb2  1  0.574405  0.679599  0.750000  1
  Pb  Pb3  1  0.394145  0.278362  0.250000  1
  Pb  Pb4  1  0.884217  0.605855  0.250000  1
  Pb  Pb5  1  0.721638  0.115783  0.250000  1
  Pb  Pb6  1  0.000000  0.000000  0.750000  1
  Cl  Cl7  1  0.333333  0.666667  0.250000  1
  Cl  Cl8  1  0.666667  0.333333  0.750000  1
  F  F9  1  0.069038  0.865220  0.250000  1
  F  F10  1  0.049523  0.628749  0.750000  1
  F  F11  1  0.134780  0.203818  0.250000  1
  F  F12  1  0.579226  0.950477  0.750000  1
  F  F13  1  0.277200  0.101780  0.750000  1
  F  F14  1  0.371251  0.420774  0.750000  1
  F  F15  1  0.598968  0.566361  0.250000  1
  F  F16  1  0.796182  0.930962  0.250000  1
  F  F17  1  0.433639  0.032607  0.250000  1
  F  F18  1  0.824580  0.722800  0.750000  1
  F  F19  1  0.967393  0.401032  0.250000  1
  F  F20  1  0.898220  0.175420  0.750000  1
