# generated using pymatgen
data_C(Se2Br)2
_symmetry_space_group_name_H-M   'P 1'
_cell_length_a   4.81947070
_cell_length_b   8.70662465
_cell_length_c   21.49395103
_cell_angle_alpha   90.00000000
_cell_angle_beta   90.00000000
_cell_angle_gamma   90.00000000
_symmetry_Int_Tables_number   1
_chemical_formula_structural   C(Se2Br)2
_chemical_formula_sum   'C4 Se16 Br8'
_cell_volume   901.91460875
_cell_formula_units_Z   4
loop_
 _symmetry_equiv_pos_site_id
 _symmetry_equiv_pos_as_xyz
  1  'x, y, z'
loop_
 _atom_site_type_symbol
 _atom_site_label
 _atom_site_symmetry_multiplicity
 _atom_site_fract_x
 _atom_site_fract_y
 _atom_site_fract_z
 _atom_site_occupancy
  C  C0  1  0.580056  0.246534  0.878825  1
  C  C1  1  0.419944  0.746534  0.121175  1
  C  C2  1  0.919944  0.246534  0.378825  1
  C  C3  1  0.080056  0.746534  0.621175  1
  Se  Se4  1  0.404045  0.237051  0.801712  1
  Se  Se5  1  0.595955  0.737051  0.198288  1
  Se  Se6  1  0.095955  0.237051  0.301712  1
  Se  Se7  1  0.904045  0.737051  0.698288  1
  Se  Se8  1  0.375227  0.512779  0.811895  1
  Se  Se9  1  0.624773  0.012779  0.188105  1
  Se  Se10  1  0.124773  0.512779  0.311895  1
  Se  Se11  1  0.875227  0.012779  0.688105  1
  Se  Se12  1  0.607220  0.446301  0.908101  1
  Se  Se13  1  0.392780  0.946301  0.091899  1
  Se  Se14  1  0.892780  0.446301  0.408101  1
  Se  Se15  1  0.107220  0.946301  0.591899  1
  Se  Se16  1  0.713280  0.074766  0.921799  1
  Se  Se17  1  0.286720  0.574766  0.078201  1
  Se  Se18  1  0.786720  0.074766  0.421799  1
  Se  Se19  1  0.213280  0.574766  0.578201  1
  Br  Br20  1  0.869308  0.254782  0.008500  1
  Br  Br21  1  0.130692  0.754782  0.991500  1
  Br  Br22  1  0.630692  0.254782  0.508500  1
  Br  Br23  1  0.369308  0.754782  0.491500  1
  Br  Br24  1  0.533571  0.910186  0.828025  1
  Br  Br25  1  0.466429  0.410186  0.171975  1
  Br  Br26  1  0.966429  0.910186  0.328025  1
  Br  Br27  1  0.033571  0.410186  0.671975  1
