# generated using pymatgen
data_EuGa3Co2
_symmetry_space_group_name_H-M   'P 1'
_cell_length_a   5.27714248
_cell_length_b   6.26967734
_cell_length_c   6.26967733
_cell_angle_alpha   103.90009041
_cell_angle_beta   90.00000000
_cell_angle_gamma   90.00000000
_symmetry_Int_Tables_number   1
_chemical_formula_structural   EuGa3Co2
_chemical_formula_sum   'Eu2 Ga6 Co4'
_cell_volume   201.36381715
_cell_formula_units_Z   2
loop_
 _symmetry_equiv_pos_site_id
 _symmetry_equiv_pos_as_xyz
  1  'x, y, z'
loop_
 _atom_site_type_symbol
 _atom_site_label
 _atom_site_symmetry_multiplicity
 _atom_site_fract_x
 _atom_site_fract_y
 _atom_site_fract_z
 _atom_site_occupancy
  Co  Co0  1  0.000000  0.796167  0.203833  1
  Co  Co1  1  0.500000  0.203833  0.796167  1
  Co  Co2  1  0.000000  0.203833  0.796167  1
  Co  Co3  1  0.500000  0.796167  0.203833  1
  Ga  Ga4  1  0.750000  0.084473  0.472459  1
  Ga  Ga5  1  0.250000  0.915527  0.527541  1
  Ga  Ga6  1  0.250000  0.948480  0.948480  1
  Ga  Ga7  1  0.750000  0.051520  0.051520  1
  Ga  Ga8  1  0.250000  0.527541  0.915527  1
  Ga  Ga9  1  0.750000  0.472459  0.084473  1
  Eu  Eu10  1  0.750000  0.654819  0.654819  1
  Eu  Eu11  1  0.250000  0.345181  0.345181  1
