# generated using pymatgen
data_CuP2H8CN2O5
_symmetry_space_group_name_H-M   'P 1'
_cell_length_a   7.30005865
_cell_length_b   7.30005865
_cell_length_c   8.29302782
_cell_angle_alpha   81.94610848
_cell_angle_beta   81.94610848
_cell_angle_gamma   62.78594490
_symmetry_Int_Tables_number   1
_chemical_formula_structural   CuP2H8CN2O5
_chemical_formula_sum   'Cu2 P4 H16 C2 N4 O10'
_cell_volume   387.69145040
_cell_formula_units_Z   2
loop_
 _symmetry_equiv_pos_site_id
 _symmetry_equiv_pos_as_xyz
  1  'x, y, z'
loop_
 _atom_site_type_symbol
 _atom_site_label
 _atom_site_symmetry_multiplicity
 _atom_site_fract_x
 _atom_site_fract_y
 _atom_site_fract_z
 _atom_site_occupancy
  Cu  Cu0  1  0.000000  -0.000000  0.000000  1
  Cu  Cu1  1  0.000000  -0.000000  0.500000  1
  P  P2  1  0.295229  0.050647  0.202738  1
  P  P3  1  0.949353  0.704771  0.297262  1
  P  P4  1  0.704771  0.949353  0.797262  1
  P  P5  1  0.050647  0.295229  0.702738  1
  H  H6  1  0.510928  0.619630  0.124757  1
  H  H7  1  0.380370  0.489072  0.375243  1
  H  H8  1  0.489072  0.380370  0.875243  1
  H  H9  1  0.619630  0.510928  0.624757  1
  H  H10  1  0.762558  0.462862  0.046352  1
  H  H11  1  0.537138  0.237442  0.453648  1
  H  H12  1  0.237442  0.537138  0.953648  1
  H  H13  1  0.462862  0.762558  0.546352  1
  H  H14  1  0.497539  0.032228  0.168010  1
  H  H15  1  0.967772  0.502461  0.331990  1
  H  H16  1  0.502461  0.967772  0.831990  1
  H  H17  1  0.032228  0.497539  0.668010  1
  H  H18  1  0.168854  0.262370  0.161897  1
  H  H19  1  0.737630  0.831146  0.338103  1
  H  H20  1  0.831146  0.737630  0.838103  1
  H  H21  1  0.262370  0.168854  0.661897  1
  C  C22  1  0.668437  0.331563  0.250000  1
  C  C23  1  0.331563  0.668437  0.750000  1
  N  N24  1  0.650690  0.494774  0.141382  1
  N  N25  1  0.505226  0.349310  0.358618  1
  N  N26  1  0.349310  0.505226  0.858618  1
  N  N27  1  0.494774  0.650690  0.641382  1
  O  O28  1  0.271811  0.921021  0.083450  1
  O  O29  1  0.078979  0.728189  0.416550  1
  O  O30  1  0.728189  0.078979  0.916550  1
  O  O31  1  0.921021  0.271811  0.583450  1
  O  O32  1  0.265625  0.995881  0.386642  1
  O  O33  1  0.004119  0.734375  0.113358  1
  O  O34  1  0.734375  0.004119  0.613358  1
  O  O35  1  0.995881  0.265625  0.886642  1
  O  O36  1  0.835581  0.164419  0.250000  1
  O  O37  1  0.164419  0.835581  0.750000  1
