# generated using pymatgen
data_GaH4NF4
_symmetry_space_group_name_H-M   'P 1'
_cell_length_a   5.36884562
_cell_length_b   5.36884562
_cell_length_c   7.52432466
_cell_angle_alpha   110.90171410
_cell_angle_beta   110.90171403
_cell_angle_gamma   89.99999996
_symmetry_Int_Tables_number   1
_chemical_formula_structural   GaH4NF4
_chemical_formula_sum   'Ga2 H8 N2 F8'
_cell_volume   187.25549675
_cell_formula_units_Z   2
loop_
 _symmetry_equiv_pos_site_id
 _symmetry_equiv_pos_as_xyz
  1  'x, y, z'
loop_
 _atom_site_type_symbol
 _atom_site_label
 _atom_site_symmetry_multiplicity
 _atom_site_fract_x
 _atom_site_fract_y
 _atom_site_fract_z
 _atom_site_occupancy
  H  H0  1  0.093759  0.813145  0.406904  1
  H  H1  1  0.906241  0.186855  0.593096  1
  H  H2  1  0.686855  0.406241  0.593096  1
  H  H3  1  0.186855  0.686855  0.593096  1
  H  H4  1  0.406241  0.906241  0.593096  1
  H  H5  1  0.593759  0.093759  0.406904  1
  H  H6  1  0.813145  0.313145  0.406904  1
  H  H7  1  0.313145  0.593759  0.406904  1
  N  N8  1  0.250000  0.750000  0.500000  1
  N  N9  1  0.750000  0.250000  0.500000  1
  F  F10  1  0.690390  0.190390  0.000000  1
  F  F11  1  0.856414  0.856414  0.712829  1
  F  F12  1  0.356414  0.356414  0.712829  1
  F  F13  1  0.143586  0.143586  0.287171  1
  F  F14  1  0.190390  0.309610  0.000000  1
  F  F15  1  0.809610  0.690390  0.000000  1
  F  F16  1  0.309610  0.809610  0.000000  1
  F  F17  1  0.643586  0.643586  0.287171  1
  Ga  Ga18  1  0.500000  0.500000  0.000000  1
  Ga  Ga19  1  0.000000  0.000000  0.000000  1
