# generated using pymatgen
data_Ba5V3ClO12
_symmetry_space_group_name_H-M   'P 1'
_cell_length_a   10.76105953
_cell_length_b   10.76105953
_cell_length_c   7.85015861
_cell_angle_alpha   90.00000000
_cell_angle_beta   90.00000000
_cell_angle_gamma   120.00000002
_symmetry_Int_Tables_number   1
_chemical_formula_structural   Ba5V3ClO12
_chemical_formula_sum   'Ba10 V6 Cl2 O24'
_cell_volume   787.26171354
_cell_formula_units_Z   2
loop_
 _symmetry_equiv_pos_site_id
 _symmetry_equiv_pos_as_xyz
  1  'x, y, z'
loop_
 _atom_site_type_symbol
 _atom_site_label
 _atom_site_symmetry_multiplicity
 _atom_site_fract_x
 _atom_site_fract_y
 _atom_site_fract_z
 _atom_site_occupancy
  O  O0  1  0.259196  0.354505  0.426766  1
  O  O1  1  0.904691  0.259196  0.926767  1
  O  O2  1  0.354505  0.095309  0.926767  1
  O  O3  1  0.645495  0.904691  0.426766  1
  O  O4  1  0.095309  0.740804  0.426766  1
  O  O5  1  0.740804  0.645495  0.926767  1
  O  O6  1  0.740804  0.645495  0.573233  1
  O  O7  1  0.095309  0.740804  0.073233  1
  O  O8  1  0.645495  0.904691  0.073233  1
  O  O9  1  0.354505  0.095309  0.573233  1
  O  O10  1  0.904691  0.259196  0.573233  1
  O  O11  1  0.259196  0.354505  0.073233  1
  O  O12  1  0.519659  0.673091  0.750000  1
  O  O13  1  0.846567  0.519659  0.250000  1
  O  O14  1  0.673091  0.153432  0.250000  1
  O  O15  1  0.326909  0.846567  0.750000  1
  O  O16  1  0.153433  0.480341  0.750000  1
  O  O17  1  0.480341  0.326908  0.250000  1
  O  O18  1  0.469610  0.593130  0.250000  1
  O  O19  1  0.876480  0.469610  0.750000  1
  O  O20  1  0.593130  0.123520  0.750000  1
  O  O21  1  0.530390  0.406870  0.750000  1
  O  O22  1  0.123520  0.530389  0.250000  1
  O  O23  1  0.406870  0.876480  0.250000  1
  Cl  Cl24  1  0.000000  0.000000  0.500000  1
  Cl  Cl25  1  0.000000  0.000000  0.000000  1
  V  V26  1  0.594944  0.966140  0.250000  1
  V  V27  1  0.033860  0.628805  0.250000  1
  V  V28  1  0.628805  0.594944  0.750000  1
  V  V29  1  0.405056  0.033861  0.750000  1
  V  V30  1  0.966139  0.371195  0.750000  1
  V  V31  1  0.371195  0.405056  0.250000  1
  Ba  Ba32  1  0.752146  0.744683  0.250000  1
  Ba  Ba33  1  0.744683  0.992538  0.750000  1
  Ba  Ba34  1  0.992538  0.247854  0.250000  1
  Ba  Ba35  1  0.007462  0.752145  0.750000  1
  Ba  Ba36  1  0.247854  0.255316  0.750000  1
  Ba  Ba37  1  0.255317  0.007462  0.250000  1
  Ba  Ba38  1  0.333333  0.666666  0.500956  1
  Ba  Ba39  1  0.666667  0.333333  0.000957  1
  Ba  Ba40  1  0.666667  0.333333  0.499043  1
  Ba  Ba41  1  0.333333  0.666666  0.999044  1
