# generated using pymatgen
data_Te2PdCl10
_symmetry_space_group_name_H-M   'P 1'
_cell_length_a   7.78147875
_cell_length_b   14.36795496
_cell_length_c   16.00615968
_cell_angle_alpha   90.18747106
_cell_angle_beta   90.00000000
_cell_angle_gamma   90.00000000
_symmetry_Int_Tables_number   1
_chemical_formula_structural   Te2PdCl10
_chemical_formula_sum   'Te8 Pd4 Cl40'
_cell_volume   1789.54207654
_cell_formula_units_Z   4
loop_
 _symmetry_equiv_pos_site_id
 _symmetry_equiv_pos_as_xyz
  1  'x, y, z'
loop_
 _atom_site_type_symbol
 _atom_site_label
 _atom_site_symmetry_multiplicity
 _atom_site_fract_x
 _atom_site_fract_y
 _atom_site_fract_z
 _atom_site_occupancy
  Cl  Cl0  1  0.563766  0.496420  0.170642  1
  Cl  Cl1  1  0.063766  0.003580  0.329358  1
  Cl  Cl2  1  0.436234  0.503580  0.829358  1
  Cl  Cl3  1  0.936234  0.996420  0.670642  1
  Cl  Cl4  1  0.134820  0.458720  0.217099  1
  Cl  Cl5  1  0.634820  0.041280  0.282901  1
  Cl  Cl6  1  0.865180  0.541280  0.782901  1
  Cl  Cl7  1  0.365180  0.958720  0.717099  1
  Cl  Cl8  1  0.432427  0.285253  0.245158  1
  Cl  Cl9  1  0.932427  0.214747  0.254842  1
  Cl  Cl10  1  0.567573  0.714747  0.754842  1
  Cl  Cl11  1  0.067573  0.785253  0.745158  1
  Cl  Cl12  1  0.202962  0.105478  0.114860  1
  Cl  Cl13  1  0.702962  0.394522  0.385140  1
  Cl  Cl14  1  0.797038  0.894522  0.885140  1
  Cl  Cl15  1  0.297038  0.605478  0.614860  1
  Cl  Cl16  1  0.268237  0.863528  0.924417  1
  Cl  Cl17  1  0.768237  0.636472  0.575583  1
  Cl  Cl18  1  0.731763  0.136472  0.075583  1
  Cl  Cl19  1  0.231763  0.363528  0.424417  1
  Cl  Cl20  1  0.177218  0.877377  0.123532  1
  Cl  Cl21  1  0.677218  0.622623  0.376468  1
  Cl  Cl22  1  0.822782  0.122623  0.876468  1
  Cl  Cl23  1  0.322782  0.377377  0.623532  1
  Cl  Cl24  1  0.295046  0.091355  0.914220  1
  Cl  Cl25  1  0.795046  0.408645  0.585780  1
  Cl  Cl26  1  0.704954  0.908645  0.085780  1
  Cl  Cl27  1  0.204954  0.591355  0.414220  1
  Cl  Cl28  1  0.133720  0.636894  0.022664  1
  Cl  Cl29  1  0.633720  0.863106  0.477336  1
  Cl  Cl30  1  0.866280  0.363106  0.977336  1
  Cl  Cl31  1  0.366280  0.136894  0.522664  1
  Cl  Cl32  1  0.695434  0.668353  0.996932  1
  Cl  Cl33  1  0.195434  0.831647  0.503068  1
  Cl  Cl34  1  0.304566  0.331647  0.003068  1
  Cl  Cl35  1  0.804566  0.168353  0.496932  1
  Cl  Cl36  1  0.882705  0.715176  0.185129  1
  Cl  Cl37  1  0.382705  0.784824  0.314871  1
  Cl  Cl38  1  0.117295  0.284824  0.814871  1
  Cl  Cl39  1  0.617295  0.215176  0.685129  1
  Pd  Pd40  1  0.233409  0.984731  0.019297  1
  Pd  Pd41  1  0.733409  0.515269  0.480703  1
  Pd  Pd42  1  0.766591  0.015269  0.980703  1
  Pd  Pd43  1  0.266591  0.484731  0.519297  1
  Te  Te44  1  0.568613  0.257898  0.546089  1
  Te  Te45  1  0.068613  0.242102  0.953911  1
  Te  Te46  1  0.431387  0.742102  0.453911  1
  Te  Te47  1  0.931387  0.757898  0.046089  1
  Te  Te48  1  0.098295  0.940644  0.786654  1
  Te  Te49  1  0.598295  0.559356  0.713346  1
  Te  Te50  1  0.901705  0.059356  0.213346  1
  Te  Te51  1  0.401705  0.440644  0.286654  1
