# generated using pymatgen
data_Ca(IO3)2
_symmetry_space_group_name_H-M   'P 1'
_cell_length_a   7.25692559
_cell_length_b   7.39813520
_cell_length_c   11.46479875
_cell_angle_alpha   90.00000000
_cell_angle_beta   90.00000000
_cell_angle_gamma   105.90930250
_symmetry_Int_Tables_number   1
_chemical_formula_structural   Ca(IO3)2
_chemical_formula_sum   'Ca4 I8 O24'
_cell_volume   591.94253504
_cell_formula_units_Z   4
loop_
 _symmetry_equiv_pos_site_id
 _symmetry_equiv_pos_as_xyz
  1  'x, y, z'
loop_
 _atom_site_type_symbol
 _atom_site_label
 _atom_site_symmetry_multiplicity
 _atom_site_fract_x
 _atom_site_fract_y
 _atom_site_fract_z
 _atom_site_occupancy
  Ca  Ca0  1  0.777357  0.003062  0.100289  1
  Ca  Ca1  1  0.222643  0.996938  0.899711  1
  Ca  Ca2  1  0.277357  0.503062  0.399711  1
  Ca  Ca3  1  0.722643  0.496938  0.600289  1
  I  I4  1  0.263484  0.943396  0.214006  1
  I  I5  1  0.736516  0.056604  0.785994  1
  I  I6  1  0.763484  0.443396  0.285994  1
  I  I7  1  0.236516  0.556604  0.714006  1
  I  I8  1  0.274491  0.036917  0.575315  1
  I  I9  1  0.225509  0.463083  0.075315  1
  I  I10  1  0.725509  0.963083  0.424685  1
  I  I11  1  0.774491  0.536917  0.924685  1
  O  O12  1  0.301446  0.326712  0.960903  1
  O  O13  1  0.318656  0.376925  0.206452  1
  O  O14  1  0.653059  0.196468  0.246558  1
  O  O15  1  0.198554  0.173288  0.460903  1
  O  O16  1  0.966189  0.344823  0.093163  1
  O  O17  1  0.936385  0.404130  0.391592  1
  O  O18  1  0.904485  0.026058  0.898478  1
  O  O19  1  0.846941  0.303532  0.746558  1
  O  O20  1  0.595515  0.473942  0.398478  1
  O  O21  1  0.346941  0.803532  0.753442  1
  O  O22  1  0.466189  0.844823  0.406837  1
  O  O23  1  0.818656  0.876925  0.293548  1
  O  O24  1  0.801446  0.826712  0.539097  1
  O  O25  1  0.436385  0.904130  0.108408  1
  O  O26  1  0.404485  0.526058  0.601522  1
  O  O27  1  0.698554  0.673288  0.039097  1
  O  O28  1  0.153059  0.696468  0.253442  1
  O  O29  1  0.681344  0.623075  0.793548  1
  O  O30  1  0.063615  0.595870  0.608408  1
  O  O31  1  0.033811  0.655177  0.906837  1
  O  O32  1  0.533811  0.155177  0.593163  1
  O  O33  1  0.181344  0.123075  0.706452  1
  O  O34  1  0.563615  0.095870  0.891592  1
  O  O35  1  0.095515  0.973942  0.101522  1
