# generated using pymatgen
data_As(IF2)3
_symmetry_space_group_name_H-M   'P 1'
_cell_length_a   6.07160595
_cell_length_b   8.28710947
_cell_length_c   10.61324481
_cell_angle_alpha   90.43256198
_cell_angle_beta   78.33625576
_cell_angle_gamma   82.20008672
_symmetry_Int_Tables_number   1
_chemical_formula_structural   As(IF2)3
_chemical_formula_sum   'As2 I6 F12'
_cell_volume   517.81412174
_cell_formula_units_Z   2
loop_
 _symmetry_equiv_pos_site_id
 _symmetry_equiv_pos_as_xyz
  1  'x, y, z'
loop_
 _atom_site_type_symbol
 _atom_site_label
 _atom_site_symmetry_multiplicity
 _atom_site_fract_x
 _atom_site_fract_y
 _atom_site_fract_z
 _atom_site_occupancy
  F  F0  1  0.336631  0.320258  0.317962  1
  F  F1  1  0.663369  0.679742  0.682038  1
  F  F2  1  0.527500  0.031768  0.265583  1
  F  F3  1  0.472500  0.968232  0.734417  1
  F  F4  1  0.356448  0.191757  0.098723  1
  F  F5  1  0.643552  0.808243  0.901277  1
  F  F6  1  0.590153  0.417317  0.123994  1
  F  F7  1  0.409847  0.582683  0.876006  1
  F  F8  1  0.239460  0.744047  0.711350  1
  F  F9  1  0.760540  0.255953  0.288650  1
  F  F10  1  0.220277  0.870594  0.928066  1
  F  F11  1  0.779723  0.129406  0.071934  1
  As  As12  1  0.553176  0.224104  0.194101  1
  As  As13  1  0.446824  0.775896  0.805899  1
  I  I14  1  0.776810  0.231232  0.536356  1
  I  I15  1  0.223190  0.768768  0.463644  1
  I  I16  1  0.099133  0.380992  0.827064  1
  I  I17  1  0.900867  0.619008  0.172936  1
  I  I18  1  0.814205  0.174913  0.782526  1
  I  I19  1  0.185795  0.825087  0.217474  1
