# generated using pymatgen
data_Sc7Cl10
_symmetry_space_group_name_H-M   'P 1'
_cell_length_a   3.55729810
_cell_length_b   10.05071403
_cell_length_c   12.66433920
_cell_angle_alpha   88.19286027
_cell_angle_beta   90.00000000
_cell_angle_gamma   100.19317086
_symmetry_Int_Tables_number   1
_chemical_formula_structural   Sc7Cl10
_chemical_formula_sum   'Sc7 Cl10'
_cell_volume   445.41762753
_cell_formula_units_Z   1
loop_
 _symmetry_equiv_pos_site_id
 _symmetry_equiv_pos_as_xyz
  1  'x, y, z'
loop_
 _atom_site_type_symbol
 _atom_site_label
 _atom_site_symmetry_multiplicity
 _atom_site_fract_x
 _atom_site_fract_y
 _atom_site_fract_z
 _atom_site_occupancy
  Cl  Cl0  1  0.108130  0.216261  0.876139  1
  Cl  Cl1  1  0.891870  0.783739  0.123861  1
  Cl  Cl2  1  0.778053  0.556105  0.844602  1
  Cl  Cl3  1  0.221947  0.443895  0.155398  1
  Cl  Cl4  1  0.448300  0.896600  0.888313  1
  Cl  Cl5  1  0.551700  0.103400  0.111687  1
  Cl  Cl6  1  0.890690  0.781380  0.635813  1
  Cl  Cl7  1  0.407571  0.815143  0.398278  1
  Cl  Cl8  1  0.592429  0.184857  0.601722  1
  Cl  Cl9  1  0.109310  0.218620  0.364187  1
  Sc  Sc10  1  0.187470  0.374940  0.532872  1
  Sc  Sc11  1  0.812530  0.625060  0.467128  1
  Sc  Sc12  1  0.303541  0.607082  0.694946  1
  Sc  Sc13  1  0.696459  0.392918  0.305054  1
  Sc  Sc14  1  0.667830  0.335659  0.751198  1
  Sc  Sc15  1  0.332170  0.664341  0.248802  1
  Sc  Sc16  1  0.000000  0.000000  0.000000  1
