# generated using pymatgen
data_Sr4Nb2O9
_symmetry_space_group_name_H-M   'P 1'
_cell_length_a   5.94710367
_cell_length_b   5.95053926
_cell_length_c   15.90084285
_cell_angle_alpha   89.99195575
_cell_angle_beta   90.01006238
_cell_angle_gamma   60.00472412
_symmetry_Int_Tables_number   1
_chemical_formula_structural   Sr4Nb2O9
_chemical_formula_sum   'Sr8 Nb4 O18'
_cell_volume   487.34134955
_cell_formula_units_Z   2
loop_
 _symmetry_equiv_pos_site_id
 _symmetry_equiv_pos_as_xyz
  1  'x, y, z'
loop_
 _atom_site_type_symbol
 _atom_site_label
 _atom_site_symmetry_multiplicity
 _atom_site_fract_x
 _atom_site_fract_y
 _atom_site_fract_z
 _atom_site_occupancy
  Sr  Sr0  1  0.332804  0.336116  0.137407  1
  Sr  Sr1  1  0.666268  0.667145  0.642609  1
  Sr  Sr2  1  0.667196  0.663884  0.862593  1
  Sr  Sr3  1  0.333732  0.332855  0.357391  1
  Sr  Sr4  1  0.000348  0.000453  0.249981  1
  Sr  Sr5  1  0.000000  0.000000  0.000000  1
  Sr  Sr6  1  0.999652  0.999547  0.750019  1
  Sr  Sr7  1  0.000000  0.000000  0.500000  1
  Nb  Nb8  1  0.332782  0.333393  0.655515  1
  Nb  Nb9  1  0.334683  0.330611  0.847620  1
  Nb  Nb10  1  0.667218  0.666607  0.344485  1
  Nb  Nb11  1  0.665317  0.669389  0.152380  1
  O  O12  1  0.724852  0.357058  0.099015  1
  O  O13  1  0.078680  0.271333  0.603674  1
  O  O14  1  0.921320  0.728667  0.396326  1
  O  O15  1  0.407437  0.034991  0.751083  1
  O  O16  1  0.962874  0.444467  0.248255  1
  O  O17  1  0.079249  0.268334  0.898137  1
  O  O18  1  0.349734  0.925503  0.101134  1
  O  O19  1  0.037126  0.555533  0.751745  1
  O  O20  1  0.275148  0.642942  0.900985  1
  O  O21  1  0.556194  0.406423  0.752008  1
  O  O22  1  0.443806  0.593577  0.247992  1
  O  O23  1  0.592563  0.965009  0.248917  1
  O  O24  1  0.349684  0.920170  0.395915  1
  O  O25  1  0.729991  0.349139  0.395643  1
  O  O26  1  0.650316  0.079830  0.604085  1
  O  O27  1  0.650266  0.074497  0.898866  1
  O  O28  1  0.270009  0.650861  0.604357  1
  O  O29  1  0.920751  0.731666  0.101863  1
