# generated using pymatgen
data_YS
_symmetry_space_group_name_H-M   'P 1'
_cell_length_a   3.81750670
_cell_length_b   3.81750670
_cell_length_c   11.01092630
_cell_angle_alpha   99.98433433
_cell_angle_beta   99.98433430
_cell_angle_gamma   89.99072363
_symmetry_Int_Tables_number   1
_chemical_formula_structural   YS
_chemical_formula_sum   'Y2 S2'
_cell_volume   155.56855032
_cell_formula_units_Z   2
loop_
 _symmetry_equiv_pos_site_id
 _symmetry_equiv_pos_as_xyz
  1  'x, y, z'
loop_
 _atom_site_type_symbol
 _atom_site_label
 _atom_site_symmetry_multiplicity
 _atom_site_fract_x
 _atom_site_fract_y
 _atom_site_fract_z
 _atom_site_occupancy
  S  S0  1  0.183536  0.162383  0.345919  1
  S  S1  1  0.837617  0.816464  0.654081  1
  Y  Y2  1  0.314077  0.293230  0.607307  1
  Y  Y3  1  0.706770  0.685923  0.392693  1
