# generated using pymatgen
data_NaH3O2
_symmetry_space_group_name_H-M   'P 1'
_cell_length_a   6.21134009
_cell_length_b   6.16382540
_cell_length_c   11.50806701
_cell_angle_alpha   90.00000000
_cell_angle_beta   90.00000000
_cell_angle_gamma   90.00000000
_symmetry_Int_Tables_number   1
_chemical_formula_structural   NaH3O2
_chemical_formula_sum   'Na8 H24 O16'
_cell_volume   440.59343232
_cell_formula_units_Z   8
loop_
 _symmetry_equiv_pos_site_id
 _symmetry_equiv_pos_as_xyz
  1  'x, y, z'
loop_
 _atom_site_type_symbol
 _atom_site_label
 _atom_site_symmetry_multiplicity
 _atom_site_fract_x
 _atom_site_fract_y
 _atom_site_fract_z
 _atom_site_occupancy
  H  H0  1  0.624589  0.061963  0.708916  1
  H  H1  1  0.124589  0.938037  0.791084  1
  H  H2  1  0.875411  0.561963  0.291084  1
  H  H3  1  0.375411  0.438037  0.208916  1
  H  H4  1  0.375411  0.938037  0.291084  1
  H  H5  1  0.875411  0.061963  0.208916  1
  H  H6  1  0.124589  0.438037  0.708916  1
  H  H7  1  0.624589  0.561963  0.791084  1
  H  H8  1  0.070670  0.221511  0.864781  1
  H  H9  1  0.570670  0.778489  0.635219  1
  H  H10  1  0.429330  0.721511  0.135219  1
  H  H11  1  0.929330  0.278489  0.364781  1
  H  H12  1  0.929330  0.778489  0.135219  1
  H  H13  1  0.429330  0.221511  0.364781  1
  H  H14  1  0.570670  0.278489  0.864781  1
  H  H15  1  0.070670  0.721511  0.635219  1
  H  H16  1  0.897187  0.929968  0.633203  1
  H  H17  1  0.397187  0.070032  0.866797  1
  H  H18  1  0.602813  0.429968  0.366797  1
  H  H19  1  0.897187  0.429968  0.866797  1
  H  H20  1  0.102813  0.070032  0.366797  1
  H  H21  1  0.602813  0.929968  0.133203  1
  H  H22  1  0.397187  0.570032  0.633203  1
  H  H23  1  0.102813  0.570032  0.133203  1
  O  O24  1  0.945278  0.613820  0.129373  1
  O  O25  1  0.647095  0.529484  0.874101  1
  O  O26  1  0.352905  0.970516  0.374101  1
  O  O27  1  0.852905  0.029484  0.125899  1
  O  O28  1  0.852905  0.529484  0.374101  1
  O  O29  1  0.352905  0.470516  0.125899  1
  O  O30  1  0.647095  0.029484  0.625899  1
  O  O31  1  0.147095  0.970516  0.874101  1
  O  O32  1  0.054722  0.386180  0.870627  1
  O  O33  1  0.554722  0.613820  0.629373  1
  O  O34  1  0.445278  0.886180  0.129373  1
  O  O35  1  0.945278  0.113820  0.370627  1
  O  O36  1  0.054722  0.886180  0.629373  1
  O  O37  1  0.445278  0.386180  0.370627  1
  O  O38  1  0.554722  0.113820  0.870627  1
  O  O39  1  0.147095  0.470516  0.625899  1
  Na  Na40  1  0.801890  0.360188  0.561598  1
  Na  Na41  1  0.301890  0.639812  0.938402  1
  Na  Na42  1  0.698110  0.860188  0.438402  1
  Na  Na43  1  0.198110  0.139812  0.061598  1
  Na  Na44  1  0.198110  0.639812  0.438402  1
  Na  Na45  1  0.698110  0.360188  0.061598  1
  Na  Na46  1  0.301890  0.139812  0.561598  1
  Na  Na47  1  0.801890  0.860188  0.938402  1
