# generated using pymatgen
data_K2CaH2S2O9
_symmetry_space_group_name_H-M   'P 1'
_cell_length_a   6.33400214
_cell_length_b   7.20033002
_cell_length_c   9.91020073
_cell_angle_alpha   90.00000000
_cell_angle_beta   103.66422952
_cell_angle_gamma   90.00000000
_symmetry_Int_Tables_number   1
_chemical_formula_structural   K2CaH2S2O9
_chemical_formula_sum   'K4 Ca2 H4 S4 O18'
_cell_volume   439.18128779
_cell_formula_units_Z   2
loop_
 _symmetry_equiv_pos_site_id
 _symmetry_equiv_pos_as_xyz
  1  'x, y, z'
loop_
 _atom_site_type_symbol
 _atom_site_label
 _atom_site_symmetry_multiplicity
 _atom_site_fract_x
 _atom_site_fract_y
 _atom_site_fract_z
 _atom_site_occupancy
  K  K0  1  0.816218  0.505273  0.664907  1
  K  K1  1  0.183782  0.494727  0.335093  1
  K  K2  1  0.816218  0.994727  0.664907  1
  K  K3  1  0.183782  0.005273  0.335093  1
  Ca  Ca4  1  0.335693  0.250000  0.969011  1
  Ca  Ca5  1  0.664307  0.750000  0.030989  1
  H  H6  1  0.586481  0.360831  0.253929  1
  H  H7  1  0.586481  0.139169  0.253929  1
  H  H8  1  0.413519  0.639169  0.746071  1
  H  H9  1  0.413519  0.860831  0.746071  1
  S  S10  1  0.840243  0.250000  0.991808  1
  S  S11  1  0.159757  0.750000  0.008192  1
  S  S12  1  0.279408  0.250000  0.638736  1
  S  S13  1  0.720592  0.750000  0.361264  1
  O  O14  1  0.054692  0.750000  0.128627  1
  O  O15  1  0.460154  0.250000  0.566248  1
  O  O16  1  0.015262  0.250000  0.120436  1
  O  O17  1  0.695329  0.415801  0.982948  1
  O  O18  1  0.707725  0.916697  0.268553  1
  O  O19  1  0.304671  0.584199  0.017052  1
  O  O20  1  0.492955  0.250000  0.227100  1
  O  O21  1  0.292275  0.416697  0.731447  1
  O  O22  1  0.984738  0.750000  0.879564  1
  O  O23  1  0.304671  0.915801  0.017052  1
  O  O24  1  0.933185  0.750000  0.466147  1
  O  O25  1  0.539846  0.750000  0.433752  1
  O  O26  1  0.507045  0.750000  0.772900  1
  O  O27  1  0.707725  0.583303  0.268553  1
  O  O28  1  0.292275  0.083303  0.731447  1
  O  O29  1  0.695329  0.084199  0.982948  1
  O  O30  1  0.066815  0.250000  0.533853  1
  O  O31  1  0.945308  0.250000  0.871373  1
