# generated using pymatgen
data_VSO5
_symmetry_space_group_name_H-M   'P 1'
_cell_length_a   6.39499009
_cell_length_b   7.40551694
_cell_length_c   7.25939070
_cell_angle_alpha   90.00000000
_cell_angle_beta   90.00000000
_cell_angle_gamma   90.00000000
_symmetry_Int_Tables_number   1
_chemical_formula_structural   VSO5
_chemical_formula_sum   'V4 S4 O20'
_cell_volume   343.79173068
_cell_formula_units_Z   4
loop_
 _symmetry_equiv_pos_site_id
 _symmetry_equiv_pos_as_xyz
  1  'x, y, z'
loop_
 _atom_site_type_symbol
 _atom_site_label
 _atom_site_symmetry_multiplicity
 _atom_site_fract_x
 _atom_site_fract_y
 _atom_site_fract_z
 _atom_site_occupancy
  O  O0  1  0.750001  0.005635  0.709175  1
  O  O1  1  0.250001  0.994364  0.290826  1
  O  O2  1  0.250001  0.505635  0.790826  1
  O  O3  1  0.750001  0.494364  0.209174  1
  O  O4  1  0.750001  0.017592  0.047375  1
  O  O5  1  0.250001  0.982408  0.952624  1
  O  O6  1  0.250001  0.517593  0.452625  1
  O  O7  1  0.750001  0.482408  0.547376  1
  O  O8  1  0.566181  0.253584  0.371558  1
  O  O9  1  0.066181  0.746416  0.628443  1
  O  O10  1  0.433818  0.753584  0.128443  1
  O  O11  1  0.933820  0.246416  0.871557  1
  O  O12  1  0.433818  0.746416  0.628443  1
  O  O13  1  0.933820  0.253584  0.371558  1
  O  O14  1  0.250001  0.184337  0.618551  1
  O  O15  1  0.066181  0.753584  0.128443  1
  O  O16  1  0.250001  0.315663  0.118551  1
  O  O17  1  0.750001  0.684337  0.881448  1
  O  O18  1  0.750001  0.815663  0.381449  1
  O  O19  1  0.566181  0.246416  0.871557  1
  S  S20  1  0.750001  0.124742  0.873459  1
  S  S21  1  0.250001  0.875258  0.126542  1
  S  S22  1  0.250001  0.624743  0.626542  1
  S  S23  1  0.750001  0.375258  0.373459  1
  V  V24  1  0.250001  0.233661  0.844528  1
  V  V25  1  0.750001  0.766339  0.155471  1
  V  V26  1  0.750001  0.733661  0.655471  1
  V  V27  1  0.250001  0.266339  0.344529  1
