# generated using pymatgen
data_Sr2GeN2
_symmetry_space_group_name_H-M   'P 1'
_cell_length_a   5.42653225
_cell_length_b   11.85993535
_cell_length_c   11.85993535
_cell_angle_alpha   90.00000000
_cell_angle_beta   90.00000000
_cell_angle_gamma   90.00000000
_symmetry_Int_Tables_number   1
_chemical_formula_structural   Sr2GeN2
_chemical_formula_sum   'Sr16 Ge8 N16'
_cell_volume   763.28553412
_cell_formula_units_Z   8
loop_
 _symmetry_equiv_pos_site_id
 _symmetry_equiv_pos_as_xyz
  1  'x, y, z'
loop_
 _atom_site_type_symbol
 _atom_site_label
 _atom_site_symmetry_multiplicity
 _atom_site_fract_x
 _atom_site_fract_y
 _atom_site_fract_z
 _atom_site_occupancy
  N  N0  1  0.500000  0.488488  0.165104  1
  N  N1  1  0.500000  0.511512  0.834896  1
  N  N2  1  0.000000  0.165104  0.511512  1
  N  N3  1  0.000000  0.834896  0.488488  1
  N  N4  1  0.000000  0.665104  0.988488  1
  N  N5  1  0.500000  0.011512  0.665104  1
  N  N6  1  0.500000  0.988488  0.334896  1
  N  N7  1  0.000000  0.334896  0.011512  1
  N  N8  1  0.500000  0.366185  0.401370  1
  N  N9  1  0.500000  0.633815  0.598630  1
  N  N10  1  0.000000  0.401370  0.633815  1
  N  N11  1  0.000000  0.598630  0.366185  1
  N  N12  1  0.000000  0.901370  0.866185  1
  N  N13  1  0.500000  0.133815  0.901370  1
  N  N14  1  0.500000  0.866185  0.098630  1
  N  N15  1  0.000000  0.098630  0.133815  1
  Ge  Ge16  1  0.000000  0.255979  0.151000  1
  Ge  Ge17  1  0.500000  0.849000  0.255979  1
  Ge  Ge18  1  0.500000  0.151000  0.744021  1
  Ge  Ge19  1  0.000000  0.744021  0.849000  1
  Ge  Ge20  1  0.000000  0.755979  0.349000  1
  Ge  Ge21  1  0.000000  0.244021  0.651000  1
  Ge  Ge22  1  0.500000  0.651000  0.755979  1
  Ge  Ge23  1  0.500000  0.349000  0.244021  1
  Sr  Sr24  1  0.500000  0.151441  0.477958  1
  Sr  Sr25  1  0.500000  0.848559  0.522042  1
  Sr  Sr26  1  0.000000  0.477958  0.848559  1
  Sr  Sr27  1  0.000000  0.522042  0.151441  1
  Sr  Sr28  1  0.000000  0.977958  0.651441  1
  Sr  Sr29  1  0.500000  0.348559  0.977958  1
  Sr  Sr30  1  0.500000  0.651441  0.022042  1
  Sr  Sr31  1  0.000000  0.022042  0.348559  1
  Sr  Sr32  1  0.500000  0.080188  0.133599  1
  Sr  Sr33  1  0.500000  0.919812  0.866401  1
  Sr  Sr34  1  0.000000  0.133599  0.919812  1
  Sr  Sr35  1  0.000000  0.866401  0.080188  1
  Sr  Sr36  1  0.000000  0.633599  0.580188  1
  Sr  Sr37  1  0.500000  0.419812  0.633599  1
  Sr  Sr38  1  0.500000  0.580188  0.366401  1
  Sr  Sr39  1  0.000000  0.366401  0.419812  1
