# generated using pymatgen
data_MnPH2O5
_symmetry_space_group_name_H-M   'P 1'
_cell_length_a   5.17919237
_cell_length_b   5.17919237
_cell_length_c   7.54037981
_cell_angle_alpha   104.18727985
_cell_angle_beta   104.18727981
_cell_angle_gamma   96.61414604
_symmetry_Int_Tables_number   1
_chemical_formula_structural   MnPH2O5
_chemical_formula_sum   'Mn2 P2 H4 O10'
_cell_volume   186.77956086
_cell_formula_units_Z   2
loop_
 _symmetry_equiv_pos_site_id
 _symmetry_equiv_pos_as_xyz
  1  'x, y, z'
loop_
 _atom_site_type_symbol
 _atom_site_label
 _atom_site_symmetry_multiplicity
 _atom_site_fract_x
 _atom_site_fract_y
 _atom_site_fract_z
 _atom_site_occupancy
  H  H0  1  0.883032  0.934874  0.294565  1
  H  H1  1  0.065126  0.116968  0.205435  1
  H  H2  1  0.116968  0.065126  0.705435  1
  H  H3  1  0.934874  0.883032  0.794565  1
  O  O4  1  0.347882  0.726946  0.099068  1
  O  O5  1  0.273054  0.652118  0.400932  1
  O  O6  1  0.652118  0.273054  0.900932  1
  O  O7  1  0.726946  0.347882  0.599068  1
  O  O8  1  0.738664  0.657467  0.343119  1
  O  O9  1  0.342533  0.261336  0.156881  1
  O  O10  1  0.261336  0.342533  0.656881  1
  O  O11  1  0.657467  0.738664  0.843119  1
  O  O12  1  0.101433  0.898567  0.750000  1
  O  O13  1  0.898567  0.101433  0.250000  1
  P  P14  1  0.426014  0.573986  0.250000  1
  P  P15  1  0.573986  0.426014  0.750000  1
  Mn  Mn16  1  0.000000  0.500000  0.500000  1
  Mn  Mn17  1  0.500000  0.000000  0.000000  1
