# generated using pymatgen
data_Er3Co29(Si2B5)2
_symmetry_space_group_name_H-M   'P 1'
_cell_length_a   7.80479315
_cell_length_b   11.10579381
_cell_length_c   11.10579381
_cell_angle_alpha   90.00000000
_cell_angle_beta   90.00000000
_cell_angle_gamma   90.00000000
_symmetry_Int_Tables_number   1
_chemical_formula_structural   Er3Co29(Si2B5)2
_chemical_formula_sum   'Er6 Co58 Si8 B20'
_cell_volume   962.63269865
_cell_formula_units_Z   2
loop_
 _symmetry_equiv_pos_site_id
 _symmetry_equiv_pos_as_xyz
  1  'x, y, z'
loop_
 _atom_site_type_symbol
 _atom_site_label
 _atom_site_symmetry_multiplicity
 _atom_site_fract_x
 _atom_site_fract_y
 _atom_site_fract_z
 _atom_site_occupancy
  B  B0  1  0.105633  0.250000  0.250000  1
  B  B1  1  0.894367  0.750000  0.750000  1
  B  B2  1  0.850303  0.250000  0.250000  1
  B  B3  1  0.149697  0.750000  0.750000  1
  B  B4  1  0.735188  0.250000  0.993838  1
  B  B5  1  0.735188  0.506162  0.250000  1
  B  B6  1  0.735188  0.993838  0.250000  1
  B  B7  1  0.735188  0.250000  0.506162  1
  B  B8  1  0.264812  0.750000  0.006162  1
  B  B9  1  0.264812  0.750000  0.493838  1
  B  B10  1  0.264812  0.493838  0.750000  1
  B  B11  1  0.264812  0.006162  0.750000  1
  B  B12  1  0.481084  0.064165  0.064165  1
  B  B13  1  0.481084  0.435835  0.064165  1
  B  B14  1  0.481084  0.064165  0.435835  1
  B  B15  1  0.481084  0.435835  0.435835  1
  B  B16  1  0.518916  0.564165  0.935835  1
  B  B17  1  0.518916  0.935835  0.564165  1
  B  B18  1  0.518916  0.564165  0.564165  1
  B  B19  1  0.518916  0.935835  0.935835  1
  Si  Si20  1  0.174540  0.250000  0.567573  1
  Si  Si21  1  0.174540  0.932427  0.250000  1
  Si  Si22  1  0.174540  0.567573  0.250000  1
  Si  Si23  1  0.174540  0.250000  0.932427  1
  Si  Si24  1  0.825460  0.750000  0.432427  1
  Si  Si25  1  0.825460  0.750000  0.067573  1
  Si  Si26  1  0.825460  0.067573  0.750000  1
  Si  Si27  1  0.825460  0.432427  0.750000  1
  Co  Co28  1  0.464553  0.250000  0.250000  1
  Co  Co29  1  0.535447  0.750000  0.750000  1
  Co  Co30  1  0.888119  0.250000  0.639834  1
  Co  Co31  1  0.888119  0.860166  0.250000  1
  Co  Co32  1  0.888119  0.639834  0.250000  1
  Co  Co33  1  0.888119  0.250000  0.860166  1
  Co  Co34  1  0.111881  0.750000  0.360166  1
  Co  Co35  1  0.111881  0.750000  0.139834  1
  Co  Co36  1  0.111881  0.139834  0.750000  1
  Co  Co37  1  0.111881  0.360166  0.750000  1
  Co  Co38  1  0.472575  0.250000  0.021544  1
  Co  Co39  1  0.472575  0.478456  0.250000  1
  Co  Co40  1  0.472575  0.021544  0.250000  1
  Co  Co41  1  0.472575  0.250000  0.478456  1
  Co  Co42  1  0.527425  0.750000  0.978456  1
  Co  Co43  1  0.527425  0.750000  0.521544  1
  Co  Co44  1  0.527425  0.521544  0.750000  1
  Co  Co45  1  0.527425  0.978456  0.750000  1
  Co  Co46  1  0.969164  0.250000  0.084963  1
  Co  Co47  1  0.969164  0.415037  0.250000  1
  Co  Co48  1  0.969164  0.084963  0.250000  1
  Co  Co49  1  0.969164  0.250000  0.415037  1
  Co  Co50  1  0.030836  0.750000  0.915037  1
  Co  Co51  1  0.030836  0.750000  0.584963  1
  Co  Co52  1  0.030836  0.584963  0.750000  1
  Co  Co53  1  0.030836  0.915037  0.750000  1
  Co  Co54  1  0.247094  0.133961  0.133961  1
  Co  Co55  1  0.247094  0.366039  0.133961  1
  Co  Co56  1  0.247094  0.133961  0.366039  1
  Co  Co57  1  0.247094  0.366039  0.366039  1
  Co  Co58  1  0.752906  0.633961  0.866039  1
  Co  Co59  1  0.752906  0.866039  0.633961  1
  Co  Co60  1  0.752906  0.633961  0.633961  1
  Co  Co61  1  0.752906  0.866039  0.866039  1
  Co  Co62  1  0.697536  0.139876  0.139876  1
  Co  Co63  1  0.697536  0.360124  0.139876  1
  Co  Co64  1  0.697536  0.139876  0.360124  1
  Co  Co65  1  0.697536  0.360124  0.360124  1
  Co  Co66  1  0.302464  0.639876  0.860124  1
  Co  Co67  1  0.302464  0.860124  0.639876  1
  Co  Co68  1  0.302464  0.639876  0.639876  1
  Co  Co69  1  0.302464  0.860124  0.860124  1
  Co  Co70  1  0.335864  0.075638  0.588421  1
  Co  Co71  1  0.335864  0.911579  0.075638  1
  Co  Co72  1  0.335864  0.588421  0.424362  1
  Co  Co73  1  0.335864  0.424362  0.911579  1
  Co  Co74  1  0.664136  0.575638  0.411579  1
  Co  Co75  1  0.664136  0.924362  0.088421  1
  Co  Co76  1  0.664136  0.088421  0.575638  1
  Co  Co77  1  0.664136  0.411579  0.924362  1
  Co  Co78  1  0.664136  0.924362  0.411579  1
  Co  Co79  1  0.664136  0.088421  0.924362  1
  Co  Co80  1  0.664136  0.411579  0.575638  1
  Co  Co81  1  0.664136  0.575638  0.088421  1
  Co  Co82  1  0.335864  0.424362  0.588421  1
  Co  Co83  1  0.335864  0.075638  0.911579  1
  Co  Co84  1  0.335864  0.911579  0.424362  1
  Co  Co85  1  0.335864  0.588421  0.075638  1
  Er  Er86  1  0.500000  0.250000  0.750000  1
  Er  Er87  1  0.500000  0.750000  0.250000  1
  Er  Er88  1  0.000000  0.000000  0.000000  1
  Er  Er89  1  0.000000  0.500000  0.000000  1
  Er  Er90  1  0.000000  0.000000  0.500000  1
  Er  Er91  1  0.000000  0.500000  0.500000  1
