# generated using pymatgen
data_UV2O6
_symmetry_space_group_name_H-M   'P 1'
_cell_length_a   5.12379921
_cell_length_b   5.12379921
_cell_length_c   4.69928125
_cell_angle_alpha   90.00000000
_cell_angle_beta   90.00000000
_cell_angle_gamma   119.99999995
_symmetry_Int_Tables_number   1
_chemical_formula_structural   UV2O6
_chemical_formula_sum   'U1 V2 O6'
_cell_volume   106.84304939
_cell_formula_units_Z   1
loop_
 _symmetry_equiv_pos_site_id
 _symmetry_equiv_pos_as_xyz
  1  'x, y, z'
loop_
 _atom_site_type_symbol
 _atom_site_label
 _atom_site_symmetry_multiplicity
 _atom_site_fract_x
 _atom_site_fract_y
 _atom_site_fract_z
 _atom_site_occupancy
  O  O0  1  0.336395  0.336396  0.737680  1
  O  O1  1  0.663604  0.000000  0.737680  1
  O  O2  1  0.000001  0.663606  0.737680  1
  O  O3  1  0.336395  0.000000  0.262320  1
  O  O4  1  0.663605  0.663606  0.262320  1
  O  O5  1  0.000001  0.336396  0.262320  1
  V  V6  1  0.666666  0.333333  0.500001  1
  V  V7  1  0.333333  0.666666  0.500001  1
  U  U8  1  0.000000  0.000000  0.000000  1
