# generated using pymatgen
data_Ba5Ge3
_symmetry_space_group_name_H-M   'P 1'
_cell_length_a   8.60331785
_cell_length_b   8.60331785
_cell_length_c   16.82546329
_cell_angle_alpha   90.00000000
_cell_angle_beta   90.00000000
_cell_angle_gamma   90.00000000
_symmetry_Int_Tables_number   1
_chemical_formula_structural   Ba5Ge3
_chemical_formula_sum   'Ba20 Ge12'
_cell_volume   1245.37162920
_cell_formula_units_Z   4
loop_
 _symmetry_equiv_pos_site_id
 _symmetry_equiv_pos_as_xyz
  1  'x, y, z'
loop_
 _atom_site_type_symbol
 _atom_site_label
 _atom_site_symmetry_multiplicity
 _atom_site_fract_x
 _atom_site_fract_y
 _atom_site_fract_z
 _atom_site_occupancy
  Ge  Ge0  1  0.357619  0.642381  0.750000  1
  Ge  Ge1  1  0.857619  0.357619  0.750000  1
  Ge  Ge2  1  0.642381  0.142381  0.750000  1
  Ge  Ge3  1  0.142381  0.857619  0.750000  1
  Ge  Ge4  1  0.642381  0.357619  0.250000  1
  Ge  Ge5  1  0.142381  0.642381  0.250000  1
  Ge  Ge6  1  0.357619  0.857619  0.250000  1
  Ge  Ge7  1  0.857619  0.142381  0.250000  1
  Ge  Ge8  1  0.250000  0.250000  0.510183  1
  Ge  Ge9  1  0.750000  0.750000  0.989817  1
  Ge  Ge10  1  0.750000  0.750000  0.489817  1
  Ge  Ge11  1  0.250000  0.250000  0.010183  1
  Ba  Ba12  1  0.417368  0.943605  0.891635  1
  Ba  Ba13  1  0.556395  0.417368  0.891635  1
  Ba  Ba14  1  0.943605  0.082632  0.891635  1
  Ba  Ba15  1  0.917368  0.056395  0.608365  1
  Ba  Ba16  1  0.582632  0.443605  0.608365  1
  Ba  Ba17  1  0.082632  0.556395  0.891635  1
  Ba  Ba18  1  0.443605  0.917368  0.608365  1
  Ba  Ba19  1  0.056395  0.582632  0.608365  1
  Ba  Ba20  1  0.943605  0.417368  0.391635  1
  Ba  Ba21  1  0.556395  0.082632  0.391635  1
  Ba  Ba22  1  0.917368  0.443605  0.108365  1
  Ba  Ba23  1  0.417368  0.556395  0.391635  1
  Ba  Ba24  1  0.082632  0.943605  0.391635  1
  Ba  Ba25  1  0.056395  0.917368  0.108365  1
  Ba  Ba26  1  0.443605  0.582632  0.108365  1
  Ba  Ba27  1  0.582632  0.056395  0.108365  1
  Ba  Ba28  1  0.250000  0.250000  0.722032  1
  Ba  Ba29  1  0.750000  0.750000  0.777968  1
  Ba  Ba30  1  0.750000  0.750000  0.277968  1
  Ba  Ba31  1  0.250000  0.250000  0.222032  1
