# generated using pymatgen
data_LiMnPCO7
_symmetry_space_group_name_H-M   'P 1'
_cell_length_a   5.17246783
_cell_length_b   6.21920266
_cell_length_c   8.66173557
_cell_angle_alpha   90.00000000
_cell_angle_beta   85.81411846
_cell_angle_gamma   90.00000000
_symmetry_Int_Tables_number   1
_chemical_formula_structural   LiMnPCO7
_chemical_formula_sum   'Li2 Mn2 P2 C2 O14'
_cell_volume   277.89286572
_cell_formula_units_Z   2
loop_
 _symmetry_equiv_pos_site_id
 _symmetry_equiv_pos_as_xyz
  1  'x, y, z'
loop_
 _atom_site_type_symbol
 _atom_site_label
 _atom_site_symmetry_multiplicity
 _atom_site_fract_x
 _atom_site_fract_y
 _atom_site_fract_z
 _atom_site_occupancy
  Li  Li0  1  0.221241  0.975026  0.205788  1
  Li  Li1  1  0.778759  0.475026  0.794212  1
  C  C2  1  0.724621  0.748427  0.065827  1
  C  C3  1  0.275379  0.248427  0.934173  1
  O  O4  1  0.180637  0.562821  0.671834  1
  O  O5  1  0.953878  0.757396  0.124238  1
  O  O6  1  0.463117  0.267400  0.821231  1
  O  O7  1  0.536883  0.767400  0.178769  1
  O  O8  1  0.797741  0.450006  0.322959  1
  O  O9  1  0.135266  0.766827  0.416683  1
  O  O10  1  0.202259  0.950006  0.677041  1
  O  O11  1  0.864734  0.266827  0.583317  1
  O  O12  1  0.819363  0.062821  0.328166  1
  O  O13  1  0.431172  0.246114  0.471625  1
  O  O14  1  0.687472  0.718578  0.928509  1
  O  O15  1  0.312528  0.218578  0.071491  1
  O  O16  1  0.568828  0.746114  0.528375  1
  O  O17  1  0.046122  0.257396  0.875762  1
  P  P18  1  0.728663  0.257321  0.430387  1
  P  P19  1  0.271337  0.757321  0.569613  1
  Mn  Mn20  1  0.788322  0.753284  0.339744  1
  Mn  Mn21  1  0.211678  0.253284  0.660256  1
