# generated using pymatgen
data_LiCoO2
_symmetry_space_group_name_H-M   'P 1'
_cell_length_a   5.00071470
_cell_length_b   5.00071417
_cell_length_c   5.00071461
_cell_angle_alpha   32.96977022
_cell_angle_beta   32.96977917
_cell_angle_gamma   32.96978294
_symmetry_Int_Tables_number   1
_chemical_formula_structural   LiCoO2
_chemical_formula_sum   'Li1 Co1 O2'
_cell_volume   32.95599824
_cell_formula_units_Z   1
loop_
 _symmetry_equiv_pos_site_id
 _symmetry_equiv_pos_as_xyz
  1  'x, y, z'
loop_
 _atom_site_type_symbol
 _atom_site_label
 _atom_site_symmetry_multiplicity
 _atom_site_fract_x
 _atom_site_fract_y
 _atom_site_fract_z
 _atom_site_occupancy
  Li  Li0  1  0.500001  0.500001  0.500001  1
  Co  Co1  1  0.000000  0.000000  0.000000  1
  O  O2  1  0.260504  0.260504  0.260504  1
  O  O3  1  0.739495  0.739495  0.739495  1
