# generated using pymatgen
data_LiSbP2O7
_symmetry_space_group_name_H-M   'P 1'
_cell_length_a   6.82864226
_cell_length_b   6.79841934
_cell_length_c   6.84514649
_cell_angle_alpha   114.32415780
_cell_angle_beta   99.69889881
_cell_angle_gamma   83.89407533
_symmetry_Int_Tables_number   1
_chemical_formula_structural   LiSbP2O7
_chemical_formula_sum   'Li2 Sb2 P4 O14'
_cell_volume   285.18872964
_cell_formula_units_Z   2
loop_
 _symmetry_equiv_pos_site_id
 _symmetry_equiv_pos_as_xyz
  1  'x, y, z'
loop_
 _atom_site_type_symbol
 _atom_site_label
 _atom_site_symmetry_multiplicity
 _atom_site_fract_x
 _atom_site_fract_y
 _atom_site_fract_z
 _atom_site_occupancy
  Li  Li0  1  0.184360  0.610708  0.077228  1
  Li  Li1  1  0.815640  0.389292  0.922772  1
  Sb  Sb2  1  0.300174  0.890087  0.743281  1
  Sb  Sb3  1  0.699826  0.109913  0.256719  1
  P  P4  1  0.612174  0.656935  0.314520  1
  P  P5  1  0.159989  0.223061  0.225124  1
  P  P6  1  0.840011  0.776939  0.774876  1
  P  P7  1  0.387826  0.343065  0.685480  1
  O  O8  1  0.685322  0.944573  0.911769  1
  O  O9  1  0.990738  0.906328  0.732990  1
  O  O10  1  0.289020  0.353349  0.452260  1
  O  O11  1  0.314678  0.055427  0.088231  1
  O  O12  1  0.398346  0.738315  0.337386  1
  O  O13  1  0.710980  0.646651  0.547740  1
  O  O14  1  0.601654  0.261685  0.662614  1
  O  O15  1  0.742837  0.809136  0.278157  1
  O  O16  1  0.257163  0.190864  0.721843  1
  O  O17  1  0.356090  0.575322  0.846771  1
  O  O18  1  0.930268  0.619064  0.868870  1
  O  O19  1  0.069732  0.380936  0.131130  1
  O  O20  1  0.009262  0.093672  0.267010  1
  O  O21  1  0.643910  0.424678  0.153229  1
