# generated using pymatgen
data_Co2P2O7
_symmetry_space_group_name_H-M   'P 1'
_cell_length_a   7.07802493
_cell_length_b   8.44240592
_cell_length_c   9.07575862
_cell_angle_alpha   90.00000000
_cell_angle_beta   112.61051519
_cell_angle_gamma   90.00000000
_symmetry_Int_Tables_number   1
_chemical_formula_structural   Co2P2O7
_chemical_formula_sum   'Co8 P8 O28'
_cell_volume   500.64360178
_cell_formula_units_Z   4
loop_
 _symmetry_equiv_pos_site_id
 _symmetry_equiv_pos_as_xyz
  1  'x, y, z'
loop_
 _atom_site_type_symbol
 _atom_site_label
 _atom_site_symmetry_multiplicity
 _atom_site_fract_x
 _atom_site_fract_y
 _atom_site_fract_z
 _atom_site_occupancy
  O  O0  1  0.656677  0.112727  0.101127  1
  O  O1  1  0.843323  0.612727  0.398873  1
  O  O2  1  0.343323  0.887273  0.898873  1
  O  O3  1  0.156677  0.387273  0.601127  1
  O  O4  1  0.639182  0.409373  0.156461  1
  O  O5  1  0.860818  0.909373  0.343539  1
  O  O6  1  0.360818  0.590627  0.843539  1
  O  O7  1  0.139182  0.090627  0.656461  1
  O  O8  1  0.571566  0.110979  0.690813  1
  O  O9  1  0.928434  0.610979  0.809187  1
  O  O10  1  0.428434  0.889021  0.309187  1
  O  O11  1  0.071566  0.389021  0.190813  1
  O  O12  1  0.593155  0.402122  0.619442  1
  O  O13  1  0.906845  0.902122  0.880558  1
  O  O14  1  0.406845  0.597878  0.380558  1
  O  O15  1  0.093155  0.097878  0.119442  1
  O  O16  1  0.149136  0.169598  0.400523  1
  O  O17  1  0.350864  0.669598  0.099476  1
  O  O18  1  0.850864  0.830402  0.599476  1
  O  O19  1  0.649136  0.330402  0.900524  1
  O  O20  1  0.829936  0.233415  0.452401  1
  O  O21  1  0.670064  0.733415  0.047599  1
  O  O22  1  0.170065  0.766585  0.547599  1
  O  O23  1  0.329935  0.266585  0.952401  1
  O  O24  1  0.413263  0.242183  0.296623  1
  O  O25  1  0.086737  0.742183  0.203377  1
  O  O26  1  0.586737  0.757817  0.703377  1
  O  O27  1  0.913263  0.257817  0.796623  1
  P  P28  1  0.565598  0.275545  0.032610  1
  P  P29  1  0.934402  0.775545  0.467390  1
  P  P30  1  0.434402  0.724455  0.967390  1
  P  P31  1  0.065598  0.224455  0.532610  1
  P  P32  1  0.678389  0.267944  0.742342  1
  P  P33  1  0.821611  0.767944  0.757658  1
  P  P34  1  0.321611  0.732056  0.257658  1
  P  P35  1  0.178389  0.232056  0.242342  1
  Co  Co36  1  0.379657  0.937313  0.683015  1
  Co  Co37  1  0.120343  0.437313  0.816985  1
  Co  Co38  1  0.620343  0.062687  0.316985  1
  Co  Co39  1  0.879657  0.562687  0.183015  1
  Co  Co40  1  0.622851  0.426237  0.391337  1
  Co  Co41  1  0.877149  0.926237  0.108663  1
  Co  Co42  1  0.377149  0.573763  0.608663  1
  Co  Co43  1  0.122851  0.073763  0.891337  1
