# generated using pymatgen
data_Pd(S3N)2
_symmetry_space_group_name_H-M   'P 1'
_cell_length_a   8.09939272
_cell_length_b   9.43484725
_cell_length_c   12.91799061
_cell_angle_alpha   90.00000000
_cell_angle_beta   96.02390735
_cell_angle_gamma   90.00000000
_symmetry_Int_Tables_number   1
_chemical_formula_structural   Pd(S3N)2
_chemical_formula_sum   'Pd4 S24 N8'
_cell_volume   981.69721701
_cell_formula_units_Z   4
loop_
 _symmetry_equiv_pos_site_id
 _symmetry_equiv_pos_as_xyz
  1  'x, y, z'
loop_
 _atom_site_type_symbol
 _atom_site_label
 _atom_site_symmetry_multiplicity
 _atom_site_fract_x
 _atom_site_fract_y
 _atom_site_fract_z
 _atom_site_occupancy
  N  N0  1  0.332481  0.100594  0.803557  1
  N  N1  1  0.167519  0.600594  0.196443  1
  N  N2  1  0.667519  0.899406  0.196443  1
  N  N3  1  0.832481  0.399406  0.803557  1
  N  N4  1  0.723789  0.328612  0.423308  1
  N  N5  1  0.776211  0.828612  0.576692  1
  N  N6  1  0.276211  0.671388  0.576692  1
  N  N7  1  0.223789  0.171388  0.423308  1
  S  S8  1  0.337487  0.669941  0.807843  1
  S  S9  1  0.700741  0.223168  0.329204  1
  S  S10  1  0.200741  0.276832  0.329204  1
  S  S11  1  0.299259  0.776832  0.670796  1
  S  S12  1  0.779274  1.000105  0.583388  1
  S  S13  1  0.720726  0.500105  0.416612  1
  S  S14  1  0.220726  -0.000105  0.416612  1
  S  S15  1  0.799259  0.723168  0.670796  1
  S  S16  1  0.863134  0.134367  0.929007  1
  S  S17  1  0.636866  0.634367  0.070993  1
  S  S18  1  0.136866  0.865633  0.070993  1
  S  S19  1  0.363134  0.365633  0.929007  1
  S  S20  1  0.858272  0.349530  0.919742  1
  S  S21  1  0.641728  0.849530  0.080258  1
  S  S22  1  0.141728  0.650470  0.080258  1
  S  S23  1  0.358272  0.150470  0.919742  1
  S  S24  1  0.810529  0.298152  0.701811  1
  S  S25  1  0.689471  0.798152  0.298189  1
  S  S26  1  0.189471  0.701848  0.298189  1
  S  S27  1  0.310529  0.201848  0.701811  1
  S  S28  1  0.662513  0.330059  0.192157  1
  S  S29  1  0.837487  0.830059  0.807843  1
  S  S30  1  0.279274  0.499895  0.583388  1
  S  S31  1  0.162513  0.169941  0.192157  1
  Pd  Pd32  1  0.323097  0.433778  0.754488  1
  Pd  Pd33  1  0.176903  0.933778  0.245512  1
  Pd  Pd34  1  0.676903  0.566222  0.245512  1
  Pd  Pd35  1  0.823097  0.066222  0.754488  1
