# generated using pymatgen
data_CuW3Cl7
_symmetry_space_group_name_H-M   'P 1'
_cell_length_a   13.13928767
_cell_length_b   13.13928767
_cell_length_c   13.13928767
_cell_angle_alpha   90.00000000
_cell_angle_beta   90.00000000
_cell_angle_gamma   90.00000000
_symmetry_Int_Tables_number   1
_chemical_formula_structural   CuW3Cl7
_chemical_formula_sum   'Cu8 W24 Cl56'
_cell_volume   2268.37819216
_cell_formula_units_Z   8
loop_
 _symmetry_equiv_pos_site_id
 _symmetry_equiv_pos_as_xyz
  1  'x, y, z'
loop_
 _atom_site_type_symbol
 _atom_site_label
 _atom_site_symmetry_multiplicity
 _atom_site_fract_x
 _atom_site_fract_y
 _atom_site_fract_z
 _atom_site_occupancy
  Cl  Cl0  1  0.135739  0.135739  0.135739  1
  Cl  Cl1  1  0.364261  0.364261  0.135739  1
  Cl  Cl2  1  0.135739  0.364261  0.364261  1
  Cl  Cl3  1  0.364261  0.135739  0.364261  1
  Cl  Cl4  1  0.864261  0.864261  0.864261  1
  Cl  Cl5  1  0.635739  0.635739  0.864261  1
  Cl  Cl6  1  0.864261  0.635739  0.635739  1
  Cl  Cl7  1  0.635739  0.864261  0.635739  1
  Cl  Cl8  1  0.182670  0.075030  0.875323  1
  Cl  Cl9  1  0.875323  0.182670  0.075030  1
  Cl  Cl10  1  0.075030  0.875323  0.182670  1
  Cl  Cl11  1  0.424970  0.624677  0.182670  1
  Cl  Cl12  1  0.875323  0.317330  0.424970  1
  Cl  Cl13  1  0.424970  0.875323  0.317330  1
  Cl  Cl14  1  0.624677  0.317330  0.075030  1
  Cl  Cl15  1  0.624677  0.182670  0.424970  1
  Cl  Cl16  1  0.075030  0.624677  0.317330  1
  Cl  Cl17  1  0.182670  0.424970  0.624677  1
  Cl  Cl18  1  0.317330  0.075030  0.624677  1
  Cl  Cl19  1  0.317330  0.424970  0.875323  1
  Cl  Cl20  1  0.817330  0.924970  0.124677  1
  Cl  Cl21  1  0.124677  0.817330  0.924970  1
  Cl  Cl22  1  0.924970  0.124677  0.817330  1
  Cl  Cl23  1  0.575030  0.375323  0.817330  1
  Cl  Cl24  1  0.124677  0.682670  0.575030  1
  Cl  Cl25  1  0.575030  0.124677  0.682670  1
  Cl  Cl26  1  0.375323  0.682670  0.924970  1
  Cl  Cl27  1  0.375323  0.817330  0.575030  1
  Cl  Cl28  1  0.924970  0.375323  0.682670  1
  Cl  Cl29  1  0.817330  0.575030  0.375323  1
  Cl  Cl30  1  0.682670  0.924970  0.375323  1
  Cl  Cl31  1  0.682670  0.575030  0.124677  1
  Cl  Cl32  1  0.316113  0.941265  0.077875  1
  Cl  Cl33  1  0.077875  0.316113  0.941265  1
  Cl  Cl34  1  0.941265  0.077875  0.316113  1
  Cl  Cl35  1  0.558735  0.422125  0.316113  1
  Cl  Cl36  1  0.077875  0.183887  0.558735  1
  Cl  Cl37  1  0.558735  0.077875  0.183887  1
  Cl  Cl38  1  0.422125  0.183887  0.941265  1
  Cl  Cl39  1  0.422125  0.316113  0.558735  1
  Cl  Cl40  1  0.941265  0.422125  0.183887  1
  Cl  Cl41  1  0.316113  0.558735  0.422125  1
  Cl  Cl42  1  0.183887  0.941265  0.422125  1
  Cl  Cl43  1  0.183887  0.558735  0.077875  1
  Cl  Cl44  1  0.683887  0.058735  0.922125  1
  Cl  Cl45  1  0.922125  0.683887  0.058735  1
  Cl  Cl46  1  0.058735  0.922125  0.683887  1
  Cl  Cl47  1  0.441265  0.577875  0.683887  1
  Cl  Cl48  1  0.922125  0.816113  0.441265  1
  Cl  Cl49  1  0.441265  0.922125  0.816113  1
  Cl  Cl50  1  0.577875  0.816113  0.058735  1
  Cl  Cl51  1  0.577875  0.683887  0.441265  1
  Cl  Cl52  1  0.058735  0.577875  0.816113  1
  Cl  Cl53  1  0.683887  0.441265  0.577875  1
  Cl  Cl54  1  0.816113  0.058735  0.577875  1
  Cl  Cl55  1  0.816113  0.441265  0.922125  1
  Cu  Cu56  1  0.438243  0.438243  0.438243  1
  Cu  Cu57  1  0.061757  0.061757  0.438243  1
  Cu  Cu58  1  0.438243  0.061757  0.061757  1
  Cu  Cu59  1  0.061757  0.438243  0.061757  1
  Cu  Cu60  1  0.561757  0.561757  0.561757  1
  Cu  Cu61  1  0.938243  0.938243  0.561757  1
  Cu  Cu62  1  0.561757  0.938243  0.938243  1
  Cu  Cu63  1  0.938243  0.561757  0.938243  1
  W  W64  1  0.135982  0.975047  0.031119  1
  W  W65  1  0.031119  0.135982  0.975047  1
  W  W66  1  0.975047  0.031119  0.135982  1
  W  W67  1  0.524953  0.468881  0.135982  1
  W  W68  1  0.031119  0.364018  0.524953  1
  W  W69  1  0.524953  0.031119  0.364018  1
  W  W70  1  0.468881  0.364018  0.975047  1
  W  W71  1  0.468881  0.135982  0.524953  1
  W  W72  1  0.975047  0.468881  0.364018  1
  W  W73  1  0.135982  0.524953  0.468881  1
  W  W74  1  0.364018  0.975047  0.468881  1
  W  W75  1  0.364018  0.524953  0.031119  1
  W  W76  1  0.864018  0.024953  0.968881  1
  W  W77  1  0.968881  0.864018  0.024953  1
  W  W78  1  0.024953  0.968881  0.864018  1
  W  W79  1  0.475047  0.531119  0.864018  1
  W  W80  1  0.968881  0.635982  0.475047  1
  W  W81  1  0.475047  0.968881  0.635982  1
  W  W82  1  0.531119  0.635982  0.024953  1
  W  W83  1  0.531119  0.864018  0.475047  1
  W  W84  1  0.024953  0.531119  0.635982  1
  W  W85  1  0.864018  0.475047  0.531119  1
  W  W86  1  0.635982  0.024953  0.531119  1
  W  W87  1  0.635982  0.475047  0.968881  1
