# generated using pymatgen
data_Nd3PO7
_symmetry_space_group_name_H-M   'P 1'
_cell_length_a   9.35759468
_cell_length_b   9.35759468
_cell_length_c   12.39762016
_cell_angle_alpha   102.78228887
_cell_angle_beta   102.78228891
_cell_angle_gamma   91.07731661
_symmetry_Int_Tables_number   1
_chemical_formula_structural   Nd3PO7
_chemical_formula_sum   'Nd18 P6 O42'
_cell_volume   1029.82917258
_cell_formula_units_Z   6
loop_
 _symmetry_equiv_pos_site_id
 _symmetry_equiv_pos_as_xyz
  1  'x, y, z'
loop_
 _atom_site_type_symbol
 _atom_site_label
 _atom_site_symmetry_multiplicity
 _atom_site_fract_x
 _atom_site_fract_y
 _atom_site_fract_z
 _atom_site_occupancy
  O  O0  1  0.534260  0.534260  0.389295  1
  O  O1  1  0.719727  0.719727  0.318839  1
  O  O2  1  0.403773  0.403773  0.926973  1
  O  O3  1  0.394917  0.587714  0.802199  1
  O  O4  1  0.587714  0.394917  0.802199  1
  O  O5  1  0.332181  0.523053  0.495379  1
  O  O6  1  0.523053  0.332181  0.495379  1
  O  O7  1  0.064425  0.064425  0.613283  1
  O  O8  1  0.329542  0.138561  0.718439  1
  O  O9  1  0.138561  0.329542  0.718439  1
  O  O10  1  0.267298  0.074592  0.412499  1
  O  O11  1  0.074592  0.267298  0.412499  1
  O  O12  1  0.044615  0.615312  0.444165  1
  O  O13  1  0.615312  0.044615  0.444165  1
  O  O14  1  0.924503  0.924503  0.399403  1
  O  O15  1  0.618577  0.048267  0.771015  1
  O  O16  1  0.048267  0.618577  0.771015  1
  O  O17  1  0.739820  0.739820  0.815560  1
  O  O18  1  0.595736  0.595736  0.604649  1
  O  O19  1  0.435921  0.889186  0.551996  1
  O  O20  1  0.889186  0.435921  0.551996  1
  O  O21  1  0.410796  0.904834  0.219013  1
  O  O22  1  0.904834  0.410796  0.219013  1
  O  O23  1  0.605154  0.605154  0.979036  1
  O  O24  1  0.773570  0.227955  0.663194  1
  O  O25  1  0.227955  0.773570  0.663194  1
  O  O26  1  0.925987  0.414177  0.885284  1
  O  O27  1  0.414177  0.925987  0.885284  1
  O  O28  1  0.758009  0.252963  0.995965  1
  O  O29  1  0.252963  0.758009  0.995965  1
  O  O30  1  0.944511  0.944511  0.896665  1
  O  O31  1  0.131394  0.131394  0.828699  1
  O  O32  1  0.259436  0.259436  0.288371  1
  O  O33  1  0.736884  0.249468  0.329888  1
  O  O34  1  0.249468  0.736884  0.329888  1
  O  O35  1  0.545417  0.117841  0.107442  1
  O  O36  1  0.117841  0.545417  0.107442  1
  O  O37  1  0.058087  0.058087  0.235101  1
  O  O38  1  0.739263  0.931076  0.996113  1
  O  O39  1  0.931076  0.739263  0.996113  1
  O  O40  1  0.732795  0.924601  0.218998  1
  O  O41  1  0.924601  0.732795  0.218998  1
  P  P42  1  0.167536  0.167536  0.719444  1
  P  P43  1  0.494746  0.494746  0.496379  1
  P  P44  1  0.499174  0.499174  0.874250  1
  P  P45  1  0.827427  0.827427  0.288242  1
  P  P46  1  0.163586  0.163586  0.340434  1
  P  P47  1  0.836639  0.836639  0.926955  1
  Nd  Nd48  1  0.808473  0.498914  0.379333  1
  Nd  Nd49  1  0.498914  0.808473  0.379333  1
  Nd  Nd50  1  0.165151  0.510822  0.919389  1
  Nd  Nd51  1  0.510822  0.165151  0.919389  1
  Nd  Nd52  1  0.141100  0.522019  0.607575  1
  Nd  Nd53  1  0.522019  0.141100  0.607575  1
  Nd  Nd54  1  0.169403  0.854956  0.495557  1
  Nd  Nd55  1  0.854956  0.169403  0.495557  1
  Nd  Nd56  1  0.494139  0.808324  0.719939  1
  Nd  Nd57  1  0.808324  0.494139  0.719939  1
  Nd  Nd58  1  0.507915  0.853921  0.053601  1
  Nd  Nd59  1  0.853921  0.507915  0.053601  1
  Nd  Nd60  1  0.155881  0.809262  0.161527  1
  Nd  Nd61  1  0.809262  0.155881  0.161527  1
  Nd  Nd62  1  0.151985  0.498115  0.295593  1
  Nd  Nd63  1  0.498115  0.151985  0.295593  1
  Nd  Nd64  1  0.164689  0.854629  0.835907  1
  Nd  Nd65  1  0.854629  0.164689  0.835907  1
