# generated using pymatgen
data_RbZn13
_symmetry_space_group_name_H-M   'P 1'
_cell_length_a   8.79969730
_cell_length_b   8.79969730
_cell_length_c   8.79969730
_cell_angle_alpha   60.00000000
_cell_angle_beta   60.00000001
_cell_angle_gamma   60.00000002
_symmetry_Int_Tables_number   1
_chemical_formula_structural   RbZn13
_chemical_formula_sum   'Rb2 Zn26'
_cell_volume   481.82374830
_cell_formula_units_Z   2
loop_
 _symmetry_equiv_pos_site_id
 _symmetry_equiv_pos_as_xyz
  1  'x, y, z'
loop_
 _atom_site_type_symbol
 _atom_site_label
 _atom_site_symmetry_multiplicity
 _atom_site_fract_x
 _atom_site_fract_y
 _atom_site_fract_z
 _atom_site_occupancy
  Zn  Zn0  1  0.500000  0.500000  0.500000  1
  Zn  Zn1  1  0.000000  0.000000  0.000000  1
  Zn  Zn2  1  0.201276  0.798724  0.439494  1
  Zn  Zn3  1  0.701276  0.060506  0.939494  1
  Zn  Zn4  1  0.939494  0.298724  0.701276  1
  Zn  Zn5  1  0.701276  0.939494  0.298724  1
  Zn  Zn6  1  0.060506  0.298724  0.939494  1
  Zn  Zn7  1  0.060506  0.939494  0.701276  1
  Zn  Zn8  1  0.939494  0.060506  0.298724  1
  Zn  Zn9  1  0.439494  0.201276  0.798724  1
  Zn  Zn10  1  0.798724  0.439494  0.201276  1
  Zn  Zn11  1  0.560506  0.201276  0.439494  1
  Zn  Zn12  1  0.798724  0.560506  0.439494  1
  Zn  Zn13  1  0.560506  0.798724  0.201276  1
  Zn  Zn14  1  0.439494  0.798724  0.560506  1
  Zn  Zn15  1  0.201276  0.439494  0.560506  1
  Zn  Zn16  1  0.201276  0.560506  0.798724  1
  Zn  Zn17  1  0.939494  0.701276  0.060506  1
  Zn  Zn18  1  0.298724  0.939494  0.060506  1
  Zn  Zn19  1  0.298724  0.701276  0.939494  1
  Zn  Zn20  1  0.701276  0.298724  0.060506  1
  Zn  Zn21  1  0.060506  0.701276  0.298724  1
  Zn  Zn22  1  0.298724  0.060506  0.701276  1
  Zn  Zn23  1  0.439494  0.560506  0.201276  1
  Zn  Zn24  1  0.560506  0.439494  0.798724  1
  Zn  Zn25  1  0.798724  0.201276  0.560506  1
  Rb  Rb26  1  0.750000  0.750000  0.750000  1
  Rb  Rb27  1  0.250000  0.250000  0.250000  1
