# generated using pymatgen
data_Pr2Te4O11
_symmetry_space_group_name_H-M   'P 1'
_cell_length_a   5.33085248
_cell_length_b   6.94980888
_cell_length_c   16.55750384
_cell_angle_alpha   79.29107075
_cell_angle_beta   80.73621912
_cell_angle_gamma   67.44779208
_symmetry_Int_Tables_number   1
_chemical_formula_structural   Pr2Te4O11
_chemical_formula_sum   'Pr4 Te8 O22'
_cell_volume   553.92681520
_cell_formula_units_Z   2
loop_
 _symmetry_equiv_pos_site_id
 _symmetry_equiv_pos_as_xyz
  1  'x, y, z'
loop_
 _atom_site_type_symbol
 _atom_site_label
 _atom_site_symmetry_multiplicity
 _atom_site_fract_x
 _atom_site_fract_y
 _atom_site_fract_z
 _atom_site_occupancy
  O  O0  1  0.849874  0.250000  0.750000  1
  O  O1  1  0.150126  0.750000  0.250000  1
  O  O2  1  0.194644  0.876410  0.829941  1
  O  O3  1  0.900995  0.623590  0.670059  1
  O  O4  1  0.805356  0.123590  0.170059  1
  O  O5  1  0.099005  0.376410  0.329941  1
  O  O6  1  0.612633  0.051985  0.899513  1
  O  O7  1  0.564131  0.448015  0.600487  1
  O  O8  1  0.387367  0.948015  0.100487  1
  O  O9  1  0.435869  0.551985  0.399513  1
  O  O10  1  0.046231  0.191664  0.953036  1
  O  O11  1  0.190930  0.308336  0.546964  1
  O  O12  1  0.679024  0.133626  0.373145  1
  O  O13  1  0.185795  0.366374  0.126855  1
  O  O14  1  0.320976  0.866374  0.626855  1
  O  O15  1  0.814205  0.633626  0.873145  1
  O  O16  1  0.253241  0.971473  0.444895  1
  O  O17  1  0.669609  0.528527  0.055105  1
  O  O18  1  0.746759  0.028527  0.555105  1
  O  O19  1  0.330391  0.471473  0.944895  1
  O  O20  1  0.809070  0.691664  0.453036  1
  O  O21  1  0.953769  0.808336  0.046964  1
  Te  Te22  1  0.605161  0.536247  0.699201  1
  Te  Te23  1  0.840609  0.963753  0.800799  1
  Te  Te24  1  0.394839  0.463753  0.300799  1
  Te  Te25  1  0.159391  0.036247  0.199201  1
  Te  Te26  1  0.147544  0.392659  0.874595  1
  Te  Te27  1  0.414799  0.107341  0.625405  1
  Te  Te28  1  0.852456  0.607341  0.125405  1
  Te  Te29  1  0.585201  0.892659  0.374595  1
  Pr  Pr30  1  0.133896  0.697762  0.538031  1
  Pr  Pr31  1  0.369690  0.802238  0.961969  1
  Pr  Pr32  1  0.866104  0.302238  0.461969  1
  Pr  Pr33  1  0.630310  0.197762  0.038031  1
