# generated using pymatgen
data_SrP2(HO)4
_symmetry_space_group_name_H-M   'P 1'
_cell_length_a   6.00066187
_cell_length_b   6.00535392
_cell_length_c   8.58903949
_cell_angle_alpha   110.46248643
_cell_angle_beta   93.77177843
_cell_angle_gamma   89.99999995
_symmetry_Int_Tables_number   1
_chemical_formula_structural   SrP2(HO)4
_chemical_formula_sum   'Sr2 P4 H8 O8'
_cell_volume   289.26976894
_cell_formula_units_Z   2
loop_
 _symmetry_equiv_pos_site_id
 _symmetry_equiv_pos_as_xyz
  1  'x, y, z'
loop_
 _atom_site_type_symbol
 _atom_site_label
 _atom_site_symmetry_multiplicity
 _atom_site_fract_x
 _atom_site_fract_y
 _atom_site_fract_z
 _atom_site_occupancy
  H  H0  1  0.343659  0.180360  0.615040  1
  H  H1  1  0.656341  0.819640  0.384960  1
  H  H2  1  0.843659  0.434680  0.615040  1
  H  H3  1  0.156341  0.565320  0.384960  1
  H  H4  1  0.915264  0.076551  0.378803  1
  H  H5  1  0.584736  0.697748  0.621197  1
  H  H6  1  0.415264  0.302252  0.378803  1
  H  H7  1  0.084736  0.923449  0.621197  1
  O  O8  1  0.887707  0.817908  0.831372  1
  O  O9  1  0.612293  0.986536  0.168628  1
  O  O10  1  0.420061  0.491690  0.174805  1
  O  O11  1  0.920061  0.683115  0.174805  1
  O  O12  1  0.079939  0.316885  0.825195  1
  O  O13  1  0.579939  0.508310  0.825195  1
  O  O14  1  0.112293  0.182092  0.168628  1
  O  O15  1  0.387707  0.013464  0.831372  1
  P  P16  1  0.775408  0.888034  0.271084  1
  P  P17  1  0.724592  0.616950  0.728916  1
  P  P18  1  0.224592  0.111966  0.728916  1
  P  P19  1  0.275408  0.383050  0.271084  1
  Sr  Sr20  1  0.750000  0.251624  0.000000  1
  Sr  Sr21  1  0.250000  0.748376  0.000000  1
