# generated using pymatgen
data_CuTe2O5
_symmetry_space_group_name_H-M   'P 1'
_cell_length_a   6.97461896
_cell_length_b   7.65295098
_cell_length_c   9.50223988
_cell_angle_alpha   90.00000000
_cell_angle_beta   90.00000000
_cell_angle_gamma   107.71014498
_symmetry_Int_Tables_number   1
_chemical_formula_structural   CuTe2O5
_chemical_formula_sum   'Cu4 Te8 O20'
_cell_volume   483.15832215
_cell_formula_units_Z   4
loop_
 _symmetry_equiv_pos_site_id
 _symmetry_equiv_pos_as_xyz
  1  'x, y, z'
loop_
 _atom_site_type_symbol
 _atom_site_label
 _atom_site_symmetry_multiplicity
 _atom_site_fract_x
 _atom_site_fract_y
 _atom_site_fract_z
 _atom_site_occupancy
  Cu  Cu0  1  0.340035  0.794225  0.011898  1
  Cu  Cu1  1  0.340035  0.294225  0.488102  1
  Cu  Cu2  1  0.659965  0.705775  0.511898  1
  Cu  Cu3  1  0.659965  0.205775  0.988102  1
  Te  Te4  1  0.350494  0.940361  0.678114  1
  Te  Te5  1  0.649506  0.559639  0.178114  1
  Te  Te6  1  0.350494  0.440361  0.821886  1
  Te  Te7  1  0.135278  0.090499  0.204282  1
  Te  Te8  1  0.864722  0.909501  0.795718  1
  Te  Te9  1  0.864722  0.409501  0.704282  1
  Te  Te10  1  0.135278  0.590499  0.295718  1
  Te  Te11  1  0.649506  0.059639  0.321886  1
  O  O12  1  0.617732  0.007969  0.126155  1
  O  O13  1  0.321909  0.591216  0.146219  1
  O  O14  1  0.493577  0.677653  0.891271  1
  O  O15  1  0.862181  0.146239  0.866076  1
  O  O16  1  0.862181  0.646239  0.633924  1
  O  O17  1  0.493577  0.177653  0.608729  1
  O  O18  1  0.137819  0.353761  0.366076  1
  O  O19  1  0.506423  0.822347  0.391271  1
  O  O20  1  0.137819  0.853761  0.133924  1
  O  O21  1  0.678091  0.408784  0.853781  1
  O  O22  1  0.099868  0.531460  0.818271  1
  O  O23  1  0.900132  0.468540  0.181729  1
  O  O24  1  0.900132  0.968540  0.318271  1
  O  O25  1  0.617732  0.507969  0.373845  1
  O  O26  1  0.678091  0.908784  0.646219  1
  O  O27  1  0.321909  0.091216  0.353781  1
  O  O28  1  0.506423  0.322347  0.108729  1
  O  O29  1  0.382268  0.492031  0.626155  1
  O  O30  1  0.099868  0.031460  0.681729  1
  O  O31  1  0.382268  0.992031  0.873845  1
