# generated using pymatgen
data_Na2W2O7
_symmetry_space_group_name_H-M   'P 1'
_cell_length_a   7.09004231
_cell_length_b   7.09004292
_cell_length_c   15.04199747
_cell_angle_alpha   90.00000000
_cell_angle_beta   90.00000000
_cell_angle_gamma   117.24079004
_symmetry_Int_Tables_number   1
_chemical_formula_structural   Na2W2O7
_chemical_formula_sum   'Na8 W8 O28'
_cell_volume   672.27859645
_cell_formula_units_Z   4
loop_
 _symmetry_equiv_pos_site_id
 _symmetry_equiv_pos_as_xyz
  1  'x, y, z'
loop_
 _atom_site_type_symbol
 _atom_site_label
 _atom_site_symmetry_multiplicity
 _atom_site_fract_x
 _atom_site_fract_y
 _atom_site_fract_z
 _atom_site_occupancy
  Na  Na0  1  0.669367  0.330633  0.346036  1
  Na  Na1  1  0.250257  0.250257  0.000000  1
  Na  Na2  1  0.330633  0.669367  0.653964  1
  Na  Na3  1  0.749743  0.749743  0.000000  1
  Na  Na4  1  0.249743  0.249743  0.500000  1
  Na  Na5  1  0.750257  0.750257  0.500000  1
  Na  Na6  1  0.169367  0.830633  0.153964  1
  Na  Na7  1  0.830633  0.169367  0.846036  1
  W  W8  1  0.162353  0.337647  0.250000  1
  W  W9  1  0.746074  0.253926  0.586328  1
  W  W10  1  0.337647  0.162353  0.750000  1
  W  W11  1  0.837647  0.662353  0.750000  1
  W  W12  1  0.753926  0.246074  0.086328  1
  W  W13  1  0.253926  0.746074  0.413672  1
  W  W14  1  0.246074  0.753926  0.913672  1
  W  W15  1  0.662353  0.837647  0.250000  1
  O  O16  1  0.123632  0.876368  0.469235  1
  O  O17  1  0.860311  0.139689  0.002240  1
  O  O18  1  0.196783  0.208078  0.838841  1
  O  O19  1  0.376368  0.623632  0.969235  1
  O  O20  1  0.696783  0.708078  0.661159  1
  O  O21  1  0.791922  0.803217  0.838841  1
  O  O22  1  0.935161  0.471659  0.656612  1
  O  O23  1  0.803217  0.791922  0.161159  1
  O  O24  1  0.435161  0.971659  0.843388  1
  O  O25  1  0.291922  0.303217  0.661159  1
  O  O26  1  0.876658  0.123342  0.281531  1
  O  O27  1  0.639689  0.360311  0.502240  1
  O  O28  1  0.123342  0.876658  0.718469  1
  O  O29  1  0.623632  0.376368  0.030765  1
  O  O30  1  0.376658  0.623342  0.218469  1
  O  O31  1  0.139689  0.860311  0.997760  1
  O  O32  1  0.528341  0.064839  0.656612  1
  O  O33  1  0.028341  0.564839  0.843388  1
  O  O34  1  0.471659  0.935161  0.343388  1
  O  O35  1  0.360311  0.639689  0.497760  1
  O  O36  1  0.623342  0.376658  0.781531  1
  O  O37  1  0.064839  0.528341  0.343388  1
  O  O38  1  0.208078  0.196783  0.161159  1
  O  O39  1  0.971659  0.435161  0.156612  1
  O  O40  1  0.564839  0.028341  0.156612  1
  O  O41  1  0.303217  0.291922  0.338841  1
  O  O42  1  0.876368  0.123632  0.530765  1
  O  O43  1  0.708078  0.696783  0.338841  1
