# generated using pymatgen
data_Si2NCl5
_symmetry_space_group_name_H-M   'P 1'
_cell_length_a   6.76972376
_cell_length_b   11.04218488
_cell_length_c   13.35453582
_cell_angle_alpha   90.00000000
_cell_angle_beta   90.00000000
_cell_angle_gamma   102.42360819
_symmetry_Int_Tables_number   1
_chemical_formula_structural   Si2NCl5
_chemical_formula_sum   'Si8 N4 Cl20'
_cell_volume   974.90935342
_cell_formula_units_Z   4
loop_
 _symmetry_equiv_pos_site_id
 _symmetry_equiv_pos_as_xyz
  1  'x, y, z'
loop_
 _atom_site_type_symbol
 _atom_site_label
 _atom_site_symmetry_multiplicity
 _atom_site_fract_x
 _atom_site_fract_y
 _atom_site_fract_z
 _atom_site_occupancy
  N  N0  1  0.982818  0.608223  0.503671  1
  N  N1  1  0.517182  0.891777  0.003671  1
  N  N2  1  0.017182  0.391777  0.496329  1
  N  N3  1  0.482818  0.108223  0.996329  1
  Si  Si4  1  0.933400  0.491809  0.412664  1
  Si  Si5  1  0.566600  0.008191  0.912664  1
  Si  Si6  1  0.066600  0.508191  0.587336  1
  Si  Si7  1  0.433400  0.991809  0.087336  1
  Si  Si8  1  0.985783  0.763868  0.501902  1
  Si  Si9  1  0.514217  0.736132  0.001902  1
  Si  Si10  1  0.014217  0.236132  0.498098  1
  Si  Si11  1  0.485783  0.263868  0.998098  1
  Cl  Cl12  1  0.100559  0.532134  0.285779  1
  Cl  Cl13  1  0.399441  0.967866  0.785779  1
  Cl  Cl14  1  0.899441  0.467866  0.714221  1
  Cl  Cl15  1  0.600559  0.032134  0.214221  1
  Cl  Cl16  1  0.639318  0.434991  0.370994  1
  Cl  Cl17  1  0.860682  0.065009  0.870994  1
  Cl  Cl18  1  0.360682  0.565009  0.629006  1
  Cl  Cl19  1  0.139318  0.934991  0.129006  1
  Cl  Cl20  1  0.891784  0.817448  0.636724  1
  Cl  Cl21  1  0.608216  0.682552  0.136724  1
  Cl  Cl22  1  0.108216  0.182552  0.363276  1
  Cl  Cl23  1  0.391784  0.317448  0.863276  1
  Cl  Cl24  1  0.797546  0.797870  0.391234  1
  Cl  Cl25  1  0.702454  0.702130  0.891234  1
  Cl  Cl26  1  0.202454  0.202130  0.608766  1
  Cl  Cl27  1  0.297546  0.297870  0.108766  1
  Cl  Cl28  1  0.269099  0.866982  0.474975  1
  Cl  Cl29  1  0.230901  0.633018  0.974975  1
  Cl  Cl30  1  0.730901  0.133018  0.525025  1
  Cl  Cl31  1  0.769099  0.366982  0.025025  1
