# generated using pymatgen
data_Zr3SO9
_symmetry_space_group_name_H-M   'P 1'
_cell_length_a   6.43948967
_cell_length_b   6.43948966
_cell_length_c   9.91205310
_cell_angle_alpha   90.00000000
_cell_angle_beta   90.00000000
_cell_angle_gamma   120.00000001
_symmetry_Int_Tables_number   1
_chemical_formula_structural   Zr3SO9
_chemical_formula_sum   'Zr6 S2 O18'
_cell_volume   355.95668440
_cell_formula_units_Z   2
loop_
 _symmetry_equiv_pos_site_id
 _symmetry_equiv_pos_as_xyz
  1  'x, y, z'
loop_
 _atom_site_type_symbol
 _atom_site_label
 _atom_site_symmetry_multiplicity
 _atom_site_fract_x
 _atom_site_fract_y
 _atom_site_fract_z
 _atom_site_occupancy
  O  O0  1  0.112711  0.439844  0.125482  1
  O  O1  1  0.327133  0.887289  0.125482  1
  O  O2  1  0.560156  0.672867  0.125482  1
  O  O3  1  0.887289  0.560156  0.874518  1
  O  O4  1  0.672867  0.112711  0.874518  1
  O  O5  1  0.439844  0.327133  0.874518  1
  O  O6  1  0.332232  0.333823  0.430577  1
  O  O7  1  0.001592  0.667768  0.430577  1
  O  O8  1  0.000000  0.000000  0.711567  1
  O  O9  1  0.000000  0.000000  0.288433  1
  O  O10  1  0.666667  0.333333  0.685299  1
  O  O11  1  0.333333  0.666667  0.314701  1
  O  O12  1  0.333333  0.666667  0.712778  1
  O  O13  1  0.666667  0.333333  0.287222  1
  O  O14  1  0.333823  0.001592  0.569423  1
  O  O15  1  0.998408  0.332232  0.569423  1
  O  O16  1  0.667768  0.666176  0.569423  1
  O  O17  1  0.666176  0.998408  0.430577  1
  S  S18  1  0.333333  0.666667  0.157696  1
  S  S19  1  0.666667  0.333333  0.842304  1
  Zr  Zr20  1  0.699472  0.666568  0.355145  1
  Zr  Zr21  1  0.967096  0.300528  0.355145  1
  Zr  Zr22  1  0.333432  0.032904  0.355145  1
  Zr  Zr23  1  0.300528  0.333432  0.644855  1
  Zr  Zr24  1  0.032904  0.699472  0.644855  1
  Zr  Zr25  1  0.666568  0.967096  0.644855  1
