# generated using pymatgen
data_NaCeP2O7
_symmetry_space_group_name_H-M   'P 1'
_cell_length_a   5.33270606
_cell_length_b   8.71844615
_cell_length_c   12.76231154
_cell_angle_alpha   90.00000000
_cell_angle_beta   90.00000000
_cell_angle_gamma   90.00000000
_symmetry_Int_Tables_number   1
_chemical_formula_structural   NaCeP2O7
_chemical_formula_sum   'Na4 Ce4 P8 O28'
_cell_volume   593.35700971
_cell_formula_units_Z   4
loop_
 _symmetry_equiv_pos_site_id
 _symmetry_equiv_pos_as_xyz
  1  'x, y, z'
loop_
 _atom_site_type_symbol
 _atom_site_label
 _atom_site_symmetry_multiplicity
 _atom_site_fract_x
 _atom_site_fract_y
 _atom_site_fract_z
 _atom_site_occupancy
  O  O0  1  0.250000  0.235527  0.414387  1
  O  O1  1  0.750000  0.764473  0.585613  1
  O  O2  1  0.250000  0.735527  0.085613  1
  O  O3  1  0.750000  0.264473  0.914387  1
  O  O4  1  0.013138  0.663102  0.920572  1
  O  O5  1  0.513138  0.336898  0.079428  1
  O  O6  1  0.486862  0.163102  0.579428  1
  O  O7  1  0.986862  0.836898  0.420572  1
  O  O8  1  0.986862  0.336898  0.079428  1
  O  O9  1  0.486862  0.663102  0.920572  1
  O  O10  1  0.513138  0.836898  0.420572  1
  O  O11  1  0.013138  0.163102  0.579428  1
  O  O12  1  0.750000  0.339472  0.323576  1
  O  O13  1  0.250000  0.660528  0.676424  1
  O  O14  1  0.750000  0.839472  0.176424  1
  O  O15  1  0.250000  0.160528  0.823576  1
  O  O16  1  0.750000  0.081387  0.064246  1
  O  O17  1  0.250000  0.918613  0.935754  1
  O  O18  1  0.750000  0.581387  0.435754  1
  O  O19  1  0.250000  0.418613  0.564246  1
  O  O20  1  0.006952  0.431089  0.735574  1
  O  O21  1  0.506952  0.568911  0.264426  1
  O  O22  1  0.493048  0.931089  0.764426  1
  O  O23  1  0.993048  0.068911  0.235574  1
  O  O24  1  0.993048  0.568911  0.264426  1
  O  O25  1  0.493048  0.431089  0.735574  1
  O  O26  1  0.506952  0.068911  0.235574  1
  O  O27  1  0.006952  0.931089  0.764426  1
  Na  Na28  1  0.750000  0.118762  0.421344  1
  Na  Na29  1  0.250000  0.881238  0.578656  1
  Na  Na30  1  0.750000  0.618762  0.078656  1
  Na  Na31  1  0.250000  0.381238  0.921344  1
  P  P32  1  0.750000  0.513224  0.317893  1
  P  P33  1  0.250000  0.486776  0.682107  1
  P  P34  1  0.750000  0.013224  0.182107  1
  P  P35  1  0.250000  0.986776  0.817893  1
  P  P36  1  0.250000  0.237003  0.533569  1
  P  P37  1  0.750000  0.762997  0.466431  1
  P  P38  1  0.250000  0.737003  0.966431  1
  P  P39  1  0.750000  0.262997  0.033569  1
  Ce  Ce40  1  0.250000  0.313000  0.236216  1
  Ce  Ce41  1  0.750000  0.687000  0.763784  1
  Ce  Ce42  1  0.250000  0.813000  0.263784  1
  Ce  Ce43  1  0.750000  0.187000  0.736216  1
