# generated using pymatgen
data_NaHg2IO2
_symmetry_space_group_name_H-M   'P 1'
_cell_length_a   6.78296831
_cell_length_b   6.78296798
_cell_length_c   10.39792106
_cell_angle_alpha   90.00000000
_cell_angle_beta   90.00000000
_cell_angle_gamma   120.00000164
_symmetry_Int_Tables_number   1
_chemical_formula_structural   NaHg2IO2
_chemical_formula_sum   'Na3 Hg6 I3 O6'
_cell_volume   414.30168129
_cell_formula_units_Z   3
loop_
 _symmetry_equiv_pos_site_id
 _symmetry_equiv_pos_as_xyz
  1  'x, y, z'
loop_
 _atom_site_type_symbol
 _atom_site_label
 _atom_site_symmetry_multiplicity
 _atom_site_fract_x
 _atom_site_fract_y
 _atom_site_fract_z
 _atom_site_occupancy
  Na  Na0  1  0.000000  0.000000  0.833333  1
  Na  Na1  1  0.000000  0.000000  0.166667  1
  Na  Na2  1  0.000000  0.000000  0.500000  1
  Hg  Hg3  1  0.500000  0.500000  0.663033  1
  Hg  Hg4  1  0.500000  0.500000  0.003633  1
  Hg  Hg5  1  0.500000  0.000000  0.670300  1
  Hg  Hg6  1  0.000000  0.500000  0.336967  1
  Hg  Hg7  1  0.500000  0.000000  0.329700  1
  Hg  Hg8  1  0.000000  0.500000  0.996367  1
  I  I9  1  0.000000  0.500000  0.666667  1
  I  I10  1  0.500000  0.000000  0.000000  1
  I  I11  1  0.500000  0.500000  0.333333  1
  O  O12  1  0.852008  0.147992  0.333333  1
  O  O13  1  0.147992  0.295984  0.000000  1
  O  O14  1  0.704016  0.852008  0.666667  1
  O  O15  1  0.852008  0.704016  0.000000  1
  O  O16  1  0.295984  0.147992  0.666667  1
  O  O17  1  0.147992  0.852008  0.333333  1
