# generated using pymatgen
data_KBiO3
_symmetry_space_group_name_H-M   'P 1'
_cell_length_a   10.21523612
_cell_length_b   10.21523612
_cell_length_c   10.21523612
_cell_angle_alpha   90.00000000
_cell_angle_beta   90.00000000
_cell_angle_gamma   90.00000000
_symmetry_Int_Tables_number   1
_chemical_formula_structural   KBiO3
_chemical_formula_sum   'K12 Bi12 O36'
_cell_volume   1065.97060478
_cell_formula_units_Z   12
loop_
 _symmetry_equiv_pos_site_id
 _symmetry_equiv_pos_as_xyz
  1  'x, y, z'
loop_
 _atom_site_type_symbol
 _atom_site_label
 _atom_site_symmetry_multiplicity
 _atom_site_fract_x
 _atom_site_fract_y
 _atom_site_fract_z
 _atom_site_occupancy
  O  O0  1  0.036662  0.752868  0.415554  1
  O  O1  1  0.036662  0.747132  0.084446  1
  O  O2  1  0.463338  0.752868  0.084446  1
  O  O3  1  0.747132  0.084446  0.036662  1
  O  O4  1  0.084446  0.463338  0.752868  1
  O  O5  1  0.084446  0.036662  0.747132  1
  O  O6  1  0.752868  0.415554  0.036662  1
  O  O7  1  0.415554  0.036662  0.752868  1
  O  O8  1  0.752868  0.084446  0.463338  1
  O  O9  1  0.747132  0.415554  0.463338  1
  O  O10  1  0.415554  0.463338  0.747132  1
  O  O11  1  0.463338  0.747132  0.415554  1
  O  O12  1  0.963338  0.247132  0.584446  1
  O  O13  1  0.963338  0.252868  0.915554  1
  O  O14  1  0.109487  0.750000  0.750000  1
  O  O15  1  0.536662  0.247132  0.915554  1
  O  O16  1  0.915554  0.536662  0.247132  1
  O  O17  1  0.915554  0.963338  0.252868  1
  O  O18  1  0.247132  0.584446  0.963338  1
  O  O19  1  0.584446  0.963338  0.247132  1
  O  O20  1  0.247132  0.915554  0.536662  1
  O  O21  1  0.252868  0.584446  0.536662  1
  O  O22  1  0.584446  0.536662  0.252868  1
  O  O23  1  0.536662  0.252868  0.584446  1
  O  O24  1  0.609487  0.250000  0.250000  1
  O  O25  1  0.250000  0.609487  0.250000  1
  O  O26  1  0.250000  0.250000  0.609487  1
  O  O27  1  0.250000  0.890513  0.250000  1
  O  O28  1  0.250000  0.250000  0.890513  1
  O  O29  1  0.890513  0.250000  0.250000  1
  O  O30  1  0.390513  0.750000  0.750000  1
  O  O31  1  0.750000  0.390513  0.750000  1
  O  O32  1  0.750000  0.750000  0.390513  1
  O  O33  1  0.750000  0.109487  0.750000  1
  O  O34  1  0.750000  0.750000  0.109487  1
  O  O35  1  0.252868  0.915554  0.963338  1
  K  K36  1  0.000000  0.000000  0.000000  1
  K  K37  1  0.500000  0.500000  0.000000  1
  K  K38  1  0.000000  0.500000  0.500000  1
  K  K39  1  0.500000  0.000000  0.500000  1
  K  K40  1  0.405581  0.405581  0.405581  1
  K  K41  1  0.094419  0.094419  0.405581  1
  K  K42  1  0.405581  0.094419  0.094419  1
  K  K43  1  0.094419  0.405581  0.094419  1
  K  K44  1  0.594419  0.594419  0.594419  1
  K  K45  1  0.905581  0.905581  0.594419  1
  K  K46  1  0.594419  0.905581  0.905581  1
  K  K47  1  0.905581  0.594419  0.905581  1
  Bi  Bi48  1  0.590524  0.750000  0.250000  1
  Bi  Bi49  1  0.250000  0.590524  0.750000  1
  Bi  Bi50  1  0.750000  0.250000  0.590524  1
  Bi  Bi51  1  0.250000  0.909476  0.750000  1
  Bi  Bi52  1  0.750000  0.250000  0.909476  1
  Bi  Bi53  1  0.909476  0.750000  0.250000  1
  Bi  Bi54  1  0.409476  0.250000  0.750000  1
  Bi  Bi55  1  0.750000  0.409476  0.250000  1
  Bi  Bi56  1  0.250000  0.750000  0.409476  1
  Bi  Bi57  1  0.750000  0.090524  0.250000  1
  Bi  Bi58  1  0.250000  0.750000  0.090524  1
  Bi  Bi59  1  0.090524  0.250000  0.750000  1
