# generated using pymatgen
data_TaCl4F
_symmetry_space_group_name_H-M   'P 1'
_cell_length_a   8.61587268
_cell_length_b   10.23735470
_cell_length_c   10.23735470
_cell_angle_alpha   79.80042933
_cell_angle_beta   65.11454022
_cell_angle_gamma   65.11454025
_symmetry_Int_Tables_number   1
_chemical_formula_structural   TaCl4F
_chemical_formula_sum   'Ta4 Cl16 F4'
_cell_volume   743.07693668
_cell_formula_units_Z   4
loop_
 _symmetry_equiv_pos_site_id
 _symmetry_equiv_pos_as_xyz
  1  'x, y, z'
loop_
 _atom_site_type_symbol
 _atom_site_label
 _atom_site_symmetry_multiplicity
 _atom_site_fract_x
 _atom_site_fract_y
 _atom_site_fract_z
 _atom_site_occupancy
  F  F0  1  0.122681  0.955802  0.795073  1
  F  F1  1  0.873556  0.044198  0.204927  1
  F  F2  1  0.921517  0.204927  0.955802  1
  F  F3  1  0.082246  0.795073  0.044198  1
  Cl  Cl4  1  0.702467  0.831531  0.253113  1
  Cl  Cl5  1  0.787110  0.168469  0.746887  1
  Cl  Cl6  1  0.466002  0.746887  0.831531  1
  Cl  Cl7  1  0.044420  0.253113  0.168469  1
  Cl  Cl8  1  0.222844  0.103243  0.496539  1
  Cl  Cl9  1  0.280618  0.496539  0.896757  1
  Cl  Cl10  1  0.673913  0.503461  0.103243  1
  Cl  Cl11  1  0.822625  0.896757  0.503461  1
  Cl  Cl12  1  0.610438  0.306977  0.414925  1
  Cl  Cl13  1  0.974637  0.414925  0.693023  1
  Cl  Cl14  1  0.082585  0.585075  0.306977  1
  Cl  Cl15  1  0.332340  0.693023  0.585075  1
  Cl  Cl16  1  0.317643  0.143597  0.773944  1
  Cl  Cl17  1  0.908413  0.773944  0.856403  1
  Cl  Cl18  1  0.538760  0.226056  0.143597  1
  Cl  Cl19  1  0.235184  0.856403  0.226056  1
  Ta  Ta20  1  0.965223  0.826678  0.269480  1
  Ta  Ta21  1  0.765297  0.269480  0.173322  1
  Ta  Ta22  1  0.208099  0.730520  0.826678  1
  Ta  Ta23  1  0.061381  0.173322  0.730520  1
