# generated using pymatgen
data_Pb2ClO2
_symmetry_space_group_name_H-M   'P 1'
_cell_length_a   4.00970881
_cell_length_b   4.00961499
_cell_length_c   7.00707463
_cell_angle_alpha   106.61754394
_cell_angle_beta   106.62572454
_cell_angle_gamma   90.00000005
_symmetry_Int_Tables_number   1
_chemical_formula_structural   Pb2ClO2
_chemical_formula_sum   'Pb2 Cl1 O2'
_cell_volume   103.02590237
_cell_formula_units_Z   1
loop_
 _symmetry_equiv_pos_site_id
 _symmetry_equiv_pos_as_xyz
  1  'x, y, z'
loop_
 _atom_site_type_symbol
 _atom_site_label
 _atom_site_symmetry_multiplicity
 _atom_site_fract_x
 _atom_site_fract_y
 _atom_site_fract_z
 _atom_site_occupancy
  O  O0  1  0.749997  0.249981  0.499994  1
  O  O1  1  0.250003  0.750019  0.500006  1
  Cl  Cl2  1  0.500000  0.500000  0.000000  1
  Pb  Pb3  1  0.845277  0.845204  0.690554  1
  Pb  Pb4  1  0.154723  0.154796  0.309446  1
