# generated using pymatgen
data_BN3Cl2
_symmetry_space_group_name_H-M   'P 1'
_cell_length_a   9.27971271
_cell_length_b   10.94280840
_cell_length_c   15.00505352
_cell_angle_alpha   90.00000000
_cell_angle_beta   90.00000000
_cell_angle_gamma   99.63206831
_symmetry_Int_Tables_number   1
_chemical_formula_structural   BN3Cl2
_chemical_formula_sum   'B12 N36 Cl24'
_cell_volume   1502.22457352
_cell_formula_units_Z   12
loop_
 _symmetry_equiv_pos_site_id
 _symmetry_equiv_pos_as_xyz
  1  'x, y, z'
loop_
 _atom_site_type_symbol
 _atom_site_label
 _atom_site_symmetry_multiplicity
 _atom_site_fract_x
 _atom_site_fract_y
 _atom_site_fract_z
 _atom_site_occupancy
  B  B0  1  0.706997  0.355009  0.553809  1
  B  B1  1  0.293003  0.144991  0.053809  1
  B  B2  1  0.293003  0.644991  0.446191  1
  B  B3  1  0.706997  0.855009  0.946191  1
  B  B4  1  0.769340  0.161165  0.438885  1
  B  B5  1  0.230660  0.338835  0.938885  1
  B  B6  1  0.230660  0.838835  0.561115  1
  B  B7  1  0.769340  0.661165  0.061115  1
  B  B8  1  0.860860  0.169522  0.620570  1
  B  B9  1  0.139140  0.330478  0.120570  1
  B  B10  1  0.139140  0.830478  0.379430  1
  B  B11  1  0.860860  0.669522  0.879430  1
  N  N12  1  0.574354  0.364729  0.341621  1
  N  N13  1  0.425646  0.135271  0.841621  1
  N  N14  1  0.425646  0.635271  0.658379  1
  N  N15  1  0.574354  0.864729  0.158379  1
  N  N16  1  0.632717  0.324669  0.398415  1
  N  N17  1  0.367283  0.175331  0.898415  1
  N  N18  1  0.367283  0.675331  0.601585  1
  N  N19  1  0.632717  0.824669  0.101585  1
  N  N20  1  0.696952  0.280785  0.461078  1
  N  N21  1  0.303048  0.219215  0.961078  1
  N  N22  1  0.303048  0.719215  0.538922  1
  N  N23  1  0.696952  0.780785  0.038922  1
  N  N24  1  0.696366  0.883947  0.552990  1
  N  N25  1  0.303634  0.616053  0.052990  1
  N  N26  1  0.303634  0.116053  0.447010  1
  N  N27  1  0.696366  0.383947  0.947010  1
  N  N28  1  0.735989  0.987009  0.543808  1
  N  N29  1  0.264011  0.512991  0.043808  1
  N  N30  1  0.264011  0.012991  0.456192  1
  N  N31  1  0.735989  0.487009  0.956192  1
  N  N32  1  0.781527  0.100821  0.535101  1
  N  N33  1  0.218473  0.399179  0.035101  1
  N  N34  1  0.218473  0.899179  0.464899  1
  N  N35  1  0.781527  0.600821  0.964899  1
  N  N36  1  0.029428  0.462929  0.664227  1
  N  N37  1  0.970572  0.037071  0.164227  1
  N  N38  1  0.970572  0.537071  0.335773  1
  N  N39  1  0.029428  0.962929  0.835773  1
  N  N40  1  0.940479  0.391222  0.633943  1
  N  N41  1  0.059521  0.108778  0.133943  1
  N  N42  1  0.059521  0.608778  0.366057  1
  N  N43  1  0.940479  0.891222  0.866057  1
  N  N44  1  0.842930  0.309979  0.601690  1
  N  N45  1  0.157070  0.190021  0.101690  1
  N  N46  1  0.157070  0.690021  0.398310  1
  N  N47  1  0.842930  0.809979  0.898310  1
  Cl  Cl48  1  0.540032  0.306920  0.617281  1
  Cl  Cl49  1  0.459968  0.193080  0.117281  1
  Cl  Cl50  1  0.459968  0.693080  0.382719  1
  Cl  Cl51  1  0.540032  0.806920  0.882719  1
  Cl  Cl52  1  0.746173  0.521191  0.532718  1
  Cl  Cl53  1  0.253827  0.978809  0.032718  1
  Cl  Cl54  1  0.253827  0.478809  0.467282  1
  Cl  Cl55  1  0.746173  0.021191  0.967282  1
  Cl  Cl56  1  0.648987  0.055805  0.366963  1
  Cl  Cl57  1  0.351013  0.444195  0.866963  1
  Cl  Cl58  1  0.351013  0.944195  0.633037  1
  Cl  Cl59  1  0.648987  0.555805  0.133037  1
  Cl  Cl60  1  0.950766  0.211487  0.392044  1
  Cl  Cl61  1  0.049234  0.288513  0.892044  1
  Cl  Cl62  1  0.049234  0.788513  0.607956  1
  Cl  Cl63  1  0.950766  0.711487  0.107956  1
  Cl  Cl64  1  0.764336  0.110886  0.721514  1
  Cl  Cl65  1  0.235664  0.389114  0.221514  1
  Cl  Cl66  1  0.235664  0.889114  0.278486  1
  Cl  Cl67  1  0.764336  0.610886  0.778486  1
  Cl  Cl68  1  0.053974  0.156108  0.623407  1
  Cl  Cl69  1  0.946026  0.343892  0.123407  1
  Cl  Cl70  1  0.946026  0.843892  0.376593  1
  Cl  Cl71  1  0.053974  0.656108  0.876593  1
