# generated using pymatgen
data_Ba3(SnP2)2
_symmetry_space_group_name_H-M   'P 1'
_cell_length_a   7.98012705
_cell_length_b   7.97555949
_cell_length_c   19.56392362
_cell_angle_alpha   90.00000000
_cell_angle_beta   90.00000000
_cell_angle_gamma   112.77190892
_symmetry_Int_Tables_number   1
_chemical_formula_structural   Ba3(SnP2)2
_chemical_formula_sum   'Ba12 Sn8 P16'
_cell_volume   1148.10821331
_cell_formula_units_Z   4
loop_
 _symmetry_equiv_pos_site_id
 _symmetry_equiv_pos_as_xyz
  1  'x, y, z'
loop_
 _atom_site_type_symbol
 _atom_site_label
 _atom_site_symmetry_multiplicity
 _atom_site_fract_x
 _atom_site_fract_y
 _atom_site_fract_z
 _atom_site_occupancy
  P  P0  1  0.685208  0.557488  0.310056  1
  P  P1  1  0.814792  0.442512  0.810056  1
  P  P2  1  0.314792  0.442512  0.689944  1
  P  P3  1  0.185208  0.557488  0.189944  1
  P  P4  1  0.720693  0.528685  0.071311  1
  P  P5  1  0.779307  0.471315  0.571311  1
  P  P6  1  0.279307  0.471315  0.928689  1
  P  P7  1  0.220693  0.528685  0.428689  1
  P  P8  1  0.701097  0.069204  0.180807  1
  P  P9  1  0.798903  0.930796  0.680807  1
  P  P10  1  0.298903  0.930796  0.819193  1
  P  P11  1  0.201097  0.069204  0.319193  1
  P  P12  1  0.788977  0.974681  0.943382  1
  P  P13  1  0.288977  0.974681  0.556618  1
  P  P14  1  0.211023  0.025319  0.056618  1
  P  P15  1  0.711023  0.025319  0.443382  1
  Sn  Sn16  1  0.414500  0.353167  0.378873  1
  Sn  Sn17  1  0.085500  0.646833  0.878873  1
  Sn  Sn18  1  0.585500  0.646833  0.621127  1
  Sn  Sn19  1  0.914500  0.353167  0.121127  1
  Sn  Sn20  1  0.945286  0.773290  0.994245  1
  Sn  Sn21  1  0.445286  0.773290  0.505755  1
  Sn  Sn22  1  0.054714  0.226710  0.005755  1
  Sn  Sn23  1  0.554714  0.226710  0.494245  1
  Ba  Ba24  1  0.933841  0.296641  0.311562  1
  Ba  Ba25  1  0.566159  0.703359  0.811562  1
  Ba  Ba26  1  0.066159  0.703359  0.688438  1
  Ba  Ba27  1  0.433841  0.296641  0.188438  1
  Ba  Ba28  1  0.543136  0.231444  0.936731  1
  Ba  Ba29  1  0.956864  0.768556  0.436731  1
  Ba  Ba30  1  0.456864  0.768556  0.063269  1
  Ba  Ba31  1  0.043136  0.231444  0.563269  1
  Ba  Ba32  1  0.550377  0.183008  0.694680  1
  Ba  Ba33  1  0.949623  0.816992  0.194680  1
  Ba  Ba34  1  0.449623  0.816992  0.305320  1
  Ba  Ba35  1  0.050377  0.183008  0.805320  1
