# generated using pymatgen
data_CuW3Br7
_symmetry_space_group_name_H-M   'P 1'
_cell_length_a   13.77470386
_cell_length_b   13.77470386
_cell_length_c   13.77470386
_cell_angle_alpha   90.00000000
_cell_angle_beta   90.00000000
_cell_angle_gamma   90.00000000
_symmetry_Int_Tables_number   1
_chemical_formula_structural   CuW3Br7
_chemical_formula_sum   'Cu8 W24 Br56'
_cell_volume   2613.64628475
_cell_formula_units_Z   8
loop_
 _symmetry_equiv_pos_site_id
 _symmetry_equiv_pos_as_xyz
  1  'x, y, z'
loop_
 _atom_site_type_symbol
 _atom_site_label
 _atom_site_symmetry_multiplicity
 _atom_site_fract_x
 _atom_site_fract_y
 _atom_site_fract_z
 _atom_site_occupancy
  Cu  Cu0  1  0.937994  0.937994  0.937994  1
  Cu  Cu1  1  0.562006  0.562006  0.937994  1
  Cu  Cu2  1  0.937994  0.562006  0.562006  1
  Cu  Cu3  1  0.562006  0.937994  0.562006  1
  Cu  Cu4  1  0.062006  0.062006  0.062006  1
  Cu  Cu5  1  0.437994  0.437994  0.062006  1
  Cu  Cu6  1  0.062006  0.437994  0.437994  1
  Cu  Cu7  1  0.437994  0.062006  0.437994  1
  Br  Br8  1  0.424095  0.183930  0.874652  1
  Br  Br9  1  0.874652  0.424095  0.183930  1
  Br  Br10  1  0.183930  0.874652  0.424095  1
  Br  Br11  1  0.316070  0.625348  0.424095  1
  Br  Br12  1  0.874652  0.075905  0.316070  1
  Br  Br13  1  0.316070  0.874652  0.075905  1
  Br  Br14  1  0.625348  0.075905  0.183930  1
  Br  Br15  1  0.625348  0.424095  0.316070  1
  Br  Br16  1  0.183930  0.625348  0.075905  1
  Br  Br17  1  0.424095  0.316070  0.625348  1
  Br  Br18  1  0.075905  0.183930  0.625348  1
  Br  Br19  1  0.075905  0.316070  0.874652  1
  Br  Br20  1  0.575905  0.816070  0.125348  1
  Br  Br21  1  0.125348  0.575905  0.816070  1
  Br  Br22  1  0.816070  0.125348  0.575905  1
  Br  Br23  1  0.683930  0.374652  0.575905  1
  Br  Br24  1  0.125348  0.924095  0.683930  1
  Br  Br25  1  0.683930  0.125348  0.924095  1
  Br  Br26  1  0.374652  0.924095  0.816070  1
  Br  Br27  1  0.374652  0.575905  0.683930  1
  Br  Br28  1  0.816070  0.374652  0.924095  1
  Br  Br29  1  0.575905  0.683930  0.374652  1
  Br  Br30  1  0.924095  0.816070  0.374652  1
  Br  Br31  1  0.924095  0.683930  0.125348  1
  Br  Br32  1  0.814641  0.923505  0.060537  1
  Br  Br33  1  0.060537  0.814641  0.923505  1
  Br  Br34  1  0.923505  0.060537  0.814641  1
  Br  Br35  1  0.576495  0.439463  0.814641  1
  Br  Br36  1  0.060537  0.685359  0.576495  1
  Br  Br37  1  0.576495  0.060537  0.685359  1
  Br  Br38  1  0.439463  0.685359  0.923505  1
  Br  Br39  1  0.439463  0.814641  0.576495  1
  Br  Br40  1  0.923505  0.439463  0.685359  1
  Br  Br41  1  0.814641  0.576495  0.439463  1
  Br  Br42  1  0.685359  0.923505  0.439463  1
  Br  Br43  1  0.685359  0.576495  0.060537  1
  Br  Br44  1  0.185359  0.076495  0.939463  1
  Br  Br45  1  0.939463  0.185359  0.076495  1
  Br  Br46  1  0.076495  0.939463  0.185359  1
  Br  Br47  1  0.423505  0.560537  0.185359  1
  Br  Br48  1  0.939463  0.314641  0.423505  1
  Br  Br49  1  0.423505  0.939463  0.314641  1
  Br  Br50  1  0.560537  0.314641  0.076495  1
  Br  Br51  1  0.560537  0.185359  0.423505  1
  Br  Br52  1  0.076495  0.560537  0.314641  1
  Br  Br53  1  0.185359  0.423505  0.560537  1
  Br  Br54  1  0.314641  0.076495  0.560537  1
  Br  Br55  1  0.314641  0.423505  0.939463  1
  Br  Br56  1  0.636630  0.636630  0.636630  1
  Br  Br57  1  0.863370  0.863370  0.636630  1
  Br  Br58  1  0.636630  0.863370  0.863370  1
  Br  Br59  1  0.863370  0.636630  0.863370  1
  Br  Br60  1  0.363370  0.363370  0.363370  1
  Br  Br61  1  0.136630  0.136630  0.363370  1
  Br  Br62  1  0.363370  0.136630  0.136630  1
  Br  Br63  1  0.136630  0.363370  0.136630  1
  W  W64  1  0.523944  0.130844  0.029795  1
  W  W65  1  0.029795  0.523944  0.130844  1
  W  W66  1  0.130844  0.029795  0.523944  1
  W  W67  1  0.369156  0.470205  0.523944  1
  W  W68  1  0.029795  0.976056  0.369156  1
  W  W69  1  0.369156  0.029795  0.976056  1
  W  W70  1  0.470205  0.976056  0.130844  1
  W  W71  1  0.470205  0.523944  0.369156  1
  W  W72  1  0.130844  0.470205  0.976056  1
  W  W73  1  0.523944  0.369156  0.470205  1
  W  W74  1  0.976056  0.130844  0.470205  1
  W  W75  1  0.976056  0.369156  0.029795  1
  W  W76  1  0.476056  0.869156  0.970205  1
  W  W77  1  0.970205  0.476056  0.869156  1
  W  W78  1  0.869156  0.970205  0.476056  1
  W  W79  1  0.630844  0.529795  0.476056  1
  W  W80  1  0.970205  0.023944  0.630844  1
  W  W81  1  0.630844  0.970205  0.023944  1
  W  W82  1  0.529795  0.023944  0.869156  1
  W  W83  1  0.529795  0.476056  0.630844  1
  W  W84  1  0.869156  0.529795  0.023944  1
  W  W85  1  0.476056  0.630844  0.529795  1
  W  W86  1  0.023944  0.869156  0.529795  1
  W  W87  1  0.023944  0.630844  0.970205  1
