# generated using pymatgen
data_Sn5Sb2S9
_symmetry_space_group_name_H-M   'P 1'
_cell_length_a   11.66331637
_cell_length_b   11.62480984
_cell_length_c   11.53337316
_cell_angle_alpha   90.00000000
_cell_angle_beta   90.00000000
_cell_angle_gamma   90.00000000
_symmetry_Int_Tables_number   1
_chemical_formula_structural   Sn5Sb2S9
_chemical_formula_sum   'Sn20 Sb8 S36'
_cell_volume   1563.73896242
_cell_formula_units_Z   4
loop_
 _symmetry_equiv_pos_site_id
 _symmetry_equiv_pos_as_xyz
  1  'x, y, z'
loop_
 _atom_site_type_symbol
 _atom_site_label
 _atom_site_symmetry_multiplicity
 _atom_site_fract_x
 _atom_site_fract_y
 _atom_site_fract_z
 _atom_site_occupancy
  S  S0  1  0.706845  0.444458  0.928832  1
  S  S1  1  0.206845  0.555542  0.571168  1
  S  S2  1  0.793155  0.944458  0.071168  1
  S  S3  1  0.293155  0.055542  0.428832  1
  S  S4  1  0.293155  0.555542  0.071168  1
  S  S5  1  0.793155  0.444458  0.428832  1
  S  S6  1  0.206845  0.055542  0.928832  1
  S  S7  1  0.706845  0.944458  0.571168  1
  S  S8  1  0.554342  0.206121  0.553521  1
  S  S9  1  0.054342  0.793879  0.946479  1
  S  S10  1  0.945658  0.706121  0.446479  1
  S  S11  1  0.445658  0.293879  0.053521  1
  S  S12  1  0.445658  0.793879  0.446479  1
  S  S13  1  0.945658  0.206121  0.053521  1
  S  S14  1  0.054342  0.293879  0.553521  1
  S  S15  1  0.672415  0.163205  0.825402  1
  S  S16  1  0.554342  0.706121  0.946479  1
  S  S17  1  0.444413  0.946174  0.712766  1
  S  S18  1  0.555587  0.553826  0.212766  1
  S  S19  1  0.055587  0.446174  0.287234  1
  S  S20  1  0.055587  0.946174  0.212766  1
  S  S21  1  0.555587  0.053826  0.287234  1
  S  S22  1  0.444413  0.446174  0.787234  1
  S  S23  1  0.944413  0.553826  0.712766  1
  S  S24  1  0.500000  0.000000  0.000000  1
  S  S25  1  0.000000  0.000000  0.500000  1
  S  S26  1  0.000000  0.500000  0.000000  1
  S  S27  1  0.500000  0.500000  0.500000  1
  S  S28  1  0.672415  0.663205  0.674598  1
  S  S29  1  0.172415  0.336795  0.825402  1
  S  S30  1  0.827585  0.163205  0.325402  1
  S  S31  1  0.327585  0.836795  0.174598  1
  S  S32  1  0.327585  0.336795  0.325402  1
  S  S33  1  0.827585  0.663205  0.174598  1
  S  S34  1  0.172415  0.836795  0.674598  1
  S  S35  1  0.944413  0.053826  0.787234  1
  Sn  Sn36  1  0.000000  0.500000  0.500000  1
  Sn  Sn37  1  0.500000  0.500000  0.000000  1
  Sn  Sn38  1  0.500000  0.000000  0.500000  1
  Sn  Sn39  1  0.000000  0.000000  0.000000  1
  Sn  Sn40  1  0.804518  0.153119  0.563043  1
  Sn  Sn41  1  0.304518  0.846881  0.936957  1
  Sn  Sn42  1  0.695482  0.653119  0.436957  1
  Sn  Sn43  1  0.195482  0.346881  0.063043  1
  Sn  Sn44  1  0.195482  0.846881  0.436957  1
  Sn  Sn45  1  0.695482  0.153119  0.063043  1
  Sn  Sn46  1  0.304518  0.346881  0.563043  1
  Sn  Sn47  1  0.804518  0.653119  0.936957  1
  Sn  Sn48  1  0.937465  0.307595  0.851991  1
  Sn  Sn49  1  0.437465  0.692405  0.648009  1
  Sn  Sn50  1  0.562535  0.807595  0.148009  1
  Sn  Sn51  1  0.062535  0.192405  0.351991  1
  Sn  Sn52  1  0.062535  0.692405  0.148009  1
  Sn  Sn53  1  0.562535  0.307595  0.351991  1
  Sn  Sn54  1  0.437465  0.192405  0.851991  1
  Sn  Sn55  1  0.937465  0.807595  0.648009  1
  Sb  Sb56  1  0.639873  0.450525  0.703092  1
  Sb  Sb57  1  0.139873  0.549475  0.796908  1
  Sb  Sb58  1  0.860127  0.950525  0.296908  1
  Sb  Sb59  1  0.360127  0.049475  0.203092  1
  Sb  Sb60  1  0.360127  0.549475  0.296908  1
  Sb  Sb61  1  0.860127  0.450525  0.203092  1
  Sb  Sb62  1  0.139873  0.049475  0.703092  1
  Sb  Sb63  1  0.639873  0.950525  0.796908  1
