# generated using pymatgen
data_Ni12P5
_symmetry_space_group_name_H-M   'P 1'
_cell_length_a   5.03646279
_cell_length_b   6.60068532
_cell_length_c   6.60068533
_cell_angle_alpha   81.63085084
_cell_angle_beta   67.57271606
_cell_angle_gamma   67.57271608
_symmetry_Int_Tables_number   1
_chemical_formula_structural   Ni12P5
_chemical_formula_sum   'Ni12 P5'
_cell_volume   187.49520778
_cell_formula_units_Z   1
loop_
 _symmetry_equiv_pos_site_id
 _symmetry_equiv_pos_as_xyz
  1  'x, y, z'
loop_
 _atom_site_type_symbol
 _atom_site_label
 _atom_site_symmetry_multiplicity
 _atom_site_fract_x
 _atom_site_fract_y
 _atom_site_fract_z
 _atom_site_occupancy
  P  P0  1  0.000000  0.000000  0.000000  1
  P  P1  1  0.805432  0.781440  0.607696  1
  P  P2  1  0.413128  0.392304  0.781440  1
  P  P3  1  0.586872  0.607696  0.218560  1
  P  P4  1  0.194568  0.218560  0.392304  1
  Ni  Ni5  1  0.932113  0.702195  0.935981  1
  Ni  Ni6  1  0.570289  0.297805  0.064019  1
  Ni  Ni7  1  0.868094  0.064019  0.702195  1
  Ni  Ni8  1  0.366138  0.694212  0.573512  1
  Ni  Ni9  1  0.939650  0.426488  0.694212  1
  Ni  Ni10  1  0.060350  0.573512  0.305788  1
  Ni  Ni11  1  0.633862  0.305788  0.426488  1
  Ni  Ni12  1  0.634308  0.935981  0.297805  1
  Ni  Ni13  1  0.131906  0.935981  0.297805  1
  Ni  Ni14  1  0.429711  0.702195  0.935981  1
  Ni  Ni15  1  0.067887  0.297805  0.064019  1
  Ni  Ni16  1  0.365692  0.064019  0.702195  1
