# generated using pymatgen
data_Ca4GeN4
_symmetry_space_group_name_H-M   'P 1'
_cell_length_a   6.07214412
_cell_length_b   9.30557836
_cell_length_c   10.93284698
_cell_angle_alpha   113.25481548
_cell_angle_beta   90.00000000
_cell_angle_gamma   90.00000000
_symmetry_Int_Tables_number   1
_chemical_formula_structural   Ca4GeN4
_chemical_formula_sum   'Ca16 Ge4 N16'
_cell_volume   567.57055810
_cell_formula_units_Z   4
loop_
 _symmetry_equiv_pos_site_id
 _symmetry_equiv_pos_as_xyz
  1  'x, y, z'
loop_
 _atom_site_type_symbol
 _atom_site_label
 _atom_site_symmetry_multiplicity
 _atom_site_fract_x
 _atom_site_fract_y
 _atom_site_fract_z
 _atom_site_occupancy
  N  N0  1  0.253108  0.573925  0.985520  1
  N  N1  1  0.753108  0.926075  0.514480  1
  N  N2  1  0.746892  0.426075  0.014480  1
  N  N3  1  0.246892  0.073925  0.485520  1
  N  N4  1  0.085401  0.649803  0.313546  1
  N  N5  1  0.585401  0.850197  0.186454  1
  N  N6  1  0.388546  0.419587  0.616928  1
  N  N7  1  0.888546  0.080413  0.883072  1
  N  N8  1  0.611454  0.580413  0.383072  1
  N  N9  1  0.111454  0.919587  0.116928  1
  N  N10  1  0.480419  0.794502  0.890056  1
  N  N11  1  0.980419  0.705498  0.609944  1
  N  N12  1  0.519581  0.205498  0.109944  1
  N  N13  1  0.019581  0.294502  0.390056  1
  N  N14  1  0.914599  0.350197  0.686454  1
  N  N15  1  0.414599  0.149803  0.813546  1
  Ca  Ca16  1  0.416453  0.499061  0.154029  1
  Ca  Ca17  1  0.916453  1.000939  0.345971  1
  Ca  Ca18  1  0.583547  0.500939  0.845971  1
  Ca  Ca19  1  0.083547  -0.000939  0.654029  1
  Ca  Ca20  1  0.923740  0.667376  0.120905  1
  Ca  Ca21  1  0.423740  0.832624  0.379095  1
  Ca  Ca22  1  0.156763  0.623819  0.769051  1
  Ca  Ca23  1  0.656763  0.876181  0.730949  1
  Ca  Ca24  1  0.843237  0.376181  0.230949  1
  Ca  Ca25  1  0.343237  0.123819  0.269051  1
  Ca  Ca26  1  0.744402  0.465710  0.544322  1
  Ca  Ca27  1  0.244402  0.034290  0.955678  1
  Ca  Ca28  1  0.255598  0.534290  0.455678  1
  Ca  Ca29  1  0.755598  0.965710  0.044322  1
  Ca  Ca30  1  0.076260  0.332624  0.879095  1
  Ca  Ca31  1  0.576260  0.167376  0.620905  1
  Ge  Ge32  1  0.141184  0.283544  0.552965  1
  Ge  Ge33  1  0.641184  0.216456  0.947035  1
  Ge  Ge34  1  0.858816  0.716456  0.447035  1
  Ge  Ge35  1  0.358816  0.783544  0.052965  1
