# generated using pymatgen
data_Sr2UCoO6
_symmetry_space_group_name_H-M   'P 1'
_cell_length_a   5.84244273
_cell_length_b   5.86948686
_cell_length_c   8.26124429
_cell_angle_alpha   90.00000000
_cell_angle_beta   90.37302743
_cell_angle_gamma   90.00000000
_symmetry_Int_Tables_number   1
_chemical_formula_structural   Sr2UCoO6
_chemical_formula_sum   'Sr4 U2 Co2 O12'
_cell_volume   283.28974864
_cell_formula_units_Z   2
loop_
 _symmetry_equiv_pos_site_id
 _symmetry_equiv_pos_as_xyz
  1  'x, y, z'
loop_
 _atom_site_type_symbol
 _atom_site_label
 _atom_site_symmetry_multiplicity
 _atom_site_fract_x
 _atom_site_fract_y
 _atom_site_fract_z
 _atom_site_occupancy
  O  O0  1  0.715579  0.278349  0.456678  1
  O  O1  1  0.784421  0.778349  0.043322  1
  O  O2  1  0.284421  0.721651  0.543322  1
  O  O3  1  0.215579  0.221651  0.956678  1
  O  O4  1  0.220165  0.216418  0.539519  1
  O  O5  1  0.279835  0.716418  0.960481  1
  O  O6  1  0.779835  0.783582  0.460481  1
  O  O7  1  0.720165  0.283582  0.039519  1
  O  O8  1  0.078015  0.481230  0.246564  1
  O  O9  1  0.421985  0.981230  0.253436  1
  O  O10  1  0.921985  0.518770  0.753436  1
  O  O11  1  0.578015  0.018770  0.746564  1
  Co  Co12  1  0.000000  0.500000  0.500000  1
  Co  Co13  1  0.500000  0.000000  0.000000  1
  Sr  Sr14  1  0.490232  0.466989  0.751888  1
  Sr  Sr15  1  0.990232  0.033011  0.251888  1
  Sr  Sr16  1  0.009768  0.966989  0.748112  1
  Sr  Sr17  1  0.509768  0.533011  0.248112  1
  U  U18  1  0.000000  0.500000  0.000000  1
  U  U19  1  0.500000  0.000000  0.500000  1
