# generated using pymatgen
data_Ca5As4(HO2)10
_symmetry_space_group_name_H-M   'P 1'
_cell_length_a   9.87615091
_cell_length_b   10.33726420
_cell_length_c   10.69190756
_cell_angle_alpha   95.76505595
_cell_angle_beta   117.50665760
_cell_angle_gamma   90.00000000
_symmetry_Int_Tables_number   1
_chemical_formula_structural   Ca5As4(HO2)10
_chemical_formula_sum   'Ca10 As8 H20 O40'
_cell_volume   961.94012143
_cell_formula_units_Z   2
loop_
 _symmetry_equiv_pos_site_id
 _symmetry_equiv_pos_as_xyz
  1  'x, y, z'
loop_
 _atom_site_type_symbol
 _atom_site_label
 _atom_site_symmetry_multiplicity
 _atom_site_fract_x
 _atom_site_fract_y
 _atom_site_fract_z
 _atom_site_occupancy
  H  H0  1  0.493568  0.649041  0.940145  1
  H  H1  1  0.553423  0.850959  0.059855  1
  H  H2  1  0.506432  0.350959  0.059855  1
  H  H3  1  0.446577  0.149041  0.940145  1
  H  H4  1  0.340055  0.732940  0.873842  1
  H  H5  1  0.466213  0.767060  0.126158  1
  H  H6  1  0.659945  0.267060  0.126158  1
  H  H7  1  0.533787  0.232940  0.873842  1
  H  H8  1  0.433316  0.977089  0.588016  1
  H  H9  1  0.845300  0.522911  0.411984  1
  H  H10  1  0.566685  0.022911  0.411984  1
  H  H11  1  0.154700  0.477089  0.588016  1
  H  H12  1  0.389855  0.076151  0.469337  1
  H  H13  1  0.920518  0.423849  0.530663  1
  H  H14  1  0.610145  0.923849  0.530663  1
  H  H15  1  0.079482  0.576151  0.469337  1
  H  H16  1  0.271429  0.987456  0.964665  1
  H  H17  1  0.306764  0.512544  0.035335  1
  H  H18  1  0.728571  0.012544  0.035335  1
  H  H19  1  0.693236  0.487456  0.964665  1
  O  O20  1  0.405847  0.669910  0.853305  1
  O  O21  1  0.552541  0.830090  0.146695  1
  O  O22  1  0.594153  0.330090  0.146695  1
  O  O23  1  0.447459  0.169910  0.853305  1
  O  O24  1  0.347808  0.026803  0.519831  1
  O  O25  1  0.827977  0.473197  0.480169  1
  O  O26  1  0.652192  0.973197  0.480169  1
  O  O27  1  0.172023  0.526803  0.519831  1
  O  O28  1  0.202827  0.847082  0.859784  1
  O  O29  1  0.343042  0.652918  0.140216  1
  O  O30  1  0.797173  0.152918  0.140216  1
  O  O31  1  0.656958  0.347082  0.859784  1
  O  O32  1  0.925717  0.798356  0.601456  1
  O  O33  1  0.324261  0.701644  0.398544  1
  O  O34  1  0.074283  0.201644  0.398544  1
  O  O35  1  0.675739  0.298356  0.601456  1
  O  O36  1  0.201897  0.825318  0.591560  1
  O  O37  1  0.610337  0.674682  0.408440  1
  O  O38  1  0.798103  0.174682  0.408440  1
  O  O39  1  0.389663  0.325318  0.591560  1
  O  O40  1  0.080953  0.041583  0.676285  1
  O  O41  1  0.404669  0.458417  0.323715  1
  O  O42  1  0.919047  0.958417  0.323715  1
  O  O43  1  0.595331  0.541583  0.676285  1
  O  O44  1  0.191267  0.936012  0.170897  1
  O  O45  1  0.020369  0.563988  0.829103  1
  O  O46  1  0.808733  0.063988  0.829103  1
  O  O47  1  0.979631  0.436012  0.170897  1
  O  O48  1  0.432274  0.129848  0.326050  1
  O  O49  1  0.106224  0.370152  0.673950  1
  O  O50  1  0.567726  0.870152  0.673950  1
  O  O51  1  0.893776  0.629848  0.326050  1
  O  O52  1  0.146952  0.205052  0.151255  1
  O  O53  1  0.995697  0.294948  0.848745  1
  O  O54  1  0.853048  0.794948  0.848745  1
  O  O55  1  0.004303  0.705052  0.151255  1
  O  O56  1  0.318061  0.071565  0.030120  1
  O  O57  1  0.287941  0.428435  0.969880  1
  O  O58  1  0.681939  0.928435  0.969880  1
  O  O59  1  0.712059  0.571565  0.030120  1
  Ca  Ca60  1  0.206941  0.360952  0.350521  1
  Ca  Ca61  1  0.856420  0.139048  0.649479  1
  Ca  Ca62  1  0.793059  0.639048  0.649479  1
  Ca  Ca63  1  0.143580  0.860952  0.350521  1
  Ca  Ca64  1  0.599830  0.314948  0.363773  1
  Ca  Ca65  1  0.236057  0.185052  0.636227  1
  Ca  Ca66  1  0.400170  0.685052  0.636227  1
  Ca  Ca67  1  0.763943  0.814948  0.363773  1
  Ca  Ca68  1  0.102525  0.750000  0.000000  1
  Ca  Ca69  1  0.897475  0.250000  0.000000  1
  As  As70  1  0.103916  0.876604  0.683241  1
  As  As71  1  0.420675  0.623396  0.316759  1
  As  As72  1  0.896084  0.123396  0.316759  1
  As  As73  1  0.579325  0.376604  0.683241  1
  As  As74  1  0.268686  0.083677  0.170039  1
  As  As75  1  0.098647  0.416323  0.829961  1
  As  As76  1  0.731314  0.916323  0.829961  1
  As  As77  1  0.901353  0.583677  0.170039  1
