# generated using pymatgen
data_Sc3P2
_symmetry_space_group_name_H-M   'P 1'
_cell_length_a   3.72389561
_cell_length_b   10.16332390
_cell_length_c   10.06845270
_cell_angle_alpha   90.00000000
_cell_angle_beta   90.00000000
_cell_angle_gamma   90.00000000
_symmetry_Int_Tables_number   1
_chemical_formula_structural   Sc3P2
_chemical_formula_sum   'Sc12 P8'
_cell_volume   381.06231264
_cell_formula_units_Z   4
loop_
 _symmetry_equiv_pos_site_id
 _symmetry_equiv_pos_as_xyz
  1  'x, y, z'
loop_
 _atom_site_type_symbol
 _atom_site_label
 _atom_site_symmetry_multiplicity
 _atom_site_fract_x
 _atom_site_fract_y
 _atom_site_fract_z
 _atom_site_occupancy
  P  P0  1  0.250000  0.989061  0.680851  1
  P  P1  1  0.750000  0.010939  0.319149  1
  P  P2  1  0.250000  0.489061  0.819149  1
  P  P3  1  0.750000  0.510939  0.180851  1
  P  P4  1  0.250000  0.813887  0.002808  1
  P  P5  1  0.750000  0.186113  0.997192  1
  P  P6  1  0.250000  0.313887  0.497192  1
  P  P7  1  0.750000  0.686113  0.502808  1
  Sc  Sc8  1  0.750000  0.777060  0.198883  1
  Sc  Sc9  1  0.250000  0.222940  0.801117  1
  Sc  Sc10  1  0.750000  0.277060  0.301117  1
  Sc  Sc11  1  0.250000  0.722940  0.698883  1
  Sc  Sc12  1  0.250000  0.874973  0.436995  1
  Sc  Sc13  1  0.750000  0.125027  0.563005  1
  Sc  Sc14  1  0.250000  0.374973  0.063005  1
  Sc  Sc15  1  0.750000  0.625027  0.936995  1
  Sc  Sc16  1  0.250000  0.547346  0.367714  1
  Sc  Sc17  1  0.750000  0.452654  0.632286  1
  Sc  Sc18  1  0.250000  0.047346  0.132286  1
  Sc  Sc19  1  0.750000  0.952654  0.867714  1
