# generated using pymatgen
data_La(GePt)2
_symmetry_space_group_name_H-M   'P 1'
_cell_length_a   4.46180597
_cell_length_b   4.46091531
_cell_length_c   10.01117164
_cell_angle_alpha   90.00000000
_cell_angle_beta   90.24293621
_cell_angle_gamma   90.00000000
_symmetry_Int_Tables_number   1
_chemical_formula_structural   La(GePt)2
_chemical_formula_sum   'La2 Ge4 Pt4'
_cell_volume   199.25795187
_cell_formula_units_Z   2
loop_
 _symmetry_equiv_pos_site_id
 _symmetry_equiv_pos_as_xyz
  1  'x, y, z'
loop_
 _atom_site_type_symbol
 _atom_site_label
 _atom_site_symmetry_multiplicity
 _atom_site_fract_x
 _atom_site_fract_y
 _atom_site_fract_z
 _atom_site_occupancy
  Ge  Ge0  1  0.250655  0.742764  0.499991  1
  Ge  Ge1  1  0.242055  0.248459  0.127209  1
  Ge  Ge2  1  0.749345  0.242764  0.500009  1
  Ge  Ge3  1  0.757945  0.748459  0.872791  1
  La  La4  1  0.749737  0.745557  0.253798  1
  La  La5  1  0.250263  0.245557  0.746202  1
  Pt  Pt6  1  0.738831  0.248800  0.999661  1
  Pt  Pt7  1  0.751521  0.742820  0.623327  1
  Pt  Pt8  1  0.248479  0.242820  0.376673  1
  Pt  Pt9  1  0.261169  0.748800  0.000339  1
