# generated using pymatgen
data_MgH12(BrO6)2
_symmetry_space_group_name_H-M   'P 1'
_cell_length_a   10.54614513
_cell_length_b   10.54614513
_cell_length_c   10.54614513
_cell_angle_alpha   90.00000000
_cell_angle_beta   90.00000000
_cell_angle_gamma   90.00000000
_symmetry_Int_Tables_number   1
_chemical_formula_structural   MgH12(BrO6)2
_chemical_formula_sum   'Mg4 H48 Br8 O48'
_cell_volume   1172.95467526
_cell_formula_units_Z   4
loop_
 _symmetry_equiv_pos_site_id
 _symmetry_equiv_pos_as_xyz
  1  'x, y, z'
loop_
 _atom_site_type_symbol
 _atom_site_label
 _atom_site_symmetry_multiplicity
 _atom_site_fract_x
 _atom_site_fract_y
 _atom_site_fract_z
 _atom_site_occupancy
  H  H0  1  0.258803  0.030584  0.426106  1
  H  H1  1  0.758803  0.469416  0.573894  1
  H  H2  1  0.741197  0.530584  0.073894  1
  H  H3  1  0.469416  0.573894  0.758803  1
  H  H4  1  0.073894  0.741197  0.530584  1
  H  H5  1  0.573894  0.758803  0.469416  1
  H  H6  1  0.030584  0.426106  0.258803  1
  H  H7  1  0.426106  0.258803  0.030584  1
  H  H8  1  0.530584  0.073894  0.741197  1
  H  H9  1  0.969416  0.926106  0.241197  1
  H  H10  1  0.926106  0.241197  0.969416  1
  H  H11  1  0.241197  0.969416  0.926106  1
  H  H12  1  0.258803  0.469416  0.926106  1
  H  H13  1  0.530584  0.426106  0.241197  1
  H  H14  1  0.926106  0.258803  0.469416  1
  H  H15  1  0.426106  0.241197  0.530584  1
  H  H16  1  0.969416  0.573894  0.741197  1
  H  H17  1  0.573894  0.741197  0.969416  1
  H  H18  1  0.469416  0.926106  0.258803  1
  H  H19  1  0.030584  0.073894  0.758803  1
  H  H20  1  0.073894  0.758803  0.030584  1
  H  H21  1  0.758803  0.030584  0.073894  1
  H  H22  1  0.578885  0.031699  0.254716  1
  H  H23  1  0.078885  0.468301  0.745284  1
  H  H24  1  0.421115  0.531699  0.245284  1
  H  H25  1  0.468301  0.745284  0.078885  1
  H  H26  1  0.245284  0.421115  0.531699  1
  H  H27  1  0.745284  0.078885  0.468301  1
  H  H28  1  0.031699  0.254716  0.578885  1
  H  H29  1  0.254716  0.578885  0.031699  1
  H  H30  1  0.531699  0.245284  0.421115  1
  H  H31  1  0.968301  0.754716  0.921115  1
  H  H32  1  0.754716  0.921115  0.968301  1
  H  H33  1  0.921115  0.968301  0.754716  1
  H  H34  1  0.421115  0.968301  0.745284  1
  H  H35  1  0.921115  0.531699  0.254716  1
  H  H36  1  0.578885  0.468301  0.754716  1
  H  H37  1  0.531699  0.254716  0.921115  1
  H  H38  1  0.754716  0.578885  0.468301  1
  H  H39  1  0.254716  0.921115  0.531699  1
  H  H40  1  0.968301  0.745284  0.421115  1
  H  H41  1  0.745284  0.421115  0.968301  1
  H  H42  1  0.468301  0.754716  0.578885  1
  H  H43  1  0.031699  0.245284  0.078885  1
  H  H44  1  0.245284  0.078885  0.031699  1
  H  H45  1  0.078885  0.031699  0.245284  1
  H  H46  1  0.741197  0.969416  0.573894  1
  H  H47  1  0.241197  0.530584  0.426106  1
  O  O48  1  0.959815  0.035859  0.807859  1
  O  O49  1  0.807859  0.959815  0.035859  1
  O  O50  1  0.035859  0.807859  0.959815  1
  O  O51  1  0.464141  0.192141  0.459815  1
  O  O52  1  0.307859  0.540185  0.964141  1
  O  O53  1  0.964141  0.307859  0.540185  1
  O  O54  1  0.959815  0.464141  0.307859  1
  O  O55  1  0.192141  0.459815  0.464141  1
  O  O56  1  0.535859  0.692141  0.040185  1
  O  O57  1  0.459815  0.464141  0.192141  1
  O  O58  1  0.040185  0.535859  0.692141  1
  O  O59  1  0.540185  0.964141  0.307859  1
  O  O60  1  0.540185  0.535859  0.807859  1
  O  O61  1  0.464141  0.307859  0.959815  1
  O  O62  1  0.807859  0.540185  0.535859  1
  O  O63  1  0.307859  0.959815  0.464141  1
  O  O64  1  0.035859  0.692141  0.459815  1
  O  O65  1  0.692141  0.459815  0.035859  1
  O  O66  1  0.535859  0.807859  0.540185  1
  O  O67  1  0.964141  0.192141  0.040185  1
  O  O68  1  0.192141  0.040185  0.964141  1
  O  O69  1  0.040185  0.964141  0.192141  1
  O  O70  1  0.670986  0.139730  0.167359  1
  O  O71  1  0.170986  0.360270  0.832641  1
  O  O72  1  0.329014  0.639730  0.332641  1
  O  O73  1  0.360270  0.832641  0.170986  1
  O  O74  1  0.332641  0.329014  0.639730  1
  O  O75  1  0.832641  0.170986  0.360270  1
  O  O76  1  0.139730  0.167359  0.670986  1
  O  O77  1  0.167359  0.670986  0.139730  1
  O  O78  1  0.639730  0.332641  0.329014  1
  O  O79  1  0.860270  0.667359  0.829014  1
  O  O80  1  0.667359  0.829014  0.860270  1
  O  O81  1  0.829014  0.860270  0.667359  1
  O  O82  1  0.329014  0.860270  0.832641  1
  O  O83  1  0.829014  0.639730  0.167359  1
  O  O84  1  0.670986  0.360270  0.667359  1
  O  O85  1  0.639730  0.167359  0.829014  1
  O  O86  1  0.667359  0.670986  0.360270  1
  O  O87  1  0.167359  0.829014  0.639730  1
  O  O88  1  0.860270  0.832641  0.329014  1
  O  O89  1  0.832641  0.329014  0.860270  1
  O  O90  1  0.360270  0.667359  0.670986  1
  O  O91  1  0.139730  0.332641  0.170986  1
  O  O92  1  0.332641  0.170986  0.139730  1
  O  O93  1  0.170986  0.139730  0.332641  1
  O  O94  1  0.459815  0.035859  0.692141  1
  O  O95  1  0.692141  0.040185  0.535859  1
  Mg  Mg96  1  0.000000  0.000000  0.000000  1
  Mg  Mg97  1  0.500000  0.000000  0.500000  1
  Mg  Mg98  1  0.500000  0.500000  0.000000  1
  Mg  Mg99  1  0.000000  0.500000  0.500000  1
  Br  Br100  1  0.247613  0.747613  0.752387  1
  Br  Br101  1  0.752387  0.247613  0.747613  1
  Br  Br102  1  0.747613  0.752387  0.247613  1
  Br  Br103  1  0.252387  0.252387  0.252387  1
  Br  Br104  1  0.747613  0.747613  0.747613  1
  Br  Br105  1  0.752387  0.252387  0.247613  1
  Br  Br106  1  0.247613  0.752387  0.252387  1
  Br  Br107  1  0.252387  0.247613  0.752387  1
