# generated using pymatgen
data_BaSn2S3
_symmetry_space_group_name_H-M   'P 1'
_cell_length_a   6.24477025
_cell_length_b   12.08429058
_cell_length_c   13.66459802
_cell_angle_alpha   90.00000000
_cell_angle_beta   90.00000000
_cell_angle_gamma   101.16877446
_symmetry_Int_Tables_number   1
_chemical_formula_structural   BaSn2S3
_chemical_formula_sum   'Ba6 Sn12 S18'
_cell_volume   1011.65035095
_cell_formula_units_Z   6
loop_
 _symmetry_equiv_pos_site_id
 _symmetry_equiv_pos_as_xyz
  1  'x, y, z'
loop_
 _atom_site_type_symbol
 _atom_site_label
 _atom_site_symmetry_multiplicity
 _atom_site_fract_x
 _atom_site_fract_y
 _atom_site_fract_z
 _atom_site_occupancy
  S  S0  1  0.248411  0.070144  0.750000  1
  S  S1  1  0.751589  0.929856  0.250000  1
  S  S2  1  0.573759  0.378313  0.750000  1
  S  S3  1  0.426241  0.621687  0.250000  1
  S  S4  1  0.961170  0.717085  0.750000  1
  S  S5  1  0.038830  0.282915  0.250000  1
  S  S6  1  0.261442  0.051117  0.393178  1
  S  S7  1  0.738558  0.948883  0.893178  1
  S  S8  1  0.738558  0.948883  0.606822  1
  S  S9  1  0.261442  0.051117  0.106822  1
  S  S10  1  0.912844  0.709653  0.420892  1
  S  S11  1  0.087156  0.290347  0.920892  1
  S  S12  1  0.087156  0.290347  0.579108  1
  S  S13  1  0.912844  0.709653  0.079108  1
  S  S14  1  0.594635  0.386087  0.071116  1
  S  S15  1  0.405365  0.613913  0.928884  1
  S  S16  1  0.405365  0.613913  0.571116  1
  S  S17  1  0.594635  0.386087  0.428884  1
  Sn  Sn18  1  0.453468  0.227809  0.885984  1
  Sn  Sn19  1  0.382748  0.208164  0.250000  1
  Sn  Sn20  1  0.224589  0.447656  0.447927  1
  Sn  Sn21  1  0.775411  0.552344  0.947927  1
  Sn  Sn22  1  0.775411  0.552344  0.552073  1
  Sn  Sn23  1  0.224589  0.447656  0.052073  1
  Sn  Sn24  1  0.842620  0.099232  0.750000  1
  Sn  Sn25  1  0.157380  0.900768  0.250000  1
  Sn  Sn26  1  0.546532  0.772191  0.385984  1
  Sn  Sn27  1  0.546532  0.772191  0.114016  1
  Sn  Sn28  1  0.453468  0.227809  0.614016  1
  Sn  Sn29  1  0.617252  0.791836  0.750000  1
  Ba  Ba30  1  0.123483  0.474520  0.750000  1
  Ba  Ba31  1  0.876517  0.525480  0.250000  1
  Ba  Ba32  1  0.799341  0.128119  0.421730  1
  Ba  Ba33  1  0.200659  0.871881  0.921730  1
  Ba  Ba34  1  0.200659  0.871881  0.578270  1
  Ba  Ba35  1  0.799341  0.128119  0.078270  1
