# generated using pymatgen
data_Zr6Al2CoH10
_symmetry_space_group_name_H-M   'P 1'
_cell_length_a   8.13331827
_cell_length_b   8.13331827
_cell_length_c   7.13059161
_cell_angle_alpha   90.00000000
_cell_angle_beta   90.00000000
_cell_angle_gamma   119.99999997
_symmetry_Int_Tables_number   1
_chemical_formula_structural   Zr6Al2CoH10
_chemical_formula_sum   'Zr12 Al4 Co2 H20'
_cell_volume   408.49968894
_cell_formula_units_Z   2
loop_
 _symmetry_equiv_pos_site_id
 _symmetry_equiv_pos_as_xyz
  1  'x, y, z'
loop_
 _atom_site_type_symbol
 _atom_site_label
 _atom_site_symmetry_multiplicity
 _atom_site_fract_x
 _atom_site_fract_y
 _atom_site_fract_z
 _atom_site_occupancy
  H  H0  1  0.000000  0.000000  0.500000  1
  H  H1  1  0.000000  0.000000  0.000000  1
  H  H2  1  0.278740  0.000000  0.500000  1
  H  H3  1  0.721260  0.721260  0.000000  1
  H  H4  1  0.000000  0.278740  0.000000  1
  H  H5  1  0.000000  0.278740  0.500000  1
  H  H6  1  0.721260  0.721260  0.500000  1
  H  H7  1  0.278740  0.000000  0.000000  1
  H  H8  1  0.294808  0.410109  0.750000  1
  H  H9  1  0.589891  0.884699  0.750000  1
  H  H10  1  0.115301  0.705192  0.750000  1
  H  H11  1  0.705192  0.115301  0.250000  1
  H  H12  1  0.884699  0.589891  0.250000  1
  H  H13  1  0.410109  0.294808  0.250000  1
  H  H14  1  0.234716  0.115549  0.750000  1
  H  H15  1  0.884451  0.119167  0.750000  1
  H  H16  1  0.880833  0.765284  0.750000  1
  H  H17  1  0.765284  0.880833  0.250000  1
  H  H18  1  0.115549  0.234716  0.250000  1
  H  H19  1  0.119167  0.884451  0.250000  1
  Al  Al20  1  0.666667  0.333333  0.552453  1
  Al  Al21  1  0.666667  0.333333  0.947547  1
  Al  Al22  1  0.333333  0.666667  0.447547  1
  Al  Al23  1  0.333333  0.666667  0.052453  1
  Co  Co24  1  0.000000  0.000000  0.750000  1
  Co  Co25  1  0.000000  0.000000  0.250000  1
  Zr  Zr26  1  0.737750  0.000000  0.500000  1
  Zr  Zr27  1  0.262250  0.262250  0.000000  1
  Zr  Zr28  1  0.000000  0.737750  0.000000  1
  Zr  Zr29  1  0.000000  0.737750  0.500000  1
  Zr  Zr30  1  0.262250  0.262250  0.500000  1
  Zr  Zr31  1  0.737750  0.000000  0.000000  1
  Zr  Zr32  1  0.048662  0.422859  0.750000  1
  Zr  Zr33  1  0.577141  0.625803  0.750000  1
  Zr  Zr34  1  0.374197  0.951338  0.750000  1
  Zr  Zr35  1  0.951338  0.374197  0.250000  1
  Zr  Zr36  1  0.625803  0.577141  0.250000  1
  Zr  Zr37  1  0.422859  0.048662  0.250000  1
