# generated using pymatgen
data_Sb(IF3)2
_symmetry_space_group_name_H-M   'P 1'
_cell_length_a   6.19114798
_cell_length_b   8.26235665
_cell_length_c   8.32134681
_cell_angle_alpha   77.96750161
_cell_angle_beta   80.93315318
_cell_angle_gamma   82.39378061
_symmetry_Int_Tables_number   1
_chemical_formula_structural   Sb(IF3)2
_chemical_formula_sum   'Sb2 I4 F12'
_cell_volume   408.92386747
_cell_formula_units_Z   2
loop_
 _symmetry_equiv_pos_site_id
 _symmetry_equiv_pos_as_xyz
  1  'x, y, z'
loop_
 _atom_site_type_symbol
 _atom_site_label
 _atom_site_symmetry_multiplicity
 _atom_site_fract_x
 _atom_site_fract_y
 _atom_site_fract_z
 _atom_site_occupancy
  I  I0  1  0.101189  0.240569  0.930490  1
  I  I1  1  0.898811  0.759431  0.069510  1
  I  I2  1  0.890847  0.084973  0.768259  1
  I  I3  1  0.109153  0.915027  0.231741  1
  Sb  Sb4  1  0.436282  0.301292  0.314541  1
  Sb  Sb5  1  0.563718  0.698708  0.685459  1
  F  F6  1  0.200504  0.158324  0.389576  1
  F  F7  1  0.799496  0.841676  0.610424  1
  F  F8  1  0.669375  0.438944  0.229211  1
  F  F9  1  0.330625  0.561056  0.770789  1
  F  F10  1  0.290680  0.391473  0.118323  1
  F  F11  1  0.709320  0.608527  0.881677  1
  F  F12  1  0.588021  0.133547  0.196491  1
  F  F13  1  0.411979  0.866453  0.803509  1
  F  F14  1  0.568465  0.201796  0.509293  1
  F  F15  1  0.431535  0.798204  0.490707  1
  F  F16  1  0.266541  0.469067  0.420027  1
  F  F17  1  0.733459  0.530933  0.579973  1
