# generated using pymatgen
data_B7H10
_symmetry_space_group_name_H-M   'P 1'
_cell_length_a   9.17887537
_cell_length_b   10.27809497
_cell_length_c   13.54942297
_cell_angle_alpha   90.00000000
_cell_angle_beta   90.00000000
_cell_angle_gamma   90.00000000
_symmetry_Int_Tables_number   1
_chemical_formula_structural   B7H10
_chemical_formula_sum   'B56 H80'
_cell_volume   1278.27089225
_cell_formula_units_Z   8
loop_
 _symmetry_equiv_pos_site_id
 _symmetry_equiv_pos_as_xyz
  1  'x, y, z'
loop_
 _atom_site_type_symbol
 _atom_site_label
 _atom_site_symmetry_multiplicity
 _atom_site_fract_x
 _atom_site_fract_y
 _atom_site_fract_z
 _atom_site_occupancy
  H  H0  1  0.068900  0.813971  0.246692  1
  H  H1  1  0.568900  0.186029  0.253308  1
  H  H2  1  0.431100  0.313971  0.753308  1
  H  H3  1  0.931100  0.686029  0.746692  1
  H  H4  1  0.234040  0.702422  0.214133  1
  H  H5  1  0.734040  0.297578  0.285867  1
  H  H6  1  0.265960  0.202422  0.785867  1
  H  H7  1  0.765960  0.797578  0.714133  1
  H  H8  1  0.217977  0.676850  0.072382  1
  H  H9  1  0.717977  0.323150  0.427618  1
  H  H10  1  0.282023  0.176850  0.927618  1
  H  H11  1  0.782023  0.823150  0.572382  1
  H  H12  1  0.058358  0.561644  0.093246  1
  H  H13  1  0.558358  0.438356  0.406754  1
  H  H14  1  0.441642  0.061644  0.906754  1
  H  H15  1  0.941642  0.938356  0.593246  1
  H  H16  1  0.018174  0.555953  0.234455  1
  H  H17  1  0.518174  0.444047  0.265545  1
  H  H18  1  0.481826  0.055953  0.765545  1
  H  H19  1  0.981826  0.944047  0.734455  1
  H  H20  1  0.901116  0.711496  0.258005  1
  H  H21  1  0.401116  0.288504  0.241995  1
  H  H22  1  0.598884  0.211496  0.741995  1
  H  H23  1  0.098884  0.788504  0.758005  1
  H  H24  1  0.269629  0.851797  0.309206  1
  H  H25  1  0.769629  0.148203  0.190794  1
  H  H26  1  0.230371  0.351797  0.690794  1
  H  H27  1  0.730371  0.648203  0.809206  1
  H  H28  1  0.023527  0.006249  0.237144  1
  H  H29  1  0.523527  0.993751  0.262856  1
  H  H30  1  0.476473  0.506249  0.762856  1
  H  H31  1  0.976473  0.493751  0.737144  1
  H  H32  1  0.806962  0.944825  0.096425  1
  H  H33  1  0.254046  0.781519  0.950044  1
  H  H34  1  0.306962  0.055175  0.403575  1
  H  H35  1  0.193038  0.555175  0.596425  1
  H  H36  1  0.695698  0.769569  0.232269  1
  H  H37  1  0.195698  0.230431  0.267731  1
  H  H38  1  0.804302  0.269569  0.767731  1
  H  H39  1  0.304302  0.730431  0.732269  1
  H  H40  1  0.839634  0.539046  0.321852  1
  H  H41  1  0.339634  0.460954  0.178148  1
  H  H42  1  0.660366  0.039046  0.678148  1
  H  H43  1  0.160366  0.960954  0.821852  1
  H  H44  1  -0.000715  0.386876  0.157588  1
  H  H45  1  0.499285  0.613124  0.342412  1
  H  H46  1  0.500715  0.886876  0.842412  1
  H  H47  1  1.000715  0.113124  0.657588  1
  H  H48  1  0.947953  0.516137  0.968264  1
  H  H49  1  0.447953  0.483863  0.531736  1
  H  H50  1  0.552047  0.016137  0.031736  1
  H  H51  1  0.052047  0.983863  0.468264  1
  H  H52  1  0.955267  0.783318  0.919590  1
  H  H53  1  0.455267  0.216682  0.580410  1
  H  H54  1  0.544733  0.283318  0.080410  1
  H  H55  1  0.044733  0.716682  0.419590  1
  H  H56  1  0.696511  0.500915  0.608197  1
  H  H57  1  0.196511  0.499085  0.891803  1
  H  H58  1  0.803489  1.000915  0.391803  1
  H  H59  1  0.303489  -0.000915  0.108197  1
  H  H60  1  0.957225  0.501746  0.506010  1
  H  H61  1  0.457225  0.498254  0.993990  1
  H  H62  1  0.542775  1.001746  0.493990  1
  H  H63  1  0.042775  -0.001746  0.006010  1
  H  H64  1  0.284190  0.767817  0.508857  1
  H  H65  1  0.784190  0.232183  0.991143  1
  H  H66  1  0.215810  0.267817  0.491143  1
  H  H67  1  0.715810  0.732183  0.008857  1
  H  H68  1  0.308607  -0.004842  0.617307  1
  H  H69  1  0.808607  1.004842  0.882693  1
  H  H70  1  0.191393  0.495158  0.382693  1
  H  H71  1  0.691393  0.504842  0.117307  1
  H  H72  1  0.580525  0.782127  0.631986  1
  H  H73  1  0.080525  0.217873  0.868014  1
  H  H74  1  0.919475  0.282127  0.368014  1
  H  H75  1  0.419475  0.717873  0.131986  1
  H  H76  1  0.745954  0.718481  0.450044  1
  H  H77  1  0.245954  0.281519  0.049956  1
  H  H78  1  0.754046  0.218481  0.549956  1
  H  H79  1  0.693038  0.444825  0.903575  1
  B  B80  1  0.211242  0.829667  0.232778  1
  B  B81  1  0.711242  0.170333  0.267222  1
  B  B82  1  0.288758  0.329667  0.767222  1
  B  B83  1  0.788758  0.670333  0.732778  1
  B  B84  1  0.054095  0.915150  0.186761  1
  B  B85  1  0.554095  0.084850  0.313239  1
  B  B86  1  0.445905  0.415150  0.813239  1
  B  B87  1  0.945905  0.584850  0.686761  1
  B  B88  1  0.891116  0.857999  0.110428  1
  B  B89  1  0.391116  0.142001  0.389572  1
  B  B90  1  0.608884  0.357999  0.889572  1
  B  B91  1  0.108884  0.642001  0.610428  1
  B  B92  1  0.799444  0.727731  0.189779  1
  B  B93  1  0.299444  0.272269  0.310221  1
  B  B94  1  0.700556  0.227731  0.810221  1
  B  B95  1  0.200556  0.772269  0.689779  1
  B  B96  1  0.876029  0.585063  0.245167  1
  B  B97  1  0.376029  0.414937  0.254833  1
  B  B98  1  0.623971  0.085063  0.754833  1
  B  B99  1  0.123971  0.914937  0.745167  1
  B  B100  1  0.966373  0.498596  0.152017  1
  B  B101  1  0.466373  0.501404  0.347983  1
  B  B102  1  0.533627  0.998596  0.847983  1
  B  B103  1  0.033627  0.001404  0.652017  1
  B  B104  1  0.941796  0.586143  0.038219  1
  B  B105  1  0.441796  0.413857  0.461781  1
  B  B106  1  0.558204  0.086143  0.961781  1
  B  B107  1  0.058204  0.913857  0.538219  1
  B  B108  1  0.982225  0.762875  0.004932  1
  B  B109  1  0.482225  0.237125  0.495068  1
  B  B110  1  0.517775  0.262875  0.995068  1
  B  B111  1  0.017775  0.737125  0.504932  1
  B  B112  1  0.187105  0.786015  0.025466  1
  B  B113  1  0.687105  0.213985  0.474534  1
  B  B114  1  0.312895  0.286015  0.974534  1
  B  B115  1  0.812895  0.713985  0.525466  1
  B  B116  1  0.295885  0.752749  0.132580  1
  B  B117  1  0.795885  0.247251  0.367420  1
  B  B118  1  0.204115  0.252749  0.867420  1
  B  B119  1  0.704115  0.747251  0.632580  1
  B  B120  1  0.797879  0.569222  0.129790  1
  B  B121  1  0.297879  0.430778  0.370210  1
  B  B122  1  0.702121  0.069222  0.870210  1
  B  B123  1  0.202121  0.930778  0.629790  1
  B  B124  1  0.818889  0.713879  0.061152  1
  B  B125  1  0.318889  0.286121  0.438848  1
  B  B126  1  0.681111  0.213879  0.938848  1
  B  B127  1  0.181111  0.786121  0.561152  1
  B  B128  1  0.057182  0.904292  0.057370  1
  B  B129  1  0.557182  0.095708  0.442630  1
  B  B130  1  0.442818  0.404292  0.942630  1
  B  B131  1  0.942818  0.595708  0.557370  1
  B  B132  1  0.225425  0.907810  0.119639  1
  B  B133  1  0.725425  0.092190  0.380361  1
  B  B134  1  0.274575  0.407810  0.880361  1
  B  B135  1  0.774575  0.592190  0.619639  1
