# generated using pymatgen
data_K5SnBi3
_symmetry_space_group_name_H-M   'P 1'
_cell_length_a   8.95811856
_cell_length_b   10.25989040
_cell_length_c   16.60760968
_cell_angle_alpha   89.88773446
_cell_angle_beta   90.00000000
_cell_angle_gamma   90.00000000
_symmetry_Int_Tables_number   1
_chemical_formula_structural   K5SnBi3
_chemical_formula_sum   'K20 Sn4 Bi12'
_cell_volume   1526.39109301
_cell_formula_units_Z   4
loop_
 _symmetry_equiv_pos_site_id
 _symmetry_equiv_pos_as_xyz
  1  'x, y, z'
loop_
 _atom_site_type_symbol
 _atom_site_label
 _atom_site_symmetry_multiplicity
 _atom_site_fract_x
 _atom_site_fract_y
 _atom_site_fract_z
 _atom_site_occupancy
  K  K0  1  0.316819  0.922326  0.921763  1
  K  K1  1  0.816819  0.577674  0.578237  1
  K  K2  1  0.683181  0.077674  0.078237  1
  K  K3  1  0.183181  0.422326  0.421763  1
  K  K4  1  0.018087  0.835564  0.423855  1
  K  K5  1  0.518087  0.664436  0.076145  1
  K  K6  1  0.981913  0.164436  0.576145  1
  K  K7  1  0.481913  0.335564  0.923855  1
  K  K8  1  0.003282  0.806089  0.743519  1
  K  K9  1  0.503282  0.693911  0.756481  1
  K  K10  1  0.996718  0.193911  0.256481  1
  K  K11  1  0.496718  0.306089  0.243519  1
  K  K12  1  0.839149  0.575407  0.260677  1
  K  K13  1  0.339149  0.924593  0.239323  1
  K  K14  1  0.160851  0.424593  0.739323  1
  K  K15  1  0.660851  0.075407  0.760677  1
  K  K16  1  1.001733  0.789780  0.086676  1
  K  K17  1  0.501733  0.710220  0.413324  1
  K  K18  1  -0.001733  0.210220  0.913324  1
  K  K19  1  0.498267  0.289780  0.586676  1
  Sn  Sn20  1  0.146464  0.427083  0.088097  1
  Sn  Sn21  1  0.646464  0.072917  0.411903  1
  Sn  Sn22  1  0.853536  0.572917  0.911903  1
  Sn  Sn23  1  0.353536  0.927083  0.588097  1
  Bi  Bi24  1  0.191546  0.581141  0.933124  1
  Bi  Bi25  1  0.691546  0.918859  0.566876  1
  Bi  Bi26  1  0.808454  0.418859  0.066876  1
  Bi  Bi27  1  0.308454  0.081141  0.433124  1
  Bi  Bi28  1  0.264717  0.156153  0.081107  1
  Bi  Bi29  1  0.764717  0.343847  0.418893  1
  Bi  Bi30  1  0.735283  0.843847  0.918893  1
  Bi  Bi31  1  0.235283  0.656153  0.581107  1
  Bi  Bi32  1  0.239461  0.581785  0.230032  1
  Bi  Bi33  1  0.739461  0.918215  0.269968  1
  Bi  Bi34  1  0.760539  0.418215  0.769968  1
  Bi  Bi35  1  0.260539  0.081785  0.730032  1
