# generated using pymatgen
data_Rb2UCl5
_symmetry_space_group_name_H-M   'P 1'
_cell_length_a   8.37602520
_cell_length_b   9.01061790
_cell_length_c   13.46713138
_cell_angle_alpha   90.00000000
_cell_angle_beta   90.00000000
_cell_angle_gamma   90.00000000
_symmetry_Int_Tables_number   1
_chemical_formula_structural   Rb2UCl5
_chemical_formula_sum   'Rb8 U4 Cl20'
_cell_volume   1016.40699637
_cell_formula_units_Z   4
loop_
 _symmetry_equiv_pos_site_id
 _symmetry_equiv_pos_as_xyz
  1  'x, y, z'
loop_
 _atom_site_type_symbol
 _atom_site_label
 _atom_site_symmetry_multiplicity
 _atom_site_fract_x
 _atom_site_fract_y
 _atom_site_fract_z
 _atom_site_occupancy
  Cl  Cl0  1  0.339562  0.959123  0.072037  1
  Cl  Cl1  1  0.839562  0.040877  0.427963  1
  Cl  Cl2  1  0.660438  0.459123  0.927963  1
  Cl  Cl3  1  0.160438  0.540877  0.572037  1
  Cl  Cl4  1  0.660438  0.040877  0.927963  1
  Cl  Cl5  1  0.160438  0.959123  0.572037  1
  Cl  Cl6  1  0.339562  0.540877  0.072037  1
  Cl  Cl7  1  0.839562  0.459123  0.427963  1
  Cl  Cl8  1  0.382761  0.750000  0.824380  1
  Cl  Cl9  1  0.882761  0.250000  0.675620  1
  Cl  Cl10  1  0.617239  0.250000  0.175620  1
  Cl  Cl11  1  0.117239  0.750000  0.324380  1
  Cl  Cl12  1  0.095245  0.250000  0.009725  1
  Cl  Cl13  1  0.595245  0.750000  0.490275  1
  Cl  Cl14  1  0.904755  0.750000  0.990275  1
  Cl  Cl15  1  0.404755  0.250000  0.509725  1
  Cl  Cl16  1  0.653239  0.750000  0.196897  1
  Cl  Cl17  1  0.153239  0.250000  0.303103  1
  Cl  Cl18  1  0.346761  0.250000  0.803103  1
  Cl  Cl19  1  0.846761  0.750000  0.696897  1
  Rb  Rb20  1  0.444042  0.505408  0.329952  1
  Rb  Rb21  1  0.944042  0.494592  0.170048  1
  Rb  Rb22  1  0.555958  0.005408  0.670048  1
  Rb  Rb23  1  0.055958  0.994592  0.829952  1
  Rb  Rb24  1  0.944042  0.005408  0.170048  1
  Rb  Rb25  1  0.444042  0.994592  0.329952  1
  Rb  Rb26  1  0.055958  0.505408  0.829952  1
  Rb  Rb27  1  0.555958  0.494592  0.670048  1
  U  U28  1  0.934218  0.750000  0.497317  1
  U  U29  1  0.434218  0.250000  0.002683  1
  U  U30  1  0.065782  0.250000  0.502683  1
  U  U31  1  0.565782  0.750000  0.997317  1
