# generated using pymatgen
data_SrCoP2O7
_symmetry_space_group_name_H-M   'P 1'
_cell_length_a   5.38745476
_cell_length_b   8.34136616
_cell_length_c   12.90897267
_cell_angle_alpha   90.00000000
_cell_angle_beta   90.28701562
_cell_angle_gamma   90.00000000
_symmetry_Int_Tables_number   1
_chemical_formula_structural   SrCoP2O7
_chemical_formula_sum   'Sr4 Co4 P8 O28'
_cell_volume   580.10559491
_cell_formula_units_Z   4
loop_
 _symmetry_equiv_pos_site_id
 _symmetry_equiv_pos_as_xyz
  1  'x, y, z'
loop_
 _atom_site_type_symbol
 _atom_site_label
 _atom_site_symmetry_multiplicity
 _atom_site_fract_x
 _atom_site_fract_y
 _atom_site_fract_z
 _atom_site_occupancy
  O  O0  1  0.698792  0.310652  0.588293  1
  O  O1  1  0.801208  0.810652  0.911707  1
  O  O2  1  0.301208  0.689348  0.411707  1
  O  O3  1  0.198792  0.189348  0.088293  1
  O  O4  1  0.592788  0.168516  0.973982  1
  O  O5  1  0.907212  0.668516  0.526018  1
  O  O6  1  0.407212  0.831484  0.026018  1
  O  O7  1  0.092788  0.331484  0.473982  1
  O  O8  1  0.988164  0.441659  0.791609  1
  O  O9  1  0.511836  0.941659  0.708391  1
  O  O10  1  0.011836  0.558341  0.208391  1
  O  O11  1  0.488164  0.058341  0.291609  1
  O  O12  1  0.266708  0.385826  0.946572  1
  O  O13  1  0.233292  0.885826  0.553428  1
  O  O14  1  0.733292  0.614174  0.053428  1
  O  O15  1  0.766708  0.114174  0.446572  1
  O  O16  1  0.673933  0.359182  0.153273  1
  O  O17  1  0.826067  0.859182  0.346727  1
  O  O18  1  0.326067  0.640818  0.846727  1
  O  O19  1  0.173933  0.140818  0.653273  1
  O  O20  1  0.667348  0.403147  0.400208  1
  O  O21  1  0.832652  0.903147  0.099792  1
  O  O22  1  0.332652  0.596853  0.599792  1
  O  O23  1  0.167348  0.096853  0.900208  1
  O  O24  1  0.947625  0.117738  0.263814  1
  O  O25  1  0.552375  0.617738  0.236186  1
  O  O26  1  0.052375  0.882262  0.736186  1
  O  O27  1  0.447625  0.382262  0.763814  1
  P  P28  1  0.811839  0.299759  0.479674  1
  P  P29  1  0.688161  0.799759  0.020326  1
  P  P30  1  0.188161  0.700241  0.520326  1
  P  P31  1  0.311839  0.200241  0.979674  1
  P  P32  1  0.248376  0.965274  0.667751  1
  P  P33  1  0.251624  0.465274  0.832249  1
  P  P34  1  0.751624  0.034726  0.332249  1
  P  P35  1  0.748376  0.534726  0.167751  1
  Co  Co36  1  0.318724  0.349882  0.604738  1
  Co  Co37  1  0.181276  0.849882  0.895262  1
  Co  Co38  1  0.681276  0.650118  0.395262  1
  Co  Co39  1  0.818724  0.150118  0.104738  1
  Sr  Sr40  1  0.786925  0.163884  0.777882  1
  Sr  Sr41  1  0.713075  0.663884  0.722118  1
  Sr  Sr42  1  0.213075  0.836116  0.222118  1
  Sr  Sr43  1  0.286925  0.336116  0.277882  1
