# generated using pymatgen
data_SmCl2
_symmetry_space_group_name_H-M   'P 1'
_cell_length_a   3.56010379
_cell_length_b   9.88424128
_cell_length_c   8.71251489
_cell_angle_alpha   90.00000000
_cell_angle_beta   90.00000000
_cell_angle_gamma   90.00000000
_symmetry_Int_Tables_number   1
_chemical_formula_structural   SmCl2
_chemical_formula_sum   'Sm4 Cl8'
_cell_volume   306.58403165
_cell_formula_units_Z   4
loop_
 _symmetry_equiv_pos_site_id
 _symmetry_equiv_pos_as_xyz
  1  'x, y, z'
loop_
 _atom_site_type_symbol
 _atom_site_label
 _atom_site_symmetry_multiplicity
 _atom_site_fract_x
 _atom_site_fract_y
 _atom_site_fract_z
 _atom_site_occupancy
  Cl  Cl0  1  0.250000  0.541969  0.665702  1
  Cl  Cl1  1  0.750000  0.458031  0.334298  1
  Cl  Cl2  1  0.250000  0.041969  0.834298  1
  Cl  Cl3  1  0.750000  0.958031  0.165702  1
  Cl  Cl4  1  0.750000  0.843880  0.563962  1
  Cl  Cl5  1  0.250000  0.156120  0.436038  1
  Cl  Cl6  1  0.750000  0.343880  0.936038  1
  Cl  Cl7  1  0.250000  0.656120  0.063962  1
  Sm  Sm8  1  0.250000  0.685834  0.384606  1
  Sm  Sm9  1  0.750000  0.314166  0.615394  1
  Sm  Sm10  1  0.250000  0.185834  0.115394  1
  Sm  Sm11  1  0.750000  0.814166  0.884606  1
