# generated using pymatgen
data_Nd2Re3Si5
_symmetry_space_group_name_H-M   'P 1'
_cell_length_a   5.71927282
_cell_length_b   11.05179489
_cell_length_c   11.05179489
_cell_angle_alpha   90.00000000
_cell_angle_beta   90.00000000
_cell_angle_gamma   90.00000000
_symmetry_Int_Tables_number   1
_chemical_formula_structural   Nd2Re3Si5
_chemical_formula_sum   'Nd8 Si20 Re12'
_cell_volume   698.56439472
_cell_formula_units_Z   4
loop_
 _symmetry_equiv_pos_site_id
 _symmetry_equiv_pos_as_xyz
  1  'x, y, z'
loop_
 _atom_site_type_symbol
 _atom_site_label
 _atom_site_symmetry_multiplicity
 _atom_site_fract_x
 _atom_site_fract_y
 _atom_site_fract_z
 _atom_site_occupancy
  Si  Si0  1  0.500000  0.024374  0.316327  1
  Si  Si1  1  0.500000  0.975626  0.683673  1
  Si  Si2  1  0.500000  0.316327  0.975626  1
  Si  Si3  1  0.500000  0.683673  0.024374  1
  Si  Si4  1  0.000000  0.816327  0.524374  1
  Si  Si5  1  0.000000  0.475626  0.816327  1
  Si  Si6  1  0.000000  0.524374  0.183673  1
  Si  Si7  1  0.000000  0.183673  0.475626  1
  Si  Si8  1  0.750000  0.171322  0.671322  1
  Si  Si9  1  0.750000  0.328678  0.171322  1
  Si  Si10  1  0.750000  0.671322  0.828678  1
  Si  Si11  1  0.750000  0.828678  0.328678  1
  Si  Si12  1  0.250000  0.828678  0.328678  1
  Si  Si13  1  0.262150  0.000000  0.000000  1
  Si  Si14  1  0.250000  0.328678  0.171322  1
  Si  Si15  1  0.250000  0.171322  0.671322  1
  Si  Si16  1  0.762150  0.500000  0.500000  1
  Si  Si17  1  0.737850  0.000000  0.000000  1
  Si  Si18  1  0.237850  0.500000  0.500000  1
  Si  Si19  1  0.250000  0.671322  0.828678  1
  Nd  Nd20  1  0.500000  0.263406  0.422876  1
  Nd  Nd21  1  0.000000  0.763406  0.077124  1
  Nd  Nd22  1  0.000000  0.236594  0.922876  1
  Nd  Nd23  1  0.000000  0.922876  0.763406  1
  Nd  Nd24  1  0.500000  0.577124  0.263406  1
  Nd  Nd25  1  0.500000  0.422876  0.736594  1
  Nd  Nd26  1  0.500000  0.736594  0.577124  1
  Nd  Nd27  1  0.000000  0.077124  0.236594  1
  Re  Re28  1  0.250000  0.500000  0.000000  1
  Re  Re29  1  0.750000  0.000000  0.500000  1
  Re  Re30  1  0.750000  0.500000  0.000000  1
  Re  Re31  1  0.250000  0.000000  0.500000  1
  Re  Re32  1  0.000000  0.375268  0.351589  1
  Re  Re33  1  0.000000  0.648411  0.375268  1
  Re  Re34  1  0.000000  0.351589  0.624732  1
  Re  Re35  1  0.000000  0.624732  0.648411  1
  Re  Re36  1  0.500000  0.875268  0.148411  1
  Re  Re37  1  0.500000  0.124732  0.851589  1
  Re  Re38  1  0.500000  0.851589  0.875268  1
  Re  Re39  1  0.500000  0.148411  0.124732  1
