# generated using pymatgen
data_H3CSO4F3
_symmetry_space_group_name_H-M   'P 1'
_cell_length_a   6.10785821
_cell_length_b   9.77451903
_cell_length_c   10.11395193
_cell_angle_alpha   90.00000000
_cell_angle_beta   90.00000000
_cell_angle_gamma   99.23863782
_symmetry_Int_Tables_number   1
_chemical_formula_structural   H3CSO4F3
_chemical_formula_sum   'H12 C4 S4 O16 F12'
_cell_volume   595.98427275
_cell_formula_units_Z   4
loop_
 _symmetry_equiv_pos_site_id
 _symmetry_equiv_pos_as_xyz
  1  'x, y, z'
loop_
 _atom_site_type_symbol
 _atom_site_label
 _atom_site_symmetry_multiplicity
 _atom_site_fract_x
 _atom_site_fract_y
 _atom_site_fract_z
 _atom_site_occupancy
  H  H0  1  0.468378  0.312920  0.913529  1
  H  H1  1  0.531622  0.187080  0.413529  1
  H  H2  1  0.531622  0.687080  0.086471  1
  H  H3  1  0.468378  0.812920  0.586471  1
  H  H4  1  0.403956  0.726399  0.947580  1
  H  H5  1  0.596044  0.773601  0.447580  1
  H  H6  1  0.504187  0.148203  0.934987  1
  H  H7  1  0.403956  0.226399  0.552420  1
  H  H8  1  0.495813  0.851797  0.065013  1
  H  H9  1  0.504187  0.648203  0.565013  1
  H  H10  1  0.596044  0.273601  0.052420  1
  H  H11  1  0.495813  0.351797  0.434987  1
  C  C12  1  0.993953  0.498223  0.730599  1
  C  C13  1  0.993953  0.998223  0.769401  1
  C  C14  1  0.006047  0.501777  0.269401  1
  C  C15  1  0.006047  0.001777  0.230599  1
  O  O16  1  0.598621  -0.001094  0.139784  1
  O  O17  1  0.319024  0.923388  0.629299  1
  O  O18  1  0.680976  0.576612  0.129299  1
  O  O19  1  0.680976  0.076612  0.370701  1
  O  O20  1  0.401379  0.501094  0.639784  1
  O  O21  1  0.348046  0.169540  0.690385  1
  O  O22  1  0.319024  0.423388  0.870701  1
  O  O23  1  0.598621  0.498906  0.360216  1
  O  O24  1  0.565056  0.748786  0.545481  1
  O  O25  1  0.401379  1.001094  0.860216  1
  O  O26  1  0.348046  0.669540  0.809615  1
  O  O27  1  0.651954  0.830460  0.309615  1
  O  O28  1  0.565056  0.248786  0.954519  1
  O  O29  1  0.434944  0.251214  0.454519  1
  O  O30  1  0.434944  0.751214  0.045481  1
  O  O31  1  0.651954  0.330460  0.190385  1
  F  F32  1  0.922245  0.866738  0.809304  1
  F  F33  1  0.119960  0.475674  0.160082  1
  F  F34  1  0.119960  0.975674  0.339918  1
  F  F35  1  0.880040  0.524326  0.839918  1
  F  F36  1  0.880040  0.024326  0.660082  1
  F  F37  1  0.077755  0.633262  0.309304  1
  F  F38  1  0.077755  0.133262  0.190696  1
  F  F39  1  0.954093  0.086096  0.866571  1
  F  F40  1  0.922245  0.366738  0.690696  1
  F  F41  1  0.954093  0.586096  0.633429  1
  F  F42  1  0.045907  0.913904  0.133429  1
  F  F43  1  0.045907  0.413904  0.366571  1
  S  S44  1  0.298336  0.024120  0.732827  1
  S  S45  1  0.701664  0.475880  0.232827  1
  S  S46  1  0.701664  0.975880  0.267173  1
  S  S47  1  0.298336  0.524120  0.767173  1
