# generated using pymatgen
data_Na2MoO4
_symmetry_space_group_name_H-M   'P 1'
_cell_length_a   6.22161518
_cell_length_b   6.22161518
_cell_length_c   7.21279679
_cell_angle_alpha   103.81380226
_cell_angle_beta   103.81380230
_cell_angle_gamma   116.51217145
_symmetry_Int_Tables_number   1
_chemical_formula_structural   Na2MoO4
_chemical_formula_sum   'Na4 Mo2 O8'
_cell_volume   222.62679914
_cell_formula_units_Z   2
loop_
 _symmetry_equiv_pos_site_id
 _symmetry_equiv_pos_as_xyz
  1  'x, y, z'
loop_
 _atom_site_type_symbol
 _atom_site_label
 _atom_site_symmetry_multiplicity
 _atom_site_fract_x
 _atom_site_fract_y
 _atom_site_fract_z
 _atom_site_occupancy
  O  O0  1  0.256015  0.212487  0.905262  1
  O  O1  1  0.307226  0.850753  0.594738  1
  O  O2  1  0.787512  0.743985  0.594738  1
  O  O3  1  0.149247  0.692774  0.905262  1
  O  O4  1  0.743985  0.787512  0.094738  1
  O  O5  1  0.692774  0.149247  0.405262  1
  O  O6  1  0.850753  0.307226  0.094738  1
  O  O7  1  0.212487  0.256015  0.405262  1
  Na  Na8  1  0.555865  0.444135  0.250000  1
  Na  Na9  1  0.194135  0.805865  0.250000  1
  Na  Na10  1  0.805865  0.194135  0.750000  1
  Na  Na11  1  0.444135  0.555865  0.750000  1
  Mo  Mo12  1  0.875000  0.125000  0.250000  1
  Mo  Mo13  1  0.125000  0.875000  0.750000  1
