# generated using pymatgen
data_Co3(AsO4)2
_symmetry_space_group_name_H-M   'P 1'
_cell_length_a   6.53664076
_cell_length_b   8.66252534
_cell_length_c   11.31322798
_cell_angle_alpha   90.00000000
_cell_angle_beta   90.95130192
_cell_angle_gamma   90.00000000
_symmetry_Int_Tables_number   1
_chemical_formula_structural   Co3(AsO4)2
_chemical_formula_sum   'Co12 As8 O32'
_cell_volume   640.50984654
_cell_formula_units_Z   4
loop_
 _symmetry_equiv_pos_site_id
 _symmetry_equiv_pos_as_xyz
  1  'x, y, z'
loop_
 _atom_site_type_symbol
 _atom_site_label
 _atom_site_symmetry_multiplicity
 _atom_site_fract_x
 _atom_site_fract_y
 _atom_site_fract_z
 _atom_site_occupancy
  O  O0  1  0.867252  0.459709  0.795822  1
  O  O1  1  0.132748  0.959709  0.704178  1
  O  O2  1  0.132749  0.540292  0.204178  1
  O  O3  1  0.867252  0.040292  0.295822  1
  O  O4  1  0.475515  0.593544  0.824511  1
  O  O5  1  0.524485  0.093544  0.675489  1
  O  O6  1  0.524485  0.406455  0.175490  1
  O  O7  1  0.475515  0.906456  0.324511  1
  O  O8  1  0.672858  0.501840  0.572076  1
  O  O9  1  0.327141  0.001840  0.927923  1
  O  O10  1  0.327141  0.498159  0.427924  1
  O  O11  1  0.672858  0.998159  0.072076  1
  O  O12  1  0.296017  0.357066  0.730351  1
  O  O13  1  0.703983  0.857066  0.769648  1
  O  O14  1  0.703983  0.642934  0.269649  1
  O  O15  1  0.296017  0.142934  0.230351  1
  O  O16  1  0.079052  0.595994  0.616506  1
  O  O17  1  0.920948  0.095995  0.883494  1
  O  O18  1  0.920948  0.404005  0.383494  1
  O  O19  1  0.079052  0.904006  0.116506  1
  O  O20  1  0.574801  0.214105  0.422214  1
  O  O21  1  0.425199  0.714105  0.077786  1
  O  O22  1  0.425199  0.785894  0.577786  1
  O  O23  1  0.574801  0.285894  0.922214  1
  O  O24  1  0.964321  0.233295  0.103943  1
  O  O25  1  0.035679  0.733295  0.396058  1
  O  O26  1  0.199206  0.429986  0.970705  1
  O  O27  1  0.964321  0.266705  0.603942  1
  O  O28  1  0.199206  0.070015  0.470705  1
  O  O29  1  0.800795  0.570015  0.029295  1
  O  O30  1  0.800794  0.929986  0.529295  1
  O  O31  1  0.035679  0.766706  0.896058  1
  Co  Co32  1  0.239615  0.166261  0.641581  1
  Co  Co33  1  0.760385  0.666261  0.858418  1
  Co  Co34  1  0.760385  0.833739  0.358418  1
  Co  Co35  1  0.239615  0.333738  0.141581  1
  Co  Co36  1  0.609665  0.055129  0.874287  1
  Co  Co37  1  0.390335  0.555129  0.625713  1
  Co  Co38  1  0.390335  0.944871  0.125713  1
  Co  Co39  1  0.609665  0.444872  0.374287  1
  Co  Co40  1  0.890431  0.330973  0.945627  1
  Co  Co41  1  0.109569  0.830973  0.554373  1
  Co  Co42  1  0.890431  0.169027  0.445627  1
  Co  Co43  1  0.109569  0.669027  0.054373  1
  As  As44  1  0.393258  0.087130  0.365932  1
  As  As45  1  0.606742  0.587130  0.134069  1
  As  As46  1  0.606742  0.912871  0.634069  1
  As  As47  1  0.393258  0.412870  0.865931  1
  As  As48  1  0.899180  0.045843  0.144501  1
  As  As49  1  0.100820  0.545844  0.355499  1
  As  As50  1  0.100820  0.954157  0.855499  1
  As  As51  1  0.899180  0.454157  0.644501  1
