# generated using pymatgen
data_B9H11N4
_symmetry_space_group_name_H-M   'P 1'
_cell_length_a   6.16227475
_cell_length_b   8.55039575
_cell_length_c   19.77726028
_cell_angle_alpha   95.07959790
_cell_angle_beta   90.00000000
_cell_angle_gamma   90.00000000
_symmetry_Int_Tables_number   1
_chemical_formula_structural   B9H11N4
_chemical_formula_sum   'B36 H44 N16'
_cell_volume   1037.96909170
_cell_formula_units_Z   4
loop_
 _symmetry_equiv_pos_site_id
 _symmetry_equiv_pos_as_xyz
  1  'x, y, z'
loop_
 _atom_site_type_symbol
 _atom_site_label
 _atom_site_symmetry_multiplicity
 _atom_site_fract_x
 _atom_site_fract_y
 _atom_site_fract_z
 _atom_site_occupancy
  H  H0  1  0.786671  0.966696  0.249460  1
  H  H1  1  0.286671  0.033304  0.250540  1
  H  H2  1  0.213329  0.033304  0.750540  1
  H  H3  1  0.713329  0.966696  0.749460  1
  H  H4  1  0.659231  0.166985  0.133248  1
  H  H5  1  0.159231  0.833015  0.366752  1
  H  H6  1  0.340769  0.833015  0.866752  1
  H  H7  1  0.840769  0.166985  0.633248  1
  H  H8  1  0.769655  0.970482  0.999583  1
  H  H9  1  0.269655  0.029518  0.500417  1
  H  H10  1  0.230345  0.029518  0.000417  1
  H  H11  1  0.730345  0.970482  0.499583  1
  H  H12  1  0.524242  0.662573  0.998281  1
  H  H13  1  0.024242  0.337427  0.501719  1
  H  H14  1  0.475758  0.337427  0.001719  1
  H  H15  1  0.975758  0.662573  0.498281  1
  H  H16  1  0.368754  0.610118  0.114786  1
  H  H17  1  0.868754  0.389882  0.385214  1
  H  H18  1  0.631246  0.389882  0.885214  1
  H  H19  1  0.131246  0.610118  0.614786  1
  H  H20  1  0.102434  0.982468  0.122454  1
  H  H21  1  0.602434  0.017532  0.377546  1
  H  H22  1  0.897566  0.017532  0.877546  1
  H  H23  1  0.397566  0.982468  0.622454  1
  H  H24  1  0.024219  0.700192  0.027782  1
  H  H25  1  0.524219  0.299808  0.472218  1
  H  H26  1  0.975781  0.299808  0.972218  1
  H  H27  1  0.475781  0.700192  0.527782  1
  H  H28  1  0.767303  0.457811  0.103445  1
  H  H29  1  0.267303  0.542189  0.396555  1
  H  H30  1  0.232697  0.542189  0.896555  1
  H  H31  1  0.732697  0.457811  0.603445  1
  H  H32  1  0.037375  0.698227  0.195407  1
  H  H33  1  0.537375  0.301773  0.304593  1
  H  H34  1  0.962625  0.301773  0.804593  1
  H  H35  1  0.462625  0.698227  0.695407  1
  H  H36  1  0.560373  0.961016  0.077182  1
  H  H37  1  0.060373  0.038984  0.422818  1
  H  H38  1  0.439627  0.038984  0.922818  1
  H  H39  1  0.939627  0.961016  0.577182  1
  H  H40  1  0.569674  0.962069  0.174300  1
  H  H41  1  0.069674  0.037931  0.325700  1
  H  H42  1  0.430326  0.037931  0.825700  1
  H  H43  1  0.930326  0.962069  0.674300  1
  B  B44  1  0.759177  0.912078  0.192539  1
  B  B45  1  0.259177  0.087922  0.307461  1
  B  B46  1  0.240823  0.087922  0.807461  1
  B  B47  1  0.740823  0.912078  0.692539  1
  B  B48  1  0.696199  0.029873  0.127228  1
  B  B49  1  0.196199  0.970127  0.372772  1
  B  B50  1  0.303801  0.970127  0.872772  1
  B  B51  1  0.803801  0.029873  0.627228  1
  B  B52  1  0.745343  0.912177  0.051548  1
  B  B53  1  0.245343  0.087823  0.448452  1
  B  B54  1  0.254657  0.087823  0.948452  1
  B  B55  1  0.754657  0.912177  0.551548  1
  B  B56  1  0.608655  0.712030  0.049923  1
  B  B57  1  0.108655  0.287970  0.450077  1
  B  B58  1  0.391345  0.287970  0.950077  1
  B  B59  1  0.891345  0.712030  0.549923  1
  B  B60  1  0.622376  0.708843  0.181784  1
  B  B61  1  0.122376  0.291157  0.318216  1
  B  B62  1  0.377624  0.291157  0.818216  1
  B  B63  1  0.877624  0.708843  0.681784  1
  B  B64  1  0.929733  0.918984  0.121199  1
  B  B65  1  0.429733  0.081016  0.378801  1
  B  B66  1  0.070267  0.081016  0.878801  1
  B  B67  1  0.570267  0.918984  0.621199  1
  B  B68  1  0.884926  0.739199  0.067838  1
  B  B69  1  0.384926  0.260801  0.432162  1
  B  B70  1  0.115074  0.260801  0.932162  1
  B  B71  1  0.615074  0.739199  0.567838  1
  B  B72  1  0.745860  0.596327  0.108231  1
  B  B73  1  0.245860  0.403673  0.391769  1
  B  B74  1  0.254140  0.403673  0.891769  1
  B  B75  1  0.754140  0.596327  0.608231  1
  B  B76  1  0.894068  0.738565  0.160039  1
  B  B77  1  0.394068  0.261435  0.339961  1
  B  B78  1  0.105932  0.261435  0.839961  1
  B  B79  1  0.605932  0.738565  0.660039  1
  N  N80  1  0.702076  0.637087  0.348743  1
  N  N81  1  0.202076  0.362913  0.151257  1
  N  N82  1  0.297924  0.362913  0.651257  1
  N  N83  1  0.797924  0.637087  0.848743  1
  N  N84  1  0.627291  0.645315  0.295948  1
  N  N85  1  0.127291  0.354685  0.204052  1
  N  N86  1  0.372709  0.354685  0.704052  1
  N  N87  1  0.872709  0.645315  0.795948  1
  N  N88  1  0.529907  0.647294  0.242179  1
  N  N89  1  0.029907  0.352706  0.257821  1
  N  N90  1  0.470093  0.352706  0.757821  1
  N  N91  1  0.970093  0.647294  0.742179  1
  N  N92  1  0.504936  0.679109  0.116153  1
  N  N93  1  0.004936  0.320891  0.383847  1
  N  N94  1  0.495064  0.320891  0.883847  1
  N  N95  1  0.995064  0.679109  0.616153  1
