# generated using pymatgen
data_CS3N4
_symmetry_space_group_name_H-M   'P 1'
_cell_length_a   5.67658438
_cell_length_b   9.28008686
_cell_length_c   12.55682831
_cell_angle_alpha   90.00000000
_cell_angle_beta   101.59973969
_cell_angle_gamma   90.00000000
_symmetry_Int_Tables_number   1
_chemical_formula_structural   CS3N4
_chemical_formula_sum   'C4 S12 N16'
_cell_volume   647.97358712
_cell_formula_units_Z   4
loop_
 _symmetry_equiv_pos_site_id
 _symmetry_equiv_pos_as_xyz
  1  'x, y, z'
loop_
 _atom_site_type_symbol
 _atom_site_label
 _atom_site_symmetry_multiplicity
 _atom_site_fract_x
 _atom_site_fract_y
 _atom_site_fract_z
 _atom_site_occupancy
  C  C0  1  0.332772  0.170552  0.723637  1
  C  C1  1  0.167228  0.670552  0.776363  1
  C  C2  1  0.667228  0.829448  0.276363  1
  C  C3  1  0.832772  0.329448  0.223637  1
  N  N4  1  0.515139  0.227821  0.716814  1
  N  N5  1  0.984861  0.727821  0.783186  1
  N  N6  1  0.484861  0.772179  0.283186  1
  N  N7  1  0.015139  0.272179  0.216814  1
  N  N8  1  0.130574  0.102546  0.723797  1
  N  N9  1  0.369426  0.602546  0.776203  1
  N  N10  1  0.869426  0.897454  0.276203  1
  N  N11  1  0.630574  0.397454  0.223797  1
  N  N12  1  0.675780  0.149512  0.461268  1
  N  N13  1  0.824220  0.649512  0.038732  1
  N  N14  1  0.324220  0.850488  0.538732  1
  N  N15  1  0.175780  0.350488  0.961268  1
  N  N16  1  0.722859  0.422882  0.439884  1
  N  N17  1  0.777141  0.922882  0.060116  1
  N  N18  1  0.277141  0.577118  0.560116  1
  N  N19  1  0.222859  0.077118  0.939884  1
  S  S20  1  0.343801  0.218522  0.001098  1
  S  S21  1  0.156199  0.718522  0.498902  1
  S  S22  1  0.656199  0.781478  0.998902  1
  S  S23  1  0.843801  0.281478  0.501098  1
  S  S24  1  0.929325  0.325461  0.873390  1
  S  S25  1  0.570675  0.825461  0.626610  1
  S  S26  1  0.070675  0.674539  0.126610  1
  S  S27  1  0.429325  0.174539  0.373390  1
  S  S28  1  0.014346  0.092580  0.829445  1
  S  S29  1  0.485654  0.592580  0.670555  1
  S  S30  1  0.985654  0.907420  0.170555  1
  S  S31  1  0.514346  0.407420  0.329445  1
