# generated using pymatgen
data_Cd(IO3)2
_symmetry_space_group_name_H-M   'P 1'
_cell_length_a   5.70401666
_cell_length_b   5.92478242
_cell_length_c   17.68944333
_cell_angle_alpha   90.00000000
_cell_angle_beta   90.00000000
_cell_angle_gamma   90.00000000
_symmetry_Int_Tables_number   1
_chemical_formula_structural   Cd(IO3)2
_chemical_formula_sum   'Cd4 I8 O24'
_cell_volume   597.81575679
_cell_formula_units_Z   4
loop_
 _symmetry_equiv_pos_site_id
 _symmetry_equiv_pos_as_xyz
  1  'x, y, z'
loop_
 _atom_site_type_symbol
 _atom_site_label
 _atom_site_symmetry_multiplicity
 _atom_site_fract_x
 _atom_site_fract_y
 _atom_site_fract_z
 _atom_site_occupancy
  O  O0  1  0.545711  0.605538  0.516048  1
  O  O1  1  0.045711  0.894462  0.483952  1
  O  O2  1  0.454289  0.105538  0.983952  1
  O  O3  1  0.954289  0.394462  0.016048  1
  O  O4  1  0.609586  0.494009  0.661477  1
  O  O5  1  0.109586  0.005991  0.338523  1
  O  O6  1  0.390414  0.994009  0.838523  1
  O  O7  1  0.890414  0.505991  0.161477  1
  O  O8  1  0.717258  0.183339  0.545909  1
  O  O9  1  0.217258  0.316661  0.454091  1
  O  O10  1  0.282742  0.683339  0.954091  1
  O  O11  1  0.782742  0.816661  0.045909  1
  O  O12  1  0.046220  0.019579  0.162862  1
  O  O13  1  0.546220  0.480421  0.837138  1
  O  O14  1  0.953780  0.519579  0.337138  1
  O  O15  1  0.453780  0.980421  0.662862  1
  O  O16  1  0.361737  0.373568  0.124318  1
  O  O17  1  0.861737  0.126432  0.875682  1
  O  O18  1  0.638263  0.873568  0.375682  1
  O  O19  1  0.138263  0.626432  0.624318  1
  O  O20  1  0.516836  0.033241  0.207481  1
  O  O21  1  0.016836  0.466759  0.792519  1
  O  O22  1  0.483164  0.533241  0.292519  1
  O  O23  1  0.983164  0.966759  0.707481  1
  Cd  Cd24  1  0.708916  0.171705  0.094092  1
  Cd  Cd25  1  0.208916  0.328295  0.905908  1
  Cd  Cd26  1  0.291084  0.671705  0.405908  1
  Cd  Cd27  1  0.791084  0.828295  0.594092  1
  I  I28  1  0.244614  0.784770  0.708289  1
  I  I29  1  0.744614  0.715230  0.291711  1
  I  I30  1  0.755386  0.284770  0.791711  1
  I  I31  1  0.255386  0.215230  0.208289  1
  I  I32  1  0.031386  0.637117  0.077323  1
  I  I33  1  0.531386  0.862883  0.922677  1
  I  I34  1  0.968614  0.137117  0.422677  1
  I  I35  1  0.468614  0.362883  0.577323  1
