# generated using pymatgen
data_FeS
_symmetry_space_group_name_H-M   'P 1'
_cell_length_a   5.66996951
_cell_length_b   6.53666202
_cell_length_c   7.96967973
_cell_angle_alpha   90.97385505
_cell_angle_beta   90.00611146
_cell_angle_gamma   89.98362684
_symmetry_Int_Tables_number   1
_chemical_formula_structural   FeS
_chemical_formula_sum   'Fe12 S12'
_cell_volume   295.33496487
_cell_formula_units_Z   12
loop_
 _symmetry_equiv_pos_site_id
 _symmetry_equiv_pos_as_xyz
  1  'x, y, z'
loop_
 _atom_site_type_symbol
 _atom_site_label
 _atom_site_symmetry_multiplicity
 _atom_site_fract_x
 _atom_site_fract_y
 _atom_site_fract_z
 _atom_site_occupancy
  Fe  Fe0  1  0.227570  0.544066  0.577116  1
  Fe  Fe1  1  0.727483  0.456210  0.922885  1
  Fe  Fe2  1  0.790893  0.824902  0.789849  1
  Fe  Fe3  1  0.772528  0.456214  0.422958  1
  Fe  Fe4  1  0.291105  0.175197  0.710185  1
  Fe  Fe5  1  0.208933  0.175069  0.210200  1
  Fe  Fe6  1  0.295732  0.911109  0.438115  1
  Fe  Fe7  1  0.704342  0.089067  0.561859  1
  Fe  Fe8  1  0.272552  0.543710  0.077057  1
  Fe  Fe9  1  0.204104  0.910942  0.938026  1
  Fe  Fe10  1  0.708897  0.824804  0.289749  1
  Fe  Fe11  1  0.796026  0.089173  0.061981  1
  S  S12  1  0.911243  0.753991  0.525086  1
  S  S13  1  0.927107  0.406668  0.161267  1
  S  S14  1  0.431242  0.869513  0.690784  1
  S  S15  1  0.411517  0.245805  0.974968  1
  S  S16  1  0.572873  0.406607  0.661282  1
  S  S17  1  0.588529  0.754056  0.025024  1
  S  S18  1  0.068522  0.869540  0.190685  1
  S  S19  1  0.427216  0.593351  0.338706  1
  S  S20  1  0.568545  0.130308  0.309168  1
  S  S21  1  0.931561  0.130335  0.809333  1
  S  S22  1  0.072825  0.593366  0.838742  1
  S  S23  1  0.088654  0.245996  0.474973  1
