# generated using pymatgen
data_ZnH2SeO4
_symmetry_space_group_name_H-M   'P 1'
_cell_length_a   4.85865436
_cell_length_b   5.77585219
_cell_length_c   13.80636564
_cell_angle_alpha   90.00000000
_cell_angle_beta   90.00000000
_cell_angle_gamma   93.07840019
_symmetry_Int_Tables_number   1
_chemical_formula_structural   ZnH2SeO4
_chemical_formula_sum   'Zn4 H8 Se4 O16'
_cell_volume   386.88714565
_cell_formula_units_Z   4
loop_
 _symmetry_equiv_pos_site_id
 _symmetry_equiv_pos_as_xyz
  1  'x, y, z'
loop_
 _atom_site_type_symbol
 _atom_site_label
 _atom_site_symmetry_multiplicity
 _atom_site_fract_x
 _atom_site_fract_y
 _atom_site_fract_z
 _atom_site_occupancy
  H  H0  1  0.175407  0.963330  0.881653  1
  H  H1  1  0.324593  0.536670  0.381653  1
  H  H2  1  0.824593  0.036670  0.118347  1
  H  H3  1  0.675407  0.463330  0.618347  1
  H  H4  1  0.266043  0.228661  0.867977  1
  H  H5  1  0.233957  0.271339  0.367977  1
  H  H6  1  0.733957  0.771339  0.132023  1
  H  H7  1  0.766043  0.728661  0.632023  1
  O  O8  1  0.089221  0.335164  0.680842  1
  O  O9  1  0.410779  0.164836  0.180842  1
  O  O10  1  0.910779  0.664836  0.319158  1
  O  O11  1  0.589221  0.835164  0.819158  1
  O  O12  1  0.578939  0.386366  0.826705  1
  O  O13  1  0.921061  0.113634  0.326705  1
  O  O14  1  0.421061  0.613634  0.173295  1
  O  O15  1  0.078939  0.886366  0.673295  1
  O  O16  1  0.068469  0.631394  0.863229  1
  O  O17  1  0.431531  0.868606  0.363229  1
  O  O18  1  0.931531  0.368606  0.136771  1
  O  O19  1  0.568469  0.131394  0.636771  1
  O  O20  1  0.605132  0.620615  0.617423  1
  O  O21  1  0.894868  0.879385  0.117423  1
  O  O22  1  0.394868  0.379385  0.382577  1
  O  O23  1  0.105132  0.120615  0.882577  1
  Zn  Zn24  1  0.306220  0.627197  0.731138  1
  Zn  Zn25  1  0.193780  0.872803  0.231138  1
  Zn  Zn26  1  0.693780  0.372803  0.268862  1
  Zn  Zn27  1  0.806220  0.127197  0.768862  1
  Se  Se28  1  0.228800  0.120547  0.607121  1
  Se  Se29  1  0.271200  0.379453  0.107121  1
  Se  Se30  1  0.771200  0.879453  0.392879  1
  Se  Se31  1  0.728800  0.620547  0.892879  1
