# generated using pymatgen
data_FeCu2(CN)6
_symmetry_space_group_name_H-M   'P 1'
_cell_length_a   7.20313176
_cell_length_b   7.20313176
_cell_length_c   7.20313175
_cell_angle_alpha   59.99999998
_cell_angle_beta   60.00000000
_cell_angle_gamma   59.99999999
_symmetry_Int_Tables_number   1
_chemical_formula_structural   FeCu2(CN)6
_chemical_formula_sum   'Fe1 Cu2 C6 N6'
_cell_volume   264.27073839
_cell_formula_units_Z   1
loop_
 _symmetry_equiv_pos_site_id
 _symmetry_equiv_pos_as_xyz
  1  'x, y, z'
loop_
 _atom_site_type_symbol
 _atom_site_label
 _atom_site_symmetry_multiplicity
 _atom_site_fract_x
 _atom_site_fract_y
 _atom_site_fract_z
 _atom_site_occupancy
  C  C0  1  0.184821  0.815179  0.184821  1
  C  C1  1  0.815179  0.184821  0.815179  1
  C  C2  1  0.184821  0.815179  0.815179  1
  C  C3  1  0.815179  0.184821  0.184821  1
  C  C4  1  0.184821  0.184821  0.815179  1
  C  C5  1  0.815179  0.815179  0.184821  1
  N  N6  1  0.300099  0.699901  0.699901  1
  N  N7  1  0.699901  0.300099  0.699901  1
  N  N8  1  0.300099  0.699901  0.300099  1
  N  N9  1  0.699901  0.300099  0.300099  1
  N  N10  1  0.300099  0.300099  0.699901  1
  N  N11  1  0.699901  0.699901  0.300099  1
  Fe  Fe12  1  0.000000  0.000000  0.000000  1
  Cu  Cu13  1  0.250000  0.250000  0.250000  1
  Cu  Cu14  1  0.500000  0.500000  0.500000  1
