# generated using pymatgen
data_NaH4BrO2
_symmetry_space_group_name_H-M   'P 1'
_cell_length_a   6.64369744
_cell_length_b   6.80048999
_cell_length_c   10.47120274
_cell_angle_alpha   90.00000000
_cell_angle_beta   90.00000000
_cell_angle_gamma   113.44597269
_symmetry_Int_Tables_number   1
_chemical_formula_structural   NaH4BrO2
_chemical_formula_sum   'Na4 H16 Br4 O8'
_cell_volume   434.03249088
_cell_formula_units_Z   4
loop_
 _symmetry_equiv_pos_site_id
 _symmetry_equiv_pos_as_xyz
  1  'x, y, z'
loop_
 _atom_site_type_symbol
 _atom_site_label
 _atom_site_symmetry_multiplicity
 _atom_site_fract_x
 _atom_site_fract_y
 _atom_site_fract_z
 _atom_site_occupancy
  H  H0  1  0.765190  0.134836  0.962519  1
  H  H1  1  0.234810  0.365164  0.462519  1
  H  H2  1  0.234810  0.865164  0.037481  1
  H  H3  1  0.765190  0.634836  0.537481  1
  H  H4  1  0.635170  0.265014  0.015752  1
  H  H5  1  0.364830  0.234986  0.515752  1
  H  H6  1  0.364830  0.734986  0.984248  1
  H  H7  1  0.635170  0.765014  0.484248  1
  H  H8  1  0.358494  0.415437  0.789613  1
  H  H9  1  0.641505  0.084563  0.289613  1
  H  H10  1  0.641505  0.584563  0.210387  1
  H  H11  1  0.358494  0.915437  0.710387  1
  H  H12  1  0.225431  0.777150  0.597888  1
  H  H13  1  0.774569  0.722850  0.097888  1
  H  H14  1  0.774569  0.222850  0.402112  1
  H  H15  1  0.225431  0.277150  0.902112  1
  O  O16  1  0.216627  0.719702  0.010730  1
  O  O17  1  0.791534  0.177909  0.314184  1
  O  O18  1  0.791534  0.677909  0.185816  1
  O  O19  1  0.208466  0.822091  0.685816  1
  O  O20  1  0.783373  0.780298  0.510730  1
  O  O21  1  0.783373  0.280298  0.989270  1
  O  O22  1  0.216627  0.219702  0.489270  1
  O  O23  1  0.208466  0.322091  0.814184  1
  Na  Na24  1  0.986858  0.043271  0.667723  1
  Na  Na25  1  0.013142  0.956729  0.332277  1
  Na  Na26  1  0.013142  0.456729  0.167723  1
  Na  Na27  1  0.986858  0.543271  0.832277  1
  Br  Br28  1  0.700741  0.789816  0.885386  1
  Br  Br29  1  0.299259  0.710184  0.385386  1
  Br  Br30  1  0.299259  0.210184  0.114614  1
  Br  Br31  1  0.700741  0.289816  0.614614  1
