# generated using pymatgen
data_Na3NbO4
_symmetry_space_group_name_H-M   'P 1'
_cell_length_a   5.82800621
_cell_length_b   8.68343099
_cell_length_c   8.68343099
_cell_angle_alpha   98.79225485
_cell_angle_beta   102.55370356
_cell_angle_gamma   102.55370358
_symmetry_Int_Tables_number   1
_chemical_formula_structural   Na3NbO4
_chemical_formula_sum   'Na12 Nb4 O16'
_cell_volume   409.34496714
_cell_formula_units_Z   4
loop_
 _symmetry_equiv_pos_site_id
 _symmetry_equiv_pos_as_xyz
  1  'x, y, z'
loop_
 _atom_site_type_symbol
 _atom_site_label
 _atom_site_symmetry_multiplicity
 _atom_site_fract_x
 _atom_site_fract_y
 _atom_site_fract_z
 _atom_site_occupancy
  O  O0  1  0.234089  0.246187  0.463095  1
  O  O1  1  0.765912  0.536906  0.753813  1
  O  O2  1  0.765913  0.753814  0.536906  1
  O  O3  1  0.234088  0.463095  0.246186  1
  O  O4  1  0.189949  0.991122  0.767750  1
  O  O5  1  0.810052  0.232249  0.008877  1
  O  O6  1  0.810051  0.008877  0.232250  1
  O  O7  1  0.189949  0.767750  0.991123  1
  O  O8  1  0.206419  0.654912  0.654912  1
  O  O9  1  0.793580  0.345089  0.345089  1
  O  O10  1  0.772471  0.125172  0.667016  1
  O  O11  1  0.227530  0.332984  0.874828  1
  O  O12  1  0.227528  0.874828  0.332983  1
  O  O13  1  0.772472  0.667017  0.125172  1
  O  O14  1  0.198586  0.112241  0.112241  1
  O  O15  1  0.801414  0.887759  0.887759  1
  Na  Na16  1  0.500000  0.500000  0.500000  1
  Na  Na17  1  0.500001  0.259685  0.740316  1
  Na  Na18  1  0.500001  0.740316  0.259685  1
  Na  Na19  1  0.500000  0.000001  0.000000  1
  Na  Na20  1  0.479357  0.880891  0.628131  1
  Na  Na21  1  0.520643  0.371870  0.119110  1
  Na  Na22  1  0.520643  0.119109  0.371870  1
  Na  Na23  1  0.479357  0.628131  0.880891  1
  Na  Na24  1  0.000000  0.623779  0.376221  1
  Na  Na25  1  0.000000  0.500000  1.000000  1
  Na  Na26  1  1.000000  0.376221  0.623778  1
  Na  Na27  1  1.000000  0.000000  0.500000  1
  Nb  Nb28  1  0.030231  0.260370  0.260370  1
  Nb  Nb29  1  0.969768  0.739631  0.739630  1
  Nb  Nb30  1  1.000000  0.133176  0.866825  1
  Nb  Nb31  1  0.000001  0.866825  0.133175  1
