# generated using pymatgen
data_Li10B14Cl2O25
_symmetry_space_group_name_H-M   'P 1'
_cell_length_a   8.65258225
_cell_length_b   8.65258236
_cell_length_c   8.65258222
_cell_angle_alpha   60.00000055
_cell_angle_beta   60.00000013
_cell_angle_gamma   59.99999825
_symmetry_Int_Tables_number   1
_chemical_formula_structural   Li10B14Cl2O25
_chemical_formula_sum   'Li10 B14 Cl2 O25'
_cell_volume   458.05983469
_cell_formula_units_Z   1
loop_
 _symmetry_equiv_pos_site_id
 _symmetry_equiv_pos_as_xyz
  1  'x, y, z'
loop_
 _atom_site_type_symbol
 _atom_site_label
 _atom_site_symmetry_multiplicity
 _atom_site_fract_x
 _atom_site_fract_y
 _atom_site_fract_z
 _atom_site_occupancy
  Li  Li0  1  0.864930  0.405209  0.864930  1
  Li  Li1  1  0.405209  0.864930  0.864930  1
  Li  Li2  1  0.864930  0.864930  0.864930  1
  Li  Li3  1  0.864930  0.864930  0.405209  1
  Li  Li4  1  0.043256  0.043256  0.456744  1
  Li  Li5  1  0.456744  0.043256  0.456744  1
  Li  Li6  1  0.043256  0.456744  0.456744  1
  Li  Li7  1  0.043256  0.456744  0.043256  1
  Li  Li8  1  0.456744  0.043256  0.043256  1
  Li  Li9  1  0.456744  0.456744  0.043256  1
  B  B10  1  0.749431  0.250569  0.749431  1
  B  B11  1  0.250569  0.749431  0.749431  1
  B  B12  1  0.600849  0.600849  0.197454  1
  B  B13  1  0.250569  0.250569  0.749431  1
  B  B14  1  0.600849  0.600849  0.600849  1
  B  B15  1  0.600849  0.197454  0.600849  1
  B  B16  1  0.749431  0.749431  0.250569  1
  B  B17  1  0.197454  0.600849  0.600849  1
  B  B18  1  0.080941  0.080941  0.757177  1
  B  B19  1  0.080941  0.757177  0.080941  1
  B  B20  1  0.749431  0.250569  0.250569  1
  B  B21  1  0.757177  0.080941  0.080941  1
  B  B22  1  0.250569  0.749431  0.250569  1
  B  B23  1  0.080941  0.080941  0.080941  1
  Cl  Cl24  1  0.750000  0.750000  0.750000  1
  Cl  Cl25  1  0.250000  0.250000  0.250000  1
  O  O26  1  0.438781  0.607044  0.758433  1
  O  O27  1  0.257742  0.936413  0.703598  1
  O  O28  1  0.257742  0.102248  0.936413  1
  O  O29  1  0.703598  0.936413  0.102248  1
  O  O30  1  0.102248  0.257742  0.703598  1
  O  O31  1  0.607044  0.438781  0.195742  1
  O  O32  1  0.936413  0.102248  0.703598  1
  O  O33  1  0.703598  0.102248  0.257742  1
  O  O34  1  0.758433  0.195742  0.438781  1
  O  O35  1  0.758433  0.607044  0.195742  1
  O  O36  1  0.257742  0.703598  0.102248  1
  O  O37  1  0.195742  0.438781  0.758433  1
  O  O38  1  0.195742  0.607044  0.438781  1
  O  O39  1  0.195742  0.758433  0.607044  1
  O  O40  1  0.438781  0.758433  0.195742  1
  O  O41  1  0.758433  0.438781  0.607044  1
  O  O42  1  0.607044  0.758433  0.438781  1
  O  O43  1  0.936413  0.257742  0.102248  1
  O  O44  1  0.102248  0.936413  0.257742  1
  O  O45  1  0.438781  0.195742  0.607044  1
  O  O46  1  0.703598  0.257742  0.936413  1
  O  O47  1  0.936413  0.703598  0.257742  1
  O  O48  1  0.607044  0.195742  0.758433  1
  O  O49  1  0.000000  0.000000  0.000000  1
  O  O50  1  0.102248  0.703598  0.936413  1
