# generated using pymatgen
data_Sc2P3(HO3)3
_symmetry_space_group_name_H-M   'P 1'
_cell_length_a   8.43540140
_cell_length_b   8.43540140
_cell_length_c   7.80501016
_cell_angle_alpha   90.00000000
_cell_angle_beta   90.00000000
_cell_angle_gamma   119.99999998
_symmetry_Int_Tables_number   1
_chemical_formula_structural   Sc2P3(HO3)3
_chemical_formula_sum   'Sc4 P6 H6 O18'
_cell_volume   480.96736726
_cell_formula_units_Z   2
loop_
 _symmetry_equiv_pos_site_id
 _symmetry_equiv_pos_as_xyz
  1  'x, y, z'
loop_
 _atom_site_type_symbol
 _atom_site_label
 _atom_site_symmetry_multiplicity
 _atom_site_fract_x
 _atom_site_fract_y
 _atom_site_fract_z
 _atom_site_occupancy
  H  H0  1  0.830507  0.004834  0.750000  1
  H  H1  1  0.995166  0.825673  0.750000  1
  H  H2  1  0.169493  0.995166  0.250000  1
  H  H3  1  0.825673  0.830507  0.250000  1
  H  H4  1  0.174327  0.169493  0.750000  1
  H  H5  1  0.004834  0.174327  0.250000  1
  O  O6  1  0.439601  0.152006  0.414235  1
  O  O7  1  0.287595  0.439601  0.914235  1
  O  O8  1  0.152006  0.712405  0.914235  1
  O  O9  1  0.847994  0.287595  0.414235  1
  O  O10  1  0.139234  0.498025  0.250000  1
  O  O11  1  0.860766  0.501975  0.750000  1
  O  O12  1  0.641209  0.139234  0.750000  1
  O  O13  1  0.498025  0.358791  0.750000  1
  O  O14  1  0.501975  0.641209  0.250000  1
  O  O15  1  0.358791  0.860766  0.250000  1
  O  O16  1  0.439601  0.152006  0.085765  1
  O  O17  1  0.287595  0.439601  0.585765  1
  O  O18  1  0.152006  0.712405  0.585765  1
  O  O19  1  0.847994  0.287595  0.085765  1
  O  O20  1  0.712405  0.560399  0.085765  1
  O  O21  1  0.560399  0.847994  0.585765  1
  O  O22  1  0.560399  0.847994  0.914235  1
  O  O23  1  0.712405  0.560399  0.414235  1
  P  P24  1  0.644882  0.956869  0.750000  1
  P  P25  1  0.688013  0.644882  0.250000  1
  P  P26  1  0.956869  0.311987  0.250000  1
  P  P27  1  0.043131  0.688013  0.750000  1
  P  P28  1  0.311987  0.355118  0.750000  1
  P  P29  1  0.355118  0.043131  0.250000  1
  Sc  Sc30  1  0.333333  0.666667  0.454488  1
  Sc  Sc31  1  0.666667  0.333333  0.954488  1
  Sc  Sc32  1  0.666667  0.333333  0.545512  1
  Sc  Sc33  1  0.333333  0.666667  0.045512  1
