# generated using pymatgen
data_Ta11(CoSe4)2
_symmetry_space_group_name_H-M   'P 1'
_cell_length_a   3.43777828
_cell_length_b   12.19471261
_cell_length_c   19.64119457
_cell_angle_alpha   90.00000000
_cell_angle_beta   90.00000000
_cell_angle_gamma   90.00000000
_symmetry_Int_Tables_number   1
_chemical_formula_structural   Ta11(CoSe4)2
_chemical_formula_sum   'Ta22 Co4 Se16'
_cell_volume   823.41226392
_cell_formula_units_Z   2
loop_
 _symmetry_equiv_pos_site_id
 _symmetry_equiv_pos_as_xyz
  1  'x, y, z'
loop_
 _atom_site_type_symbol
 _atom_site_label
 _atom_site_symmetry_multiplicity
 _atom_site_fract_x
 _atom_site_fract_y
 _atom_site_fract_z
 _atom_site_occupancy
  Co  Co0  1  0.000000  0.093421  0.871583  1
  Co  Co1  1  0.000000  0.906579  0.128417  1
  Co  Co2  1  0.500000  0.593421  0.628417  1
  Co  Co3  1  0.500000  0.406579  0.371583  1
  Se  Se4  1  0.500000  0.295607  0.554756  1
  Se  Se5  1  0.500000  0.704393  0.445244  1
  Se  Se6  1  0.000000  0.795607  0.945244  1
  Se  Se7  1  0.000000  0.204393  0.054756  1
  Se  Se8  1  0.500000  0.040323  0.674384  1
  Se  Se9  1  0.500000  0.959677  0.325616  1
  Se  Se10  1  0.000000  0.540323  0.825616  1
  Se  Se11  1  0.000000  0.459677  0.174384  1
  Se  Se12  1  0.500000  0.390053  0.945740  1
  Se  Se13  1  0.500000  0.609947  0.054260  1
  Se  Se14  1  0.000000  0.890053  0.554260  1
  Se  Se15  1  0.000000  0.109947  0.445740  1
  Se  Se16  1  0.000000  0.283723  0.714299  1
  Se  Se17  1  0.000000  0.716277  0.285701  1
  Se  Se18  1  0.500000  0.783723  0.785701  1
  Se  Se19  1  0.500000  0.216277  0.214299  1
  Ta  Ta20  1  0.500000  0.820052  0.053388  1
  Ta  Ta21  1  0.500000  0.179948  0.946612  1
  Ta  Ta22  1  0.000000  0.679948  0.553388  1
  Ta  Ta23  1  0.000000  0.320052  0.446612  1
  Ta  Ta24  1  0.500000  0.446143  0.742285  1
  Ta  Ta25  1  0.500000  0.553857  0.257715  1
  Ta  Ta26  1  0.000000  0.946143  0.757715  1
  Ta  Ta27  1  0.000000  0.053857  0.242285  1
  Ta  Ta28  1  0.500000  0.060706  0.115792  1
  Ta  Ta29  1  0.500000  0.939294  0.884208  1
  Ta  Ta30  1  0.000000  0.560706  0.384208  1
  Ta  Ta31  1  0.000000  0.439294  0.615792  1
  Ta  Ta32  1  0.500000  0.174036  0.353176  1
  Ta  Ta33  1  0.500000  0.825964  0.646824  1
  Ta  Ta34  1  0.000000  0.674036  0.146824  1
  Ta  Ta35  1  0.000000  0.325964  0.853176  1
  Ta  Ta36  1  0.500000  0.152595  0.788409  1
  Ta  Ta37  1  0.500000  0.847405  0.211591  1
  Ta  Ta38  1  0.000000  0.652595  0.711591  1
  Ta  Ta39  1  0.000000  0.347405  0.288409  1
  Ta  Ta40  1  0.500000  0.500000  0.500000  1
  Ta  Ta41  1  0.000000  0.000000  0.000000  1
