# generated using pymatgen
data_K2NaAlH6
_symmetry_space_group_name_H-M   'P 1'
_cell_length_a   5.75298027
_cell_length_b   5.75583106
_cell_length_c   8.10444927
_cell_angle_alpha   90.00000000
_cell_angle_beta   90.00471755
_cell_angle_gamma   90.00000000
_symmetry_Int_Tables_number   1
_chemical_formula_structural   K2NaAlH6
_chemical_formula_sum   'K4 Na2 Al2 H12'
_cell_volume   268.36410697
_cell_formula_units_Z   2
loop_
 _symmetry_equiv_pos_site_id
 _symmetry_equiv_pos_as_xyz
  1  'x, y, z'
loop_
 _atom_site_type_symbol
 _atom_site_label
 _atom_site_symmetry_multiplicity
 _atom_site_fract_x
 _atom_site_fract_y
 _atom_site_fract_z
 _atom_site_occupancy
  H  H0  1  0.713925  0.722721  0.500013  1
  H  H1  1  0.786075  0.222721  0.999987  1
  H  H2  1  0.286075  0.277279  0.499987  1
  H  H3  1  0.213925  0.777279  0.000013  1
  H  H4  1  0.777040  0.786303  0.999988  1
  H  H5  1  0.722960  0.286303  0.500012  1
  H  H6  1  0.222960  0.213697  0.000012  1
  H  H7  1  0.277040  0.713697  0.499988  1
  H  H8  1  0.999977  1.000000  0.780734  1
  H  H9  1  0.500023  0.500000  0.719266  1
  H  H10  1  0.000023  0.000000  0.219266  1
  H  H11  1  0.499977  0.500000  0.280734  1
  Na  Na12  1  0.000000  0.000000  0.500000  1
  Na  Na13  1  0.500000  0.500000  0.000000  1
  Al  Al14  1  0.000000  0.000000  0.000000  1
  Al  Al15  1  0.500000  0.500000  0.500000  1
  K  K16  1  0.499996  0.000002  0.249978  1
  K  K17  1  0.000004  0.500002  0.250022  1
  K  K18  1  0.500004  0.999998  0.750022  1
  K  K19  1  0.999996  0.499998  0.749978  1
