# generated using pymatgen
data_Na8Ga2O7
_symmetry_space_group_name_H-M   'P 1'
_cell_length_a   8.73675902
_cell_length_b   10.15465890
_cell_length_c   11.10286664
_cell_angle_alpha   90.00000000
_cell_angle_beta   90.00000000
_cell_angle_gamma   107.61605451
_symmetry_Int_Tables_number   1
_chemical_formula_structural   Na8Ga2O7
_chemical_formula_sum   'Na32 Ga8 O28'
_cell_volume   938.84085537
_cell_formula_units_Z   4
loop_
 _symmetry_equiv_pos_site_id
 _symmetry_equiv_pos_as_xyz
  1  'x, y, z'
loop_
 _atom_site_type_symbol
 _atom_site_label
 _atom_site_symmetry_multiplicity
 _atom_site_fract_x
 _atom_site_fract_y
 _atom_site_fract_z
 _atom_site_occupancy
  O  O0  1  0.674336  0.299303  0.382492  1
  O  O1  1  0.104024  0.622431  0.110492  1
  O  O2  1  0.895976  0.877569  0.610492  1
  O  O3  1  0.895976  0.377569  0.889508  1
  O  O4  1  0.104024  0.122431  0.389508  1
  O  O5  1  0.671497  0.496925  0.116361  1
  O  O6  1  0.328503  0.003075  0.616361  1
  O  O7  1  0.893435  0.568051  0.609586  1
  O  O8  1  0.895895  0.217045  0.204986  1
  O  O9  1  0.104105  0.282955  0.704986  1
  O  O10  1  0.104105  0.782955  0.795014  1
  O  O11  1  0.895895  0.717045  0.295014  1
  O  O12  1  0.544932  0.107164  0.152850  1
  O  O13  1  0.455068  0.392836  0.652850  1
  O  O14  1  0.455068  0.892836  0.847150  1
  O  O15  1  0.544932  0.607164  0.347150  1
  O  O16  1  0.325664  0.200697  0.882492  1
  O  O17  1  0.671497  0.996925  0.383639  1
  O  O18  1  0.674336  0.799303  0.117508  1
  O  O19  1  0.325664  0.700697  0.617508  1
  O  O20  1  0.752875  0.184255  0.675719  1
  O  O21  1  0.247125  0.315745  0.175719  1
  O  O22  1  0.247125  0.815745  0.324281  1
  O  O23  1  0.752875  0.684255  0.824281  1
  O  O24  1  0.893435  0.068051  0.890414  1
  O  O25  1  0.106565  0.431949  0.390414  1
  O  O26  1  0.106565  0.931949  0.109586  1
  O  O27  1  0.328503  0.503075  0.883639  1
  Na  Na28  1  0.501271  0.628025  0.731665  1
  Na  Na29  1  0.341564  0.018731  0.996024  1
  Na  Na30  1  0.658436  0.481269  0.496024  1
  Na  Na31  1  0.658436  0.981269  0.003976  1
  Na  Na32  1  0.341564  0.518731  0.503976  1
  Na  Na33  1  0.880013  0.075671  0.524671  1
  Na  Na34  1  0.119987  0.424329  0.024671  1
  Na  Na35  1  0.119987  0.924329  0.475329  1
  Na  Na36  1  0.107406  0.032916  0.760370  1
  Na  Na37  1  0.892594  0.467084  0.260370  1
  Na  Na38  1  0.892594  0.967084  0.239630  1
  Na  Na39  1  0.107406  0.532916  0.739630  1
  Na  Na40  1  0.255129  0.212134  0.554686  1
  Na  Na41  1  0.744871  0.287866  0.054686  1
  Na  Na42  1  0.744871  0.787866  0.445314  1
  Na  Na43  1  0.255129  0.712134  0.945314  1
  Na  Na44  1  0.084641  0.142977  0.039217  1
  Na  Na45  1  0.915359  0.357023  0.539217  1
  Na  Na46  1  0.915359  0.857023  0.960783  1
  Na  Na47  1  0.084641  0.642977  0.460783  1
  Na  Na48  1  0.568797  0.143761  0.529569  1
  Na  Na49  1  0.431203  0.356239  0.029569  1
  Na  Na50  1  0.431203  0.856239  0.470431  1
  Na  Na51  1  0.568797  0.643761  0.970431  1
  Na  Na52  1  0.285686  0.069932  0.249924  1
  Na  Na53  1  0.714314  0.430068  0.749924  1
  Na  Na54  1  0.714314  0.930068  0.750076  1
  Na  Na55  1  0.285686  0.569932  0.250076  1
  Na  Na56  1  0.501271  0.128025  0.768335  1
  Na  Na57  1  0.498729  0.371975  0.268335  1
  Na  Na58  1  0.498729  0.871975  0.231665  1
  Na  Na59  1  0.880013  0.575671  0.975329  1
  Ga  Ga60  1  0.309304  0.846539  0.714472  1
  Ga  Ga61  1  0.690696  0.653461  0.214472  1
  Ga  Ga62  1  0.690696  0.153461  0.285528  1
  Ga  Ga63  1  0.309304  0.346539  0.785528  1
  Ga  Ga64  1  0.906924  0.726119  0.701479  1
  Ga  Ga65  1  0.093076  0.773881  0.201479  1
  Ga  Ga66  1  0.093076  0.273881  0.298521  1
  Ga  Ga67  1  0.906924  0.226119  0.798521  1
