# generated using pymatgen
data_As2S2O9
_symmetry_space_group_name_H-M   'P 1'
_cell_length_a   6.85349900
_cell_length_b   6.76092540
_cell_length_c   17.51473315
_cell_angle_alpha   90.00000000
_cell_angle_beta   95.95279674
_cell_angle_gamma   90.00000000
_symmetry_Int_Tables_number   1
_chemical_formula_structural   As2S2O9
_chemical_formula_sum   'As8 S8 O36'
_cell_volume   807.18638575
_cell_formula_units_Z   4
loop_
 _symmetry_equiv_pos_site_id
 _symmetry_equiv_pos_as_xyz
  1  'x, y, z'
loop_
 _atom_site_type_symbol
 _atom_site_label
 _atom_site_symmetry_multiplicity
 _atom_site_fract_x
 _atom_site_fract_y
 _atom_site_fract_z
 _atom_site_occupancy
  As  As0  1  0.296779  0.260581  0.038526  1
  As  As1  1  0.703221  0.739419  0.961474  1
  As  As2  1  0.296779  0.239419  0.538526  1
  As  As3  1  0.703221  0.760581  0.461474  1
  As  As4  1  0.814675  0.885278  0.796445  1
  As  As5  1  0.185325  0.114722  0.203555  1
  As  As6  1  0.814675  0.614722  0.296445  1
  As  As7  1  0.185325  0.385278  0.703555  1
  S  S8  1  0.720760  0.427047  0.824074  1
  S  S9  1  0.279240  0.927047  0.675926  1
  S  S10  1  0.149539  0.722745  0.430704  1
  S  S11  1  0.149539  0.777255  0.930704  1
  S  S12  1  0.850461  0.222745  0.069296  1
  S  S13  1  0.720760  0.072953  0.324074  1
  S  S14  1  0.850461  0.277255  0.569296  1
  S  S15  1  0.279240  0.572953  0.175926  1
  O  O16  1  0.787695  0.079789  0.585970  1
  O  O17  1  0.477095  0.607492  0.209824  1
  O  O18  1  0.977621  0.768939  0.982958  1
  O  O19  1  0.297819  0.593685  0.469159  1
  O  O20  1  0.331158  0.114579  0.124179  1
  O  O21  1  0.787695  0.420211  0.085970  1
  O  O22  1  0.297819  0.906315  0.969159  1
  O  O23  1  0.716508  0.488863  0.909478  1
  O  O24  1  0.933874  0.384257  0.643906  1
  O  O25  1  0.022379  0.268939  0.517042  1
  O  O26  1  0.142534  0.736441  0.177568  1
  O  O27  1  0.185394  0.397853  0.216487  1
  O  O28  1  0.331158  0.385421  0.624179  1
  O  O29  1  0.522905  0.107492  0.290176  1
  O  O30  1  0.066126  0.615743  0.356094  1
  O  O31  1  0.212305  0.920211  0.414030  1
  O  O32  1  0.716508  0.011137  0.409478  1
  O  O33  1  0.212305  0.579789  0.914030  1
  O  O34  1  0.857466  0.263559  0.822432  1
  O  O35  1  0.857466  0.236441  0.322432  1
  O  O36  1  0.477095  0.892508  0.709824  1
  O  O37  1  0.668842  0.614579  0.375821  1
  O  O38  1  0.933874  0.115743  0.143906  1
  O  O39  1  0.066126  0.884257  0.856094  1
  O  O40  1  0.283492  0.988863  0.590522  1
  O  O41  1  0.142534  0.763559  0.677568  1
  O  O42  1  0.022379  0.231061  0.017042  1
  O  O43  1  0.283492  0.511137  0.090522  1
  O  O44  1  0.977621  0.731061  0.482958  1
  O  O45  1  0.522905  0.392508  0.790176  1
  O  O46  1  0.814606  0.897853  0.283513  1
  O  O47  1  0.185394  0.102147  0.716487  1
  O  O48  1  0.702181  0.093685  0.030841  1
  O  O49  1  0.702181  0.406315  0.530841  1
  O  O50  1  0.814606  0.602147  0.783513  1
  O  O51  1  0.668842  0.885421  0.875821  1
