# generated using pymatgen
data_CsCrBr3
_symmetry_space_group_name_H-M   'P 1'
_cell_length_a   7.75990719
_cell_length_b   7.75990719
_cell_length_c   6.49263879
_cell_angle_alpha   90.00000000
_cell_angle_beta   90.00000000
_cell_angle_gamma   119.99999996
_symmetry_Int_Tables_number   1
_chemical_formula_structural   CsCrBr3
_chemical_formula_sum   'Cs2 Cr2 Br6'
_cell_volume   338.58282796
_cell_formula_units_Z   2
loop_
 _symmetry_equiv_pos_site_id
 _symmetry_equiv_pos_as_xyz
  1  'x, y, z'
loop_
 _atom_site_type_symbol
 _atom_site_label
 _atom_site_symmetry_multiplicity
 _atom_site_fract_x
 _atom_site_fract_y
 _atom_site_fract_z
 _atom_site_occupancy
  Cr  Cr0  1  0.000000  0.000000  0.513926  1
  Cr  Cr1  1  0.000000  0.000000  0.013926  1
  Br  Br2  1  0.684911  0.842455  0.263367  1
  Br  Br3  1  0.842455  0.157545  0.763367  1
  Br  Br4  1  0.157545  0.842455  0.263367  1
  Br  Br5  1  0.315089  0.157545  0.763367  1
  Br  Br6  1  0.842455  0.684911  0.763367  1
  Br  Br7  1  0.157545  0.315089  0.263367  1
  Cs  Cs8  1  0.666667  0.333333  0.255874  1
  Cs  Cs9  1  0.333333  0.666667  0.755874  1
