# generated using pymatgen
data_TbSiRu
_symmetry_space_group_name_H-M   'P 1'
_cell_length_a   4.36628714
_cell_length_b   7.03832641
_cell_length_c   7.09106469
_cell_angle_alpha   90.00000000
_cell_angle_beta   90.00000000
_cell_angle_gamma   90.00000000
_symmetry_Int_Tables_number   1
_chemical_formula_structural   TbSiRu
_chemical_formula_sum   'Tb4 Si4 Ru4'
_cell_volume   217.91801987
_cell_formula_units_Z   4
loop_
 _symmetry_equiv_pos_site_id
 _symmetry_equiv_pos_as_xyz
  1  'x, y, z'
loop_
 _atom_site_type_symbol
 _atom_site_label
 _atom_site_symmetry_multiplicity
 _atom_site_fract_x
 _atom_site_fract_y
 _atom_site_fract_z
 _atom_site_occupancy
  Si  Si0  1  0.250000  0.304982  0.893686  1
  Si  Si1  1  0.750000  0.695018  0.106314  1
  Si  Si2  1  0.250000  0.804982  0.606314  1
  Si  Si3  1  0.750000  0.195018  0.393686  1
  Ru  Ru4  1  0.750000  0.848334  0.432053  1
  Ru  Ru5  1  0.250000  0.151666  0.567947  1
  Ru  Ru6  1  0.750000  0.348334  0.067947  1
  Ru  Ru7  1  0.250000  0.651666  0.932053  1
  Tb  Tb8  1  0.250000  0.984605  0.185864  1
  Tb  Tb9  1  0.750000  0.015395  0.814136  1
  Tb  Tb10  1  0.250000  0.484605  0.314136  1
  Tb  Tb11  1  0.750000  0.515395  0.685864  1
