# generated using pymatgen
data_La3(GaNi)2
_symmetry_space_group_name_H-M   'P 1'
_cell_length_a   5.75849118
_cell_length_b   8.32143198
_cell_length_c   13.17825587
_cell_angle_alpha   90.00000000
_cell_angle_beta   90.00000000
_cell_angle_gamma   90.00000000
_symmetry_Int_Tables_number   1
_chemical_formula_structural   La3(GaNi)2
_chemical_formula_sum   'La12 Ga8 Ni8'
_cell_volume   631.48742850
_cell_formula_units_Z   4
loop_
 _symmetry_equiv_pos_site_id
 _symmetry_equiv_pos_as_xyz
  1  'x, y, z'
loop_
 _atom_site_type_symbol
 _atom_site_label
 _atom_site_symmetry_multiplicity
 _atom_site_fract_x
 _atom_site_fract_y
 _atom_site_fract_z
 _atom_site_occupancy
  Ni  Ni0  1  0.389707  0.466345  0.412217  1
  Ni  Ni1  1  0.389707  0.033655  0.587783  1
  Ni  Ni2  1  0.610293  0.966345  0.087783  1
  Ni  Ni3  1  0.610293  0.533655  0.912217  1
  Ni  Ni4  1  0.610293  0.533655  0.587783  1
  Ni  Ni5  1  0.610293  0.966345  0.412217  1
  Ni  Ni6  1  0.389707  0.033655  0.912217  1
  Ni  Ni7  1  0.389707  0.466345  0.087783  1
  Ga  Ga8  1  0.827839  0.602644  0.750000  1
  Ga  Ga9  1  0.827839  0.897356  0.250000  1
  Ga  Ga10  1  0.172161  0.102644  0.750000  1
  Ga  Ga11  1  0.172161  0.397356  0.250000  1
  Ga  Ga12  1  0.646076  0.250000  0.000000  1
  Ga  Ga13  1  0.353924  0.750000  0.500000  1
  Ga  Ga14  1  0.353924  0.750000  0.000000  1
  Ga  Ga15  1  0.646076  0.250000  0.500000  1
  La  La16  1  0.337769  0.749322  0.750000  1
  La  La17  1  0.337769  0.750678  0.250000  1
  La  La18  1  0.662231  0.249322  0.750000  1
  La  La19  1  0.662231  0.250678  0.250000  1
  La  La20  1  0.157582  0.102398  0.404447  1
  La  La21  1  0.157582  0.397602  0.595553  1
  La  La22  1  0.842418  0.602398  0.095553  1
  La  La23  1  0.842418  0.897602  0.904447  1
  La  La24  1  0.842418  0.897602  0.595553  1
  La  La25  1  0.842418  0.602398  0.404447  1
  La  La26  1  0.157582  0.397602  0.904447  1
  La  La27  1  0.157582  0.102398  0.095553  1
