# generated using pymatgen
data_BaSm2CuO5
_symmetry_space_group_name_H-M   'P 1'
_cell_length_a   5.80277929
_cell_length_b   7.38132514
_cell_length_c   12.47038510
_cell_angle_alpha   90.00000000
_cell_angle_beta   90.00000000
_cell_angle_gamma   90.00000000
_symmetry_Int_Tables_number   1
_chemical_formula_structural   BaSm2CuO5
_chemical_formula_sum   'Ba4 Sm8 Cu4 O20'
_cell_volume   534.13403685
_cell_formula_units_Z   4
loop_
 _symmetry_equiv_pos_site_id
 _symmetry_equiv_pos_as_xyz
  1  'x, y, z'
loop_
 _atom_site_type_symbol
 _atom_site_label
 _atom_site_symmetry_multiplicity
 _atom_site_fract_x
 _atom_site_fract_y
 _atom_site_fract_z
 _atom_site_occupancy
  Ba  Ba0  1  0.750000  0.431083  0.594001  1
  Ba  Ba1  1  0.250000  0.931083  0.905999  1
  Ba  Ba2  1  0.250000  0.568917  0.405999  1
  Ba  Ba3  1  0.750000  0.068917  0.094001  1
  Sm  Sm4  1  0.750000  0.887633  0.712297  1
  Sm  Sm5  1  0.250000  0.395508  0.074393  1
  Sm  Sm6  1  0.750000  0.612367  0.212297  1
  Sm  Sm7  1  0.750000  0.604492  0.925607  1
  Sm  Sm8  1  0.750000  0.895508  0.425607  1
  Sm  Sm9  1  0.250000  0.387633  0.787703  1
  Sm  Sm10  1  0.250000  0.104492  0.574393  1
  Sm  Sm11  1  0.250000  0.112367  0.287703  1
  Cu  Cu12  1  0.250000  0.716974  0.660315  1
  Cu  Cu13  1  0.750000  0.283026  0.339685  1
  Cu  Cu14  1  0.250000  0.783026  0.160315  1
  Cu  Cu15  1  0.750000  0.216974  0.839685  1
  O  O16  1  0.993219  0.350957  0.227817  1
  O  O17  1  0.006781  0.649043  0.772183  1
  O  O18  1  0.506781  0.149043  0.727817  1
  O  O19  1  0.490190  0.666022  0.067349  1
  O  O20  1  0.250000  0.078446  0.098264  1
  O  O21  1  0.993219  0.149043  0.727817  1
  O  O22  1  0.506781  0.350957  0.227817  1
  O  O23  1  0.990190  0.166022  0.432651  1
  O  O24  1  0.990190  0.333978  0.932651  1
  O  O25  1  0.750000  0.921554  0.901736  1
  O  O26  1  0.009810  0.666022  0.067349  1
  O  O27  1  0.009810  0.833978  0.567349  1
  O  O28  1  0.250000  0.421554  0.598264  1
  O  O29  1  0.509810  0.333978  0.932651  1
  O  O30  1  0.493219  0.649043  0.772183  1
  O  O31  1  0.490190  0.833978  0.567349  1
  O  O32  1  0.509810  0.166022  0.432651  1
  O  O33  1  0.750000  0.578446  0.401736  1
  O  O34  1  0.006781  0.850957  0.272183  1
  O  O35  1  0.493219  0.850957  0.272183  1
