# generated using pymatgen
data_Rh3S4
_symmetry_space_group_name_H-M   'P 1'
_cell_length_a   6.31925137
_cell_length_b   7.56293995
_cell_length_c   7.56293995
_cell_angle_alpha   92.22812100
_cell_angle_beta   102.30523087
_cell_angle_gamma   102.30523084
_symmetry_Int_Tables_number   1
_chemical_formula_structural   Rh3S4
_chemical_formula_sum   'Rh9 S12'
_cell_volume   343.68392691
_cell_formula_units_Z   3
loop_
 _symmetry_equiv_pos_site_id
 _symmetry_equiv_pos_as_xyz
  1  'x, y, z'
loop_
 _atom_site_type_symbol
 _atom_site_label
 _atom_site_symmetry_multiplicity
 _atom_site_fract_x
 _atom_site_fract_y
 _atom_site_fract_z
 _atom_site_occupancy
  S  S0  1  0.899238  0.858830  0.440605  1
  S  S1  1  0.100762  0.559395  0.141170  1
  S  S2  1  0.100762  0.141170  0.559395  1
  S  S3  1  0.899238  0.440605  0.858830  1
  S  S4  1  0.888329  0.117258  0.117258  1
  S  S5  1  0.111671  0.882742  0.882742  1
  S  S6  1  0.614335  0.032952  0.716165  1
  S  S7  1  0.385665  0.283835  0.967048  1
  S  S8  1  0.385665  0.967048  0.283835  1
  S  S9  1  0.273547  0.584128  0.584128  1
  S  S10  1  0.726453  0.415872  0.415872  1
  S  S11  1  0.614335  0.716165  0.032952  1
  Rh  Rh12  1  0.000000  0.160852  0.839148  1
  Rh  Rh13  1  0.000000  0.839148  0.160852  1
  Rh  Rh14  1  0.500000  0.000000  0.000000  1
  Rh  Rh15  1  0.052363  0.349950  0.349950  1
  Rh  Rh16  1  0.947637  0.650050  0.650050  1
  Rh  Rh17  1  0.549355  0.784241  0.491550  1
  Rh  Rh18  1  0.450645  0.508450  0.215759  1
  Rh  Rh19  1  0.450645  0.215759  0.508450  1
  Rh  Rh20  1  0.549355  0.491550  0.784241  1
