# generated using pymatgen
data_HgH2SeO5
_symmetry_space_group_name_H-M   'P 1'
_cell_length_a   7.79172913
_cell_length_b   8.07932236
_cell_length_c   8.17242295
_cell_angle_alpha   115.98342016
_cell_angle_beta   90.00000000
_cell_angle_gamma   90.00000000
_symmetry_Int_Tables_number   1
_chemical_formula_structural   HgH2SeO5
_chemical_formula_sum   'Hg4 H8 Se4 O20'
_cell_volume   462.46735024
_cell_formula_units_Z   4
loop_
 _symmetry_equiv_pos_site_id
 _symmetry_equiv_pos_as_xyz
  1  'x, y, z'
loop_
 _atom_site_type_symbol
 _atom_site_label
 _atom_site_symmetry_multiplicity
 _atom_site_fract_x
 _atom_site_fract_y
 _atom_site_fract_z
 _atom_site_occupancy
  H  H0  1  0.434660  0.705610  0.121748  1
  H  H1  1  0.934660  0.794390  0.378252  1
  H  H2  1  0.565340  0.294390  0.878252  1
  H  H3  1  0.065340  0.205610  0.621748  1
  H  H4  1  0.521782  0.811921  0.019566  1
  H  H5  1  0.021782  0.688079  0.480434  1
  H  H6  1  0.478218  0.188079  0.980434  1
  H  H7  1  0.978218  0.311921  0.519566  1
  O  O8  1  0.483997  0.222952  0.340758  1
  O  O9  1  0.983997  0.277048  0.159242  1
  O  O10  1  0.516003  0.777048  0.659242  1
  O  O11  1  0.016003  0.722952  0.840758  1
  O  O12  1  0.507611  0.365243  0.715723  1
  O  O13  1  0.007611  0.134757  0.784277  1
  O  O14  1  0.492389  0.634757  0.284277  1
  O  O15  1  0.992389  0.865243  0.215723  1
  O  O16  1  0.694998  0.058651  0.508056  1
  O  O17  1  0.194998  0.441349  0.991944  1
  O  O18  1  0.305002  0.941349  0.491944  1
  O  O19  1  0.805002  0.558651  0.008056  1
  O  O20  1  0.774047  0.386732  0.500843  1
  O  O21  1  0.274047  0.113268  0.999157  1
  O  O22  1  0.225953  0.613268  0.499157  1
  O  O23  1  0.725953  0.886732  0.000843  1
  O  O24  1  0.092288  0.268954  0.543310  1
  O  O25  1  0.592288  0.231046  0.956690  1
  O  O26  1  0.907712  0.731046  0.456690  1
  O  O27  1  0.407712  0.768954  0.043310  1
  Se  Se28  1  0.885892  0.751638  0.015756  1
  Se  Se29  1  0.385892  0.748362  0.484244  1
  Se  Se30  1  0.114108  0.248362  0.984244  1
  Se  Se31  1  0.614108  0.251638  0.515756  1
  Hg  Hg32  1  0.267819  0.549600  0.757172  1
  Hg  Hg33  1  0.767819  0.950400  0.742828  1
  Hg  Hg34  1  0.732181  0.450400  0.242828  1
  Hg  Hg35  1  0.232181  0.049600  0.257172  1
