# generated using pymatgen
data_Rb2PuCl5
_symmetry_space_group_name_H-M   'P 1'
_cell_length_a   8.33946874
_cell_length_b   8.90278876
_cell_length_c   13.57398557
_cell_angle_alpha   90.00000000
_cell_angle_beta   90.00000000
_cell_angle_gamma   90.00000000
_symmetry_Int_Tables_number   1
_chemical_formula_structural   Rb2PuCl5
_chemical_formula_sum   'Rb8 Pu4 Cl20'
_cell_volume   1007.79415936
_cell_formula_units_Z   4
loop_
 _symmetry_equiv_pos_site_id
 _symmetry_equiv_pos_as_xyz
  1  'x, y, z'
loop_
 _atom_site_type_symbol
 _atom_site_label
 _atom_site_symmetry_multiplicity
 _atom_site_fract_x
 _atom_site_fract_y
 _atom_site_fract_z
 _atom_site_occupancy
  Cl  Cl0  1  0.346755  0.961291  0.077580  1
  Cl  Cl1  1  0.846755  0.038709  0.422420  1
  Cl  Cl2  1  0.653245  0.461291  0.922420  1
  Cl  Cl3  1  0.153245  0.538709  0.577580  1
  Cl  Cl4  1  0.653245  0.038709  0.922420  1
  Cl  Cl5  1  0.153245  0.961291  0.577580  1
  Cl  Cl6  1  0.346755  0.538709  0.077580  1
  Cl  Cl7  1  0.846755  0.461291  0.422420  1
  Cl  Cl8  1  0.376710  0.750000  0.830162  1
  Cl  Cl9  1  0.876710  0.250000  0.669838  1
  Cl  Cl10  1  0.623290  0.250000  0.169838  1
  Cl  Cl11  1  0.123290  0.750000  0.330162  1
  Cl  Cl12  1  0.898601  0.750000  0.987066  1
  Cl  Cl13  1  0.398601  0.250000  0.512934  1
  Cl  Cl14  1  0.101399  0.250000  0.012934  1
  Cl  Cl15  1  0.601399  0.750000  0.487066  1
  Cl  Cl16  1  0.659250  0.750000  0.192371  1
  Cl  Cl17  1  0.159250  0.250000  0.307629  1
  Cl  Cl18  1  0.340750  0.250000  0.807629  1
  Cl  Cl19  1  0.840750  0.750000  0.692371  1
  Rb  Rb20  1  0.456180  0.502014  0.328850  1
  Rb  Rb21  1  0.956180  0.497986  0.171150  1
  Rb  Rb22  1  0.543820  0.002014  0.671150  1
  Rb  Rb23  1  0.043820  0.997986  0.828850  1
  Rb  Rb24  1  0.956180  0.002014  0.171150  1
  Rb  Rb25  1  0.456180  0.997986  0.328850  1
  Rb  Rb26  1  0.043820  0.502014  0.828850  1
  Rb  Rb27  1  0.543820  0.497986  0.671150  1
  Pu  Pu28  1  0.939067  0.750000  0.498523  1
  Pu  Pu29  1  0.439067  0.250000  0.001477  1
  Pu  Pu30  1  0.060933  0.250000  0.501477  1
  Pu  Pu31  1  0.560933  0.750000  0.998523  1
