# generated using pymatgen
data_K2Cr2Cd(H2O5)2
_symmetry_space_group_name_H-M   'P 1'
_cell_length_a   6.04453651
_cell_length_b   6.50927462
_cell_length_c   7.74458516
_cell_angle_alpha   109.82949825
_cell_angle_beta   96.47424861
_cell_angle_gamma   109.87010874
_symmetry_Int_Tables_number   1
_chemical_formula_structural   K2Cr2Cd(H2O5)2
_chemical_formula_sum   'K2 Cr2 Cd1 H4 O10'
_cell_volume   260.47130575
_cell_formula_units_Z   1
loop_
 _symmetry_equiv_pos_site_id
 _symmetry_equiv_pos_as_xyz
  1  'x, y, z'
loop_
 _atom_site_type_symbol
 _atom_site_label
 _atom_site_symmetry_multiplicity
 _atom_site_fract_x
 _atom_site_fract_y
 _atom_site_fract_z
 _atom_site_occupancy
  H  H0  1  0.121668  0.126977  0.400519  1
  H  H1  1  0.878332  0.873023  0.599481  1
  H  H2  1  0.935474  0.850183  0.313742  1
  H  H3  1  0.064526  0.149817  0.686258  1
  O  O4  1  0.064351  0.972291  0.287540  1
  O  O5  1  0.643550  0.191573  0.367973  1
  O  O6  1  0.356450  0.808427  0.632027  1
  O  O7  1  0.765886  0.640200  0.379468  1
  O  O8  1  0.234114  0.359800  0.620532  1
  O  O9  1  0.410149  0.263359  0.085899  1
  O  O10  1  0.589851  0.736641  0.914101  1
  O  O11  1  0.885251  0.317192  0.118679  1
  O  O12  1  0.114749  0.682808  0.881321  1
  O  O13  1  0.935649  0.027709  0.712460  1
  K  K14  1  0.351667  0.705276  0.244171  1
  K  K15  1  0.648333  0.294724  0.755829  1
  Cr  Cr16  1  0.676311  0.349244  0.240203  1
  Cr  Cr17  1  0.323689  0.650756  0.759797  1
  Cd  Cd18  1  0.000000  0.000000  0.000000  1
