# generated using pymatgen
data_Ge7F16
_symmetry_space_group_name_H-M   'P 1'
_cell_length_a   7.75848687
_cell_length_b   9.99755047
_cell_length_c   10.43556299
_cell_angle_alpha   90.60078821
_cell_angle_beta   90.00000000
_cell_angle_gamma   112.83131612
_symmetry_Int_Tables_number   1
_chemical_formula_structural   Ge7F16
_chemical_formula_sum   'Ge14 F32'
_cell_volume   745.97626186
_cell_formula_units_Z   2
loop_
 _symmetry_equiv_pos_site_id
 _symmetry_equiv_pos_as_xyz
  1  'x, y, z'
loop_
 _atom_site_type_symbol
 _atom_site_label
 _atom_site_symmetry_multiplicity
 _atom_site_fract_x
 _atom_site_fract_y
 _atom_site_fract_z
 _atom_site_occupancy
  F  F0  1  0.128186  0.155391  0.799889  1
  F  F1  1  0.027205  0.155391  0.299889  1
  F  F2  1  0.934176  0.879865  0.813338  1
  F  F3  1  0.945689  0.879865  0.313338  1
  F  F4  1  0.409819  0.108922  0.698969  1
  F  F5  1  0.699103  0.108922  0.198969  1
  F  F6  1  0.270161  0.996254  0.918388  1
  F  F7  1  0.726093  0.996254  0.418388  1
  F  F8  1  0.074788  -0.003798  0.594153  1
  F  F9  1  0.921414  -0.003798  0.094153  1
  F  F10  1  0.212505  0.833504  0.713705  1
  F  F11  1  0.620999  0.833504  0.213705  1
  F  F12  1  0.217372  0.452016  0.652187  1
  F  F13  1  0.234645  0.452016  0.152187  1
  F  F14  1  0.515779  0.313684  0.262828  1
  F  F15  1  0.797906  0.313684  0.762828  1
  F  F16  1  0.322297  0.301701  0.481170  1
  F  F17  1  0.979404  0.301701  0.981170  1
  F  F18  1  0.653781  0.277267  0.492375  1
  F  F19  1  0.623486  0.277267  0.992375  1
  F  F20  1  0.794557  0.576814  0.345962  1
  F  F21  1  0.782257  0.576814  0.845962  1
  F  F22  1  0.403774  0.762013  0.489811  1
  F  F23  1  0.358239  0.762013  0.989811  1
  F  F24  1  0.123933  0.462333  0.404610  1
  F  F25  1  0.338400  0.462333  0.904610  1
  F  F26  1  0.208456  0.695178  0.248438  1
  F  F27  1  0.486722  0.695178  0.748438  1
  F  F28  1  0.653480  0.543714  0.105776  1
  F  F29  1  0.890234  0.543714  0.605776  1
  F  F30  1  0.730845  0.738297  0.533789  1
  F  F31  1  0.007452  0.738297  0.033789  1
  Ge  Ge32  1  0.232307  0.304254  0.027517  1
  Ge  Ge33  1  0.071948  0.304254  0.527517  1
  Ge  Ge34  1  0.607080  0.871272  0.590106  1
  Ge  Ge35  1  0.264193  0.871272  0.090106  1
  Ge  Ge36  1  0.435122  0.169475  0.407393  1
  Ge  Ge37  1  0.734353  0.169475  0.907393  1
  Ge  Ge38  1  0.768848  0.435988  0.192070  1
  Ge  Ge39  1  0.667140  0.435988  0.692070  1
  Ge  Ge40  1  0.964379  0.731424  0.457342  1
  Ge  Ge41  1  0.767045  0.731424  0.957342  1
  Ge  Ge42  1  0.359120  0.595913  0.303833  1
  Ge  Ge43  1  0.236793  0.595913  0.803833  1
  Ge  Ge44  1  0.175597  -0.001741  0.751819  1
  Ge  Ge45  1  0.822662  -0.001741  0.251819  1
