# generated using pymatgen
data_Sr3V2O7
_symmetry_space_group_name_H-M   'P 1'
_cell_length_a   3.97736654
_cell_length_b   3.97736654
_cell_length_c   10.35345737
_cell_angle_alpha   101.07414580
_cell_angle_beta   101.07414579
_cell_angle_gamma   90.00000005
_symmetry_Int_Tables_number   1
_chemical_formula_structural   Sr3V2O7
_chemical_formula_sum   'Sr3 V2 O7'
_cell_volume   157.62737591
_cell_formula_units_Z   1
loop_
 _symmetry_equiv_pos_site_id
 _symmetry_equiv_pos_as_xyz
  1  'x, y, z'
loop_
 _atom_site_type_symbol
 _atom_site_label
 _atom_site_symmetry_multiplicity
 _atom_site_fract_x
 _atom_site_fract_y
 _atom_site_fract_z
 _atom_site_occupancy
  O  O0  1  0.904374  0.404375  0.808749  1
  O  O1  1  0.404375  0.904373  0.808748  1
  O  O2  1  0.095625  0.595625  0.191251  1
  O  O3  1  0.595626  0.095627  0.191251  1
  O  O4  1  0.807472  0.807472  0.614945  1
  O  O5  1  0.000000  0.000000  0.000000  1
  O  O6  1  0.192527  0.192528  0.385054  1
  V  V7  1  0.902266  0.902269  0.804534  1
  V  V8  1  0.097733  0.097732  0.195466  1
  Sr  Sr9  1  0.680430  0.680431  0.360860  1
  Sr  Sr10  1  0.319569  0.319569  0.639140  1
  Sr  Sr11  1  0.499999  0.500001  1.000000  1
