# generated using pymatgen
data_YTl5Cu2(NO2)12
_symmetry_space_group_name_H-M   'P 1'
_cell_length_a   10.87410940
_cell_length_b   10.87410940
_cell_length_c   10.87410940
_cell_angle_alpha   90.00000000
_cell_angle_beta   90.00000000
_cell_angle_gamma   90.00000000
_symmetry_Int_Tables_number   1
_chemical_formula_structural   YTl5Cu2(NO2)12
_chemical_formula_sum   'Y2 Tl10 Cu4 N24 O48'
_cell_volume   1285.82271565
_cell_formula_units_Z   2
loop_
 _symmetry_equiv_pos_site_id
 _symmetry_equiv_pos_as_xyz
  1  'x, y, z'
loop_
 _atom_site_type_symbol
 _atom_site_label
 _atom_site_symmetry_multiplicity
 _atom_site_fract_x
 _atom_site_fract_y
 _atom_site_fract_z
 _atom_site_occupancy
  Y  Y0  1  0.250000  0.250000  0.250000  1
  Y  Y1  1  0.750000  0.750000  0.750000  1
  Tl  Tl2  1  0.500000  0.500000  0.000000  1
  Tl  Tl3  1  0.500000  0.000000  0.500000  1
  Tl  Tl4  1  0.250000  0.750000  0.750000  1
  Tl  Tl5  1  0.750000  0.250000  0.250000  1
  Tl  Tl6  1  0.750000  0.250000  0.750000  1
  Tl  Tl7  1  0.000000  0.000000  0.000000  1
  Tl  Tl8  1  0.750000  0.750000  0.250000  1
  Tl  Tl9  1  0.250000  0.750000  0.250000  1
  Tl  Tl10  1  0.000000  0.500000  0.500000  1
  Tl  Tl11  1  0.250000  0.250000  0.750000  1
  Cu  Cu12  1  0.000000  0.000000  0.500000  1
  Cu  Cu13  1  0.500000  0.000000  0.000000  1
  Cu  Cu14  1  0.000000  0.500000  0.000000  1
  Cu  Cu15  1  0.500000  0.500000  0.500000  1
  N  N16  1  0.510637  0.506932  0.695088  1
  N  N17  1  0.804912  0.989363  0.506932  1
  N  N18  1  0.695088  0.989363  0.993068  1
  N  N19  1  0.506932  0.804912  0.989363  1
  N  N20  1  0.989363  0.993068  0.695088  1
  N  N21  1  0.006932  0.304912  0.010637  1
  N  N22  1  0.304912  0.010637  0.006932  1
  N  N23  1  0.804912  0.510637  0.993068  1
  N  N24  1  0.506932  0.695088  0.510637  1
  N  N25  1  0.010637  0.493068  0.195088  1
  N  N26  1  0.993068  0.804912  0.510637  1
  N  N27  1  0.489363  0.493068  0.304912  1
  N  N28  1  0.510637  0.993068  0.804912  1
  N  N29  1  0.006932  0.195088  0.489363  1
  N  N30  1  0.695088  0.510637  0.506932  1
  N  N31  1  0.493068  0.195088  0.010637  1
  N  N32  1  0.493068  0.304912  0.489363  1
  N  N33  1  0.195088  0.010637  0.493068  1
  N  N34  1  0.993068  0.695088  0.989363  1
  N  N35  1  0.989363  0.506932  0.804912  1
  N  N36  1  0.489363  0.006932  0.195088  1
  N  N37  1  0.010637  0.006932  0.304912  1
  N  N38  1  0.195088  0.489363  0.006932  1
  N  N39  1  0.304912  0.489363  0.493068  1
  O  O40  1  0.502299  0.253232  0.911295  1
  O  O41  1  0.002299  0.753232  0.088705  1
  O  O42  1  0.411295  0.002299  0.746768  1
  O  O43  1  0.246768  0.588705  0.502299  1
  O  O44  1  0.911295  0.502299  0.253232  1
  O  O45  1  0.253509  0.104863  0.455821  1
  O  O46  1  0.395137  0.455821  0.246491  1
  O  O47  1  0.955821  0.746491  0.604863  1
  O  O48  1  0.588705  0.997701  0.253232  1
  O  O49  1  0.044179  0.253509  0.395137  1
  O  O50  1  0.088705  0.002299  0.753232  1
  O  O51  1  0.395137  0.044179  0.253509  1
  O  O52  1  0.746768  0.411295  0.002299  1
  O  O53  1  0.895137  0.955821  0.753509  1
  O  O54  1  0.044179  0.246491  0.104863  1
  O  O55  1  0.911295  0.997701  0.246768  1
  O  O56  1  0.895137  0.544179  0.746491  1
  O  O57  1  0.253232  0.911295  0.502299  1
  O  O58  1  0.088705  0.497701  0.746768  1
  O  O59  1  0.104863  0.044179  0.246491  1
  O  O60  1  0.544179  0.746491  0.895137  1
  O  O61  1  0.253232  0.588705  0.997701  1
  O  O62  1  0.253509  0.395137  0.044179  1
  O  O63  1  0.746768  0.088705  0.497701  1
  O  O64  1  0.002299  0.746768  0.411295  1
  O  O65  1  0.246491  0.395137  0.455821  1
  O  O66  1  0.411295  0.497701  0.753232  1
  O  O67  1  0.997701  0.253232  0.588705  1
  O  O68  1  0.588705  0.502299  0.246768  1
  O  O69  1  0.544179  0.753509  0.604863  1
  O  O70  1  0.746491  0.604863  0.955821  1
  O  O71  1  0.604863  0.955821  0.746491  1
  O  O72  1  0.246768  0.911295  0.997701  1
  O  O73  1  0.753509  0.895137  0.955821  1
  O  O74  1  0.753232  0.088705  0.002299  1
  O  O75  1  0.502299  0.246768  0.588705  1
  O  O76  1  0.746491  0.895137  0.544179  1
  O  O77  1  0.753232  0.411295  0.497701  1
  O  O78  1  0.997701  0.246768  0.911295  1
  O  O79  1  0.497701  0.746768  0.088705  1
  O  O80  1  0.104863  0.455821  0.253509  1
  O  O81  1  0.246491  0.104863  0.044179  1
  O  O82  1  0.455821  0.246491  0.395137  1
  O  O83  1  0.604863  0.544179  0.753509  1
  O  O84  1  0.497701  0.753232  0.411295  1
  O  O85  1  0.955821  0.753509  0.895137  1
  O  O86  1  0.753509  0.604863  0.544179  1
  O  O87  1  0.455821  0.253509  0.104863  1
