# generated using pymatgen
data_H12OsN5Cl3O
_symmetry_space_group_name_H-M   'P 1'
_cell_length_a   6.91772527
_cell_length_b   6.91772527
_cell_length_c   6.91772526
_cell_angle_alpha   102.49023215
_cell_angle_beta   113.07049630
_cell_angle_gamma   113.07049626
_symmetry_Int_Tables_number   1
_chemical_formula_structural   H12OsN5Cl3O
_chemical_formula_sum   'H12 Os1 N5 Cl3 O1'
_cell_volume   252.05099573
_cell_formula_units_Z   1
loop_
 _symmetry_equiv_pos_site_id
 _symmetry_equiv_pos_as_xyz
  1  'x, y, z'
loop_
 _atom_site_type_symbol
 _atom_site_label
 _atom_site_symmetry_multiplicity
 _atom_site_fract_x
 _atom_site_fract_y
 _atom_site_fract_z
 _atom_site_occupancy
  H  H0  1  0.450833  0.131568  0.131568  1
  H  H1  1  1.000000  0.131568  0.680735  1
  H  H2  1  0.000000  0.680735  0.131568  1
  H  H3  1  0.549167  0.680735  0.680735  1
  H  H4  1  0.530150  0.759970  0.915625  1
  H  H5  1  0.469850  0.385475  0.229820  1
  H  H6  1  0.844345  0.229820  0.759970  1
  H  H7  1  0.155655  0.915625  0.385475  1
  H  H8  1  0.530150  0.915625  0.759970  1
  H  H9  1  0.844345  0.759970  0.229820  1
  H  H10  1  0.469850  0.229820  0.385475  1
  H  H11  1  0.155655  0.385475  0.915625  1
  N  N12  1  0.000000  0.234192  0.234192  1
  N  N13  1  0.603580  0.821272  0.821272  1
  N  N14  1  0.000000  0.821272  0.217692  1
  N  N15  1  0.000000  0.217692  0.821272  1
  N  N16  1  0.396420  0.217692  0.217692  1
  O  O17  1  0.000000  0.370809  0.370809  1
  Cl  Cl18  1  0.500000  0.730417  0.230417  1
  Cl  Cl19  1  0.500000  0.230417  0.730417  1
  Cl  Cl20  1  0.000000  0.762561  0.762561  1
  Os  Os21  1  0.000000  0.032087  0.032087  1
