# generated using pymatgen
data_Al2PdCl8
_symmetry_space_group_name_H-M   'P 1'
_cell_length_a   6.80365612
_cell_length_b   7.58160605
_cell_length_c   13.73218259
_cell_angle_alpha   90.00000000
_cell_angle_beta   97.75452046
_cell_angle_gamma   90.00000000
_symmetry_Int_Tables_number   1
_chemical_formula_structural   Al2PdCl8
_chemical_formula_sum   'Al4 Pd2 Cl16'
_cell_volume   701.86462780
_cell_formula_units_Z   2
loop_
 _symmetry_equiv_pos_site_id
 _symmetry_equiv_pos_as_xyz
  1  'x, y, z'
loop_
 _atom_site_type_symbol
 _atom_site_label
 _atom_site_symmetry_multiplicity
 _atom_site_fract_x
 _atom_site_fract_y
 _atom_site_fract_z
 _atom_site_occupancy
  Pd  Pd0  1  0.000000  0.000000  0.000000  1
  Pd  Pd1  1  0.000000  0.500000  0.500000  1
  Al  Al2  1  0.334447  0.721087  0.101461  1
  Al  Al3  1  0.665553  0.221087  0.398539  1
  Al  Al4  1  0.665553  0.278913  0.898539  1
  Al  Al5  1  0.334447  0.778913  0.601461  1
  Cl  Cl6  1  0.138341  0.732986  0.956643  1
  Cl  Cl7  1  0.861659  0.232986  0.543357  1
  Cl  Cl8  1  0.861659  0.267014  0.043357  1
  Cl  Cl9  1  0.138341  0.767014  0.456643  1
  Cl  Cl10  1  0.229458  0.987455  0.143662  1
  Cl  Cl11  1  0.770542  0.487455  0.356338  1
  Cl  Cl12  1  0.770542  0.012545  0.856338  1
  Cl  Cl13  1  0.229458  0.512545  0.643662  1
  Cl  Cl14  1  0.252309  0.528113  0.198229  1
  Cl  Cl15  1  0.747691  0.028113  0.301771  1
  Cl  Cl16  1  0.747691  0.471887  0.801771  1
  Cl  Cl17  1  0.252309  0.971887  0.698229  1
  Cl  Cl18  1  0.634605  0.716304  0.077566  1
  Cl  Cl19  1  0.365395  0.216304  0.422434  1
  Cl  Cl20  1  0.365395  0.283696  0.922434  1
  Cl  Cl21  1  0.634605  0.783696  0.577566  1
