# generated using pymatgen
data_Be(PO3)2
_symmetry_space_group_name_H-M   'P 1'
_cell_length_a   4.96265599
_cell_length_b   7.07485679
_cell_length_c   13.08094377
_cell_angle_alpha   90.00000000
_cell_angle_beta   90.00000000
_cell_angle_gamma   107.58670969
_symmetry_Int_Tables_number   1
_chemical_formula_structural   Be(PO3)2
_chemical_formula_sum   'Be4 P8 O24'
_cell_volume   437.80692645
_cell_formula_units_Z   4
loop_
 _symmetry_equiv_pos_site_id
 _symmetry_equiv_pos_as_xyz
  1  'x, y, z'
loop_
 _atom_site_type_symbol
 _atom_site_label
 _atom_site_symmetry_multiplicity
 _atom_site_fract_x
 _atom_site_fract_y
 _atom_site_fract_z
 _atom_site_occupancy
  Be  Be0  1  0.119236  0.766436  0.067259  1
  Be  Be1  1  0.380764  0.733564  0.567259  1
  Be  Be2  1  0.880764  0.233564  0.932741  1
  Be  Be3  1  0.619236  0.266436  0.432741  1
  O  O4  1  0.030155  0.851692  0.764019  1
  O  O5  1  0.350640  0.140505  0.364050  1
  O  O6  1  0.149360  0.359495  0.864050  1
  O  O7  1  0.649360  0.859495  0.635950  1
  O  O8  1  0.850640  0.640505  0.135950  1
  O  O9  1  0.869313  0.163233  0.423435  1
  O  O10  1  0.630687  0.336767  0.923435  1
  O  O11  1  0.130687  0.836767  0.576565  1
  O  O12  1  0.469845  0.648308  0.264019  1
  O  O13  1  0.571840  0.652591  0.845019  1
  O  O14  1  0.530155  0.351692  0.735981  1
  O  O15  1  0.969845  0.148308  0.235981  1
  O  O16  1  0.428160  0.347409  0.154981  1
  O  O17  1  0.071840  0.152591  0.654981  1
  O  O18  1  0.738677  0.491361  0.387476  1
  O  O19  1  0.928160  0.847409  0.345019  1
  O  O20  1  0.968690  0.231532  0.052218  1
  O  O21  1  0.761323  0.008639  0.887476  1
  O  O22  1  0.261323  0.508639  0.612524  1
  O  O23  1  0.238677  0.991361  0.112524  1
  O  O24  1  0.468690  0.731532  0.447782  1
  O  O25  1  0.031310  0.768468  0.947782  1
  O  O26  1  0.531310  0.268468  0.552218  1
  O  O27  1  0.369313  0.663233  0.076565  1
  P  P28  1  0.145745  0.171197  0.130391  1
  P  P29  1  0.038075  0.084658  0.349154  1
  P  P30  1  0.461925  0.415342  0.849154  1
  P  P31  1  0.961925  0.915342  0.650846  1
  P  P32  1  0.538075  0.584658  0.150846  1
  P  P33  1  0.645745  0.671197  0.369609  1
  P  P34  1  0.854255  0.828803  0.869609  1
  P  P35  1  0.354255  0.328803  0.630391  1
