# generated using pymatgen
data_Fe7P6(HO6)4
_symmetry_space_group_name_H-M   'P 1'
_cell_length_a   6.67433008
_cell_length_b   8.10417005
_cell_length_c   9.58679125
_cell_angle_alpha   103.36687690
_cell_angle_beta   108.92265142
_cell_angle_gamma   101.70576842
_symmetry_Int_Tables_number   1
_chemical_formula_structural   Fe7P6(HO6)4
_chemical_formula_sum   'Fe7 P6 H4 O24'
_cell_volume   454.96677101
_cell_formula_units_Z   1
loop_
 _symmetry_equiv_pos_site_id
 _symmetry_equiv_pos_as_xyz
  1  'x, y, z'
loop_
 _atom_site_type_symbol
 _atom_site_label
 _atom_site_symmetry_multiplicity
 _atom_site_fract_x
 _atom_site_fract_y
 _atom_site_fract_z
 _atom_site_occupancy
  H  H0  1  0.659988  0.733034  0.421068  1
  H  H1  1  0.177433  0.879732  0.805363  1
  H  H2  1  0.822428  0.120195  0.194625  1
  H  H3  1  0.339960  0.266896  0.578924  1
  O  O4  1  0.014169  0.169958  0.659319  1
  O  O5  1  0.259612  0.260824  0.467729  1
  O  O6  1  0.547343  0.631948  0.700362  1
  O  O7  1  0.452766  0.368106  0.299699  1
  O  O8  1  0.382581  0.793175  0.511750  1
  O  O9  1  0.617408  0.206799  0.488264  1
  O  O10  1  0.879393  0.462952  0.835068  1
  O  O11  1  0.120626  0.537055  0.164919  1
  O  O12  1  0.898404  0.215464  0.104500  1
  O  O13  1  0.740401  0.739206  0.532282  1
  O  O14  1  0.985873  0.830081  0.340712  1
  O  O15  1  0.224554  0.188576  0.939408  1
  O  O16  1  0.775493  0.811419  0.060612  1
  O  O17  1  0.568960  0.751705  0.245654  1
  O  O18  1  0.431063  0.248255  0.754360  1
  O  O19  1  0.789184  0.058530  0.274843  1
  O  O20  1  0.101551  0.784535  0.895438  1
  O  O21  1  0.274021  0.039082  0.234943  1
  O  O22  1  0.726004  0.960962  0.765069  1
  O  O23  1  0.301566  0.549047  0.921434  1
  O  O24  1  0.698432  0.450979  0.078559  1
  O  O25  1  0.061144  0.545457  0.655821  1
  O  O26  1  0.938852  0.454531  0.344150  1
  O  O27  1  0.210759  0.941443  0.725152  1
  P  P28  1  0.592491  0.779185  0.633433  1
  P  P29  1  0.407541  0.220853  0.366595  1
  P  P30  1  0.913282  0.415079  0.171407  1
  P  P31  1  0.086718  0.584918  0.828564  1
  P  P32  1  0.777951  0.853750  0.226649  1
  P  P33  1  0.222052  0.146217  0.773353  1
  Fe  Fe34  1  0.055731  0.710237  0.516725  1
  Fe  Fe35  1  0.944243  0.289770  0.483264  1
  Fe  Fe36  1  0.269426  0.804506  0.280778  1
  Fe  Fe37  1  0.730571  0.195547  0.719216  1
  Fe  Fe38  1  0.613679  0.546384  0.887439  1
  Fe  Fe39  1  0.386291  0.453569  0.112517  1
  Fe  Fe40  1  1.000056  1.000042  0.000036  1
