# generated using pymatgen
data_SiSe2
_symmetry_space_group_name_H-M   'P 1'
_cell_length_a   8.92176234
_cell_length_b   8.94983177
_cell_length_c   6.98398410
_cell_angle_alpha   129.84699925
_cell_angle_beta   129.69719456
_cell_angle_gamma   89.99999999
_symmetry_Int_Tables_number   1
_chemical_formula_structural   SiSe2
_chemical_formula_sum   'Si2 Se4'
_cell_volume   237.56304846
_cell_formula_units_Z   2
loop_
 _symmetry_equiv_pos_site_id
 _symmetry_equiv_pos_as_xyz
  1  'x, y, z'
loop_
 _atom_site_type_symbol
 _atom_site_label
 _atom_site_symmetry_multiplicity
 _atom_site_fract_x
 _atom_site_fract_y
 _atom_site_fract_z
 _atom_site_occupancy
  Si  Si0  1  0.250000  0.250000  0.500000  1
  Si  Si1  1  0.750000  0.750000  0.500000  1
  Se  Se2  1  0.637970  0.359775  1.000000  1
  Se  Se3  1  0.137970  0.140225  1.000000  1
  Se  Se4  1  0.362030  0.640225  0.000000  1
  Se  Se5  1  0.862030  0.859775  0.000000  1
