# generated using pymatgen
data_K4Al3Si3ClO12
_symmetry_space_group_name_H-M   'P 1'
_cell_length_a   9.36991237
_cell_length_b   9.36991237
_cell_length_c   9.36991237
_cell_angle_alpha   90.00000000
_cell_angle_beta   90.00000000
_cell_angle_gamma   90.00000000
_symmetry_Int_Tables_number   1
_chemical_formula_structural   K4Al3Si3ClO12
_chemical_formula_sum   'K8 Al6 Si6 Cl2 O24'
_cell_volume   822.63387229
_cell_formula_units_Z   2
loop_
 _symmetry_equiv_pos_site_id
 _symmetry_equiv_pos_as_xyz
  1  'x, y, z'
loop_
 _atom_site_type_symbol
 _atom_site_label
 _atom_site_symmetry_multiplicity
 _atom_site_fract_x
 _atom_site_fract_y
 _atom_site_fract_z
 _atom_site_occupancy
  K  K0  1  0.313131  0.313131  0.686869  1
  K  K1  1  0.813131  0.186869  0.813131  1
  K  K2  1  0.686869  0.686869  0.686869  1
  K  K3  1  0.186869  0.186869  0.186869  1
  K  K4  1  0.313131  0.686869  0.313131  1
  K  K5  1  0.813131  0.813131  0.186869  1
  K  K6  1  0.186869  0.813131  0.813131  1
  K  K7  1  0.686869  0.313131  0.313131  1
  Al  Al8  1  0.250000  0.500000  0.000000  1
  Al  Al9  1  0.500000  0.000000  0.250000  1
  Al  Al10  1  0.000000  0.250000  0.500000  1
  Al  Al11  1  0.000000  0.750000  0.500000  1
  Al  Al12  1  0.750000  0.500000  0.000000  1
  Al  Al13  1  0.500000  0.000000  0.750000  1
  Si  Si14  1  0.500000  0.750000  0.000000  1
  Si  Si15  1  0.000000  0.500000  0.250000  1
  Si  Si16  1  0.750000  0.000000  0.500000  1
  Si  Si17  1  0.500000  0.250000  0.000000  1
  Si  Si18  1  0.000000  0.500000  0.750000  1
  Si  Si19  1  0.250000  0.000000  0.500000  1
  Cl  Cl20  1  0.500000  0.500000  0.500000  1
  Cl  Cl21  1  0.000000  0.000000  0.000000  1
  O  O22  1  0.021649  0.644141  0.346613  1
  O  O23  1  0.978351  0.355859  0.346613  1
  O  O24  1  0.346613  0.978351  0.355859  1
  O  O25  1  0.855859  0.478351  0.846613  1
  O  O26  1  0.153387  0.144141  0.478351  1
  O  O27  1  0.855859  0.521649  0.153387  1
  O  O28  1  0.346613  0.021649  0.644141  1
  O  O29  1  0.153387  0.855859  0.521649  1
  O  O30  1  0.144141  0.521649  0.846613  1
  O  O31  1  0.846613  0.855859  0.478351  1
  O  O32  1  0.653387  0.021649  0.355859  1
  O  O33  1  0.978351  0.644141  0.653387  1
  O  O34  1  0.644141  0.653387  0.978351  1
  O  O35  1  0.144141  0.478351  0.153387  1
  O  O36  1  0.478351  0.153387  0.144141  1
  O  O37  1  0.478351  0.846613  0.855859  1
  O  O38  1  0.021649  0.355859  0.653387  1
  O  O39  1  0.521649  0.153387  0.855859  1
  O  O40  1  0.846613  0.144141  0.521649  1
  O  O41  1  0.653387  0.978351  0.644141  1
  O  O42  1  0.355859  0.653387  0.021649  1
  O  O43  1  0.355859  0.346613  0.978351  1
  O  O44  1  0.521649  0.846613  0.144141  1
  O  O45  1  0.644141  0.346613  0.021649  1
