# generated using pymatgen
data_CsNbO3
_symmetry_space_group_name_H-M   'P 1'
_cell_length_a   5.20611614
_cell_length_b   9.41493317
_cell_length_c   16.19646497
_cell_angle_alpha   90.00000000
_cell_angle_beta   90.00000000
_cell_angle_gamma   93.05334694
_symmetry_Int_Tables_number   1
_chemical_formula_structural   CsNbO3
_chemical_formula_sum   'Cs8 Nb8 O24'
_cell_volume   792.74654056
_cell_formula_units_Z   8
loop_
 _symmetry_equiv_pos_site_id
 _symmetry_equiv_pos_as_xyz
  1  'x, y, z'
loop_
 _atom_site_type_symbol
 _atom_site_label
 _atom_site_symmetry_multiplicity
 _atom_site_fract_x
 _atom_site_fract_y
 _atom_site_fract_z
 _atom_site_occupancy
  O  O0  1  0.747923  0.371128  0.399213  1
  O  O1  1  0.252077  0.128872  0.899213  1
  O  O2  1  0.252077  0.628872  0.600787  1
  O  O3  1  0.747923  0.871128  0.100787  1
  O  O4  1  0.061893  0.544586  0.287831  1
  O  O5  1  0.938107  0.955414  0.787831  1
  O  O6  1  0.938107  0.455414  0.712169  1
  O  O7  1  0.061893  0.044586  0.212169  1
  O  O8  1  0.178604  0.733816  0.435359  1
  O  O9  1  0.821396  0.766184  0.935359  1
  O  O10  1  0.821396  0.266184  0.564641  1
  O  O11  1  0.178604  0.233816  0.064641  1
  O  O12  1  0.250629  0.459517  0.463922  1
  O  O13  1  0.749371  0.040483  0.963922  1
  O  O14  1  0.749371  0.540483  0.536078  1
  O  O15  1  0.250629  0.959517  0.036078  1
  O  O16  1  0.673045  0.174956  0.108143  1
  O  O17  1  0.326955  0.325044  0.608143  1
  O  O18  1  0.326955  0.825044  0.891857  1
  O  O19  1  0.673045  0.674956  0.391857  1
  O  O20  1  0.605428  0.350133  0.954650  1
  O  O21  1  0.394572  0.149867  0.454650  1
  O  O22  1  0.394572  0.649867  0.045350  1
  O  O23  1  0.605428  0.850133  0.545350  1
  Nb  Nb24  1  0.471360  0.684160  0.502226  1
  Nb  Nb25  1  0.528640  0.815840  0.002226  1
  Nb  Nb26  1  0.528640  0.315840  0.497774  1
  Nb  Nb27  1  0.471360  0.184160  0.997774  1
  Nb  Nb28  1  0.961455  0.552913  0.395456  1
  Nb  Nb29  1  0.038545  0.947087  0.895456  1
  Nb  Nb30  1  0.038545  0.447087  0.604544  1
  Nb  Nb31  1  0.961455  0.052913  0.104544  1
  Cs  Cs32  1  0.886405  0.012289  0.393696  1
  Cs  Cs33  1  0.113595  0.487711  0.893696  1
  Cs  Cs34  1  0.113595  0.987711  0.606304  1
  Cs  Cs35  1  0.886405  0.512289  0.106304  1
  Cs  Cs36  1  0.403680  0.793486  0.242368  1
  Cs  Cs37  1  0.596320  0.706514  0.742368  1
  Cs  Cs38  1  0.596320  0.206514  0.757632  1
  Cs  Cs39  1  0.403680  0.293486  0.257632  1
