# generated using pymatgen
data_B5H9
_symmetry_space_group_name_H-M   'P 1'
_cell_length_a   10.38275226
_cell_length_b   10.54069410
_cell_length_c   10.54069410
_cell_angle_alpha   90.00000000
_cell_angle_beta   90.00000000
_cell_angle_gamma   90.00000000
_symmetry_Int_Tables_number   1
_chemical_formula_structural   B5H9
_chemical_formula_sum   'B40 H72'
_cell_volume   1153.58848254
_cell_formula_units_Z   8
loop_
 _symmetry_equiv_pos_site_id
 _symmetry_equiv_pos_as_xyz
  1  'x, y, z'
loop_
 _atom_site_type_symbol
 _atom_site_label
 _atom_site_symmetry_multiplicity
 _atom_site_fract_x
 _atom_site_fract_y
 _atom_site_fract_z
 _atom_site_occupancy
  H  H0  1  0.482226  0.669731  0.094610  1
  H  H1  1  0.732226  0.905390  0.669731  1
  H  H2  1  0.232226  0.094610  0.330269  1
  H  H3  1  -0.017774  0.330269  0.905390  1
  H  H4  1  0.475751  0.566591  0.244535  1
  H  H5  1  0.725751  0.755465  0.566591  1
  H  H6  1  0.225751  0.244535  0.433409  1
  H  H7  1  0.975751  0.433409  0.755465  1
  H  H8  1  0.397064  0.703746  0.335759  1
  H  H9  1  0.647064  0.664241  0.703746  1
  H  H10  1  0.147064  0.335759  0.296254  1
  H  H11  1  0.897064  0.296254  0.664241  1
  H  H12  1  0.403136  0.806282  0.185862  1
  H  H13  1  0.653136  0.814138  0.806282  1
  H  H14  1  0.153136  0.185862  0.193718  1
  H  H15  1  0.903136  0.193718  0.814138  1
  H  H16  1  0.630215  0.544488  0.125282  1
  H  H17  1  0.880215  0.874718  0.544488  1
  H  H18  1  0.380215  0.125282  0.455512  1
  H  H19  1  0.130215  0.455512  0.874718  1
  H  H20  1  0.209479  0.634167  0.129782  1
  H  H21  1  0.459479  0.870218  0.634167  1
  H  H22  1  0.959479  0.129782  0.365833  1
  H  H23  1  0.709479  0.365833  0.870218  1
  H  H24  1  1.005942  0.536888  0.348163  1
  H  H25  1  0.255942  0.651837  0.536888  1
  H  H26  1  0.755942  0.348163  0.463112  1
  H  H27  1  0.505942  0.463112  0.651837  1
  H  H28  1  0.914709  0.574158  0.034516  1
  H  H29  1  0.164709  0.965484  0.574158  1
  H  H30  1  0.664709  0.034516  0.425842  1
  H  H31  1  0.414709  0.425842  0.965484  1
  H  H32  1  0.039076  0.879238  0.035919  1
  H  H33  1  0.289076  0.964081  0.879238  1
  H  H34  1  0.789076  0.035919  0.120762  1
  H  H35  1  0.539076  0.120762  0.964081  1
  H  H36  1  0.130856  0.841241  0.348945  1
  H  H37  1  0.380856  0.651055  0.841241  1
  H  H38  1  0.880856  0.348945  0.158759  1
  H  H39  1  0.630856  0.158759  0.651055  1
  H  H40  1  0.885794  0.623748  0.220507  1
  H  H41  1  0.135794  0.779493  0.623748  1
  H  H42  1  0.635794  0.220507  0.376252  1
  H  H43  1  0.385794  0.376252  0.779493  1
  H  H44  1  0.898530  0.757257  0.098210  1
  H  H45  1  0.148530  0.901790  0.757257  1
  H  H46  1  0.648530  0.098210  0.242743  1
  H  H47  1  0.398530  0.242743  0.901790  1
  H  H48  1  0.982736  0.861973  0.221703  1
  H  H49  1  0.232736  0.778297  0.861973  1
  H  H50  1  0.732736  0.221703  0.138027  1
  H  H51  1  0.482736  0.138027  0.778297  1
  H  H52  1  0.970139  0.728032  0.343629  1
  H  H53  1  0.220139  0.656371  0.728032  1
  H  H54  1  0.720139  0.343629  0.271968  1
  H  H55  1  0.470139  0.271968  0.656371  1
  H  H56  1  0.521956  0.587895  0.432522  1
  H  H57  1  0.771956  0.567478  0.587895  1
  H  H58  1  0.271956  0.432522  0.412105  1
  H  H59  1  0.021956  0.412105  0.567478  1
  H  H60  1  0.429781  0.894388  0.357890  1
  H  H61  1  0.679781  0.642110  0.894388  1
  H  H62  1  0.179781  0.357890  0.105612  1
  H  H63  1  0.929781  0.105612  0.642110  1
  H  H64  1  0.537723  0.851756  0.050619  1
  H  H65  1  0.787723  0.949381  0.851756  1
  H  H66  1  0.287723  0.050619  0.148244  1
  H  H67  1  0.037723  0.148244  0.949381  1
  H  H68  1  0.719413  0.789824  0.297153  1
  H  H69  1  0.969413  0.702847  0.789824  1
  H  H70  1  0.469413  0.297153  0.210176  1
  H  H71  1  0.219413  0.210176  0.702847  1
  B  B72  1  0.069997  0.375164  0.821900  1
  B  B73  1  0.319997  0.178100  0.375164  1
  B  B74  1  0.819997  0.821900  0.624836  1
  B  B75  1  0.569997  0.624836  0.178100  1
  B  B76  1  0.513911  0.647421  0.336864  1
  B  B77  1  0.763911  0.663136  0.647421  1
  B  B78  1  0.263911  0.336864  0.352579  1
  B  B79  1  0.013911  0.352579  0.663136  1
  B  B80  1  0.466165  0.805613  0.298199  1
  B  B81  1  0.716165  0.701801  0.805613  1
  B  B82  1  0.216165  0.298199  0.194387  1
  B  B83  1  0.966165  0.194387  0.701801  1
  B  B84  1  0.522044  0.783416  0.139306  1
  B  B85  1  0.772044  0.860694  0.783416  1
  B  B86  1  0.272044  0.139306  0.216584  1
  B  B87  1  0.022044  0.216584  0.860694  1
  B  B88  1  0.616283  0.751104  0.266537  1
  B  B89  1  0.866283  0.733463  0.751104  1
  B  B90  1  0.366283  0.266537  0.248896  1
  B  B91  1  0.116283  0.248896  0.733463  1
  B  B92  1  0.566927  0.218622  0.723249  1
  B  B93  1  0.816927  0.276751  0.218622  1
  B  B94  1  0.316927  0.723249  0.781378  1
  B  B95  1  0.066927  0.781378  0.276751  1
  B  B96  1  0.519609  0.199351  0.885210  1
  B  B97  1  0.769609  0.114790  0.199351  1
  B  B98  1  0.269609  0.885210  0.800649  1
  B  B99  1  0.019609  0.800649  0.114790  1
  B  B100  1  0.455995  0.356936  0.885920  1
  B  B101  1  0.705995  0.114080  0.356936  1
  B  B102  1  0.205995  0.885920  0.643064  1
  B  B103  1  0.955995  0.643064  0.114080  1
  B  B104  1  0.502798  0.376223  0.724027  1
  B  B105  1  0.752798  0.275973  0.376223  1
  B  B106  1  0.252798  0.724027  0.623777  1
  B  B107  1  0.002798  0.623777  0.275973  1
  B  B108  1  0.607944  0.325641  0.836322  1
  B  B109  1  0.857944  0.163678  0.325641  1
  B  B110  1  0.357944  0.836322  0.674359  1
  B  B111  1  0.107944  0.674359  0.163678  1
