# generated using pymatgen
data_Hg6Sb5Br7
_symmetry_space_group_name_H-M   'P 1'
_cell_length_a   13.36882094
_cell_length_b   13.36882094
_cell_length_c   13.36882094
_cell_angle_alpha   90.00000000
_cell_angle_beta   90.00000000
_cell_angle_gamma   90.00000000
_symmetry_Int_Tables_number   1
_chemical_formula_structural   Hg6Sb5Br7
_chemical_formula_sum   'Hg24 Sb20 Br28'
_cell_volume   2389.34751343
_cell_formula_units_Z   4
loop_
 _symmetry_equiv_pos_site_id
 _symmetry_equiv_pos_as_xyz
  1  'x, y, z'
loop_
 _atom_site_type_symbol
 _atom_site_label
 _atom_site_symmetry_multiplicity
 _atom_site_fract_x
 _atom_site_fract_y
 _atom_site_fract_z
 _atom_site_occupancy
  Br  Br0  1  0.000000  0.500000  0.500000  1
  Br  Br1  1  0.500000  0.500000  0.000000  1
  Br  Br2  1  0.500000  0.000000  0.500000  1
  Br  Br3  1  0.000000  0.000000  0.000000  1
  Br  Br4  1  0.950317  0.202534  0.456019  1
  Br  Br5  1  0.450317  0.297466  0.543981  1
  Br  Br6  1  0.049683  0.702534  0.043981  1
  Br  Br7  1  0.297466  0.543981  0.450317  1
  Br  Br8  1  0.043981  0.049683  0.702534  1
  Br  Br9  1  0.543981  0.450317  0.297466  1
  Br  Br10  1  0.202534  0.456019  0.950317  1
  Br  Br11  1  0.456019  0.950317  0.202534  1
  Br  Br12  1  0.702534  0.043981  0.049683  1
  Br  Br13  1  0.797466  0.956019  0.549683  1
  Br  Br14  1  0.956019  0.549683  0.797466  1
  Br  Br15  1  0.549683  0.797466  0.956019  1
  Br  Br16  1  0.049683  0.797466  0.543981  1
  Br  Br17  1  0.549683  0.702534  0.456019  1
  Br  Br18  1  0.950317  0.297466  0.956019  1
  Br  Br19  1  0.702534  0.456019  0.549683  1
  Br  Br20  1  0.956019  0.950317  0.297466  1
  Br  Br21  1  0.456019  0.549683  0.702534  1
  Br  Br22  1  0.797466  0.543981  0.049683  1
  Br  Br23  1  0.543981  0.049683  0.797466  1
  Br  Br24  1  0.297466  0.956019  0.950317  1
  Br  Br25  1  0.202534  0.043981  0.450317  1
  Br  Br26  1  0.043981  0.450317  0.202534  1
  Br  Br27  1  0.450317  0.202534  0.043981  1
  Sb  Sb28  1  0.262146  0.237854  0.762146  1
  Sb  Sb29  1  0.237854  0.762146  0.262146  1
  Sb  Sb30  1  0.762146  0.262146  0.237854  1
  Sb  Sb31  1  0.737854  0.737854  0.737854  1
  Sb  Sb32  1  0.737854  0.762146  0.237854  1
  Sb  Sb33  1  0.762146  0.237854  0.737854  1
  Sb  Sb34  1  0.237854  0.737854  0.762146  1
  Sb  Sb35  1  0.262146  0.262146  0.262146  1
  Sb  Sb36  1  0.136221  0.363779  0.636221  1
  Sb  Sb37  1  0.363779  0.636221  0.136221  1
  Sb  Sb38  1  0.636221  0.136221  0.363779  1
  Sb  Sb39  1  0.863779  0.863779  0.863779  1
  Sb  Sb40  1  0.863779  0.636221  0.363779  1
  Sb  Sb41  1  0.636221  0.363779  0.863779  1
  Sb  Sb42  1  0.363779  0.863779  0.636221  1
  Sb  Sb43  1  0.136221  0.136221  0.136221  1
  Sb  Sb44  1  0.500000  0.500000  0.500000  1
  Sb  Sb45  1  0.000000  0.000000  0.500000  1
  Sb  Sb46  1  0.000000  0.500000  0.000000  1
  Sb  Sb47  1  0.500000  0.000000  0.000000  1
  Hg  Hg48  1  0.685504  0.299443  0.052121  1
  Hg  Hg49  1  0.185504  0.200557  0.947879  1
  Hg  Hg50  1  0.314496  0.799443  0.447879  1
  Hg  Hg51  1  0.200557  0.947879  0.185504  1
  Hg  Hg52  1  0.447879  0.314496  0.799443  1
  Hg  Hg53  1  0.947879  0.185504  0.200557  1
  Hg  Hg54  1  0.299443  0.052121  0.685504  1
  Hg  Hg55  1  0.052121  0.685504  0.299443  1
  Hg  Hg56  1  0.799443  0.447879  0.314496  1
  Hg  Hg57  1  0.700557  0.552121  0.814496  1
  Hg  Hg58  1  0.552121  0.814496  0.700557  1
  Hg  Hg59  1  0.814496  0.700557  0.552121  1
  Hg  Hg60  1  0.314496  0.700557  0.947879  1
  Hg  Hg61  1  0.814496  0.799443  0.052121  1
  Hg  Hg62  1  0.685504  0.200557  0.552121  1
  Hg  Hg63  1  0.799443  0.052121  0.814496  1
  Hg  Hg64  1  0.552121  0.685504  0.200557  1
  Hg  Hg65  1  0.052121  0.814496  0.799443  1
  Hg  Hg66  1  0.700557  0.947879  0.314496  1
  Hg  Hg67  1  0.947879  0.314496  0.700557  1
  Hg  Hg68  1  0.200557  0.552121  0.685504  1
  Hg  Hg69  1  0.299443  0.447879  0.185504  1
  Hg  Hg70  1  0.447879  0.185504  0.299443  1
  Hg  Hg71  1  0.185504  0.299443  0.447879  1
