# generated using pymatgen
data_ReCl4
_symmetry_space_group_name_H-M   'P 1'
_cell_length_a   7.06741279
_cell_length_b   6.43236713
_cell_length_c   13.08416518
_cell_angle_alpha   93.45639127
_cell_angle_beta   90.00000000
_cell_angle_gamma   90.00000000
_symmetry_Int_Tables_number   1
_chemical_formula_structural   ReCl4
_chemical_formula_sum   'Re4 Cl16'
_cell_volume   593.72671121
_cell_formula_units_Z   4
loop_
 _symmetry_equiv_pos_site_id
 _symmetry_equiv_pos_as_xyz
  1  'x, y, z'
loop_
 _atom_site_type_symbol
 _atom_site_label
 _atom_site_symmetry_multiplicity
 _atom_site_fract_x
 _atom_site_fract_y
 _atom_site_fract_z
 _atom_site_occupancy
  Cl  Cl0  1  0.114427  0.500000  0.250000  1
  Cl  Cl1  1  0.885573  0.500000  0.750000  1
  Cl  Cl2  1  0.982146  0.000000  0.250000  1
  Cl  Cl3  1  0.017854  0.000000  0.750000  1
  Cl  Cl4  1  0.872669  0.748025  0.535883  1
  Cl  Cl5  1  0.872669  0.251975  0.964117  1
  Cl  Cl6  1  0.127331  0.251975  0.464117  1
  Cl  Cl7  1  0.127331  0.748025  0.035883  1
  Cl  Cl8  1  0.604446  0.869700  0.864219  1
  Cl  Cl9  1  0.604446  0.130300  0.635781  1
  Cl  Cl10  1  0.395554  0.130300  0.135781  1
  Cl  Cl11  1  0.395554  0.869700  0.364219  1
  Cl  Cl12  1  0.462649  0.642984  0.641205  1
  Cl  Cl13  1  0.462649  0.357016  0.858795  1
  Cl  Cl14  1  0.537351  0.357016  0.358795  1
  Cl  Cl15  1  0.537351  0.642984  0.141205  1
  Re  Re16  1  0.267736  0.815513  0.191293  1
  Re  Re17  1  0.267736  0.184487  0.308707  1
  Re  Re18  1  0.732264  0.184487  0.808707  1
  Re  Re19  1  0.732264  0.815513  0.691293  1
