# generated using pymatgen
data_Dy5Si3
_symmetry_space_group_name_H-M   'P 1'
_cell_length_a   8.44556434
_cell_length_b   8.44556434
_cell_length_c   6.36929294
_cell_angle_alpha   90.00000000
_cell_angle_beta   90.00000000
_cell_angle_gamma   119.99999999
_symmetry_Int_Tables_number   1
_chemical_formula_structural   Dy5Si3
_chemical_formula_sum   'Dy10 Si6'
_cell_volume   393.44062846
_cell_formula_units_Z   2
loop_
 _symmetry_equiv_pos_site_id
 _symmetry_equiv_pos_as_xyz
  1  'x, y, z'
loop_
 _atom_site_type_symbol
 _atom_site_label
 _atom_site_symmetry_multiplicity
 _atom_site_fract_x
 _atom_site_fract_y
 _atom_site_fract_z
 _atom_site_occupancy
  Si  Si0  1  0.394559  0.000000  0.750000  1
  Si  Si1  1  0.394559  0.394559  0.250000  1
  Si  Si2  1  0.000000  0.605441  0.250000  1
  Si  Si3  1  0.000000  0.394559  0.750000  1
  Si  Si4  1  0.605441  0.605441  0.750000  1
  Si  Si5  1  0.605441  0.000000  0.250000  1
  Dy  Dy6  1  0.000000  0.756951  0.750000  1
  Dy  Dy7  1  0.000000  0.243049  0.250000  1
  Dy  Dy8  1  0.756951  0.756951  0.250000  1
  Dy  Dy9  1  0.756951  0.000000  0.750000  1
  Dy  Dy10  1  0.243049  0.243049  0.750000  1
  Dy  Dy11  1  0.243049  0.000000  0.250000  1
  Dy  Dy12  1  0.666667  0.333333  0.000000  1
  Dy  Dy13  1  0.333333  0.666667  0.500000  1
  Dy  Dy14  1  0.333333  0.666667  0.000000  1
  Dy  Dy15  1  0.666667  0.333333  0.500000  1
