# generated using pymatgen
data_Na6Fe2C4SO16
_symmetry_space_group_name_H-M   'P 1'
_cell_length_a   9.98268141
_cell_length_b   9.98268141
_cell_length_c   9.98268141
_cell_angle_alpha   59.99999998
_cell_angle_beta   59.99999998
_cell_angle_gamma   59.99999998
_symmetry_Int_Tables_number   1
_chemical_formula_structural   Na6Fe2C4SO16
_chemical_formula_sum   'Na12 Fe4 C8 S2 O32'
_cell_volume   703.43931244
_cell_formula_units_Z   2
loop_
 _symmetry_equiv_pos_site_id
 _symmetry_equiv_pos_as_xyz
  1  'x, y, z'
loop_
 _atom_site_type_symbol
 _atom_site_label
 _atom_site_symmetry_multiplicity
 _atom_site_fract_x
 _atom_site_fract_y
 _atom_site_fract_z
 _atom_site_occupancy
  C  C0  1  0.280553  0.280553  0.658340  1
  C  C1  1  0.719447  0.719447  0.341660  1
  C  C2  1  0.719447  0.341660  0.719447  1
  C  C3  1  0.341660  0.719447  0.719447  1
  C  C4  1  0.719447  0.719447  0.719447  1
  C  C5  1  0.280553  0.658340  0.280553  1
  C  C6  1  0.658340  0.280553  0.280553  1
  C  C7  1  0.280553  0.280553  0.280553  1
  O  O8  1  0.339292  0.604026  0.860988  1
  O  O9  1  0.695694  0.860988  0.604026  1
  O  O10  1  0.860988  0.604026  0.695694  1
  O  O11  1  0.604026  0.695694  0.860988  1
  O  O12  1  0.304306  0.395974  0.660708  1
  O  O13  1  0.660708  0.139012  0.304306  1
  O  O14  1  0.139012  0.660708  0.395974  1
  O  O15  1  0.395974  0.660708  0.304306  1
  O  O16  1  0.695694  0.339292  0.860988  1
  O  O17  1  0.339292  0.695694  0.604026  1
  O  O18  1  0.860988  0.695694  0.339292  1
  O  O19  1  0.308774  0.063742  0.063742  1
  O  O20  1  0.604026  0.860988  0.339292  1
  O  O21  1  0.339292  0.860988  0.695694  1
  O  O22  1  0.695694  0.604026  0.339292  1
  O  O23  1  0.604026  0.339292  0.695694  1
  O  O24  1  0.936258  0.936258  0.936258  1
  O  O25  1  0.691226  0.936258  0.936258  1
  O  O26  1  0.395974  0.139012  0.660708  1
  O  O27  1  0.936258  0.936258  0.691226  1
  O  O28  1  0.063742  0.063742  0.063742  1
  O  O29  1  0.936258  0.691226  0.936258  1
  O  O30  1  0.063742  0.308774  0.063742  1
  O  O31  1  0.063742  0.063742  0.308774  1
  O  O32  1  0.395974  0.304306  0.139012  1
  O  O33  1  0.139012  0.395974  0.304306  1
  O  O34  1  0.304306  0.139012  0.395974  1
  O  O35  1  0.660708  0.395974  0.139012  1
  O  O36  1  0.304306  0.660708  0.139012  1
  O  O37  1  0.660708  0.304306  0.395974  1
  O  O38  1  0.139012  0.304306  0.660708  1
  O  O39  1  0.860988  0.339292  0.604026  1
  Na  Na40  1  0.091347  0.658653  0.658653  1
  Na  Na41  1  0.658653  0.091347  0.658653  1
  Na  Na42  1  0.658653  0.658653  0.091347  1
  Na  Na43  1  0.091347  0.091347  0.658653  1
  Na  Na44  1  0.091347  0.658653  0.091347  1
  Na  Na45  1  0.658653  0.091347  0.091347  1
  Na  Na46  1  0.341347  0.908653  0.908653  1
  Na  Na47  1  0.341347  0.908653  0.341347  1
  Na  Na48  1  0.341347  0.341347  0.908653  1
  Na  Na49  1  0.908653  0.341347  0.341347  1
  Na  Na50  1  0.908653  0.341347  0.908653  1
  Na  Na51  1  0.908653  0.908653  0.341347  1
  S  S52  1  0.125000  0.125000  0.125000  1
  S  S53  1  0.875000  0.875000  0.875000  1
  Fe  Fe54  1  0.500000  0.000000  0.500000  1
  Fe  Fe55  1  0.500000  0.500000  0.000000  1
  Fe  Fe56  1  0.000000  0.500000  0.500000  1
  Fe  Fe57  1  0.500000  0.500000  0.500000  1
