# generated using pymatgen
data_Na2Te2O5
_symmetry_space_group_name_H-M   'P 1'
_cell_length_a   4.97635974
_cell_length_b   9.97121050
_cell_length_c   12.21044066
_cell_angle_alpha   102.58381155
_cell_angle_beta   101.75778530
_cell_angle_gamma   90.00000002
_symmetry_Int_Tables_number   1
_chemical_formula_structural   Na2Te2O5
_chemical_formula_sum   'Na8 Te8 O20'
_cell_volume   578.29903190
_cell_formula_units_Z   4
loop_
 _symmetry_equiv_pos_site_id
 _symmetry_equiv_pos_as_xyz
  1  'x, y, z'
loop_
 _atom_site_type_symbol
 _atom_site_label
 _atom_site_symmetry_multiplicity
 _atom_site_fract_x
 _atom_site_fract_y
 _atom_site_fract_z
 _atom_site_occupancy
  O  O0  1  0.494602  0.365753  0.492719  1
  O  O1  1  0.001883  0.134247  0.507281  1
  O  O2  1  0.505398  0.634247  0.507281  1
  O  O3  1  0.998117  0.865753  0.492719  1
  O  O4  1  0.637719  0.250046  0.290222  1
  O  O5  1  0.347497  0.249954  0.709778  1
  O  O6  1  0.362281  0.749954  0.709778  1
  O  O7  1  0.652503  0.750046  0.290222  1
  O  O8  1  0.567081  0.361969  0.089616  1
  O  O9  1  0.477465  0.138031  0.910384  1
  O  O10  1  0.432919  0.638031  0.910384  1
  O  O11  1  0.522535  0.861969  0.089616  1
  O  O12  1  0.167102  0.155037  0.104306  1
  O  O13  1  0.062796  0.344963  0.895694  1
  O  O14  1  0.832898  0.844963  0.895694  1
  O  O15  1  0.937204  0.655037  0.104306  1
  O  O16  1  0.055858  0.963415  0.296030  1
  O  O17  1  0.759828  0.536585  0.703970  1
  O  O18  1  0.944142  0.036585  0.703970  1
  O  O19  1  0.240172  0.463415  0.296030  1
  Na  Na20  1  0.161027  0.205647  0.342442  1
  Na  Na21  1  0.818585  0.294353  0.657558  1
  Na  Na22  1  0.838973  0.794353  0.657558  1
  Na  Na23  1  0.181415  0.705647  0.342442  1
  Na  Na24  1  0.063626  0.411823  0.103139  1
  Na  Na25  1  0.960487  0.088177  0.896861  1
  Na  Na26  1  0.936374  0.588177  0.896861  1
  Na  Na27  1  0.039513  0.911823  0.103139  1
  Te  Te28  1  0.548092  0.180460  0.118263  1
  Te  Te29  1  0.429829  0.319540  0.881737  1
  Te  Te30  1  0.451908  0.819540  0.881737  1
  Te  Te31  1  0.570171  0.680460  0.118263  1
  Te  Te32  1  0.593857  0.452734  0.378461  1
  Te  Te33  1  0.215396  0.047266  0.621539  1
  Te  Te34  1  0.406143  0.547266  0.621539  1
  Te  Te35  1  0.784604  0.952734  0.378461  1
