# generated using pymatgen
data_CrAs
_symmetry_space_group_name_H-M   'P 1'
_cell_length_a   3.56922982
_cell_length_b   5.68700990
_cell_length_c   6.28786980
_cell_angle_alpha   90.00000000
_cell_angle_beta   90.00000000
_cell_angle_gamma   90.00000000
_symmetry_Int_Tables_number   1
_chemical_formula_structural   CrAs
_chemical_formula_sum   'Cr4 As4'
_cell_volume   127.63272375
_cell_formula_units_Z   4
loop_
 _symmetry_equiv_pos_site_id
 _symmetry_equiv_pos_as_xyz
  1  'x, y, z'
loop_
 _atom_site_type_symbol
 _atom_site_label
 _atom_site_symmetry_multiplicity
 _atom_site_fract_x
 _atom_site_fract_y
 _atom_site_fract_z
 _atom_site_occupancy
  Cr  Cr0  1  0.750000  0.997984  0.784450  1
  Cr  Cr1  1  0.250000  0.002016  0.215550  1
  Cr  Cr2  1  0.750000  0.497984  0.715550  1
  Cr  Cr3  1  0.250000  0.502016  0.284450  1
  As  As4  1  0.750000  0.786216  0.420216  1
  As  As5  1  0.250000  0.213784  0.579784  1
  As  As6  1  0.750000  0.286216  0.079784  1
  As  As7  1  0.250000  0.713784  0.920216  1
