# generated using pymatgen
data_BiPO4
_symmetry_space_group_name_H-M   'P 1'
_cell_length_a   6.78618673
_cell_length_b   7.45799917
_cell_length_c   6.81725762
_cell_angle_alpha   90.00000000
_cell_angle_beta   90.00000000
_cell_angle_gamma   101.32036818
_symmetry_Int_Tables_number   1
_chemical_formula_structural   BiPO4
_chemical_formula_sum   'Bi4 P4 O16'
_cell_volume   338.31818705
_cell_formula_units_Z   4
loop_
 _symmetry_equiv_pos_site_id
 _symmetry_equiv_pos_as_xyz
  1  'x, y, z'
loop_
 _atom_site_type_symbol
 _atom_site_label
 _atom_site_symmetry_multiplicity
 _atom_site_fract_x
 _atom_site_fract_y
 _atom_site_fract_z
 _atom_site_occupancy
  O  O0  1  0.868776  0.568934  0.269762  1
  O  O1  1  0.631224  0.931066  0.769762  1
  O  O2  1  0.131224  0.431066  0.730238  1
  O  O3  1  0.368776  0.068934  0.230238  1
  O  O4  1  0.574684  0.060733  0.317183  1
  O  O5  1  0.925316  0.439267  0.817183  1
  O  O6  1  0.425316  0.939267  0.682817  1
  O  O7  1  0.074684  0.560733  0.182817  1
  O  O8  1  0.522628  0.302744  0.968265  1
  O  O9  1  0.977372  0.197256  0.468265  1
  O  O10  1  0.477372  0.697256  0.031735  1
  O  O11  1  0.022628  0.802744  0.531735  1
  O  O12  1  0.457378  0.402634  0.321650  1
  O  O13  1  0.042622  0.097366  0.821650  1
  O  O14  1  0.542622  0.597366  0.678350  1
  O  O15  1  0.957378  0.902634  0.178350  1
  P  P16  1  0.877005  0.776368  0.356676  1
  P  P17  1  0.622995  0.723632  0.856676  1
  P  P18  1  0.122995  0.223632  0.643324  1
  P  P19  1  0.377005  0.276368  0.143324  1
  Bi  Bi20  1  0.460927  0.744693  0.379579  1
  Bi  Bi21  1  0.039073  0.755307  0.879579  1
  Bi  Bi22  1  0.539073  0.255307  0.620421  1
  Bi  Bi23  1  0.960927  0.244693  0.120421  1
