# generated using pymatgen
data_ErSeClO3
_symmetry_space_group_name_H-M   'P 1'
_cell_length_a   6.96136100
_cell_length_b   7.27822938
_cell_length_c   8.81433311
_cell_angle_alpha   90.00000000
_cell_angle_beta   90.00000000
_cell_angle_gamma   90.00000000
_symmetry_Int_Tables_number   1
_chemical_formula_structural   ErSeClO3
_chemical_formula_sum   'Er4 Se4 Cl4 O12'
_cell_volume   446.59036979
_cell_formula_units_Z   4
loop_
 _symmetry_equiv_pos_site_id
 _symmetry_equiv_pos_as_xyz
  1  'x, y, z'
loop_
 _atom_site_type_symbol
 _atom_site_label
 _atom_site_symmetry_multiplicity
 _atom_site_fract_x
 _atom_site_fract_y
 _atom_site_fract_z
 _atom_site_occupancy
  Er  Er0  1  0.750000  0.397027  0.960759  1
  Er  Er1  1  0.250000  0.602973  0.039241  1
  Er  Er2  1  0.750000  0.897027  0.539241  1
  Er  Er3  1  0.250000  0.102973  0.460759  1
  Se  Se4  1  0.250000  0.209314  0.866756  1
  Se  Se5  1  0.750000  0.790686  0.133244  1
  Se  Se6  1  0.750000  0.290686  0.366756  1
  Se  Se7  1  0.250000  0.709314  0.633244  1
  Cl  Cl8  1  0.250000  0.939070  0.183085  1
  Cl  Cl9  1  0.750000  0.560930  0.683085  1
  Cl  Cl10  1  0.250000  0.439070  0.316915  1
  Cl  Cl11  1  0.750000  0.060930  0.816915  1
  O  O12  1  0.071830  0.859830  0.567367  1
  O  O13  1  0.428170  0.859830  0.567367  1
  O  O14  1  0.571830  0.640170  0.067367  1
  O  O15  1  0.928170  0.640170  0.067367  1
  O  O16  1  0.571830  0.140170  0.432633  1
  O  O17  1  0.071830  0.359830  0.932633  1
  O  O18  1  0.250000  0.751409  0.822945  1
  O  O19  1  0.750000  0.748591  0.322945  1
  O  O20  1  0.428170  0.359830  0.932633  1
  O  O21  1  0.250000  0.251409  0.677055  1
  O  O22  1  0.750000  0.248591  0.177055  1
  O  O23  1  0.928170  0.140170  0.432633  1
