# generated using pymatgen
data_BaYCo2O5
_symmetry_space_group_name_H-M   'P 1'
_cell_length_a   3.93491958
_cell_length_b   7.57284386
_cell_length_c   7.68577276
_cell_angle_alpha   89.96344549
_cell_angle_beta   90.00000000
_cell_angle_gamma   90.00000000
_symmetry_Int_Tables_number   1
_chemical_formula_structural   BaYCo2O5
_chemical_formula_sum   'Ba2 Y2 Co4 O10'
_cell_volume   229.02469570
_cell_formula_units_Z   2
loop_
 _symmetry_equiv_pos_site_id
 _symmetry_equiv_pos_as_xyz
  1  'x, y, z'
loop_
 _atom_site_type_symbol
 _atom_site_label
 _atom_site_symmetry_multiplicity
 _atom_site_fract_x
 _atom_site_fract_y
 _atom_site_fract_z
 _atom_site_occupancy
  Ba  Ba0  1  0.000000  -0.000018  0.498134  1
  Ba  Ba1  1  0.000000  0.000033  0.001838  1
  Y  Y2  1  0.000000  0.499946  0.500329  1
  Y  Y3  1  0.000000  0.499945  0.999657  1
  Co  Co4  1  0.500000  0.257578  0.750129  1
  Co  Co5  1  0.500000  0.263229  0.250130  1
  Co  Co6  1  0.500000  0.742359  0.749998  1
  Co  Co7  1  0.500000  0.736524  0.249918  1
  O  O8  1  0.500000  0.684782  0.498845  1
  O  O9  1  0.000000  0.308980  0.249874  1
  O  O10  1  0.000000  0.692068  0.249960  1
  O  O11  1  0.500000  0.999718  0.250337  1
  O  O12  1  0.500000  0.684784  0.000965  1
  O  O13  1  0.500000  0.315071  0.499938  1
  O  O14  1  0.500000  0.315306  -0.000288  1
  O  O15  1  0.000000  0.309495  0.750359  1
  O  O16  1  0.000000  0.690165  0.750012  1
  O  O17  1  0.500000  1.000037  0.749865  1
