# generated using pymatgen
data_K2Li2FeO4
_symmetry_space_group_name_H-M   'P 1'
_cell_length_a   5.58375473
_cell_length_b   9.26153207
_cell_length_c   11.30167824
_cell_angle_alpha   90.00000000
_cell_angle_beta   113.48835676
_cell_angle_gamma   90.00000000
_symmetry_Int_Tables_number   1
_chemical_formula_structural   K2Li2FeO4
_chemical_formula_sum   'K8 Li8 Fe4 O16'
_cell_volume   536.02896378
_cell_formula_units_Z   4
loop_
 _symmetry_equiv_pos_site_id
 _symmetry_equiv_pos_as_xyz
  1  'x, y, z'
loop_
 _atom_site_type_symbol
 _atom_site_label
 _atom_site_symmetry_multiplicity
 _atom_site_fract_x
 _atom_site_fract_y
 _atom_site_fract_z
 _atom_site_occupancy
  Li  Li0  1  0.355924  0.522832  0.067267  1
  Li  Li1  1  0.608941  0.761740  0.183892  1
  Li  Li2  1  0.644076  0.022832  0.432733  1
  Li  Li3  1  0.391059  0.261740  0.316108  1
  Li  Li4  1  0.608941  0.738260  0.683892  1
  Li  Li5  1  0.355924  0.977168  0.567267  1
  Li  Li6  1  0.644076  0.477168  0.932733  1
  Li  Li7  1  0.391059  0.238260  0.816108  1
  O  O8  1  0.709941  0.672881  0.867433  1
  O  O9  1  0.771847  0.281894  0.910107  1
  O  O10  1  0.283996  0.082504  0.387055  1
  O  O11  1  0.192833  0.378622  0.395927  1
  O  O12  1  0.290059  0.327119  0.132567  1
  O  O13  1  0.228153  0.718106  0.089893  1
  O  O14  1  0.716004  0.917496  0.612945  1
  O  O15  1  0.807167  0.621378  0.604073  1
  O  O16  1  0.771847  0.218106  0.410107  1
  O  O17  1  0.709941  0.827119  0.367433  1
  O  O18  1  0.807167  0.878622  0.104073  1
  O  O19  1  0.716004  0.582504  0.112945  1
  O  O20  1  0.192833  0.121378  0.895927  1
  O  O21  1  0.283996  0.417496  0.887055  1
  O  O22  1  0.290059  0.172881  0.632567  1
  O  O23  1  0.228153  0.781894  0.589893  1
  K  K24  1  0.810681  0.283574  0.157287  1
  K  K25  1  0.690174  0.506103  0.362010  1
  K  K26  1  0.810681  0.216426  0.657287  1
  K  K27  1  0.309826  0.006103  0.137990  1
  K  K28  1  0.690174  0.993897  0.862010  1
  K  K29  1  0.189319  0.783574  0.342713  1
  K  K30  1  0.309826  0.493897  0.637990  1
  K  K31  1  0.189319  0.716426  0.842713  1
  Fe  Fe32  1  0.875097  0.711467  0.043098  1
  Fe  Fe33  1  0.875097  0.788533  0.543098  1
  Fe  Fe34  1  0.124903  0.211467  0.456902  1
  Fe  Fe35  1  0.124903  0.288533  0.956902  1
