# generated using pymatgen
data_MgFe2P2(HO)18
_symmetry_space_group_name_H-M   'P 1'
_cell_length_a   5.39630684
_cell_length_b   7.33944831
_cell_length_c   10.33623663
_cell_angle_alpha   73.93514772
_cell_angle_beta   78.66479648
_cell_angle_gamma   67.72456997
_symmetry_Int_Tables_number   1
_chemical_formula_structural   MgFe2P2(HO)18
_chemical_formula_sum   'Mg1 Fe2 P2 H18 O18'
_cell_volume   362.09307398
_cell_formula_units_Z   1
loop_
 _symmetry_equiv_pos_site_id
 _symmetry_equiv_pos_as_xyz
  1  'x, y, z'
loop_
 _atom_site_type_symbol
 _atom_site_label
 _atom_site_symmetry_multiplicity
 _atom_site_fract_x
 _atom_site_fract_y
 _atom_site_fract_z
 _atom_site_occupancy
  H  H0  1  0.521698  0.574221  0.733510  1
  H  H1  1  0.478302  0.425779  0.266490  1
  H  H2  1  0.571155  0.351399  0.817306  1
  H  H3  1  0.428845  0.648601  0.182694  1
  H  H4  1  0.474763  0.987242  0.121068  1
  H  H5  1  0.352694  0.961330  0.796178  1
  H  H6  1  0.220962  0.613869  0.945403  1
  H  H7  1  0.779038  0.386131  0.054597  1
  H  H8  1  0.079229  0.598302  0.094807  1
  H  H9  1  0.920771  0.401698  0.905193  1
  H  H10  1  0.820504  0.487391  0.268267  1
  H  H11  1  0.179496  0.512609  0.731733  1
  H  H12  1  0.086159  0.303815  0.315957  1
  H  H13  1  0.913841  0.696185  0.684043  1
  H  H14  1  0.480872  0.675509  0.482301  1
  H  H15  1  0.519128  0.324491  0.517699  1
  H  H16  1  0.525237  0.012758  0.878932  1
  H  H17  1  0.647306  0.038670  0.203822  1
  O  O18  1  0.076640  0.689788  0.005463  1
  O  O19  1  0.367866  0.970346  0.888277  1
  O  O20  1  0.632134  0.029654  0.111723  1
  O  O21  1  0.564269  0.509188  0.195401  1
  O  O22  1  0.435731  0.490812  0.804599  1
  O  O23  1  0.000487  0.544633  0.697801  1
  O  O24  1  0.630329  0.701670  0.507669  1
  O  O25  1  0.369671  0.298330  0.492331  1
  O  O26  1  0.235740  0.052007  0.364148  1
  O  O27  1  0.764260  0.947993  0.635852  1
  O  O28  1  0.810116  0.094840  0.821242  1
  O  O29  1  0.189884  0.905160  0.178758  1
  O  O30  1  0.830357  0.286035  0.576040  1
  O  O31  1  0.169643  0.713965  0.423960  1
  O  O32  1  0.217448  0.961590  0.658835  1
  O  O33  1  0.782552  0.038410  0.341165  1
  O  O34  1  0.923360  0.310212  0.994537  1
  O  O35  1  0.999513  0.455367  0.302199  1
  Mg  Mg36  1  0.000000  0.000000  0.000000  1
  P  P37  1  0.092159  0.927101  0.326794  1
  P  P38  1  0.907841  0.072899  0.673206  1
  Fe  Fe39  1  0.500000  0.000000  0.500000  1
  Fe  Fe40  1  0.000000  0.500000  0.500000  1
