# generated using pymatgen
data_Tl4O3
_symmetry_space_group_name_H-M   'P 1'
_cell_length_a   3.55955895
_cell_length_b   7.94598296
_cell_length_c   11.34091255
_cell_angle_alpha   109.53234801
_cell_angle_beta   90.00000000
_cell_angle_gamma   90.00000000
_symmetry_Int_Tables_number   1
_chemical_formula_structural   Tl4O3
_chemical_formula_sum   'Tl8 O6'
_cell_volume   302.30927162
_cell_formula_units_Z   2
loop_
 _symmetry_equiv_pos_site_id
 _symmetry_equiv_pos_as_xyz
  1  'x, y, z'
loop_
 _atom_site_type_symbol
 _atom_site_label
 _atom_site_symmetry_multiplicity
 _atom_site_fract_x
 _atom_site_fract_y
 _atom_site_fract_z
 _atom_site_occupancy
  O  O0  1  0.750000  0.238450  0.600239  1
  O  O1  1  0.250000  0.761550  0.399761  1
  O  O2  1  0.750000  0.475001  0.180972  1
  O  O3  1  0.250000  0.524999  0.819028  1
  O  O4  1  0.750000  0.638073  0.607605  1
  O  O5  1  0.250000  0.361927  0.392395  1
  Tl  Tl6  1  0.250000  0.431001  0.607627  1
  Tl  Tl7  1  0.750000  0.568999  0.392373  1
  Tl  Tl8  1  0.750000  0.083997  0.375519  1
  Tl  Tl9  1  0.250000  0.916003  0.624481  1
  Tl  Tl10  1  0.750000  0.304986  0.839478  1
  Tl  Tl11  1  0.250000  0.695014  0.160522  1
  Tl  Tl12  1  0.750000  0.765176  0.863136  1
  Tl  Tl13  1  0.250000  0.234824  0.136864  1
