# generated using pymatgen
data_CaH2(CO2)2
_symmetry_space_group_name_H-M   'P 1'
_cell_length_a   6.38809724
_cell_length_b   10.33998548
_cell_length_c   13.71721496
_cell_angle_alpha   90.00000000
_cell_angle_beta   90.00000000
_cell_angle_gamma   90.00000000
_symmetry_Int_Tables_number   1
_chemical_formula_structural   CaH2(CO2)2
_chemical_formula_sum   'Ca8 H16 C16 O32'
_cell_volume   906.06090495
_cell_formula_units_Z   8
loop_
 _symmetry_equiv_pos_site_id
 _symmetry_equiv_pos_as_xyz
  1  'x, y, z'
loop_
 _atom_site_type_symbol
 _atom_site_label
 _atom_site_symmetry_multiplicity
 _atom_site_fract_x
 _atom_site_fract_y
 _atom_site_fract_z
 _atom_site_occupancy
  Ca  Ca0  1  0.524146  0.865196  0.392883  1
  Ca  Ca1  1  0.524146  0.365196  0.107117  1
  Ca  Ca2  1  0.475854  0.134804  0.607117  1
  Ca  Ca3  1  0.975854  0.865196  0.892883  1
  Ca  Ca4  1  0.975854  0.365196  0.607117  1
  Ca  Ca5  1  0.024146  0.134804  0.107117  1
  Ca  Ca6  1  0.024146  0.634804  0.392883  1
  Ca  Ca7  1  0.475854  0.634804  0.892883  1
  H  H8  1  0.966737  0.902925  0.602202  1
  H  H9  1  0.466737  0.597075  0.602202  1
  H  H10  1  0.533263  0.402925  0.397798  1
  H  H11  1  0.029839  0.660321  0.705724  1
  H  H12  1  0.529839  0.839679  0.705724  1
  H  H13  1  0.533263  0.902925  0.102202  1
  H  H14  1  0.529839  0.339679  0.794276  1
  H  H15  1  0.033263  0.097075  0.397798  1
  H  H16  1  0.033263  0.597075  0.102202  1
  H  H17  1  0.470161  0.160321  0.294276  1
  H  H18  1  0.466737  0.097075  0.897798  1
  H  H19  1  0.966737  0.402925  0.897798  1
  H  H20  1  0.029839  0.160321  0.794276  1
  H  H21  1  0.970161  0.839679  0.205724  1
  H  H22  1  0.470161  0.660321  0.205724  1
  H  H23  1  0.970161  0.339679  0.294276  1
  C  C24  1  0.121580  0.874341  0.235251  1
  C  C25  1  0.621580  0.125659  0.264749  1
  C  C26  1  0.378420  0.874341  0.735251  1
  C  C27  1  0.345250  0.110242  0.954668  1
  C  C28  1  0.154750  0.110242  0.454668  1
  C  C29  1  0.845250  0.889758  0.545332  1
  C  C30  1  0.878420  0.125659  0.764749  1
  C  C31  1  0.621580  0.625659  0.235251  1
  C  C32  1  0.154750  0.610242  0.045332  1
  C  C33  1  0.654750  0.889758  0.045332  1
  C  C34  1  0.378420  0.374341  0.764749  1
  C  C35  1  0.121580  0.374341  0.264749  1
  C  C36  1  0.345250  0.610242  0.545332  1
  C  C37  1  0.654750  0.389758  0.454668  1
  C  C38  1  0.845250  0.389758  0.954668  1
  C  C39  1  0.878420  0.625659  0.735251  1
  O  O40  1  0.707199  0.696429  0.300700  1
  O  O41  1  0.633654  0.799527  0.983384  1
  O  O42  1  0.803727  0.521448  0.702680  1
  O  O43  1  0.189793  0.533927  0.543950  1
  O  O44  1  0.366346  0.700473  0.483384  1
  O  O45  1  0.810207  0.966073  0.043950  1
  O  O46  1  0.633654  0.299527  0.516616  1
  O  O47  1  0.707199  0.196429  0.199300  1
  O  O48  1  0.792801  0.696429  0.800700  1
  O  O49  1  0.196273  0.978552  0.202680  1
  O  O50  1  0.310207  0.033927  0.456050  1
  O  O51  1  0.292801  0.303571  0.699300  1
  O  O52  1  0.866346  0.299527  0.016616  1
  O  O53  1  0.689793  0.966073  0.543950  1
  O  O54  1  0.866346  0.799527  0.483384  1
  O  O55  1  0.366346  0.200473  0.016616  1
  O  O56  1  0.207199  0.303571  0.199300  1
  O  O57  1  0.792801  0.196429  0.699300  1
  O  O58  1  0.303727  0.978552  0.702680  1
  O  O59  1  0.303727  0.478552  0.797320  1
  O  O60  1  0.196273  0.478552  0.297320  1
  O  O61  1  0.689793  0.466073  0.956050  1
  O  O62  1  0.696273  0.021448  0.297320  1
  O  O63  1  0.207199  0.803571  0.300700  1
  O  O64  1  0.810207  0.466073  0.456050  1
  O  O65  1  0.696273  0.521448  0.202680  1
  O  O66  1  0.292801  0.803571  0.800700  1
  O  O67  1  0.310207  0.533927  0.043950  1
  O  O68  1  0.803727  0.021448  0.797320  1
  O  O69  1  0.189793  0.033927  0.956050  1
  O  O70  1  0.133654  0.700473  0.983384  1
  O  O71  1  0.133654  0.200473  0.516616  1
