# generated using pymatgen
data_CdTeO3
_symmetry_space_group_name_H-M   'P 1'
_cell_length_a   7.59565083
_cell_length_b   7.98098461
_cell_length_c   11.45142215
_cell_angle_alpha   90.00000000
_cell_angle_beta   90.00000000
_cell_angle_gamma   113.93007901
_symmetry_Int_Tables_number   1
_chemical_formula_structural   CdTeO3
_chemical_formula_sum   'Cd8 Te8 O24'
_cell_volume   634.52192521
_cell_formula_units_Z   8
loop_
 _symmetry_equiv_pos_site_id
 _symmetry_equiv_pos_as_xyz
  1  'x, y, z'
loop_
 _atom_site_type_symbol
 _atom_site_label
 _atom_site_symmetry_multiplicity
 _atom_site_fract_x
 _atom_site_fract_y
 _atom_site_fract_z
 _atom_site_occupancy
  O  O0  1  0.992474  0.196109  0.078333  1
  O  O1  1  0.507526  0.803891  0.578333  1
  O  O2  1  0.007526  0.803891  0.921667  1
  O  O3  1  0.492474  0.196109  0.421667  1
  O  O4  1  0.940268  0.509186  0.372746  1
  O  O5  1  0.559732  0.490814  0.872746  1
  O  O6  1  0.059732  0.490814  0.627254  1
  O  O7  1  0.440268  0.509186  0.127254  1
  O  O8  1  0.829709  0.699010  0.167391  1
  O  O9  1  0.670291  0.300990  0.667391  1
  O  O10  1  0.170291  0.300990  0.832609  1
  O  O11  1  0.329709  0.699010  0.332609  1
  O  O12  1  0.737477  0.995209  0.371044  1
  O  O13  1  0.762523  0.004791  0.871044  1
  O  O14  1  0.262523  0.004791  0.628956  1
  O  O15  1  0.237477  0.995209  0.128956  1
  O  O16  1  0.111509  0.949907  0.410479  1
  O  O17  1  0.388491  0.050093  0.910479  1
  O  O18  1  0.888491  0.050093  0.589521  1
  O  O19  1  0.611509  0.949907  0.089521  1
  O  O20  1  0.156509  0.298549  0.323647  1
  O  O21  1  0.343491  0.701451  0.823647  1
  O  O22  1  0.843491  0.701451  0.676353  1
  O  O23  1  0.656509  0.298549  0.176353  1
  Cd  Cd24  1  0.306566  0.268606  0.008520  1
  Cd  Cd25  1  0.193434  0.731394  0.508520  1
  Cd  Cd26  1  0.693434  0.731394  0.991480  1
  Cd  Cd27  1  0.806566  0.268606  0.491480  1
  Cd  Cd28  1  0.976445  0.003805  0.233942  1
  Cd  Cd29  1  0.523555  0.996195  0.733942  1
  Cd  Cd30  1  0.023555  0.996195  0.766058  1
  Cd  Cd31  1  0.476445  0.003805  0.266058  1
  Te  Te32  1  0.123655  0.501911  0.257499  1
  Te  Te33  1  0.376345  0.498089  0.757499  1
  Te  Te34  1  0.876345  0.498089  0.742501  1
  Te  Te35  1  0.623655  0.501911  0.242501  1
  Te  Te36  1  0.240834  0.835898  -0.000214  1
  Te  Te37  1  0.259166  0.164102  0.499786  1
  Te  Te38  1  0.759166  0.164102  1.000214  1
  Te  Te39  1  0.740834  0.835898  0.500214  1
