# generated using pymatgen
data_Pr2NCl3
_symmetry_space_group_name_H-M   'P 1'
_cell_length_a   6.20435291
_cell_length_b   6.90772837
_cell_length_c   8.29077207
_cell_angle_alpha   114.63964137
_cell_angle_beta   111.99338391
_cell_angle_gamma   89.98913428
_symmetry_Int_Tables_number   1
_chemical_formula_structural   Pr2NCl3
_chemical_formula_sum   'Pr4 N2 Cl6'
_cell_volume   294.29803584
_cell_formula_units_Z   2
loop_
 _symmetry_equiv_pos_site_id
 _symmetry_equiv_pos_as_xyz
  1  'x, y, z'
loop_
 _atom_site_type_symbol
 _atom_site_label
 _atom_site_symmetry_multiplicity
 _atom_site_fract_x
 _atom_site_fract_y
 _atom_site_fract_z
 _atom_site_occupancy
  Pr  Pr0  1  0.906636  0.730696  0.813397  1
  Pr  Pr1  1  0.093364  0.269304  0.186603  1
  Pr  Pr2  1  0.593311  0.917323  0.186574  1
  Pr  Pr3  1  0.406689  0.082677  0.813426  1
  Cl  Cl4  1  0.750004  0.499999  -0.000000  1
  Cl  Cl5  1  0.249996  0.500001  1.000000  1
  Cl  Cl6  1  0.201119  0.021287  0.402236  1
  Cl  Cl7  1  0.798881  0.978713  0.597764  1
  Cl  Cl8  1  0.298888  0.619036  0.597756  1
  Cl  Cl9  1  0.701112  0.380964  0.402244  1
  N  N10  1  0.750001  0.000008  1.000004  1
  N  N11  1  0.249999  0.999992  -0.000004  1
