# generated using pymatgen
data_RbB10H9
_symmetry_space_group_name_H-M   'P 1'
_cell_length_a   7.30088936
_cell_length_b   12.71810641
_cell_length_c   19.06721549
_cell_angle_alpha   90.00000000
_cell_angle_beta   90.00000000
_cell_angle_gamma   90.00000000
_symmetry_Int_Tables_number   1
_chemical_formula_structural   RbB10H9
_chemical_formula_sum   'Rb8 B80 H72'
_cell_volume   1770.45746027
_cell_formula_units_Z   8
loop_
 _symmetry_equiv_pos_site_id
 _symmetry_equiv_pos_as_xyz
  1  'x, y, z'
loop_
 _atom_site_type_symbol
 _atom_site_label
 _atom_site_symmetry_multiplicity
 _atom_site_fract_x
 _atom_site_fract_y
 _atom_site_fract_z
 _atom_site_occupancy
  H  H0  1  0.616768  0.284953  0.711724  1
  H  H1  1  0.383232  0.715047  0.211724  1
  H  H2  1  0.883232  0.784953  0.711724  1
  H  H3  1  0.116768  0.215047  0.211724  1
  H  H4  1  0.888517  0.475433  0.784261  1
  H  H5  1  0.111483  0.524567  0.284261  1
  H  H6  1  0.611483  0.975433  0.784261  1
  H  H7  1  0.388517  0.024567  0.284261  1
  H  H8  1  0.285692  0.281102  0.794044  1
  H  H9  1  0.714308  0.718898  0.294044  1
  H  H10  1  0.214308  0.781102  0.794044  1
  H  H11  1  0.785692  0.218898  0.294044  1
  H  H12  1  0.576035  0.124725  0.850877  1
  H  H13  1  0.423965  0.875275  0.350877  1
  H  H14  1  0.923965  0.624725  0.850877  1
  H  H15  1  0.076035  0.375275  0.350877  1
  H  H16  1  0.396877  0.329171  0.947096  1
  H  H17  1  0.603123  0.670829  0.447096  1
  H  H18  1  0.103123  0.829171  0.947096  1
  H  H19  1  0.896877  0.170829  0.447096  1
  H  H20  1  0.471077  0.497473  0.809807  1
  H  H21  1  0.528923  0.502527  0.309807  1
  H  H22  1  0.028923  0.997473  0.809807  1
  H  H23  1  0.971077  0.002527  0.309807  1
  H  H24  1  0.935933  0.204044  0.803560  1
  H  H25  1  0.064067  0.795956  0.303560  1
  H  H26  1  0.564067  0.704044  0.803560  1
  H  H27  1  0.435933  0.295956  0.303560  1
  H  H28  1  0.766256  0.228121  0.969493  1
  H  H29  1  0.233744  0.771879  0.469493  1
  H  H30  1  0.733744  0.728121  0.969493  1
  H  H31  1  0.266256  0.271879  0.469493  1
  H  H32  1  0.690460  0.493763  0.941869  1
  H  H33  1  0.309540  0.506237  0.441869  1
  H  H34  1  0.809540  0.993763  0.941869  1
  H  H35  1  0.190460  0.006237  0.441869  1
  H  H36  1  0.053238  0.380499  0.907575  1
  H  H37  1  0.946762  0.619501  0.407575  1
  H  H38  1  0.446762  0.880499  0.907575  1
  H  H39  1  0.553238  0.119501  0.407575  1
  H  H40  1  0.453275  0.377893  0.588705  1
  H  H41  1  0.546725  0.622107  0.088705  1
  H  H42  1  0.046725  0.877893  0.588705  1
  H  H43  1  0.953275  0.122107  0.088705  1
  H  H44  1  0.570631  0.555876  0.691907  1
  H  H45  1  0.429369  0.444124  0.191907  1
  H  H46  1  0.929369  0.055876  0.691907  1
  H  H47  1  0.070631  0.944124  0.191907  1
  H  H48  1  0.742094  0.529285  0.525445  1
  H  H49  1  0.257906  0.470715  0.025445  1
  H  H50  1  0.757906  0.029285  0.525445  1
  H  H51  1  0.242094  0.970715  0.025445  1
  H  H52  1  0.816086  0.264321  0.555366  1
  H  H53  1  0.183914  0.735679  0.055366  1
  H  H54  1  0.683914  0.764321  0.555366  1
  H  H55  1  0.316086  0.235679  0.055366  1
  H  H56  1  0.929525  0.634863  0.643782  1
  H  H57  1  0.070475  0.365137  0.143782  1
  H  H58  1  0.570475  0.134863  0.643782  1
  H  H59  1  0.429525  0.865137  0.143782  1
  H  H60  1  0.108892  0.429333  0.548404  1
  H  H61  1  0.891108  0.570667  0.048404  1
  H  H62  1  0.391108  0.929333  0.548404  1
  H  H63  1  0.608892  0.070667  0.048404  1
  H  H64  1  0.035729  0.263007  0.687496  1
  H  H65  1  0.964271  0.736993  0.187496  1
  H  H66  1  0.464271  0.763007  0.687496  1
  H  H67  1  0.535729  0.236993  0.187496  1
  H  H68  1  0.220464  0.479323  0.701660  1
  H  H69  1  0.779536  0.520677  0.201660  1
  H  H70  1  0.279536  0.979323  0.701660  1
  H  H71  1  0.720464  0.020677  0.201660  1
  B  B72  1  0.433773  0.300026  0.817260  1
  B  B73  1  0.566227  0.699974  0.317260  1
  B  B74  1  0.066227  0.800026  0.817260  1
  B  B75  1  0.933773  0.199974  0.317260  1
  B  B76  1  0.639917  0.310276  0.778010  1
  B  B77  1  0.360083  0.689724  0.278010  1
  B  B78  1  0.860083  0.810276  0.778010  1
  B  B79  1  0.139917  0.189724  0.278010  1
  B  B80  1  0.601570  0.217787  0.849094  1
  B  B81  1  0.398430  0.782213  0.349094  1
  B  B82  1  0.898430  0.717787  0.849094  1
  B  B83  1  0.101570  0.282213  0.349094  1
  B  B84  1  0.507348  0.327086  0.900259  1
  B  B85  1  0.492652  0.672914  0.400259  1
  B  B86  1  0.992652  0.827086  0.900259  1
  B  B87  1  0.007348  0.172914  0.400259  1
  B  B88  1  0.542830  0.417666  0.828518  1
  B  B89  1  0.457170  0.582334  0.328518  1
  B  B90  1  0.957170  0.917666  0.828518  1
  B  B91  1  0.042830  0.082334  0.328518  1
  B  B92  1  0.830599  0.264129  0.830086  1
  B  B93  1  0.169401  0.735871  0.330086  1
  B  B94  1  0.669401  0.764129  0.830086  1
  B  B95  1  0.330599  0.235871  0.330086  1
  B  B96  1  0.736745  0.278612  0.917236  1
  B  B97  1  0.263255  0.721388  0.417236  1
  B  B98  1  0.763255  0.778612  0.917236  1
  B  B99  1  0.236745  0.221388  0.417236  1
  B  B100  1  0.695790  0.419403  0.902972  1
  B  B101  1  0.304210  0.580597  0.402972  1
  B  B102  1  0.804210  0.919403  0.902972  1
  B  B103  1  0.195790  0.080597  0.402972  1
  B  B104  1  0.787316  0.402957  0.815108  1
  B  B105  1  0.212684  0.597043  0.315108  1
  B  B106  1  0.712684  0.902957  0.815108  1
  B  B107  1  0.287316  0.097043  0.315108  1
  B  B108  1  0.903476  0.360555  0.886160  1
  B  B109  1  0.096524  0.639445  0.386160  1
  B  B110  1  0.596524  0.860555  0.886160  1
  B  B111  1  0.403476  0.139445  0.386160  1
  B  B112  1  0.603241  0.398571  0.609870  1
  B  B113  1  0.396759  0.601429  0.109870  1
  B  B114  1  0.896759  0.898571  0.609870  1
  B  B115  1  0.103241  0.101429  0.109870  1
  B  B116  1  0.675724  0.495595  0.665422  1
  B  B117  1  0.324276  0.504405  0.165422  1
  B  B118  1  0.824276  0.995595  0.665422  1
  B  B119  1  0.175724  0.004405  0.165422  1
  B  B120  1  0.770195  0.479844  0.578195  1
  B  B121  1  0.229805  0.520156  0.078195  1
  B  B122  1  0.729805  0.979844  0.578195  1
  B  B123  1  0.270195  0.020156  0.078195  1
  B  B124  1  0.810901  0.339387  0.593547  1
  B  B125  1  0.189099  0.660613  0.093547  1
  B  B126  1  0.689099  0.839387  0.593547  1
  B  B127  1  0.310901  0.160613  0.093547  1
  B  B128  1  0.719177  0.356958  0.681173  1
  B  B129  1  0.280823  0.643042  0.181173  1
  B  B130  1  0.780823  0.856958  0.681173  1
  B  B131  1  0.219177  0.143042  0.181173  1
  B  B132  1  0.904653  0.541709  0.646124  1
  B  B133  1  0.095347  0.458291  0.146124  1
  B  B134  1  0.595347  0.041709  0.646124  1
  B  B135  1  0.404653  0.958291  0.146124  1
  B  B136  1  -0.000464  0.431788  0.595518  1
  B  B137  1  1.000464  0.568212  0.095518  1
  B  B138  1  0.500464  0.931788  0.595518  1
  B  B139  1  0.499536  0.068212  0.095518  1
  B  B140  1  0.963682  0.342250  0.667957  1
  B  B141  1  0.036318  0.657750  0.167957  1
  B  B142  1  0.536318  0.842250  0.667957  1
  B  B143  1  0.463682  0.157750  0.167957  1
  B  B144  1  0.866341  0.450063  0.717850  1
  B  B145  1  0.133659  0.549937  0.217850  1
  B  B146  1  0.633659  0.950063  0.717850  1
  B  B147  1  0.366341  0.049937  0.217850  1
  B  B148  1  0.072426  0.460056  0.678481  1
  B  B149  1  0.927574  0.539944  0.178481  1
  B  B150  1  0.427574  0.960056  0.678481  1
  B  B151  1  0.572426  0.039944  0.178481  1
  Rb  Rb152  1  0.170223  0.126565  0.580667  1
  Rb  Rb153  1  0.829777  0.873435  0.080667  1
  Rb  Rb154  1  0.329777  0.626565  0.580667  1
  Rb  Rb155  1  0.670223  0.373435  0.080667  1
  Rb  Rb156  1  0.824856  0.866091  0.418420  1
  Rb  Rb157  1  0.175144  0.133909  0.918420  1
  Rb  Rb158  1  0.675144  0.366091  0.418420  1
  Rb  Rb159  1  0.324856  0.633909  0.918420  1
