# generated using pymatgen
data_CaIrO3
_symmetry_space_group_name_H-M   'P 1'
_cell_length_a   2.78914484
_cell_length_b   5.58537410
_cell_length_c   7.49632048
_cell_angle_alpha   90.00000000
_cell_angle_beta   90.00000000
_cell_angle_gamma   104.45874881
_symmetry_Int_Tables_number   1
_chemical_formula_structural   CaIrO3
_chemical_formula_sum   'Ca2 Ir2 O6'
_cell_volume   113.08208707
_cell_formula_units_Z   2
loop_
 _symmetry_equiv_pos_site_id
 _symmetry_equiv_pos_as_xyz
  1  'x, y, z'
loop_
 _atom_site_type_symbol
 _atom_site_label
 _atom_site_symmetry_multiplicity
 _atom_site_fract_x
 _atom_site_fract_y
 _atom_site_fract_z
 _atom_site_occupancy
  O  O0  1  0.354484  0.708967  0.496022  1
  O  O1  1  0.645516  0.291033  0.503978  1
  O  O2  1  0.645516  0.291033  0.996022  1
  O  O3  1  0.354484  0.708967  0.003978  1
  O  O4  1  0.502233  0.004467  0.750000  1
  O  O5  1  0.497767  0.995533  0.250000  1
  Ca  Ca6  1  0.221760  0.443520  0.750000  1
  Ca  Ca7  1  0.778240  0.556480  0.250000  1
  Ir  Ir8  1  0.000000  0.000000  0.000000  1
  Ir  Ir9  1  0.000000  0.000000  0.500000  1
