# generated using pymatgen
data_Na3CrP8O23
_symmetry_space_group_name_H-M   'P 1'
_cell_length_a   12.13266954
_cell_length_b   12.13266954
_cell_length_c   12.13266954
_cell_angle_alpha   90.00000000
_cell_angle_beta   90.00000000
_cell_angle_gamma   90.00000000
_symmetry_Int_Tables_number   1
_chemical_formula_structural   Na3CrP8O23
_chemical_formula_sum   'Na12 Cr4 P32 O92'
_cell_volume   1785.94921987
_cell_formula_units_Z   4
loop_
 _symmetry_equiv_pos_site_id
 _symmetry_equiv_pos_as_xyz
  1  'x, y, z'
loop_
 _atom_site_type_symbol
 _atom_site_label
 _atom_site_symmetry_multiplicity
 _atom_site_fract_x
 _atom_site_fract_y
 _atom_site_fract_z
 _atom_site_occupancy
  O  O0  1  0.661629  0.661629  0.661629  1
  O  O1  1  0.911629  0.588370  0.411629  1
  O  O2  1  0.588370  0.411629  0.911629  1
  O  O3  1  0.411629  0.911629  0.588370  1
  O  O4  1  0.161630  0.838371  0.338370  1
  O  O5  1  0.838371  0.338370  0.161630  1
  O  O6  1  0.338370  0.161630  0.838371  1
  O  O7  1  0.088370  0.088370  0.088370  1
  O  O8  1  0.437028  0.511588  0.680552  1
  O  O9  1  0.937028  0.988412  0.319449  1
  O  O10  1  0.511588  0.680552  0.437028  1
  O  O11  1  0.488412  0.180552  0.062973  1
  O  O12  1  0.680552  0.437028  0.511588  1
  O  O13  1  0.819449  0.562972  0.011589  1
  O  O14  1  0.187027  0.930552  0.738412  1
  O  O15  1  0.687028  0.569449  0.261588  1
  O  O16  1  0.812972  0.430552  0.761588  1
  O  O17  1  0.569449  0.261588  0.687028  1
  O  O18  1  0.761588  0.812972  0.430552  1
  O  O19  1  0.261588  0.687028  0.569449  1
  O  O20  1  0.930552  0.738412  0.187027  1
  O  O21  1  0.738412  0.187027  0.930552  1
  O  O22  1  0.430552  0.761588  0.812972  1
  O  O23  1  0.069448  0.238412  0.312973  1
  O  O24  1  0.238412  0.312973  0.069448  1
  O  O25  1  0.319449  0.937028  0.988412  1
  O  O26  1  0.180552  0.062973  0.488412  1
  O  O27  1  0.011589  0.819449  0.562972  1
  O  O28  1  0.988412  0.319449  0.937028  1
  O  O29  1  0.062973  0.488412  0.180552  1
  O  O30  1  0.562972  0.011589  0.819449  1
  O  O31  1  0.312973  0.069448  0.238412  1
  O  O32  1  0.625000  0.233366  0.483366  1
  O  O33  1  0.766634  0.983366  0.875000  1
  O  O34  1  0.739489  0.326937  0.344592  1
  O  O35  1  0.016633  0.375000  0.733366  1
  O  O36  1  0.233366  0.483366  0.625000  1
  O  O37  1  0.516634  0.125000  0.266633  1
  O  O38  1  0.983366  0.875000  0.766634  1
  O  O39  1  0.733366  0.016633  0.375000  1
  O  O40  1  0.266633  0.516634  0.125000  1
  O  O41  1  0.875000  0.766634  0.983366  1
  O  O42  1  0.375000  0.733366  0.016633  1
  O  O43  1  0.125000  0.266633  0.516634  1
  O  O44  1  0.326937  0.344592  0.739489  1
  O  O45  1  0.826937  0.155408  0.260511  1
  O  O46  1  0.344592  0.739489  0.326937  1
  O  O47  1  0.655408  0.239489  0.173064  1
  O  O48  1  0.039112  0.121027  0.636908  1
  O  O49  1  0.289112  0.613091  0.871027  1
  O  O50  1  0.789112  0.886909  0.128973  1
  O  O51  1  0.386908  0.371027  0.210888  1
  O  O52  1  0.613091  0.871027  0.289112  1
  O  O53  1  0.128973  0.789112  0.886909  1
  O  O54  1  0.371027  0.210888  0.386908  1
  O  O55  1  0.636908  0.039112  0.121027  1
  O  O56  1  0.121027  0.636908  0.039112  1
  O  O57  1  0.378973  0.363092  0.539112  1
  O  O58  1  0.136908  0.460888  0.878973  1
  O  O59  1  0.878973  0.136908  0.460888  1
  O  O60  1  0.863091  0.960888  0.621027  1
  O  O61  1  0.363092  0.539112  0.378973  1
  O  O62  1  0.621027  0.863091  0.960888  1
  O  O63  1  0.539112  0.378973  0.363092  1
  O  O64  1  0.960888  0.621027  0.863091  1
  O  O65  1  0.460888  0.878973  0.136908  1
  O  O66  1  0.871027  0.289112  0.613091  1
  O  O67  1  0.628973  0.710888  0.113092  1
  O  O68  1  0.886909  0.128973  0.789112  1
  O  O69  1  0.113092  0.628973  0.710888  1
  O  O70  1  0.210888  0.386908  0.371027  1
  O  O71  1  0.710888  0.113092  0.628973  1
  O  O72  1  0.423064  0.010511  0.405408  1
  O  O73  1  0.673064  0.844592  0.760511  1
  O  O74  1  0.173064  0.655408  0.239489  1
  O  O75  1  0.155408  0.260511  0.826937  1
  O  O76  1  0.844592  0.760511  0.673064  1
  O  O77  1  0.239489  0.173064  0.655408  1
  O  O78  1  0.260511  0.826937  0.155408  1
  O  O79  1  0.405408  0.423064  0.010511  1
  O  O80  1  0.010511  0.405408  0.423064  1
  O  O81  1  0.489489  0.594592  0.923064  1
  O  O82  1  0.905408  0.076937  0.989489  1
  O  O83  1  0.989489  0.905408  0.076937  1
  O  O84  1  0.094592  0.576937  0.510511  1
  O  O85  1  0.594592  0.923064  0.489489  1
  O  O86  1  0.510511  0.094592  0.576937  1
  O  O87  1  0.923064  0.489489  0.594592  1
  O  O88  1  0.576937  0.510511  0.094592  1
  O  O89  1  0.076937  0.989489  0.905408  1
  O  O90  1  0.760511  0.673064  0.844592  1
  O  O91  1  0.483366  0.625000  0.233366  1
  Na  Na92  1  0.375000  0.955949  0.794050  1
  Na  Na93  1  0.875000  0.544050  0.205949  1
  Na  Na94  1  0.044051  0.294050  0.125000  1
  Na  Na95  1  0.955949  0.794050  0.375000  1
  Na  Na96  1  0.205949  0.875000  0.544050  1
  Na  Na97  1  0.294050  0.125000  0.044051  1
  Na  Na98  1  0.455949  0.705949  0.625000  1
  Na  Na99  1  0.794050  0.375000  0.955949  1
  Na  Na100  1  0.705949  0.625000  0.455949  1
  Na  Na101  1  0.544050  0.205949  0.875000  1
  Na  Na102  1  0.625000  0.455949  0.705949  1
  Na  Na103  1  0.125000  0.044051  0.294050  1
  P  P104  1  0.068812  0.360388  0.854271  1
  P  P105  1  0.895728  0.389611  0.681188  1
  P  P106  1  0.360388  0.854271  0.068812  1
  P  P107  1  0.860389  0.645728  0.931188  1
  P  P108  1  0.639611  0.354271  0.431188  1
  P  P109  1  0.645728  0.931188  0.860389  1
  P  P110  1  0.431188  0.639611  0.354271  1
  P  P111  1  0.931188  0.860389  0.645728  1
  P  P112  1  0.854271  0.068812  0.360388  1
  P  P113  1  0.604271  0.610389  0.181188  1
  P  P114  1  0.354271  0.431188  0.639611  1
  P  P115  1  0.145728  0.568811  0.139611  1
  P  P116  1  0.818811  0.104272  0.889611  1
  P  P117  1  0.395728  0.110389  0.318812  1
  P  P118  1  0.104272  0.889611  0.818811  1
  P  P119  1  0.681188  0.895728  0.389611  1
  P  P120  1  0.318812  0.395728  0.110389  1
  P  P121  1  0.889611  0.818811  0.104272  1
  P  P122  1  0.389611  0.681188  0.895728  1
  P  P123  1  0.139611  0.145728  0.568811  1
  P  P124  1  0.181188  0.604271  0.610389  1
  P  P125  1  0.110389  0.318812  0.395728  1
  P  P126  1  0.610389  0.181188  0.604271  1
  P  P127  1  0.017789  0.017789  0.017789  1
  P  P128  1  0.267789  0.232211  0.767790  1
  P  P129  1  0.767790  0.267789  0.232211  1
  P  P130  1  0.232211  0.767790  0.267789  1
  P  P131  1  0.482211  0.982211  0.517789  1
  P  P132  1  0.517789  0.482211  0.982211  1
  P  P133  1  0.982211  0.517789  0.482211  1
  P  P134  1  0.732211  0.732211  0.732211  1
  P  P135  1  0.568811  0.139611  0.145728  1
  Cr  Cr136  1  0.875000  0.125000  0.625000  1
  Cr  Cr137  1  0.125000  0.625000  0.875000  1
  Cr  Cr138  1  0.625000  0.875000  0.125000  1
  Cr  Cr139  1  0.375000  0.375000  0.375000  1
