# generated using pymatgen
data_K2BaCo(NO2)6
_symmetry_space_group_name_H-M   'P 1'
_cell_length_a   7.64042408
_cell_length_b   7.64047188
_cell_length_c   7.63995575
_cell_angle_alpha   60.00284521
_cell_angle_beta   60.00194648
_cell_angle_gamma   59.99413298
_symmetry_Int_Tables_number   1
_chemical_formula_structural   K2BaCo(NO2)6
_chemical_formula_sum   'K2 Ba1 Co1 N6 O12'
_cell_volume   315.36243205
_cell_formula_units_Z   1
loop_
 _symmetry_equiv_pos_site_id
 _symmetry_equiv_pos_as_xyz
  1  'x, y, z'
loop_
 _atom_site_type_symbol
 _atom_site_label
 _atom_site_symmetry_multiplicity
 _atom_site_fract_x
 _atom_site_fract_y
 _atom_site_fract_z
 _atom_site_occupancy
  K  K0  1  0.750056  0.749989  0.749949  1
  K  K1  1  0.249941  0.250013  0.250059  1
  Ba  Ba2  1  0.500012  0.499990  0.499994  1
  Co  Co3  1  0.000086  0.999920  0.999945  1
  N  N4  1  0.812658  0.812748  0.187225  1
  N  N5  1  0.187302  0.187289  0.812686  1
  N  N6  1  0.187067  0.812814  0.187424  1
  N  N7  1  0.812672  0.187454  0.812832  1
  N  N8  1  0.187231  0.812753  0.812737  1
  N  N9  1  0.812732  0.187248  0.187305  1
  O  O10  1  0.148115  0.348020  0.851865  1
  O  O11  1  0.652015  0.851845  0.348037  1
  O  O12  1  0.851896  0.651919  0.148172  1
  O  O13  1  0.651998  0.347994  0.148152  1
  O  O14  1  0.148085  0.651951  0.347971  1
  O  O15  1  0.347996  0.851778  0.148145  1
  O  O16  1  0.652101  0.148126  0.851754  1
  O  O17  1  0.852012  0.347954  0.651926  1
  O  O18  1  0.348042  0.148142  0.651952  1
  O  O19  1  0.347998  0.652024  0.851855  1
  O  O20  1  0.851948  0.148077  0.348054  1
  O  O21  1  0.148037  0.851952  0.651962  1
