# generated using pymatgen
data_CN
_symmetry_space_group_name_H-M   'P 1'
_cell_length_a   6.41756291
_cell_length_b   6.64335998
_cell_length_c   7.36885595
_cell_angle_alpha   90.00000000
_cell_angle_beta   90.00000000
_cell_angle_gamma   90.00000000
_symmetry_Int_Tables_number   1
_chemical_formula_structural   CN
_chemical_formula_sum   'C8 N8'
_cell_volume   314.16513543
_cell_formula_units_Z   8
loop_
 _symmetry_equiv_pos_site_id
 _symmetry_equiv_pos_as_xyz
  1  'x, y, z'
loop_
 _atom_site_type_symbol
 _atom_site_label
 _atom_site_symmetry_multiplicity
 _atom_site_fract_x
 _atom_site_fract_y
 _atom_site_fract_z
 _atom_site_occupancy
  C  C0  1  0.086755  0.968675  0.953389  1
  C  C1  1  0.586755  0.031325  0.546611  1
  C  C2  1  0.413245  0.468675  0.046611  1
  C  C3  1  0.913245  0.531325  0.453389  1
  C  C4  1  0.913245  0.031325  0.046611  1
  C  C5  1  0.413245  0.968675  0.453389  1
  C  C6  1  0.586755  0.531325  0.953389  1
  C  C7  1  0.086755  0.468675  0.546611  1
  N  N8  1  0.234503  0.915364  0.874249  1
  N  N9  1  0.734503  0.084636  0.625751  1
  N  N10  1  0.265497  0.415364  0.125751  1
  N  N11  1  0.765497  0.584636  0.374249  1
  N  N12  1  0.765497  0.084636  0.125751  1
  N  N13  1  0.265497  0.915364  0.374249  1
  N  N14  1  0.734503  0.584636  0.874249  1
  N  N15  1  0.234503  0.415364  0.625751  1
