# generated using pymatgen
data_Ba4Sb4Se11
_symmetry_space_group_name_H-M   'P 1'
_cell_length_a   9.11967592
_cell_length_b   9.32438115
_cell_length_c   28.31214635
_cell_angle_alpha   90.00000000
_cell_angle_beta   90.00000000
_cell_angle_gamma   90.00000000
_symmetry_Int_Tables_number   1
_chemical_formula_structural   Ba4Sb4Se11
_chemical_formula_sum   'Ba16 Sb16 Se44'
_cell_volume   2407.53282800
_cell_formula_units_Z   4
loop_
 _symmetry_equiv_pos_site_id
 _symmetry_equiv_pos_as_xyz
  1  'x, y, z'
loop_
 _atom_site_type_symbol
 _atom_site_label
 _atom_site_symmetry_multiplicity
 _atom_site_fract_x
 _atom_site_fract_y
 _atom_site_fract_z
 _atom_site_occupancy
  Se  Se0  1  0.101170  0.500000  0.472353  1
  Se  Se1  1  0.601170  0.000000  0.027647  1
  Se  Se2  1  0.898830  0.500000  0.527647  1
  Se  Se3  1  0.398830  0.000000  0.972353  1
  Se  Se4  1  0.273034  0.500000  0.264047  1
  Se  Se5  1  0.773034  0.000000  0.235953  1
  Se  Se6  1  0.726966  0.500000  0.735953  1
  Se  Se7  1  0.226966  0.000000  0.764047  1
  Se  Se8  1  0.500000  0.201658  0.500000  1
  Se  Se9  1  0.000000  0.298342  0.000000  1
  Se  Se10  1  0.500000  0.798342  0.500000  1
  Se  Se11  1  0.000000  0.701658  0.000000  1
  Se  Se12  1  0.598808  0.500000  0.030047  1
  Se  Se13  1  0.098808  0.000000  0.469953  1
  Se  Se14  1  0.401192  0.500000  0.969953  1
  Se  Se15  1  0.901192  0.000000  0.530047  1
  Se  Se16  1  0.790327  0.500000  0.238533  1
  Se  Se17  1  0.290327  0.000000  0.261467  1
  Se  Se18  1  0.318999  0.705553  0.383611  1
  Se  Se19  1  0.209673  0.500000  0.761467  1
  Se  Se20  1  0.695172  0.500000  0.374243  1
  Se  Se21  1  0.195172  0.000000  0.125757  1
  Se  Se22  1  0.304828  0.500000  0.625757  1
  Se  Se23  1  0.804828  0.000000  0.874243  1
  Se  Se24  1  0.149350  0.500000  0.117920  1
  Se  Se25  1  0.649350  0.000000  0.382080  1
  Se  Se26  1  0.850650  0.500000  0.882080  1
  Se  Se27  1  0.350650  0.000000  0.617920  1
  Se  Se28  1  0.681001  0.294447  0.616389  1
  Se  Se29  1  0.181001  0.205553  0.883611  1
  Se  Se30  1  0.318999  0.294447  0.383611  1
  Se  Se31  1  0.818999  0.205553  0.116389  1
  Se  Se32  1  0.538455  0.721865  0.825009  1
  Se  Se33  1  0.038455  0.778135  0.674991  1
  Se  Se34  1  0.461545  0.721865  0.174991  1
  Se  Se35  1  0.961545  0.778135  0.325009  1
  Se  Se36  1  0.461545  0.278135  0.174991  1
  Se  Se37  1  0.961545  0.221865  0.325009  1
  Se  Se38  1  0.538455  0.278135  0.825009  1
  Se  Se39  1  0.038455  0.221865  0.674991  1
  Se  Se40  1  0.181001  0.794447  0.883611  1
  Se  Se41  1  0.681001  0.705553  0.616389  1
  Se  Se42  1  0.818999  0.794447  0.116389  1
  Se  Se43  1  0.709673  0.000000  0.738533  1
  Sb  Sb44  1  0.917023  0.500000  0.063802  1
  Sb  Sb45  1  0.417023  0.000000  0.436198  1
  Sb  Sb46  1  0.082977  0.500000  0.936198  1
  Sb  Sb47  1  0.582977  0.000000  0.563802  1
  Sb  Sb48  1  0.460613  0.500000  0.427402  1
  Sb  Sb49  1  0.960613  0.000000  0.072598  1
  Sb  Sb50  1  0.539387  0.500000  0.572598  1
  Sb  Sb51  1  0.039387  0.000000  0.927402  1
  Sb  Sb52  1  0.131269  0.500000  0.342973  1
  Sb  Sb53  1  0.631269  0.000000  0.157027  1
  Sb  Sb54  1  0.868731  0.500000  0.657027  1
  Sb  Sb55  1  0.368731  0.000000  0.842973  1
  Sb  Sb56  1  0.636849  0.500000  0.160738  1
  Sb  Sb57  1  0.136849  0.000000  0.339262  1
  Sb  Sb58  1  0.363151  0.500000  0.839262  1
  Sb  Sb59  1  0.863151  0.000000  0.660738  1
  Ba  Ba60  1  0.652260  0.252977  0.940570  1
  Ba  Ba61  1  0.152260  0.247023  0.559430  1
  Ba  Ba62  1  0.347740  0.252977  0.059430  1
  Ba  Ba63  1  0.847740  0.247023  0.440570  1
  Ba  Ba64  1  0.347740  0.747023  0.059430  1
  Ba  Ba65  1  0.847740  0.752977  0.440570  1
  Ba  Ba66  1  0.652260  0.747023  0.940570  1
  Ba  Ba67  1  0.152260  0.752977  0.559430  1
  Ba  Ba68  1  0.432933  0.252085  0.709122  1
  Ba  Ba69  1  0.932933  0.247915  0.790878  1
  Ba  Ba70  1  0.567067  0.252085  0.290878  1
  Ba  Ba71  1  0.067067  0.247915  0.209122  1
  Ba  Ba72  1  0.567067  0.747915  0.290878  1
  Ba  Ba73  1  0.067067  0.752085  0.209122  1
  Ba  Ba74  1  0.432933  0.747915  0.709122  1
  Ba  Ba75  1  0.932933  0.752085  0.790878  1
