# generated using pymatgen
data_Sr2NdBiO6
_symmetry_space_group_name_H-M   'P 1'
_cell_length_a   6.02212140
_cell_length_b   6.19697761
_cell_length_c   8.61710929
_cell_angle_alpha   90.00000000
_cell_angle_beta   90.28699381
_cell_angle_gamma   90.00000000
_symmetry_Int_Tables_number   1
_chemical_formula_structural   Sr2NdBiO6
_chemical_formula_sum   'Sr4 Nd2 Bi2 O12'
_cell_volume   321.57744896
_cell_formula_units_Z   2
loop_
 _symmetry_equiv_pos_site_id
 _symmetry_equiv_pos_as_xyz
  1  'x, y, z'
loop_
 _atom_site_type_symbol
 _atom_site_label
 _atom_site_symmetry_multiplicity
 _atom_site_fract_x
 _atom_site_fract_y
 _atom_site_fract_z
 _atom_site_occupancy
  O  O0  1  0.714235  0.193944  0.947094  1
  O  O1  1  0.785765  0.693944  0.552906  1
  O  O2  1  0.285765  0.806056  0.052906  1
  O  O3  1  0.214235  0.306056  0.447094  1
  O  O4  1  0.810657  0.715973  0.940320  1
  O  O5  1  0.689343  0.215973  0.559680  1
  O  O6  1  0.189343  0.284027  0.059680  1
  O  O7  1  0.310657  0.784027  0.440320  1
  O  O8  1  0.395154  0.543543  0.737005  1
  O  O9  1  0.104846  0.043543  0.762995  1
  O  O10  1  0.604846  0.456457  0.262995  1
  O  O11  1  0.895154  0.956457  0.237005  1
  Sr  Sr12  1  0.486058  0.047403  0.248937  1
  Sr  Sr13  1  0.013942  0.547403  0.251063  1
  Sr  Sr14  1  0.513942  0.952597  0.751063  1
  Sr  Sr15  1  0.986058  0.452597  0.748937  1
  Nd  Nd16  1  0.500000  0.500000  0.000000  1
  Nd  Nd17  1  0.000000  0.000000  0.500000  1
  Bi  Bi18  1  0.500000  0.500000  0.500000  1
  Bi  Bi19  1  0.000000  0.000000  0.000000  1
