# generated using pymatgen
data_Mn2Si(P2O7)2
_symmetry_space_group_name_H-M   'P 1'
_cell_length_a   5.17296541
_cell_length_b   9.04614585
_cell_length_c   12.56241815
_cell_angle_alpha   102.57307469
_cell_angle_beta   90.01007810
_cell_angle_gamma   106.59771866
_symmetry_Int_Tables_number   1
_chemical_formula_structural   Mn2Si(P2O7)2
_chemical_formula_sum   'Mn4 Si2 P8 O28'
_cell_volume   548.63606406
_cell_formula_units_Z   2
loop_
 _symmetry_equiv_pos_site_id
 _symmetry_equiv_pos_as_xyz
  1  'x, y, z'
loop_
 _atom_site_type_symbol
 _atom_site_label
 _atom_site_symmetry_multiplicity
 _atom_site_fract_x
 _atom_site_fract_y
 _atom_site_fract_z
 _atom_site_occupancy
  O  O0  1  0.019207  0.122349  0.831731  1
  O  O1  1  0.894557  0.876978  0.667529  1
  O  O2  1  0.982940  0.876888  0.167501  1
  O  O3  1  0.104554  0.121903  0.331885  1
  O  O4  1  0.765957  0.603485  0.046263  1
  O  O5  1  0.161554  0.395280  0.453181  1
  O  O6  1  0.235516  0.395743  0.953011  1
  O  O7  1  0.839011  0.603548  0.546300  1
  O  O8  1  0.259937  0.688225  0.126479  1
  O  O9  1  0.570384  0.310442  0.372565  1
  O  O10  1  0.741734  0.310766  0.872555  1
  O  O11  1  0.429433  0.687855  0.626556  1
  O  O12  1  0.880078  0.182868  0.017187  1
  O  O13  1  0.695138  0.816098  0.481997  1
  O  O14  1  0.374593  0.089241  0.679238  1
  O  O15  1  0.283745  0.908673  0.819568  1
  O  O16  1  0.625731  0.908803  0.319578  1
  O  O17  1  0.716718  0.089765  0.179269  1
  O  O18  1  0.771739  0.281353  0.620683  1
  O  O19  1  0.489461  0.717075  0.878531  1
  O  O20  1  0.228612  0.716778  0.378250  1
  O  O21  1  0.511906  0.281852  0.120468  1
  O  O22  1  -0.002731  0.619900  0.797046  1
  O  O23  1  0.376451  0.378185  0.702238  1
  O  O24  1  0.003780  0.378607  0.202286  1
  O  O25  1  0.624305  0.620083  0.297029  1
  O  O26  1  0.304884  0.182367  0.517178  1
  O  O27  1  0.121492  0.816178  0.981934  1
  Si  Si28  1  0.859113  -0.000692  0.249553  1
  Si  Si29  1  0.141172  -0.000762  0.749470  1
  P  P30  1  0.970612  0.266331  0.916141  1
  P  P31  1  0.702704  0.732664  0.583047  1
  P  P32  1  0.031035  0.732778  0.083024  1
  P  P33  1  0.297232  0.265916  0.416228  1
  P  P34  1  0.772599  0.245538  0.134047  1
  P  P35  1  0.525700  0.753190  0.364970  1
  P  P36  1  0.228554  0.753202  0.865046  1
  P  P37  1  0.474716  0.245073  0.634113  1
  Mn  Mn38  1  0.402512  0.492027  0.130747  1
  Mn  Mn39  1  0.909415  0.506646  0.368595  1
  Mn  Mn40  1  0.598825  0.506911  0.868510  1
  Mn  Mn41  1  0.090841  0.491605  0.630838  1
