# generated using pymatgen
data_Nd2P3Au
_symmetry_space_group_name_H-M   'P 1'
_cell_length_a   4.19155236
_cell_length_b   7.77051880
_cell_length_c   16.21935845
_cell_angle_alpha   90.00000000
_cell_angle_beta   90.48044828
_cell_angle_gamma   90.00000000
_symmetry_Int_Tables_number   1
_chemical_formula_structural   Nd2P3Au
_chemical_formula_sum   'Nd8 P12 Au4'
_cell_volume   528.25463254
_cell_formula_units_Z   4
loop_
 _symmetry_equiv_pos_site_id
 _symmetry_equiv_pos_as_xyz
  1  'x, y, z'
loop_
 _atom_site_type_symbol
 _atom_site_label
 _atom_site_symmetry_multiplicity
 _atom_site_fract_x
 _atom_site_fract_y
 _atom_site_fract_z
 _atom_site_occupancy
  P  P0  1  0.758439  0.616321  0.414025  1
  P  P1  1  0.741561  0.116321  0.085975  1
  P  P2  1  0.241561  0.383679  0.585975  1
  P  P3  1  0.258439  0.883679  0.914025  1
  P  P4  1  0.272072  0.536031  0.093450  1
  P  P5  1  0.227928  0.036031  0.406550  1
  P  P6  1  0.727928  0.463969  0.906550  1
  P  P7  1  0.772072  0.963969  0.593450  1
  P  P8  1  0.208630  0.704906  0.200922  1
  P  P9  1  0.708630  0.795094  0.700922  1
  P  P10  1  0.791370  0.295094  0.799078  1
  P  P11  1  0.291370  0.204906  0.299078  1
  Nd  Nd12  1  0.260419  0.104784  0.701185  1
  Nd  Nd13  1  0.267034  0.731297  0.525122  1
  Nd  Nd14  1  0.767034  0.768703  0.025122  1
  Nd  Nd15  1  0.732966  0.268703  0.474878  1
  Nd  Nd16  1  0.739581  0.895216  0.298815  1
  Nd  Nd17  1  0.760419  0.395216  0.201185  1
  Nd  Nd18  1  0.239581  0.604784  0.798815  1
  Nd  Nd19  1  0.232966  0.231297  0.974878  1
  Au  Au20  1  0.744867  0.482344  0.654674  1
  Au  Au21  1  0.755133  0.982344  0.845326  1
  Au  Au22  1  0.255133  0.517656  0.345326  1
  Au  Au23  1  0.244867  0.017656  0.154674  1
