# generated using pymatgen
data_Tl2SnSe3
_symmetry_space_group_name_H-M   'P 1'
_cell_length_a   8.28191104
_cell_length_b   8.47777951
_cell_length_c   21.65861245
_cell_angle_alpha   90.00000000
_cell_angle_beta   90.00000000
_cell_angle_gamma   90.00000000
_symmetry_Int_Tables_number   1
_chemical_formula_structural   Tl2SnSe3
_chemical_formula_sum   'Tl16 Sn8 Se24'
_cell_volume   1520.69916950
_cell_formula_units_Z   8
loop_
 _symmetry_equiv_pos_site_id
 _symmetry_equiv_pos_as_xyz
  1  'x, y, z'
loop_
 _atom_site_type_symbol
 _atom_site_label
 _atom_site_symmetry_multiplicity
 _atom_site_fract_x
 _atom_site_fract_y
 _atom_site_fract_z
 _atom_site_occupancy
  Se  Se0  1  0.013722  0.835543  0.092671  1
  Se  Se1  1  0.513722  0.664457  0.407329  1
  Se  Se2  1  0.486278  0.335543  0.907329  1
  Se  Se3  1  0.986278  0.164457  0.592671  1
  Se  Se4  1  0.986278  0.164457  0.907329  1
  Se  Se5  1  0.486278  0.335543  0.592671  1
  Se  Se6  1  0.513722  0.664457  0.092671  1
  Se  Se7  1  0.013722  0.835543  0.407329  1
  Se  Se8  1  0.127134  0.680864  0.606618  1
  Se  Se9  1  0.627134  0.819136  0.893382  1
  Se  Se10  1  0.372866  0.180864  0.393382  1
  Se  Se11  1  0.872866  0.319136  0.106618  1
  Se  Se12  1  0.872866  0.319136  0.393382  1
  Se  Se13  1  0.372866  0.180864  0.106618  1
  Se  Se14  1  0.627134  0.819136  0.606618  1
  Se  Se15  1  0.333585  0.840046  0.250000  1
  Se  Se16  1  0.009156  0.164806  0.250000  1
  Se  Se17  1  0.509156  0.335194  0.250000  1
  Se  Se18  1  0.490844  0.664806  0.750000  1
  Se  Se19  1  0.990844  0.835194  0.750000  1
  Se  Se20  1  0.666415  0.159954  0.750000  1
  Se  Se21  1  0.166415  0.340046  0.750000  1
  Se  Se22  1  0.833585  0.659954  0.250000  1
  Se  Se23  1  0.127134  0.680864  0.893382  1
  Sn  Sn24  1  0.176227  0.009504  0.333339  1
  Sn  Sn25  1  0.676227  0.490496  0.333339  1
  Sn  Sn26  1  0.323773  0.509504  0.833339  1
  Sn  Sn27  1  0.823773  0.990496  0.666661  1
  Sn  Sn28  1  0.823773  0.990496  0.833339  1
  Sn  Sn29  1  0.323773  0.509504  0.666661  1
  Sn  Sn30  1  0.676227  0.490496  0.166661  1
  Sn  Sn31  1  0.176227  0.009504  0.166661  1
  Tl  Tl32  1  0.675642  0.986612  0.333196  1
  Tl  Tl33  1  0.824358  0.486612  0.833196  1
  Tl  Tl34  1  0.175642  0.513388  0.333196  1
  Tl  Tl35  1  0.675642  0.986612  0.166804  1
  Tl  Tl36  1  0.324358  0.013388  0.666804  1
  Tl  Tl37  1  0.175642  0.513388  0.166804  1
  Tl  Tl38  1  0.824358  0.486612  0.666804  1
  Tl  Tl39  1  0.324358  0.013388  0.833196  1
  Tl  Tl40  1  0.265245  0.948170  0.505391  1
  Tl  Tl41  1  0.765245  0.551830  0.994609  1
  Tl  Tl42  1  0.234755  0.448170  0.494609  1
  Tl  Tl43  1  0.734755  0.051830  0.005391  1
  Tl  Tl44  1  0.734755  0.051830  0.494609  1
  Tl  Tl45  1  0.234755  0.448170  0.005391  1
  Tl  Tl46  1  0.765245  0.551830  0.505391  1
  Tl  Tl47  1  0.265245  0.948170  0.994609  1
