# generated using pymatgen
data_Ce(IO3)4
_symmetry_space_group_name_H-M   'P 1'
_cell_length_a   5.40181309
_cell_length_b   10.25060219
_cell_length_c   10.25060219
_cell_angle_alpha   90.00000000
_cell_angle_beta   90.00000000
_cell_angle_gamma   90.00000000
_symmetry_Int_Tables_number   1
_chemical_formula_structural   Ce(IO3)4
_chemical_formula_sum   'Ce2 I8 O24'
_cell_volume   567.59467454
_cell_formula_units_Z   2
loop_
 _symmetry_equiv_pos_site_id
 _symmetry_equiv_pos_as_xyz
  1  'x, y, z'
loop_
 _atom_site_type_symbol
 _atom_site_label
 _atom_site_symmetry_multiplicity
 _atom_site_fract_x
 _atom_site_fract_y
 _atom_site_fract_z
 _atom_site_occupancy
  O  O0  1  0.562545  0.401169  0.321778  1
  O  O1  1  0.062545  0.678222  0.901169  1
  O  O2  1  0.062545  0.821778  0.598831  1
  O  O3  1  0.562545  0.098831  0.178222  1
  O  O4  1  0.437455  0.598831  0.678222  1
  O  O5  1  0.937455  0.321778  0.098831  1
  O  O6  1  0.937455  0.178222  0.401169  1
  O  O7  1  0.437455  0.901169  0.821778  1
  O  O8  1  0.059093  0.441993  0.327106  1
  O  O9  1  0.559093  0.672894  0.941993  1
  O  O10  1  0.251176  0.151318  0.870015  1
  O  O11  1  0.751176  0.129985  0.651318  1
  O  O12  1  0.751176  0.370015  0.848682  1
  O  O13  1  0.251176  0.348682  0.629985  1
  O  O14  1  0.748824  0.848682  0.129985  1
  O  O15  1  0.248824  0.870015  0.348682  1
  O  O16  1  0.248824  0.629985  0.151318  1
  O  O17  1  0.748824  0.651318  0.370015  1
  O  O18  1  0.940907  0.941993  0.827106  1
  O  O19  1  0.440907  0.172894  0.441993  1
  O  O20  1  0.440907  0.327106  0.058007  1
  O  O21  1  0.940907  0.558007  0.672894  1
  O  O22  1  0.059093  0.058007  0.172894  1
  O  O23  1  0.559093  0.827106  0.558007  1
  I  I24  1  0.786223  0.520937  0.253013  1
  I  I25  1  0.286223  0.746987  0.020937  1
  I  I26  1  0.286223  0.753013  0.479063  1
  I  I27  1  0.786223  0.979063  0.246987  1
  I  I28  1  0.213777  0.479063  0.746987  1
  I  I29  1  0.713777  0.253013  0.979063  1
  I  I30  1  0.713777  0.246987  0.520937  1
  I  I31  1  0.213777  0.020937  0.753013  1
  Ce  Ce32  1  0.250000  0.250000  0.250000  1
  Ce  Ce33  1  0.750000  0.750000  0.750000  1
