# generated using pymatgen
data_CeGePd
_symmetry_space_group_name_H-M   'P 1'
_cell_length_a   4.48406749
_cell_length_b   7.71625123
_cell_length_c   21.66169441
_cell_angle_alpha   90.00000000
_cell_angle_beta   90.00000000
_cell_angle_gamma   90.00000000
_symmetry_Int_Tables_number   1
_chemical_formula_structural   CeGePd
_chemical_formula_sum   'Ce12 Ge12 Pd12'
_cell_volume   749.49877015
_cell_formula_units_Z   12
loop_
 _symmetry_equiv_pos_site_id
 _symmetry_equiv_pos_as_xyz
  1  'x, y, z'
loop_
 _atom_site_type_symbol
 _atom_site_label
 _atom_site_symmetry_multiplicity
 _atom_site_fract_x
 _atom_site_fract_y
 _atom_site_fract_z
 _atom_site_occupancy
  Ge  Ge0  1  0.250000  0.412755  0.898035  1
  Ge  Ge1  1  0.750000  0.587245  0.101965  1
  Ge  Ge2  1  0.750000  0.912755  0.601965  1
  Ge  Ge3  1  0.250000  0.087245  0.398035  1
  Ge  Ge4  1  0.250000  0.411338  0.766335  1
  Ge  Ge5  1  0.750000  0.588662  0.233665  1
  Ge  Ge6  1  0.750000  0.911338  0.733665  1
  Ge  Ge7  1  0.250000  0.088662  0.266335  1
  Ge  Ge8  1  0.250000  0.409767  0.572666  1
  Ge  Ge9  1  0.750000  0.590233  0.427334  1
  Ge  Ge10  1  0.750000  0.909767  0.927334  1
  Ge  Ge11  1  0.250000  0.090233  0.072666  1
  Pd  Pd12  1  0.250000  0.421662  0.092653  1
  Pd  Pd13  1  0.750000  0.578338  0.907347  1
  Pd  Pd14  1  0.750000  0.921662  0.407347  1
  Pd  Pd15  1  0.250000  0.078338  0.592653  1
  Pd  Pd16  1  0.250000  0.419638  0.238824  1
  Pd  Pd17  1  0.750000  0.580362  0.761176  1
  Pd  Pd18  1  0.750000  0.919638  0.261176  1
  Pd  Pd19  1  0.250000  0.080362  0.738824  1
  Pd  Pd20  1  0.250000  0.416117  0.432719  1
  Pd  Pd21  1  0.750000  0.583883  0.567281  1
  Pd  Pd22  1  0.750000  0.916117  0.067281  1
  Pd  Pd23  1  0.250000  0.083883  0.932719  1
  Ce  Ce24  1  0.250000  0.785623  0.833020  1
  Ce  Ce25  1  0.750000  0.214377  0.166980  1
  Ce  Ce26  1  0.750000  0.285623  0.666980  1
  Ce  Ce27  1  0.250000  0.714377  0.333020  1
  Ce  Ce28  1  0.250000  0.710563  0.666184  1
  Ce  Ce29  1  0.750000  0.289437  0.333816  1
  Ce  Ce30  1  0.750000  0.210563  0.833816  1
  Ce  Ce31  1  0.250000  0.789437  0.166184  1
  Ce  Ce32  1  0.250000  0.779856  0.501990  1
  Ce  Ce33  1  0.750000  0.220144  0.498010  1
  Ce  Ce34  1  0.750000  0.279856  0.998010  1
  Ce  Ce35  1  0.250000  0.720144  0.001990  1
