# generated using pymatgen
data_PrSiPd
_symmetry_space_group_name_H-M   'P 1'
_cell_length_a   5.90105163
_cell_length_b   7.92217152
_cell_length_c   10.93036014
_cell_angle_alpha   91.83748234
_cell_angle_beta   90.00000000
_cell_angle_gamma   90.00000000
_symmetry_Int_Tables_number   1
_chemical_formula_structural   PrSiPd
_chemical_formula_sum   'Pr8 Si8 Pd8'
_cell_volume   510.72222153
_cell_formula_units_Z   8
loop_
 _symmetry_equiv_pos_site_id
 _symmetry_equiv_pos_as_xyz
  1  'x, y, z'
loop_
 _atom_site_type_symbol
 _atom_site_label
 _atom_site_symmetry_multiplicity
 _atom_site_fract_x
 _atom_site_fract_y
 _atom_site_fract_z
 _atom_site_occupancy
  Si  Si0  1  0.366640  0.964644  0.576432  1
  Si  Si1  1  0.866640  0.535356  0.423568  1
  Si  Si2  1  0.633360  0.035356  0.423568  1
  Si  Si3  1  0.133360  0.464644  0.576432  1
  Si  Si4  1  0.142166  0.875664  0.143617  1
  Si  Si5  1  0.642166  0.624336  0.856383  1
  Si  Si6  1  0.857834  0.124336  0.856383  1
  Si  Si7  1  0.357834  0.375664  0.143617  1
  Pd  Pd8  1  0.100039  0.163243  0.052017  1
  Pd  Pd9  1  0.600039  0.336757  0.947983  1
  Pd  Pd10  1  0.899961  0.836757  0.947983  1
  Pd  Pd11  1  0.399961  0.663243  0.052017  1
  Pd  Pd12  1  0.108647  0.178493  0.668713  1
  Pd  Pd13  1  0.608647  0.321507  0.331287  1
  Pd  Pd14  1  0.891353  0.821507  0.331287  1
  Pd  Pd15  1  0.391353  0.678493  0.668713  1
  Pr  Pr16  1  0.368228  0.673900  0.370745  1
  Pr  Pr17  1  0.868228  0.826100  0.629255  1
  Pr  Pr18  1  0.631772  0.326100  0.629255  1
  Pr  Pr19  1  0.131772  0.173900  0.370745  1
  Pr  Pr20  1  0.865830  0.534545  0.142788  1
  Pr  Pr21  1  0.365830  0.965455  0.857212  1
  Pr  Pr22  1  0.134170  0.465455  0.857212  1
  Pr  Pr23  1  0.634170  0.034545  0.142788  1
