# generated using pymatgen
data_NiH20S2(NO7)2
_symmetry_space_group_name_H-M   'P 1'
_cell_length_a   6.32377540
_cell_length_b   9.20301635
_cell_length_c   12.50627149
_cell_angle_alpha   90.00000000
_cell_angle_beta   90.00000000
_cell_angle_gamma   107.07764384
_symmetry_Int_Tables_number   1
_chemical_formula_structural   NiH20S2(NO7)2
_chemical_formula_sum   'Ni2 H40 S4 N4 O28'
_cell_volume   695.74553857
_cell_formula_units_Z   2
loop_
 _symmetry_equiv_pos_site_id
 _symmetry_equiv_pos_as_xyz
  1  'x, y, z'
loop_
 _atom_site_type_symbol
 _atom_site_label
 _atom_site_symmetry_multiplicity
 _atom_site_fract_x
 _atom_site_fract_y
 _atom_site_fract_z
 _atom_site_occupancy
  H  H0  1  0.321920  0.526362  0.644378  1
  H  H1  1  0.678081  0.973639  0.144378  1
  H  H2  1  0.678080  0.473638  0.355622  1
  H  H3  1  0.321920  0.026361  0.855621  1
  H  H4  1  0.335375  0.403465  0.558656  1
  H  H5  1  0.664625  0.096535  0.058656  1
  H  H6  1  0.664625  0.596535  0.441344  1
  H  H7  1  0.335375  0.903465  0.941344  1
  H  H8  1  0.000057  0.360722  0.313854  1
  H  H9  1  0.999944  0.139279  0.813854  1
  H  H10  1  0.999945  0.639278  0.686146  1
  H  H11  1  0.000056  0.860722  0.186146  1
  H  H12  1  0.941319  0.232182  0.402488  1
  H  H13  1  0.058682  0.267818  0.902488  1
  H  H14  1  0.058681  0.767818  0.597512  1
  H  H15  1  0.941318  0.732182  0.097512  1
  H  H16  1  0.094930  0.750111  0.377913  1
  H  H17  1  0.905069  0.749889  0.877913  1
  H  H18  1  0.905070  0.249889  0.622087  1
  H  H19  1  0.803774  0.434849  0.831924  1
  H  H20  1  0.322525  0.718168  0.411354  1
  H  H21  1  0.677474  0.781832  0.911354  1
  H  H22  1  0.677475  0.281832  0.588646  1
  H  H23  1  0.322526  0.218168  0.088646  1
  H  H24  1  0.371954  0.666554  0.074344  1
  H  H25  1  0.628046  0.833446  0.574344  1
  H  H26  1  0.628046  0.333446  0.925656  1
  H  H27  1  0.371953  0.166554  0.425656  1
  H  H28  1  0.461448  0.568498  0.172053  1
  H  H29  1  0.538551  0.931502  0.672053  1
  H  H30  1  0.538552  0.431502  0.827947  1
  H  H31  1  0.461448  0.068497  0.327947  1
  H  H32  1  0.396316  0.728380  0.203160  1
  H  H33  1  0.603685  0.771620  0.703160  1
  H  H34  1  0.603684  0.271620  0.796840  1
  H  H35  1  0.396315  0.228381  0.296840  1
  H  H36  1  0.196226  0.565151  0.168076  1
  H  H37  1  0.803775  0.934848  0.668076  1
  H  H38  1  0.196225  0.065152  0.331924  1
  H  H39  1  0.094930  0.250110  0.122087  1
  N  N40  1  0.356435  0.633309  0.154565  1
  N  N41  1  0.643564  0.866691  0.654565  1
  N  N42  1  0.643565  0.366691  0.845435  1
  N  N43  1  0.356436  0.133309  0.345435  1
  O  O44  1  0.297691  0.499869  0.567487  1
  O  O45  1  0.702309  0.000131  0.067487  1
  O  O46  1  0.702308  0.500130  0.432513  1
  O  O47  1  0.297691  0.999869  0.932513  1
  O  O48  1  0.033574  0.338540  0.388474  1
  O  O49  1  0.966425  0.161461  0.888474  1
  O  O50  1  0.966426  0.661461  0.611526  1
  O  O51  1  0.033575  0.838539  0.111526  1
  O  O52  1  0.165666  0.669428  0.391723  1
  O  O53  1  0.834335  0.830572  0.891723  1
  O  O54  1  0.834334  0.330572  0.608276  1
  O  O55  1  0.165665  0.169428  0.108276  1
  O  O56  1  0.947931  0.883892  0.323340  1
  O  O57  1  0.052070  0.616108  0.823340  1
  O  O58  1  0.052069  0.116109  0.676660  1
  O  O59  1  0.947930  0.383892  0.176660  1
  O  O60  1  0.618341  0.778604  0.434891  1
  O  O61  1  0.381657  0.721396  0.934891  1
  O  O62  1  0.381658  0.221396  0.565109  1
  O  O63  1  0.618342  0.278604  0.065109  1
  O  O64  1  0.788770  0.051590  0.427692  1
  O  O65  1  0.211231  0.448410  0.927692  1
  O  O66  1  0.211230  0.948410  0.572308  1
  O  O67  1  0.788769  0.551590  0.072308  1
  O  O68  1  0.590257  0.917086  0.272744  1
  O  O69  1  0.409742  0.582914  0.772744  1
  O  O70  1  0.409743  0.082914  0.727256  1
  O  O71  1  0.590258  0.417086  0.227256  1
  S  S72  1  0.739256  0.909631  0.365014  1
  S  S73  1  0.260744  0.590370  0.865014  1
  S  S74  1  0.260744  0.090369  0.634986  1
  S  S75  1  0.739256  0.409630  0.134986  1
  Ni  Ni76  1  0.000001  0.500000  0.500000  1
  Ni  Ni77  1  0.000000  0.000000  0.000000  1
