# generated using pymatgen
data_AlBP2H5NO9
_symmetry_space_group_name_H-M   'P 1'
_cell_length_a   8.48483335
_cell_length_b   9.39488427
_cell_length_c   9.55394478
_cell_angle_alpha   104.66502515
_cell_angle_beta   90.00000000
_cell_angle_gamma   90.00000000
_symmetry_Int_Tables_number   1
_chemical_formula_structural   AlBP2H5NO9
_chemical_formula_sum   'Al4 B4 P8 H20 N4 O36'
_cell_volume   736.77291093
_cell_formula_units_Z   4
loop_
 _symmetry_equiv_pos_site_id
 _symmetry_equiv_pos_as_xyz
  1  'x, y, z'
loop_
 _atom_site_type_symbol
 _atom_site_label
 _atom_site_symmetry_multiplicity
 _atom_site_fract_x
 _atom_site_fract_y
 _atom_site_fract_z
 _atom_site_occupancy
  H  H0  1  0.656612  0.224002  0.394044  1
  H  H1  1  0.156612  0.775998  0.105956  1
  H  H2  1  0.343388  0.775998  0.605956  1
  H  H3  1  0.843388  0.224002  0.894044  1
  H  H4  1  0.554732  0.356507  0.345019  1
  H  H5  1  0.054732  0.643493  0.154981  1
  H  H6  1  0.445268  0.643493  0.654981  1
  H  H7  1  0.945268  0.356507  0.845019  1
  H  H8  1  0.512594  0.314702  0.503893  1
  H  H9  1  0.012594  0.685298  0.996107  1
  H  H10  1  0.487406  0.685298  0.496107  1
  H  H11  1  0.987406  0.314702  0.003893  1
  H  H12  1  0.315084  0.598742  0.516330  1
  H  H13  1  0.815084  0.401258  0.983670  1
  H  H14  1  0.565479  0.114243  0.003722  1
  H  H15  1  0.065479  0.885757  0.496278  1
  H  H16  1  0.434521  0.885757  0.996278  1
  H  H17  1  0.934521  0.114243  0.503722  1
  H  H18  1  0.684916  0.401258  0.483670  1
  H  H19  1  0.184916  0.598742  0.016330  1
  B  B20  1  0.948608  0.164671  0.303184  1
  B  B21  1  0.551392  0.164671  0.803184  1
  B  B22  1  0.051392  0.835329  0.696816  1
  B  B23  1  0.448608  0.835329  0.196816  1
  N  N24  1  0.897881  0.324242  0.933552  1
  N  N25  1  0.602119  0.324242  0.433552  1
  N  N26  1  0.102119  0.675758  0.066448  1
  N  N27  1  0.397881  0.675758  0.566448  1
  O  O28  1  0.697971  0.082919  0.758996  1
  O  O29  1  0.571655  0.307954  0.770506  1
  O  O30  1  0.928345  0.307954  0.270506  1
  O  O31  1  0.428345  0.692046  0.229494  1
  O  O32  1  0.217741  0.157937  0.934527  1
  O  O33  1  0.717741  0.842063  0.565473  1
  O  O34  1  0.782259  0.842063  0.065473  1
  O  O35  1  0.282259  0.157937  0.434527  1
  O  O36  1  0.133822  0.157060  0.679273  1
  O  O37  1  0.633822  0.842940  0.820727  1
  O  O38  1  0.485747  0.423488  0.195721  1
  O  O39  1  0.366178  0.157060  0.179273  1
  O  O40  1  0.197971  0.917081  0.741004  1
  O  O41  1  0.071655  0.692046  0.729494  1
  O  O42  1  0.802029  0.082919  0.258996  1
  O  O43  1  0.302029  0.917081  0.241004  1
  O  O44  1  0.415008  0.082508  0.727464  1
  O  O45  1  0.915008  0.917492  0.772536  1
  O  O46  1  0.985747  0.576512  0.304279  1
  O  O47  1  0.084992  0.082508  0.227464  1
  O  O48  1  0.966406  0.195563  0.464026  1
  O  O49  1  0.466406  0.804437  0.035974  1
  O  O50  1  0.033594  0.804437  0.535974  1
  O  O51  1  0.533594  0.195563  0.964026  1
  O  O52  1  0.843907  0.577411  0.565974  1
  O  O53  1  0.667371  0.607738  0.341015  1
  O  O54  1  0.167371  0.392262  0.158985  1
  O  O55  1  0.332629  0.392262  0.658985  1
  O  O56  1  0.514253  0.576512  0.804279  1
  O  O57  1  0.014253  0.423488  0.695721  1
  O  O58  1  0.832629  0.607738  0.841015  1
  O  O59  1  0.656093  0.577411  0.065974  1
  O  O60  1  0.156093  0.422589  0.434026  1
  O  O61  1  0.343907  0.422589  0.934026  1
  O  O62  1  0.584992  0.917492  0.272536  1
  O  O63  1  0.866178  0.842940  0.320727  1
  Al  Al64  1  0.345288  0.296815  0.066647  1
  Al  Al65  1  0.845288  0.703185  0.433353  1
  Al  Al66  1  0.654712  0.703185  0.933353  1
  Al  Al67  1  0.154712  0.296815  0.566647  1
  P  P68  1  0.737300  0.913628  0.726274  1
  P  P69  1  0.762700  0.913628  0.226274  1
  P  P70  1  0.262700  0.086372  0.273726  1
  P  P71  1  0.237300  0.086372  0.773726  1
  P  P72  1  0.564515  0.572767  0.203972  1
  P  P73  1  0.064515  0.427233  0.296028  1
  P  P74  1  0.435485  0.427233  0.796028  1
  P  P75  1  0.935485  0.572767  0.703972  1
