# generated using pymatgen
data_UCrS3
_symmetry_space_group_name_H-M   'P 1'
_cell_length_a   6.10344248
_cell_length_b   7.06934737
_cell_length_c   8.86798416
_cell_angle_alpha   90.00000000
_cell_angle_beta   90.00000000
_cell_angle_gamma   90.00000000
_symmetry_Int_Tables_number   1
_chemical_formula_structural   UCrS3
_chemical_formula_sum   'U4 Cr4 S12'
_cell_volume   382.63006108
_cell_formula_units_Z   4
loop_
 _symmetry_equiv_pos_site_id
 _symmetry_equiv_pos_as_xyz
  1  'x, y, z'
loop_
 _atom_site_type_symbol
 _atom_site_label
 _atom_site_symmetry_multiplicity
 _atom_site_fract_x
 _atom_site_fract_y
 _atom_site_fract_z
 _atom_site_occupancy
  S  S0  1  0.334124  0.820748  0.942054  1
  S  S1  1  0.165876  0.320748  0.942054  1
  S  S2  1  0.665876  0.179252  0.057946  1
  S  S3  1  0.334124  0.820748  0.557946  1
  S  S4  1  0.145272  0.041655  0.250000  1
  S  S5  1  0.645272  0.458345  0.750000  1
  S  S6  1  0.354728  0.541655  0.250000  1
  S  S7  1  0.854728  0.958345  0.750000  1
  S  S8  1  0.165876  0.320748  0.557946  1
  S  S9  1  0.665876  0.179252  0.442054  1
  S  S10  1  0.834124  0.679252  0.057946  1
  S  S11  1  0.834124  0.679252  0.442054  1
  Cr  Cr12  1  0.000000  0.000000  0.000000  1
  Cr  Cr13  1  0.000000  0.000000  0.500000  1
  Cr  Cr14  1  0.500000  0.500000  0.500000  1
  Cr  Cr15  1  0.500000  0.500000  0.000000  1
  U  U16  1  0.943371  0.381332  0.250000  1
  U  U17  1  0.443371  0.118668  0.750000  1
  U  U18  1  0.556629  0.881332  0.250000  1
  U  U19  1  0.056629  0.618668  0.750000  1
