# generated using pymatgen
data_Na2Si(H4O3)3
_symmetry_space_group_name_H-M   'P 1'
_cell_length_a   5.95499827
_cell_length_b   6.36338131
_cell_length_c   11.46250787
_cell_angle_alpha   101.88456769
_cell_angle_beta   90.00000000
_cell_angle_gamma   90.00000000
_symmetry_Int_Tables_number   1
_chemical_formula_structural   Na2Si(H4O3)3
_chemical_formula_sum   'Na4 Si2 H24 O18'
_cell_volume   425.04869430
_cell_formula_units_Z   2
loop_
 _symmetry_equiv_pos_site_id
 _symmetry_equiv_pos_as_xyz
  1  'x, y, z'
loop_
 _atom_site_type_symbol
 _atom_site_label
 _atom_site_symmetry_multiplicity
 _atom_site_fract_x
 _atom_site_fract_y
 _atom_site_fract_z
 _atom_site_occupancy
  H  H0  1  0.216534  0.045008  0.840195  1
  H  H1  1  0.716534  0.954992  0.159805  1
  H  H2  1  0.974050  0.942487  0.845339  1
  H  H3  1  0.474050  0.057513  0.154661  1
  H  H4  1  0.384551  0.838154  0.631952  1
  H  H5  1  0.884551  0.161846  0.368048  1
  H  H6  1  0.452790  0.070404  0.627785  1
  H  H7  1  0.952790  0.929596  0.372215  1
  H  H8  1  0.261883  0.530060  0.684851  1
  H  H9  1  0.761883  0.469940  0.315149  1
  H  H10  1  0.017307  0.538017  0.625340  1
  H  H11  1  0.517307  0.461983  0.374660  1
  H  H12  1  0.759104  0.650498  0.503098  1
  H  H13  1  0.259104  0.349502  0.496902  1
  H  H14  1  0.695125  0.684193  0.640905  1
  H  H15  1  0.195125  0.315807  0.359095  1
  H  H16  1  0.577112  0.398978  0.730309  1
  H  H17  1  0.077112  0.601022  0.269690  1
  H  H18  1  0.577386  0.191462  0.793182  1
  H  H19  1  0.077386  0.808538  0.206818  1
  H  H20  1  0.722335  0.206224  0.993225  1
  H  H21  1  0.340241  0.176870  0.006832  1
  H  H22  1  0.222335  0.793776  0.006775  1
  H  H23  1  0.840241  0.823130  0.993168  1
  O  O24  1  0.320523  0.688587  0.954478  1
  O  O25  1  0.555845  0.945348  0.184412  1
  O  O26  1  0.358139  0.950016  0.584895  1
  O  O27  1  0.858139  0.049984  0.415105  1
  O  O28  1  0.128232  0.438541  0.652115  1
  O  O29  1  0.628232  0.561459  0.347885  1
  O  O30  1  0.821911  0.697995  0.584265  1
  O  O31  1  0.321911  0.302005  0.415735  1
  O  O32  1  0.638198  0.250455  0.724742  1
  O  O33  1  0.138198  0.749545  0.275258  1
  O  O34  1  0.772315  0.736335  0.916287  1
  O  O35  1  0.272315  0.263665  0.083713  1
  O  O36  1  0.990133  0.337547  0.263773  1
  O  O37  1  0.820523  0.311413  0.045522  1
  O  O38  1  0.481061  0.052594  0.896964  1
  O  O39  1  0.981061  0.947406  0.103036  1
  O  O40  1  0.490133  0.662453  0.736227  1
  O  O41  1  0.055845  0.054652  0.815588  1
  Na  Na42  1  0.997439  0.431214  0.863772  1
  Na  Na43  1  0.497439  0.568786  0.136228  1
  Na  Na44  1  0.969025  0.068866  0.615204  1
  Na  Na45  1  0.469025  0.931134  0.384796  1
  Si  Si46  1  0.514363  0.792252  0.873399  1
  Si  Si47  1  0.014363  0.207748  0.126601  1
