# generated using pymatgen
data_Cu6As4S9
_symmetry_space_group_name_H-M   'P 1'
_cell_length_a   9.14343592
_cell_length_b   9.13661987
_cell_length_c   9.89847633
_cell_angle_alpha   90.07916927
_cell_angle_beta   107.73607452
_cell_angle_gamma   109.43125844
_symmetry_Int_Tables_number   1
_chemical_formula_structural   Cu6As4S9
_chemical_formula_sum   'Cu12 As8 S18'
_cell_volume   737.88104548
_cell_formula_units_Z   2
loop_
 _symmetry_equiv_pos_site_id
 _symmetry_equiv_pos_as_xyz
  1  'x, y, z'
loop_
 _atom_site_type_symbol
 _atom_site_label
 _atom_site_symmetry_multiplicity
 _atom_site_fract_x
 _atom_site_fract_y
 _atom_site_fract_z
 _atom_site_occupancy
  S  S0  1  0.287762  0.544777  0.403574  1
  S  S1  1  0.372923  0.228379  0.001082  1
  S  S2  1  0.223625  0.165758  0.611099  1
  S  S3  1  0.991111  0.424047  0.603677  1
  S  S4  1  0.924627  0.087527  0.804850  1
  S  S5  1  0.643357  -0.004078  0.006607  1
  S  S6  1  0.077312  0.135175  0.194676  1
  S  S7  1  0.182611  0.817872  0.805236  1
  S  S8  1  0.585518  0.641701  0.217079  1
  S  S9  1  0.025673  0.778644  0.412978  1
  S  S10  1  0.468093  0.933073  0.607981  1
  S  S11  1  0.790554  0.043289  0.407983  1
  S  S12  1  0.329206  0.880508  0.193129  1
  S  S13  1  0.839809  0.385203  0.215040  1
  S  S14  1  0.426631  0.574862  0.802224  1
  S  S15  1  0.137574  0.489262  1.000357  1
  S  S16  1  0.670211  0.329689  0.803913  1
  S  S17  1  0.720921  0.687516  0.599564  1
  Cu  Cu18  1  0.394985  0.489106  0.014334  1
  Cu  Cu19  1  0.278216  0.795325  0.397528  1
  Cu  Cu20  1  0.967796  0.666470  0.610975  1
  Cu  Cu21  1  0.924547  0.340089  0.805438  1
  Cu  Cu22  1  0.088337  0.390376  0.202191  1
  Cu  Cu23  1  0.166348  0.061320  0.808823  1
  Cu  Cu24  1  0.720373  0.941204  0.602049  1
  Cu  Cu25  1  0.442440  0.830265  0.817316  1
  Cu  Cu26  1  0.589166  0.895464  0.206174  1
  Cu  Cu27  1  0.036502  0.035784  0.397003  1
  Cu  Cu28  1  0.633830  0.244515  0.013420  1
  Cu  Cu29  1  0.238209  0.418482  0.593263  1
  As  As30  1  0.461026  0.177125  0.578623  1
  As  As31  1  0.765249  0.282574  0.423270  1
  As  As32  1  0.345463  0.147298  0.208579  1
  As  As33  1  0.517243  0.501325  0.409844  1
  As  As34  1  0.845756  0.647999  0.204448  1
  As  As35  1  0.097416  0.723073  0.990130  1
  As  As36  1  0.681863  0.591082  0.819812  1
  As  As37  1  0.869719  0.955922  0.987733  1
