# generated using pymatgen
data_TbSiRh
_symmetry_space_group_name_H-M   'P 1'
_cell_length_a   4.09384394
_cell_length_b   5.29796665
_cell_length_c   10.15554771
_cell_angle_alpha   90.00000000
_cell_angle_beta   90.00000000
_cell_angle_gamma   90.00000000
_symmetry_Int_Tables_number   1
_chemical_formula_structural   TbSiRh
_chemical_formula_sum   'Tb4 Si4 Rh4'
_cell_volume   220.26416850
_cell_formula_units_Z   4
loop_
 _symmetry_equiv_pos_site_id
 _symmetry_equiv_pos_as_xyz
  1  'x, y, z'
loop_
 _atom_site_type_symbol
 _atom_site_label
 _atom_site_symmetry_multiplicity
 _atom_site_fract_x
 _atom_site_fract_y
 _atom_site_fract_z
 _atom_site_occupancy
  Si  Si0  1  0.250000  0.501087  0.249550  1
  Si  Si1  1  0.250000  0.001087  0.250450  1
  Si  Si2  1  0.750000  0.498913  0.750450  1
  Si  Si3  1  0.750000  0.998913  0.749550  1
  Rh  Rh4  1  0.750000  0.250005  0.175853  1
  Rh  Rh5  1  0.250000  0.249995  0.675853  1
  Rh  Rh6  1  0.750000  0.750005  0.324147  1
  Rh  Rh7  1  0.250000  0.749995  0.824147  1
  Tb  Tb8  1  0.250000  0.249955  0.963035  1
  Tb  Tb9  1  0.250000  0.749955  0.536965  1
  Tb  Tb10  1  0.750000  0.250045  0.463035  1
  Tb  Tb11  1  0.750000  0.750045  0.036965  1
