# generated using pymatgen
data_K3B12H12I
_symmetry_space_group_name_H-M   'P 1'
_cell_length_a   7.06628382
_cell_length_b   7.06628382
_cell_length_c   7.06628382
_cell_angle_alpha   93.83155737
_cell_angle_beta   93.83155733
_cell_angle_gamma   93.83155730
_symmetry_Int_Tables_number   1
_chemical_formula_structural   K3B12H12I
_chemical_formula_sum   'K3 B12 H12 I1'
_cell_volume   350.35897765
_cell_formula_units_Z   1
loop_
 _symmetry_equiv_pos_site_id
 _symmetry_equiv_pos_as_xyz
  1  'x, y, z'
loop_
 _atom_site_type_symbol
 _atom_site_label
 _atom_site_symmetry_multiplicity
 _atom_site_fract_x
 _atom_site_fract_y
 _atom_site_fract_z
 _atom_site_occupancy
  H  H0  1  0.792255  0.792255  0.269778  1
  H  H1  1  0.792255  0.269778  0.792255  1
  H  H2  1  0.269778  0.792255  0.792255  1
  H  H3  1  0.730222  0.207745  0.207745  1
  H  H4  1  0.895595  0.895595  0.601744  1
  H  H5  1  0.895595  0.601744  0.895595  1
  H  H6  1  0.601744  0.895595  0.895595  1
  H  H7  1  0.398256  0.104405  0.104405  1
  H  H8  1  0.104405  0.104405  0.398256  1
  H  H9  1  0.104405  0.398256  0.104405  1
  H  H10  1  0.207745  0.207745  0.730222  1
  H  H11  1  0.207745  0.730222  0.207745  1
  B  B12  1  0.842001  0.120923  0.120923  1
  B  B13  1  0.157999  0.879077  0.879077  1
  B  B14  1  0.879077  0.157999  0.879077  1
  B  B15  1  0.879077  0.879077  0.157999  1
  B  B16  1  0.060814  0.060814  0.232829  1
  B  B17  1  0.060814  0.232829  0.060814  1
  B  B18  1  0.232829  0.060814  0.060814  1
  B  B19  1  0.767171  0.939186  0.939186  1
  B  B20  1  0.939186  0.939186  0.767171  1
  B  B21  1  0.939186  0.767171  0.939186  1
  B  B22  1  0.120923  0.120923  0.842001  1
  B  B23  1  0.120923  0.842001  0.120923  1
  K  K24  1  0.500000  0.500000  0.000000  1
  K  K25  1  0.500000  0.000000  0.500000  1
  K  K26  1  0.000000  0.500000  0.500000  1
  I  I27  1  0.500000  0.500000  0.500000  1
