# generated using pymatgen
data_RbPaF6
_symmetry_space_group_name_H-M   'P 1'
_cell_length_a   7.05852469
_cell_length_b   7.05550773
_cell_length_c   7.05550773
_cell_angle_alpha   110.39338081
_cell_angle_beta   90.00000000
_cell_angle_gamma   90.00000000
_symmetry_Int_Tables_number   1
_chemical_formula_structural   RbPaF6
_chemical_formula_sum   'Rb2 Pa2 F12'
_cell_volume   329.35132127
_cell_formula_units_Z   2
loop_
 _symmetry_equiv_pos_site_id
 _symmetry_equiv_pos_as_xyz
  1  'x, y, z'
loop_
 _atom_site_type_symbol
 _atom_site_label
 _atom_site_symmetry_multiplicity
 _atom_site_fract_x
 _atom_site_fract_y
 _atom_site_fract_z
 _atom_site_occupancy
  F  F0  1  0.757686  0.403161  0.121840  1
  F  F1  1  0.757686  0.096839  0.378160  1
  F  F2  1  0.242314  0.121840  0.403161  1
  F  F3  1  0.242314  0.378160  0.096839  1
  F  F4  1  0.981878  0.352430  0.647570  1
  F  F5  1  0.981878  0.147570  0.852430  1
  F  F6  1  0.018122  0.647570  0.352430  1
  F  F7  1  0.018122  0.852430  0.147570  1
  F  F8  1  0.757686  0.621840  0.903161  1
  F  F9  1  0.757686  0.878160  0.596839  1
  F  F10  1  0.242314  0.903161  0.621840  1
  F  F11  1  0.242314  0.596839  0.878160  1
  Rb  Rb12  1  0.507181  0.250000  0.750000  1
  Rb  Rb13  1  0.492819  0.750000  0.250000  1
  Pa  Pa14  1  0.000000  0.500000  0.000000  1
  Pa  Pa15  1  0.000000  0.000000  0.500000  1
