# generated using pymatgen
data_Mo8P5
_symmetry_space_group_name_H-M   'P 1'
_cell_length_a   3.20590795
_cell_length_b   6.58427610
_cell_length_c   9.47263701
_cell_angle_alpha   109.37495726
_cell_angle_beta   90.00000000
_cell_angle_gamma   90.00000000
_symmetry_Int_Tables_number   1
_chemical_formula_structural   Mo8P5
_chemical_formula_sum   'Mo8 P5'
_cell_volume   188.63010311
_cell_formula_units_Z   1
loop_
 _symmetry_equiv_pos_site_id
 _symmetry_equiv_pos_as_xyz
  1  'x, y, z'
loop_
 _atom_site_type_symbol
 _atom_site_label
 _atom_site_symmetry_multiplicity
 _atom_site_fract_x
 _atom_site_fract_y
 _atom_site_fract_z
 _atom_site_occupancy
  Mo  Mo0  1  0.000000  0.004281  0.002419  1
  Mo  Mo1  1  0.000000  0.236474  0.780087  1
  Mo  Mo2  1  0.000000  0.790812  0.249292  1
  Mo  Mo3  1  0.000000  0.358002  0.307438  1
  Mo  Mo4  1  0.000000  0.798658  0.571008  1
  Mo  Mo5  1  0.500000  0.397814  0.051964  1
  Mo  Mo6  1  0.500000  0.610128  0.781526  1
  Mo  Mo7  1  0.500000  0.128987  0.497377  1
  P  P8  1  0.000000  0.424233  0.574887  1
  P  P9  1  0.000000  0.624864  0.982568  1
  P  P10  1  0.500000  0.062439  0.207549  1
  P  P11  1  0.500000  0.652401  0.376314  1
  P  P12  1  0.500000  0.978207  0.787871  1
