# generated using pymatgen
data_Pr3Sb5O12
_symmetry_space_group_name_H-M   'P 1'
_cell_length_a   9.70559924
_cell_length_b   9.70559924
_cell_length_c   9.70559924
_cell_angle_alpha   109.47122066
_cell_angle_beta   109.47122065
_cell_angle_gamma   109.47122063
_symmetry_Int_Tables_number   1
_chemical_formula_structural   Pr3Sb5O12
_chemical_formula_sum   'Pr6 Sb10 O24'
_cell_volume   703.79337267
_cell_formula_units_Z   2
loop_
 _symmetry_equiv_pos_site_id
 _symmetry_equiv_pos_as_xyz
  1  'x, y, z'
loop_
 _atom_site_type_symbol
 _atom_site_label
 _atom_site_symmetry_multiplicity
 _atom_site_fract_x
 _atom_site_fract_y
 _atom_site_fract_z
 _atom_site_occupancy
  O  O0  1  0.196594  0.196594  0.725498  1
  O  O1  1  0.471096  0.274502  0.471096  1
  O  O2  1  0.274502  0.471096  0.471096  1
  O  O3  1  0.000000  0.528904  0.803406  1
  O  O4  1  0.528904  0.000000  0.803406  1
  O  O5  1  0.803406  0.000000  0.528904  1
  O  O6  1  0.196594  0.725498  0.196594  1
  O  O7  1  0.725498  0.196594  0.196594  1
  O  O8  1  0.000000  0.803406  0.528904  1
  O  O9  1  0.803406  0.528904  0.000000  1
  O  O10  1  0.528904  0.803406  0.000000  1
  O  O11  1  0.471096  0.471096  0.274502  1
  O  O12  1  0.197094  0.708031  0.708031  1
  O  O13  1  0.510937  0.510937  0.802906  1
  O  O14  1  0.510937  0.802906  0.510937  1
  O  O15  1  0.291969  0.000000  0.489063  1
  O  O16  1  0.802906  0.510937  0.510937  1
  O  O17  1  0.489063  0.000000  0.291969  1
  O  O18  1  0.708031  0.197094  0.708031  1
  O  O19  1  0.708031  0.708031  0.197094  1
  O  O20  1  0.489063  0.291969  0.000000  1
  O  O21  1  0.000000  0.489063  0.291969  1
  O  O22  1  0.000000  0.291969  0.489063  1
  O  O23  1  0.291969  0.489063  0.000000  1
  Sb  Sb24  1  0.000000  0.000000  0.495960  1
  Sb  Sb25  1  0.000000  0.495960  0.000000  1
  Sb  Sb26  1  0.495960  0.000000  0.000000  1
  Sb  Sb27  1  0.504040  0.504040  0.504040  1
  Sb  Sb28  1  0.718840  0.000000  0.718840  1
  Sb  Sb29  1  0.281160  0.000000  0.281160  1
  Sb  Sb30  1  0.000000  0.281160  0.281160  1
  Sb  Sb31  1  0.000000  0.718840  0.718840  1
  Sb  Sb32  1  0.718840  0.718840  0.000000  1
  Sb  Sb33  1  0.281160  0.281160  0.000000  1
  Pr  Pr34  1  0.500000  0.750000  0.250000  1
  Pr  Pr35  1  0.250000  0.750000  0.500000  1
  Pr  Pr36  1  0.750000  0.250000  0.500000  1
  Pr  Pr37  1  0.250000  0.500000  0.750000  1
  Pr  Pr38  1  0.750000  0.500000  0.250000  1
  Pr  Pr39  1  0.500000  0.250000  0.750000  1
