# generated using pymatgen
data_Dy3(CuGe)4
_symmetry_space_group_name_H-M   'P 1'
_cell_length_a   4.18958878
_cell_length_b   6.64667307
_cell_length_c   7.98525830
_cell_angle_alpha   114.59589819
_cell_angle_beta   105.20852160
_cell_angle_gamma   90.00000001
_symmetry_Int_Tables_number   1
_chemical_formula_structural   Dy3(CuGe)4
_chemical_formula_sum   'Dy3 Cu4 Ge4'
_cell_volume   193.59040602
_cell_formula_units_Z   1
loop_
 _symmetry_equiv_pos_site_id
 _symmetry_equiv_pos_as_xyz
  1  'x, y, z'
loop_
 _atom_site_type_symbol
 _atom_site_label
 _atom_site_symmetry_multiplicity
 _atom_site_fract_x
 _atom_site_fract_y
 _atom_site_fract_z
 _atom_site_occupancy
  Cu  Cu0  1  0.668945  0.858603  0.337891  1
  Cu  Cu1  1  0.331055  0.141397  0.662109  1
  Cu  Cu2  1  0.668950  0.479214  0.337900  1
  Cu  Cu3  1  0.331050  0.520786  0.662100  1
  Ge  Ge4  1  0.783182  0.283167  0.566365  1
  Ge  Ge5  1  0.500002  0.808402  0.000005  1
  Ge  Ge6  1  0.499998  0.191598  0.999995  1
  Ge  Ge7  1  0.216818  0.716833  0.433635  1
  Dy  Dy8  1  0.869903  0.869903  0.739807  1
  Dy  Dy9  1  0.130097  0.130097  0.260194  1
  Dy  Dy10  1  0.000000  0.500000  0.000000  1
