# generated using pymatgen
data_MoCl3O
_symmetry_space_group_name_H-M   'P 1'
_cell_length_a   6.25415925
_cell_length_b   6.22247826
_cell_length_c   14.27481625
_cell_angle_alpha   90.00000000
_cell_angle_beta   90.00000000
_cell_angle_gamma   92.30271454
_symmetry_Int_Tables_number   1
_chemical_formula_structural   MoCl3O
_chemical_formula_sum   'Mo4 Cl12 O4'
_cell_volume   555.07544037
_cell_formula_units_Z   4
loop_
 _symmetry_equiv_pos_site_id
 _symmetry_equiv_pos_as_xyz
  1  'x, y, z'
loop_
 _atom_site_type_symbol
 _atom_site_label
 _atom_site_symmetry_multiplicity
 _atom_site_fract_x
 _atom_site_fract_y
 _atom_site_fract_z
 _atom_site_occupancy
  O  O0  1  0.849567  0.384110  0.585963  1
  O  O1  1  0.150433  0.115890  0.085963  1
  O  O2  1  0.150433  0.615890  0.414037  1
  O  O3  1  0.849567  0.884110  0.914037  1
  Cl  Cl4  1  0.284031  0.647198  0.928449  1
  Cl  Cl5  1  0.715969  0.852802  0.428449  1
  Cl  Cl6  1  0.715969  0.352802  0.071551  1
  Cl  Cl7  1  0.284031  0.147198  0.571551  1
  Cl  Cl8  1  0.264152  0.611340  0.687508  1
  Cl  Cl9  1  0.735848  0.888660  0.187508  1
  Cl  Cl10  1  0.735848  0.388660  0.312492  1
  Cl  Cl11  1  0.264152  0.111340  0.812492  1
  Cl  Cl12  1  0.841166  0.446306  0.806113  1
  Cl  Cl13  1  0.158834  0.053694  0.306113  1
  Cl  Cl14  1  0.158834  0.553694  0.193887  1
  Cl  Cl15  1  0.841166  0.946306  0.693887  1
  Mo  Mo16  1  0.031167  0.303405  0.664707  1
  Mo  Mo17  1  0.968833  0.196595  0.164707  1
  Mo  Mo18  1  0.968833  0.696595  0.335293  1
  Mo  Mo19  1  0.031167  0.803405  0.835293  1
