# generated using pymatgen
data_MgSb2(H4O3)6
_symmetry_space_group_name_H-M   'P 1'
_cell_length_a   16.23788266
_cell_length_b   16.23788223
_cell_length_c   9.93341308
_cell_angle_alpha   90.00000000
_cell_angle_beta   90.00000000
_cell_angle_gamma   120.00000087
_symmetry_Int_Tables_number   1
_chemical_formula_structural   MgSb2(H4O3)6
_chemical_formula_sum   'Mg6 Sb12 H144 O108'
_cell_volume   2268.23428115
_cell_formula_units_Z   6
loop_
 _symmetry_equiv_pos_site_id
 _symmetry_equiv_pos_as_xyz
  1  'x, y, z'
loop_
 _atom_site_type_symbol
 _atom_site_label
 _atom_site_symmetry_multiplicity
 _atom_site_fract_x
 _atom_site_fract_y
 _atom_site_fract_z
 _atom_site_occupancy
  H  H0  1  0.998006  0.098867  0.804018  1
  H  H1  1  0.901133  0.899139  0.804018  1
  H  H2  1  0.100861  0.001994  0.804018  1
  H  H3  1  0.091972  0.094510  0.204106  1
  H  H4  1  0.905490  0.997462  0.204106  1
  H  H5  1  0.002538  0.908028  0.204106  1
  H  H6  1  0.570980  0.241343  0.712934  1
  H  H7  1  0.758657  0.329637  0.712934  1
  H  H8  1  0.670363  0.429020  0.712934  1
  H  H9  1  0.657685  0.227876  0.112146  1
  H  H10  1  0.772124  0.429809  0.112146  1
  H  H11  1  0.570191  0.342315  0.112146  1
  H  H12  1  0.336306  0.574070  0.212755  1
  H  H13  1  0.425930  0.762236  0.212755  1
  H  H14  1  0.237764  0.663694  0.212755  1
  H  H15  1  0.327910  0.765207  0.814472  1
  H  H16  1  0.234793  0.562702  0.814472  1
  H  H17  1  0.437298  0.672090  0.814472  1
  H  H18  1  0.348245  0.174226  0.858954  1
  H  H19  1  0.825774  0.174020  0.858954  1
  H  H20  1  0.825980  0.651755  0.858954  1
  H  H21  1  0.342915  0.106925  0.742551  1
  H  H22  1  0.893075  0.235990  0.742551  1
  H  H23  1  0.764010  0.657085  0.742551  1
  H  H24  1  0.477352  0.187660  0.075495  1
  H  H25  1  0.812340  0.289692  0.075495  1
  H  H26  1  0.710308  0.522648  0.075495  1
  H  H27  1  0.441767  0.102598  0.185781  1
  H  H28  1  0.897402  0.339169  0.185781  1
  H  H29  1  0.660831  0.558233  0.185781  1
  H  H30  1  0.437358  0.004922  0.752528  1
  H  H31  1  0.995078  0.432436  0.752528  1
  H  H32  1  0.567564  0.562642  0.752528  1
  H  H33  1  0.503809  0.104187  0.827466  1
  H  H34  1  0.895813  0.399623  0.827466  1
  H  H35  1  0.600377  0.496191  0.827466  1
  H  H36  1  0.333734  0.893607  0.159890  1
  H  H37  1  0.106393  0.440127  0.159890  1
  H  H38  1  0.559873  0.666266  0.159890  1
  H  H39  1  0.357234  0.863625  0.017740  1
  H  H40  1  0.136375  0.493609  0.017740  1
  H  H41  1  0.506391  0.642766  0.017740  1
  H  H42  1  0.231851  0.905699  0.752723  1
  H  H43  1  0.094301  0.326152  0.752723  1
  H  H44  1  0.673848  0.768149  0.752723  1
  H  H45  1  0.196469  0.849912  0.892028  1
  H  H46  1  0.150088  0.346557  0.892028  1
  H  H47  1  0.653443  0.803531  0.892028  1
  H  H48  1  0.175955  0.988891  0.031233  1
  H  H49  1  0.011109  0.187063  0.031233  1
  H  H50  1  0.812937  0.824045  0.031233  1
  H  H51  1  0.233032  0.008847  0.170664  1
  H  H52  1  0.991152  0.224185  0.170664  1
  H  H53  1  0.775815  0.766968  0.170664  1
  H  H54  1  0.508025  0.994191  0.059305  1
  H  H55  1  0.005809  0.513834  0.059305  1
  H  H56  1  0.486166  0.491975  0.059305  1
  H  H57  1  0.565566  0.989867  0.182213  1
  H  H58  1  0.010133  0.575698  0.182213  1
  H  H59  1  0.424302  0.434434  0.182213  1
  H  H60  1  0.664171  0.105254  0.765401  1
  H  H61  1  0.894746  0.558917  0.765401  1
  H  H62  1  0.441083  0.335829  0.765401  1
  H  H63  1  0.683038  0.157114  0.910109  1
  H  H64  1  0.842886  0.525924  0.910109  1
  H  H65  1  0.474076  0.316962  0.910109  1
  H  H66  1  0.828805  0.057075  0.092723  1
  H  H67  1  0.942925  0.771729  0.092723  1
  H  H68  1  0.228271  0.171195  0.092723  1
  H  H69  1  0.763722  0.088706  0.174812  1
  H  H70  1  0.911294  0.675016  0.174812  1
  H  H71  1  0.324984  0.236278  0.174812  1
  H  H72  1  0.769749  0.003309  0.743948  1
  H  H73  1  0.996691  0.766440  0.743948  1
  H  H74  1  0.233560  0.230251  0.743948  1
  H  H75  1  0.805393  0.956021  0.854833  1
  H  H76  1  0.043979  0.849373  0.854833  1
  H  H77  1  0.150627  0.194607  0.854833  1
  H  H78  1  0.561022  0.823402  0.090927  1
  H  H79  1  0.176598  0.737620  0.090927  1
  H  H80  1  0.262380  0.438978  0.090927  1
  H  H81  1  0.663519  0.882852  0.158759  1
  H  H82  1  0.117148  0.780667  0.158759  1
  H  H83  1  0.219333  0.336481  0.158759  1
  H  H84  1  0.484042  0.859573  0.853406  1
  H  H85  1  0.140427  0.624469  0.853406  1
  H  H86  1  0.375531  0.515958  0.853406  1
  H  H87  1  0.567509  0.894488  0.740617  1
  H  H88  1  0.105512  0.673022  0.740617  1
  H  H89  1  0.326978  0.432491  0.740617  1
  H  H90  1  0.023316  0.143470  0.365463  1
  H  H91  1  0.856530  0.879845  0.365463  1
  H  H92  1  0.120154  0.976684  0.365463  1
  H  H93  1  0.164474  0.103759  0.590241  1
  H  H94  1  0.896241  0.060715  0.590241  1
  H  H95  1  0.939285  0.835526  0.590241  1
  H  H96  1  0.523507  0.311318  0.554145  1
  H  H97  1  0.688682  0.212189  0.554145  1
  H  H98  1  0.787811  0.476493  0.554145  1
  H  H99  1  0.559543  0.168214  0.332834  1
  H  H100  1  0.831786  0.391329  0.332834  1
  H  H101  1  0.608671  0.440457  0.332834  1
  H  H102  1  0.275718  0.501687  0.596552  1
  H  H103  1  0.498313  0.774030  0.596552  1
  H  H104  1  0.225970  0.724282  0.596552  1
  H  H105  1  0.352173  0.807887  0.373440  1
  H  H106  1  0.192113  0.544286  0.373440  1
  H  H107  1  0.455714  0.647827  0.373440  1
  H  H108  1  0.294079  0.109436  0.347154  1
  H  H109  1  0.890564  0.184644  0.347154  1
  H  H110  1  0.815356  0.705921  0.347154  1
  H  H111  1  0.439873  0.162140  0.551530  1
  H  H112  1  0.837860  0.277733  0.551530  1
  H  H113  1  0.722267  0.560127  0.551530  1
  H  H114  1  0.479086  0.020839  0.353635  1
  H  H115  1  0.979161  0.458247  0.353635  1
  H  H116  1  0.541753  0.520914  0.353635  1
  H  H117  1  0.366615  0.883110  0.597406  1
  H  H118  1  0.116890  0.483506  0.597406  1
  H  H119  1  0.516494  0.633385  0.597406  1
  H  H120  1  0.213439  0.839717  0.353139  1
  H  H121  1  0.160283  0.373722  0.353139  1
  H  H122  1  0.626278  0.786561  0.353139  1
  H  H123  1  0.177280  0.961889  0.587035  1
  H  H124  1  0.038111  0.215391  0.587035  1
  H  H125  1  0.784609  0.822720  0.587035  1
  H  H126  1  0.555538  0.041761  0.580356  1
  H  H127  1  0.958239  0.513776  0.580356  1
  H  H128  1  0.486224  0.444462  0.580356  1
  H  H129  1  0.702156  0.151670  0.329083  1
  H  H130  1  0.848330  0.550486  0.329083  1
  H  H131  1  0.449514  0.297844  0.329083  1
  H  H132  1  0.818296  0.127303  0.569968  1
  H  H133  1  0.872697  0.690993  0.569968  1
  H  H134  1  0.309007  0.181704  0.569968  1
  H  H135  1  0.771728  0.942663  0.361534  1
  H  H136  1  0.057337  0.829065  0.361534  1
  H  H137  1  0.170935  0.228272  0.361534  1
  H  H138  1  0.647843  0.859755  0.582261  1
  H  H139  1  0.140245  0.788088  0.582261  1
  H  H140  1  0.211912  0.352157  0.582261  1
  H  H141  1  0.499689  0.891484  0.373948  1
  H  H142  1  0.108516  0.608205  0.373948  1
  H  H143  1  0.391795  0.500311  0.373948  1
  O  O144  1  0.034347  0.115903  0.889223  1
  O  O145  1  0.884097  0.918444  0.889223  1
  O  O146  1  0.081556  0.965653  0.889223  1
  O  O147  1  0.113709  0.084213  0.115353  1
  O  O148  1  0.915787  0.029495  0.115353  1
  O  O149  1  0.970505  0.886291  0.115353  1
  O  O150  1  0.581913  0.219936  0.801640  1
  O  O151  1  0.780064  0.361978  0.801640  1
  O  O152  1  0.638022  0.418087  0.801640  1
  O  O153  1  0.695456  0.247594  0.028198  1
  O  O154  1  0.752406  0.447862  0.028198  1
  O  O155  1  0.552138  0.304544  0.028198  1
  O  O156  1  0.302918  0.552886  0.124837  1
  O  O157  1  0.447114  0.750031  0.124837  1
  O  O158  1  0.249969  0.697082  0.124837  1
  O  O159  1  0.365391  0.782330  0.898650  1
  O  O160  1  0.217670  0.583061  0.898650  1
  O  O161  1  0.416939  0.634609  0.898650  1
  O  O162  1  0.321712  0.106344  0.836522  1
  O  O163  1  0.893656  0.215369  0.836522  1
  O  O164  1  0.784631  0.678288  0.836522  1
  O  O165  1  0.432298  0.119267  0.093713  1
  O  O166  1  0.880733  0.313031  0.093713  1
  O  O167  1  0.686969  0.567702  0.093713  1
  O  O168  1  0.455377  0.035759  0.842071  1
  O  O169  1  0.964241  0.419618  0.842071  1
  O  O170  1  0.580382  0.544623  0.842071  1
  O  O171  1  0.368213  0.918609  0.074547  1
  O  O172  1  0.081391  0.449604  0.074547  1
  O  O173  1  0.550396  0.631787  0.074547  1
  O  O174  1  0.252591  0.897621  0.843326  1
  O  O175  1  0.102379  0.354970  0.843326  1
  O  O176  1  0.645030  0.747409  0.843326  1
  O  O177  1  0.225679  0.982736  0.078760  1
  O  O178  1  0.017264  0.242943  0.078760  1
  O  O179  1  0.757057  0.774321  0.078760  1
  O  O180  1  0.573069  0.013309  0.088152  1
  O  O181  1  0.986691  0.559760  0.088152  1
  O  O182  1  0.440240  0.426931  0.088152  1
  O  O183  1  0.694417  0.112785  0.854385  1
  O  O184  1  0.887215  0.581633  0.854385  1
  O  O185  1  0.418367  0.305583  0.854385  1
  O  O186  1  0.775467  0.070757  0.084568  1
  O  O187  1  0.929243  0.704710  0.084568  1
  O  O188  1  0.295290  0.224533  0.084568  1
  O  O189  1  0.753586  0.969917  0.831376  1
  O  O190  1  0.030083  0.783668  0.831376  1
  O  O191  1  0.216332  0.246414  0.831376  1
  O  O192  1  0.630346  0.867011  0.071419  1
  O  O193  1  0.132989  0.763335  0.071419  1
  O  O194  1  0.236665  0.369654  0.071419  1
  O  O195  1  0.552347  0.903644  0.834148  1
  O  O196  1  0.096356  0.648703  0.834148  1
  O  O197  1  0.351297  0.447653  0.834148  1
  O  O198  1  0.065578  0.115857  0.371899  1
  O  O199  1  0.884143  0.949721  0.371899  1
  O  O200  1  0.050279  0.934422  0.371899  1
  O  O201  1  0.114424  0.037045  0.610394  1
  O  O202  1  0.962955  0.077379  0.610394  1
  O  O203  1  0.922621  0.885576  0.610394  1
  O  O204  1  0.550593  0.268576  0.546132  1
  O  O205  1  0.731424  0.282018  0.546132  1
  O  O206  1  0.717982  0.449407  0.546132  1
  O  O207  1  0.625343  0.217844  0.308426  1
  O  O208  1  0.782156  0.407499  0.308426  1
  O  O209  1  0.592501  0.374657  0.308426  1
  O  O210  1  0.259339  0.551374  0.619738  1
  O  O211  1  0.448626  0.707966  0.619738  1
  O  O212  1  0.292034  0.740661  0.619738  1
  O  O213  1  0.396341  0.782403  0.380817  1
  O  O214  1  0.217597  0.613938  0.380817  1
  O  O215  1  0.386062  0.603659  0.380817  1
  O  O216  1  0.258579  0.039372  0.344465  1
  O  O217  1  0.960628  0.219207  0.344465  1
  O  O218  1  0.780793  0.741421  0.344465  1
  O  O219  1  0.372588  0.113833  0.572970  1
  O  O220  1  0.886167  0.258755  0.572970  1
  O  O221  1  0.741245  0.627412  0.572970  1
  O  O222  1  0.447364  0.059850  0.350758  1
  O  O223  1  0.940150  0.387515  0.350758  1
  O  O224  1  0.612485  0.552636  0.350758  1
  O  O225  1  0.400353  0.953256  0.588703  1
  O  O226  1  0.046744  0.447098  0.588703  1
  O  O227  1  0.552902  0.599647  0.588703  1
  O  O228  1  0.283981  0.876124  0.352007  1
  O  O229  1  0.123876  0.407856  0.352007  1
  O  O230  1  0.592144  0.716019  0.352007  1
  O  O231  1  0.212362  0.926305  0.584508  1
  O  O232  1  0.073695  0.286057  0.584508  1
  O  O233  1  0.713943  0.787638  0.584508  1
  O  O234  1  0.625541  0.075783  0.582052  1
  O  O235  1  0.924217  0.549758  0.582052  1
  O  O236  1  0.450242  0.374459  0.582052  1
  O  O237  1  0.736727  0.116029  0.336834  1
  O  O238  1  0.883971  0.620698  0.336834  1
  O  O239  1  0.379302  0.263273  0.336834  1
  O  O240  1  0.787241  0.056611  0.572996  1
  O  O241  1  0.943389  0.730630  0.572996  1
  O  O242  1  0.269370  0.212759  0.572996  1
  O  O243  1  0.704902  0.926272  0.342670  1
  O  O244  1  0.073728  0.778630  0.342670  1
  O  O245  1  0.221370  0.295098  0.342670  1
  O  O246  1  0.605397  0.887375  0.581671  1
  O  O247  1  0.112625  0.718021  0.581671  1
  O  O248  1  0.281979  0.394603  0.581671  1
  O  O249  1  0.548239  0.959013  0.353069  1
  O  O250  1  0.040987  0.589225  0.353069  1
  O  O251  1  0.410775  0.451761  0.353069  1
  Mg  Mg252  1  0.342353  0.015440  0.962202  1
  Mg  Mg253  1  0.984560  0.326912  0.962202  1
  Mg  Mg254  1  0.673088  0.657647  0.962202  1
  Mg  Mg255  1  0.661546  0.988224  0.961635  1
  Mg  Mg256  1  0.011776  0.673322  0.961635  1
  Mg  Mg257  1  0.326678  0.338454  0.961635  1
  Sb  Sb258  1  0.000000  0.000000  0.002331  1
  Sb  Sb259  1  0.666667  0.333333  0.913930  1
  Sb  Sb260  1  0.333333  0.666667  0.011816  1
  Sb  Sb261  1  0.000000  0.000000  0.494573  1
  Sb  Sb262  1  0.666667  0.333333  0.423594  1
  Sb  Sb263  1  0.333333  0.666667  0.504265  1
  Sb  Sb264  1  0.328707  0.993884  0.465318  1
  Sb  Sb265  1  0.006116  0.334823  0.465318  1
  Sb  Sb266  1  0.665177  0.671293  0.465318  1
  Sb  Sb267  1  0.668005  0.003288  0.460002  1
  Sb  Sb268  1  0.996712  0.664717  0.460002  1
  Sb  Sb269  1  0.335283  0.331995  0.460002  1
