# generated using pymatgen
data_SiPbO3
_symmetry_space_group_name_H-M   'P 1'
_cell_length_a   7.15039981
_cell_length_b   11.39764262
_cell_length_c   12.49608725
_cell_angle_alpha   112.85483057
_cell_angle_beta   90.00000000
_cell_angle_gamma   90.00000000
_symmetry_Int_Tables_number   1
_chemical_formula_structural   SiPbO3
_chemical_formula_sum   'Si12 Pb12 O36'
_cell_volume   938.44954074
_cell_formula_units_Z   12
loop_
 _symmetry_equiv_pos_site_id
 _symmetry_equiv_pos_as_xyz
  1  'x, y, z'
loop_
 _atom_site_type_symbol
 _atom_site_label
 _atom_site_symmetry_multiplicity
 _atom_site_fract_x
 _atom_site_fract_y
 _atom_site_fract_z
 _atom_site_occupancy
  Si  Si0  1  0.593524  0.030100  0.892893  1
  Si  Si1  1  0.872693  0.381162  0.845960  1
  Si  Si2  1  0.872693  0.118838  0.654040  1
  Si  Si3  1  0.182364  0.714156  0.963470  1
  Si  Si4  1  0.182364  0.785844  0.536530  1
  Si  Si5  1  0.817636  0.285844  0.036530  1
  Si  Si6  1  0.406476  0.969900  0.107107  1
  Si  Si7  1  0.127307  0.881162  0.345960  1
  Si  Si8  1  0.817636  0.214156  0.463470  1
  Si  Si9  1  0.127307  0.618838  0.154040  1
  Si  Si10  1  0.593524  0.469900  0.607107  1
  Si  Si11  1  0.406476  0.530100  0.392893  1
  Pb  Pb12  1  0.616004  0.588244  0.154154  1
  Pb  Pb13  1  0.383996  0.088244  0.654154  1
  Pb  Pb14  1  0.304644  0.300956  0.102037  1
  Pb  Pb15  1  0.939574  0.046460  0.177440  1
  Pb  Pb16  1  0.304644  0.199044  0.397963  1
  Pb  Pb17  1  0.695356  0.699044  0.897963  1
  Pb  Pb18  1  0.060426  0.546460  0.677440  1
  Pb  Pb19  1  0.939574  0.453540  0.322560  1
  Pb  Pb20  1  0.695356  0.800956  0.602037  1
  Pb  Pb21  1  0.383996  0.411756  0.845846  1
  Pb  Pb22  1  0.616004  0.911756  0.345846  1
  Pb  Pb23  1  0.060426  0.953540  0.822560  1
  O  O24  1  0.226255  0.750000  0.250000  1
  O  O25  1  0.425126  0.077359  0.832934  1
  O  O26  1  0.052078  0.425034  0.790359  1
  O  O27  1  0.057700  0.841516  0.454781  1
  O  O28  1  0.629110  0.369373  0.086395  1
  O  O29  1  0.942300  0.158484  0.545219  1
  O  O30  1  0.773745  0.250000  0.750000  1
  O  O31  1  0.942300  0.341516  0.954781  1
  O  O32  1  0.286031  0.405585  0.306594  1
  O  O33  1  0.760892  0.363064  0.545507  1
  O  O34  1  0.760892  0.136936  0.954493  1
  O  O35  1  0.370890  0.869373  0.586395  1
  O  O36  1  0.052078  0.074966  0.709641  1
  O  O37  1  0.953218  0.283065  0.141481  1
  O  O38  1  0.574874  0.577359  0.332934  1
  O  O39  1  0.057700  0.658484  0.045219  1
  O  O40  1  0.629110  0.130627  0.413605  1
  O  O41  1  0.290319  0.990086  0.391507  1
  O  O42  1  0.953218  0.216935  0.358519  1
  O  O43  1  0.713969  0.905585  0.806594  1
  O  O44  1  0.709681  0.009914  0.608493  1
  O  O45  1  0.713969  0.594415  0.693406  1
  O  O46  1  0.574874  0.922641  0.167066  1
  O  O47  1  0.239108  0.863064  0.045507  1
  O  O48  1  0.370890  0.630627  0.913605  1
  O  O49  1  0.239108  0.636936  0.454493  1
  O  O50  1  0.500000  0.500000  0.500000  1
  O  O51  1  0.425126  0.422641  0.667066  1
  O  O52  1  0.046782  0.716935  0.858519  1
  O  O53  1  0.947922  0.925034  0.290359  1
  O  O54  1  0.709681  0.490086  0.891507  1
  O  O55  1  0.290319  0.509914  0.108493  1
  O  O56  1  0.947922  0.574966  0.209641  1
  O  O57  1  0.046782  0.783065  0.641481  1
  O  O58  1  0.500000  0.000000  0.000000  1
  O  O59  1  0.286031  0.094415  0.193406  1
