# generated using pymatgen
data_K3RhCl6
_symmetry_space_group_name_H-M   'P 1'
_cell_length_a   7.56815207
_cell_length_b   12.14162194
_cell_length_c   12.73532404
_cell_angle_alpha   108.31894183
_cell_angle_beta   90.00000000
_cell_angle_gamma   90.00000000
_symmetry_Int_Tables_number   1
_chemical_formula_structural   K3RhCl6
_chemical_formula_sum   'K12 Rh4 Cl24'
_cell_volume   1110.93826984
_cell_formula_units_Z   4
loop_
 _symmetry_equiv_pos_site_id
 _symmetry_equiv_pos_as_xyz
  1  'x, y, z'
loop_
 _atom_site_type_symbol
 _atom_site_label
 _atom_site_symmetry_multiplicity
 _atom_site_fract_x
 _atom_site_fract_y
 _atom_site_fract_z
 _atom_site_occupancy
  Cl  Cl0  1  0.255649  0.599493  0.593739  1
  Cl  Cl1  1  0.687924  0.137618  0.623030  1
  Cl  Cl2  1  0.187924  0.362382  0.376970  1
  Cl  Cl3  1  0.312076  0.862382  0.376970  1
  Cl  Cl4  1  0.128973  0.178361  0.999539  1
  Cl  Cl5  1  0.628973  0.321639  0.000461  1
  Cl  Cl6  1  0.871027  0.821639  0.000461  1
  Cl  Cl7  1  0.371027  0.678361  0.999539  1
  Cl  Cl8  1  0.191612  0.995265  0.146807  1
  Cl  Cl9  1  0.691612  0.504735  0.853193  1
  Cl  Cl10  1  0.808388  0.004735  0.853193  1
  Cl  Cl11  1  0.308388  0.495265  0.146807  1
  Cl  Cl12  1  0.795128  0.101709  0.138950  1
  Cl  Cl13  1  0.295128  0.398291  0.861050  1
  Cl  Cl14  1  0.204872  0.898291  0.861050  1
  Cl  Cl15  1  0.704872  0.601709  0.138950  1
  Cl  Cl16  1  -0.001224  0.620162  0.384549  1
  Cl  Cl17  1  0.244351  0.099493  0.593739  1
  Cl  Cl18  1  1.001224  0.379838  0.615451  1
  Cl  Cl19  1  0.501224  0.120162  0.384549  1
  Cl  Cl20  1  0.498776  0.879838  0.615451  1
  Cl  Cl21  1  0.755649  0.900507  0.406261  1
  Cl  Cl22  1  0.744351  0.400507  0.406261  1
  Cl  Cl23  1  0.812076  0.637618  0.623030  1
  K  K24  1  0.532513  0.640546  0.401137  1
  K  K25  1  0.430047  0.234114  0.182249  1
  K  K26  1  0.930047  0.265886  0.817751  1
  K  K27  1  0.569953  0.765886  0.817751  1
  K  K28  1  0.935375  0.387286  0.180929  1
  K  K29  1  0.435375  0.112714  0.819071  1
  K  K30  1  0.064625  0.612714  0.819071  1
  K  K31  1  0.564625  0.887286  0.180929  1
  K  K32  1  0.069953  0.734114  0.182249  1
  K  K33  1  0.467487  0.359454  0.598863  1
  K  K34  1  0.032513  0.859454  0.598863  1
  K  K35  1  0.967487  0.140546  0.401137  1
  Rh  Rh36  1  0.500000  0.000000  0.500000  1
  Rh  Rh37  1  0.000000  0.500000  0.500000  1
  Rh  Rh38  1  0.500000  0.500000  0.000000  1
  Rh  Rh39  1  0.000000  0.000000  0.000000  1
