# generated using pymatgen
data_Si2Pb3O7
_symmetry_space_group_name_H-M   'P 1'
_cell_length_a   14.39768106
_cell_length_b   14.39768164
_cell_length_c   14.39768200
_cell_angle_alpha   41.90021821
_cell_angle_beta   41.90021564
_cell_angle_gamma   41.90021834
_symmetry_Int_Tables_number   1
_chemical_formula_structural   Si2Pb3O7
_chemical_formula_sum   'Si12 Pb18 O42'
_cell_volume   1203.84960468
_cell_formula_units_Z   6
loop_
 _symmetry_equiv_pos_site_id
 _symmetry_equiv_pos_as_xyz
  1  'x, y, z'
loop_
 _atom_site_type_symbol
 _atom_site_label
 _atom_site_symmetry_multiplicity
 _atom_site_fract_x
 _atom_site_fract_y
 _atom_site_fract_z
 _atom_site_occupancy
  Si  Si0  1  0.148155  0.942740  0.554620  1
  Si  Si1  1  0.351845  0.945380  0.557260  1
  Si  Si2  1  0.057260  0.445380  0.851845  1
  Si  Si3  1  0.442740  0.648155  0.054620  1
  Si  Si4  1  0.942740  0.554620  0.148155  1
  Si  Si5  1  0.557260  0.351845  0.945380  1
  Si  Si6  1  0.648155  0.054620  0.442740  1
  Si  Si7  1  0.945380  0.557260  0.351845  1
  Si  Si8  1  0.054620  0.442740  0.648155  1
  Si  Si9  1  0.554620  0.148155  0.942740  1
  Si  Si10  1  0.851845  0.057260  0.445380  1
  Si  Si11  1  0.445380  0.851845  0.057260  1
  Pb  Pb12  1  0.791512  0.312046  0.009758  1
  Pb  Pb13  1  0.340406  0.340406  0.340406  1
  Pb  Pb14  1  0.187954  0.708488  0.490242  1
  Pb  Pb15  1  0.840406  0.840406  0.840406  1
  Pb  Pb16  1  0.291512  0.509758  0.812046  1
  Pb  Pb17  1  0.312046  0.009758  0.791512  1
  Pb  Pb18  1  0.990242  0.208488  0.687954  1
  Pb  Pb19  1  0.509758  0.812046  0.291512  1
  Pb  Pb20  1  0.250000  0.250000  0.250000  1
  Pb  Pb21  1  0.208488  0.687954  0.990242  1
  Pb  Pb22  1  0.659594  0.659594  0.659594  1
  Pb  Pb23  1  0.490242  0.187954  0.708488  1
  Pb  Pb24  1  0.009758  0.791512  0.312046  1
  Pb  Pb25  1  0.812046  0.291512  0.509758  1
  Pb  Pb26  1  0.687954  0.990242  0.208488  1
  Pb  Pb27  1  0.750000  0.750000  0.750000  1
  Pb  Pb28  1  0.159594  0.159594  0.159594  1
  Pb  Pb29  1  0.708488  0.490242  0.187954  1
  O  O30  1  0.129785  0.370215  0.750000  1
  O  O31  1  0.874328  0.197151  0.377226  1
  O  O32  1  0.393645  0.015678  0.918440  1
  O  O33  1  0.865635  0.507815  0.748292  1
  O  O34  1  0.984322  0.081560  0.606355  1
  O  O35  1  0.374328  0.877226  0.697151  1
  O  O36  1  0.697151  0.374328  0.877226  1
  O  O37  1  0.007815  0.365635  0.248292  1
  O  O38  1  0.634365  0.751708  0.992185  1
  O  O39  1  0.251708  0.134365  0.492185  1
  O  O40  1  0.622774  0.125672  0.802849  1
  O  O41  1  0.015678  0.918440  0.393645  1
  O  O42  1  0.750000  0.129785  0.370215  1
  O  O43  1  0.507815  0.748292  0.865635  1
  O  O44  1  0.606355  0.984322  0.081560  1
  O  O45  1  0.802849  0.622774  0.125672  1
  O  O46  1  0.122774  0.302849  0.625672  1
  O  O47  1  0.918440  0.393645  0.015678  1
  O  O48  1  0.134365  0.492185  0.251708  1
  O  O49  1  0.748292  0.865635  0.507815  1
  O  O50  1  0.302849  0.625672  0.122774  1
  O  O51  1  0.870215  0.629785  0.250000  1
  O  O52  1  0.365635  0.248292  0.007815  1
  O  O53  1  0.893645  0.418440  0.515678  1
  O  O54  1  0.515678  0.893645  0.418440  1
  O  O55  1  0.629785  0.250000  0.870215  1
  O  O56  1  0.625672  0.122774  0.302849  1
  O  O57  1  0.081560  0.606355  0.984322  1
  O  O58  1  0.248292  0.007815  0.365635  1
  O  O59  1  0.751708  0.992185  0.634365  1
  O  O60  1  0.370215  0.750000  0.129785  1
  O  O61  1  0.877226  0.697151  0.374328  1
  O  O62  1  0.484322  0.106355  0.581560  1
  O  O63  1  0.377226  0.874328  0.197151  1
  O  O64  1  0.125672  0.802849  0.622774  1
  O  O65  1  0.106355  0.581560  0.484322  1
  O  O66  1  0.992185  0.634365  0.751708  1
  O  O67  1  0.197151  0.377226  0.874328  1
  O  O68  1  0.492185  0.251708  0.134365  1
  O  O69  1  0.581560  0.484322  0.106355  1
  O  O70  1  0.418440  0.515678  0.893645  1
  O  O71  1  0.250000  0.870215  0.629785  1
