# generated using pymatgen
data_Cs6Cl4O
_symmetry_space_group_name_H-M   'P 1'
_cell_length_a   9.66044483
_cell_length_b   9.66044483
_cell_length_c   9.66044483
_cell_angle_alpha   89.25403241
_cell_angle_beta   89.25403243
_cell_angle_gamma   89.25403244
_symmetry_Int_Tables_number   1
_chemical_formula_structural   Cs6Cl4O
_chemical_formula_sum   'Cs12 Cl8 O2'
_cell_volume   901.32597156
_cell_formula_units_Z   2
loop_
 _symmetry_equiv_pos_site_id
 _symmetry_equiv_pos_as_xyz
  1  'x, y, z'
loop_
 _atom_site_type_symbol
 _atom_site_label
 _atom_site_symmetry_multiplicity
 _atom_site_fract_x
 _atom_site_fract_y
 _atom_site_fract_z
 _atom_site_occupancy
  O  O0  1  0.500000  0.500000  0.500000  1
  O  O1  1  0.000000  0.000000  0.000000  1
  Cl  Cl2  1  0.750000  0.750000  0.750000  1
  Cl  Cl3  1  0.250000  0.250000  0.250000  1
  Cl  Cl4  1  0.367827  0.750000  0.132173  1
  Cl  Cl5  1  0.750000  0.132173  0.367827  1
  Cl  Cl6  1  0.132173  0.367827  0.750000  1
  Cl  Cl7  1  0.632173  0.250000  0.867827  1
  Cl  Cl8  1  0.250000  0.867827  0.632173  1
  Cl  Cl9  1  0.867827  0.632173  0.250000  1
  Cs  Cs10  1  0.933716  0.055267  0.713993  1
  Cs  Cs11  1  0.713993  0.933716  0.055267  1
  Cs  Cs12  1  0.055267  0.713993  0.933716  1
  Cs  Cs13  1  0.444733  0.566284  0.786007  1
  Cs  Cs14  1  0.566284  0.786007  0.444733  1
  Cs  Cs15  1  0.786007  0.444733  0.566284  1
  Cs  Cs16  1  0.286007  0.066284  0.944733  1
  Cs  Cs17  1  0.066284  0.944733  0.286007  1
  Cs  Cs18  1  0.944733  0.286007  0.066284  1
  Cs  Cs19  1  0.555267  0.433716  0.213993  1
  Cs  Cs20  1  0.433716  0.213993  0.555267  1
  Cs  Cs21  1  0.213993  0.555267  0.433716  1
