# generated using pymatgen
data_Sc2FeB2Ir5
_symmetry_space_group_name_H-M   'P 1'
_cell_length_a   3.07685601
_cell_length_b   9.38048527
_cell_length_c   9.38048527
_cell_angle_alpha   90.00000000
_cell_angle_beta   90.00000000
_cell_angle_gamma   90.00000000
_symmetry_Int_Tables_number   1
_chemical_formula_structural   Sc2FeB2Ir5
_chemical_formula_sum   'Sc4 Fe2 B4 Ir10'
_cell_volume   270.74334132
_cell_formula_units_Z   2
loop_
 _symmetry_equiv_pos_site_id
 _symmetry_equiv_pos_as_xyz
  1  'x, y, z'
loop_
 _atom_site_type_symbol
 _atom_site_label
 _atom_site_symmetry_multiplicity
 _atom_site_fract_x
 _atom_site_fract_y
 _atom_site_fract_z
 _atom_site_occupancy
  B  B0  1  0.000000  0.875447  0.375447  1
  B  B1  1  0.000000  0.624553  0.875447  1
  B  B2  1  0.000000  0.375447  0.124553  1
  B  B3  1  0.000000  0.124553  0.624553  1
  Sc  Sc4  1  0.000000  0.676436  0.176436  1
  Sc  Sc5  1  0.000000  0.323564  0.823564  1
  Sc  Sc6  1  0.000000  0.176436  0.323564  1
  Sc  Sc7  1  0.000000  0.823564  0.676436  1
  Fe  Fe8  1  0.000000  0.000000  0.000000  1
  Fe  Fe9  1  0.000000  0.500000  0.500000  1
  Ir  Ir10  1  0.500000  0.000000  0.500000  1
  Ir  Ir11  1  0.500000  0.569509  0.715687  1
  Ir  Ir12  1  0.500000  0.284313  0.569509  1
  Ir  Ir13  1  0.500000  0.715687  0.430491  1
  Ir  Ir14  1  0.500000  0.430491  0.284313  1
  Ir  Ir15  1  0.500000  0.500000  0.000000  1
  Ir  Ir16  1  0.500000  0.784313  0.930491  1
  Ir  Ir17  1  0.500000  0.069509  0.784313  1
  Ir  Ir18  1  0.500000  0.930491  0.215687  1
  Ir  Ir19  1  0.500000  0.215687  0.069509  1
