# generated using pymatgen
data_WBr6
_symmetry_space_group_name_H-M   'P 1'
_cell_length_a   7.29610375
_cell_length_b   7.29610403
_cell_length_c   7.29610412
_cell_angle_alpha   55.58888667
_cell_angle_beta   55.58888518
_cell_angle_gamma   55.58888287
_symmetry_Int_Tables_number   1
_chemical_formula_structural   WBr6
_chemical_formula_sum   'W1 Br6'
_cell_volume   246.51941699
_cell_formula_units_Z   1
loop_
 _symmetry_equiv_pos_site_id
 _symmetry_equiv_pos_as_xyz
  1  'x, y, z'
loop_
 _atom_site_type_symbol
 _atom_site_label
 _atom_site_symmetry_multiplicity
 _atom_site_fract_x
 _atom_site_fract_y
 _atom_site_fract_z
 _atom_site_occupancy
  W  W0  1  0.000000  0.000000  0.000000  1
  Br  Br1  1  0.222250  0.626939  0.918415  1
  Br  Br2  1  0.918415  0.222250  0.626939  1
  Br  Br3  1  0.626939  0.918415  0.222250  1
  Br  Br4  1  0.777750  0.373061  0.081585  1
  Br  Br5  1  0.081585  0.777750  0.373061  1
  Br  Br6  1  0.373061  0.081585  0.777750  1
