# generated using pymatgen
data_CsFeCl4
_symmetry_space_group_name_H-M   'P 1'
_cell_length_a   7.38217561
_cell_length_b   9.78693589
_cell_length_c   11.86556420
_cell_angle_alpha   90.00000000
_cell_angle_beta   90.00000000
_cell_angle_gamma   90.00000000
_symmetry_Int_Tables_number   1
_chemical_formula_structural   CsFeCl4
_chemical_formula_sum   'Cs4 Fe4 Cl16'
_cell_volume   857.27371718
_cell_formula_units_Z   4
loop_
 _symmetry_equiv_pos_site_id
 _symmetry_equiv_pos_as_xyz
  1  'x, y, z'
loop_
 _atom_site_type_symbol
 _atom_site_label
 _atom_site_symmetry_multiplicity
 _atom_site_fract_x
 _atom_site_fract_y
 _atom_site_fract_z
 _atom_site_occupancy
  Cl  Cl0  1  0.507122  0.327405  0.416438  1
  Cl  Cl1  1  0.007122  0.672595  0.583562  1
  Cl  Cl2  1  0.492878  0.827405  0.083562  1
  Cl  Cl3  1  0.992878  0.172595  0.916438  1
  Cl  Cl4  1  0.492878  0.672595  0.583562  1
  Cl  Cl5  1  0.992878  0.327405  0.416438  1
  Cl  Cl6  1  0.507122  0.172595  0.916438  1
  Cl  Cl7  1  0.007122  0.827405  0.083562  1
  Cl  Cl8  1  0.250000  0.593240  0.904198  1
  Cl  Cl9  1  0.750000  0.406759  0.095802  1
  Cl  Cl10  1  0.750000  0.093241  0.595802  1
  Cl  Cl11  1  0.250000  0.906760  0.404198  1
  Cl  Cl12  1  0.250000  0.550116  0.211779  1
  Cl  Cl13  1  0.750000  0.449884  0.788221  1
  Cl  Cl14  1  0.750000  0.050116  0.288221  1
  Cl  Cl15  1  0.250000  0.949884  0.711779  1
  Fe  Fe16  1  0.250000  0.805145  0.569272  1
  Fe  Fe17  1  0.750000  0.194855  0.430728  1
  Fe  Fe18  1  0.750000  0.305145  0.930728  1
  Fe  Fe19  1  0.250000  0.694855  0.069272  1
  Cs  Cs20  1  0.250000  0.334430  0.680777  1
  Cs  Cs21  1  0.750000  0.665570  0.319223  1
  Cs  Cs22  1  0.750000  0.834430  0.819223  1
  Cs  Cs23  1  0.250000  0.165570  0.180777  1
