# generated using pymatgen
data_MnCoO3
_symmetry_space_group_name_H-M   'P 1'
_cell_length_a   5.35394297
_cell_length_b   5.35317564
_cell_length_c   5.35250569
_cell_angle_alpha   55.69059533
_cell_angle_beta   55.67087764
_cell_angle_gamma   55.67919526
_symmetry_Int_Tables_number   1
_chemical_formula_structural   MnCoO3
_chemical_formula_sum   'Mn2 Co2 O6'
_cell_volume   97.60322238
_cell_formula_units_Z   2
loop_
 _symmetry_equiv_pos_site_id
 _symmetry_equiv_pos_as_xyz
  1  'x, y, z'
loop_
 _atom_site_type_symbol
 _atom_site_label
 _atom_site_symmetry_multiplicity
 _atom_site_fract_x
 _atom_site_fract_y
 _atom_site_fract_z
 _atom_site_occupancy
  Mn  Mn0  1  0.856375  0.856290  0.856362  1
  Mn  Mn1  1  0.143616  0.143701  0.143629  1
  Co  Co2  1  0.656725  0.656741  0.656739  1
  Co  Co3  1  0.343286  0.343271  0.343272  1
  O  O4  1  0.731640  0.450015  0.055057  1
  O  O5  1  0.944995  0.268297  0.549923  1
  O  O6  1  0.550060  0.944930  0.268276  1
  O  O7  1  0.449936  0.055070  0.731726  1
  O  O8  1  0.268360  0.549982  0.944943  1
  O  O9  1  0.055005  0.731702  0.450072  1
