# generated using pymatgen
data_Fe3S4
_symmetry_space_group_name_H-M   'P 1'
_cell_length_a   6.70552952
_cell_length_b   6.70552952
_cell_length_c   6.70552952
_cell_angle_alpha   59.99999998
_cell_angle_beta   60.00000000
_cell_angle_gamma   59.99999995
_symmetry_Int_Tables_number   1
_chemical_formula_structural   Fe3S4
_chemical_formula_sum   'Fe6 S8'
_cell_volume   213.19854572
_cell_formula_units_Z   2
loop_
 _symmetry_equiv_pos_site_id
 _symmetry_equiv_pos_as_xyz
  1  'x, y, z'
loop_
 _atom_site_type_symbol
 _atom_site_label
 _atom_site_symmetry_multiplicity
 _atom_site_fract_x
 _atom_site_fract_y
 _atom_site_fract_z
 _atom_site_occupancy
  S  S0  1  0.744935  0.744935  0.744935  1
  S  S1  1  0.255065  0.255065  0.734805  1
  S  S2  1  0.255065  0.734805  0.255065  1
  S  S3  1  0.734805  0.255065  0.255065  1
  S  S4  1  0.744935  0.265195  0.744935  1
  S  S5  1  0.265195  0.744935  0.744935  1
  S  S6  1  0.255065  0.255065  0.255065  1
  S  S7  1  0.744935  0.744935  0.265195  1
  Fe  Fe8  1  0.500000  0.000000  0.500000  1
  Fe  Fe9  1  0.000000  0.500000  0.500000  1
  Fe  Fe10  1  0.500000  0.500000  0.000000  1
  Fe  Fe11  1  0.500000  0.500000  0.500000  1
  Fe  Fe12  1  0.875000  0.875000  0.875000  1
  Fe  Fe13  1  0.125000  0.125000  0.125000  1
