# generated using pymatgen
data_K2Te2O5
_symmetry_space_group_name_H-M   'P 1'
_cell_length_a   5.61008058
_cell_length_b   7.91057870
_cell_length_c   15.48572187
_cell_angle_alpha   90.00000000
_cell_angle_beta   90.00000000
_cell_angle_gamma   93.79883086
_symmetry_Int_Tables_number   1
_chemical_formula_structural   K2Te2O5
_chemical_formula_sum   'K8 Te8 O20'
_cell_volume   685.73061185
_cell_formula_units_Z   4
loop_
 _symmetry_equiv_pos_site_id
 _symmetry_equiv_pos_as_xyz
  1  'x, y, z'
loop_
 _atom_site_type_symbol
 _atom_site_label
 _atom_site_symmetry_multiplicity
 _atom_site_fract_x
 _atom_site_fract_y
 _atom_site_fract_z
 _atom_site_occupancy
  O  O0  1  0.774237  0.944836  0.646903  1
  O  O1  1  0.725763  0.055164  0.146903  1
  O  O2  1  0.225763  0.055164  0.353097  1
  O  O3  1  0.274237  0.944836  0.853097  1
  O  O4  1  0.843623  0.313414  0.638343  1
  O  O5  1  0.656377  0.686586  0.138343  1
  O  O6  1  0.156377  0.686586  0.361657  1
  O  O7  1  0.343623  0.313414  0.861657  1
  O  O8  1  0.418120  0.145383  0.566126  1
  O  O9  1  0.081880  0.854617  0.066126  1
  O  O10  1  0.581880  0.854617  0.433874  1
  O  O11  1  0.918120  0.145383  0.933874  1
  O  O12  1  0.501102  0.554722  0.743989  1
  O  O13  1  0.998898  0.445278  0.243989  1
  O  O14  1  0.498898  0.445278  0.256011  1
  O  O15  1  0.001102  0.554722  0.756011  1
  O  O16  1  0.732687  0.567298  0.908627  1
  O  O17  1  0.767313  0.432702  0.408627  1
  O  O18  1  0.267313  0.432702  0.091373  1
  O  O19  1  0.232687  0.567298  0.591373  1
  K  K20  1  0.733864  0.625728  0.567134  1
  K  K21  1  0.766136  0.374272  0.067134  1
  K  K22  1  0.266136  0.374272  0.432866  1
  K  K23  1  0.233864  0.625728  0.932866  1
  K  K24  1  0.263311  0.881676  0.680800  1
  K  K25  1  0.236689  0.118324  0.180800  1
  K  K26  1  0.736689  0.118324  0.319200  1
  K  K27  1  0.763311  0.881676  0.819200  1
  Te  Te28  1  0.199573  0.418078  0.684225  1
  Te  Te29  1  0.300427  0.581922  0.184225  1
  Te  Te30  1  0.800427  0.581922  0.315775  1
  Te  Te31  1  0.699573  0.418078  0.815775  1
  Te  Te32  1  0.749081  0.119533  0.566003  1
  Te  Te33  1  0.750919  0.880467  0.066003  1
  Te  Te34  1  0.250919  0.880467  0.433997  1
  Te  Te35  1  0.249081  0.119533  0.933997  1
