# generated using pymatgen
data_CaMnSiHO5
_symmetry_space_group_name_H-M   'P 1'
_cell_length_a   5.95106075
_cell_length_b   7.33014716
_cell_length_c   8.78198846
_cell_angle_alpha   90.00000000
_cell_angle_beta   90.00000000
_cell_angle_gamma   90.00000000
_symmetry_Int_Tables_number   1
_chemical_formula_structural   CaMnSiHO5
_chemical_formula_sum   'Ca4 Mn4 Si4 H4 O20'
_cell_volume   383.08922717
_cell_formula_units_Z   4
loop_
 _symmetry_equiv_pos_site_id
 _symmetry_equiv_pos_as_xyz
  1  'x, y, z'
loop_
 _atom_site_type_symbol
 _atom_site_label
 _atom_site_symmetry_multiplicity
 _atom_site_fract_x
 _atom_site_fract_y
 _atom_site_fract_z
 _atom_site_occupancy
  H  H0  1  0.473897  0.430110  0.523371  1
  H  H1  1  0.973897  0.069890  0.476629  1
  H  H2  1  0.526103  0.930110  0.976629  1
  H  H3  1  0.026103  0.569890  0.023371  1
  O  O4  1  0.497470  0.605337  0.440939  1
  O  O5  1  0.997470  0.894663  0.559061  1
  O  O6  1  0.502530  0.105337  0.059061  1
  O  O7  1  0.002530  0.394663  0.940939  1
  O  O8  1  0.761657  0.373494  0.209659  1
  O  O9  1  0.261657  0.126506  0.790341  1
  O  O10  1  0.238343  0.873494  0.290341  1
  O  O11  1  0.738343  0.626506  0.709659  1
  O  O12  1  0.490961  0.459028  0.935737  1
  O  O13  1  0.990961  0.040972  0.064263  1
  O  O14  1  0.509039  0.959028  0.564263  1
  O  O15  1  0.009039  0.540972  0.435737  1
  O  O16  1  0.078097  0.699693  0.058212  1
  O  O17  1  0.578097  0.800307  0.941788  1
  O  O18  1  0.921903  0.199693  0.441788  1
  O  O19  1  0.421903  0.300307  0.558212  1
  O  O20  1  0.273938  0.662125  0.724879  1
  O  O21  1  0.773938  0.837875  0.275121  1
  O  O22  1  0.726062  0.162125  0.775121  1
  O  O23  1  0.226062  0.337875  0.224879  1
  Si  Si24  1  0.988424  0.365928  0.318805  1
  Si  Si25  1  0.488424  0.134072  0.681195  1
  Si  Si26  1  0.011576  0.865928  0.181195  1
  Si  Si27  1  0.511576  0.634072  0.818805  1
  Ca  Ca28  1  0.519718  0.121367  0.322428  1
  Ca  Ca29  1  0.980282  0.878633  0.822428  1
  Ca  Ca30  1  0.019718  0.378633  0.677572  1
  Ca  Ca31  1  0.480282  0.621367  0.177572  1
  Mn  Mn32  1  0.746015  0.257425  0.996415  1
  Mn  Mn33  1  0.253985  0.757425  0.503585  1
  Mn  Mn34  1  0.753985  0.742575  0.496415  1
  Mn  Mn35  1  0.246015  0.242575  0.003585  1
