# generated using pymatgen
data_K2CuF4
_symmetry_space_group_name_H-M   'P 1'
_cell_length_a   5.91717077
_cell_length_b   5.91717095
_cell_length_c   13.59920752
_cell_angle_alpha   102.56550358
_cell_angle_beta   102.56550398
_cell_angle_gamma   90.00000676
_symmetry_Int_Tables_number   1
_chemical_formula_structural   K2CuF4
_chemical_formula_sum   'K8 Cu4 F16'
_cell_volume   453.05137831
_cell_formula_units_Z   4
loop_
 _symmetry_equiv_pos_site_id
 _symmetry_equiv_pos_as_xyz
  1  'x, y, z'
loop_
 _atom_site_type_symbol
 _atom_site_label
 _atom_site_symmetry_multiplicity
 _atom_site_fract_x
 _atom_site_fract_y
 _atom_site_fract_z
 _atom_site_occupancy
  K  K0  1  0.678613  0.178613  0.357226  1
  K  K1  1  0.178613  0.678613  0.357226  1
  K  K2  1  0.821387  0.321387  0.642774  1
  K  K3  1  0.928588  0.928588  0.857177  1
  K  K4  1  0.428588  0.428588  0.857177  1
  K  K5  1  0.321387  0.821387  0.642774  1
  K  K6  1  0.071412  0.071412  0.142823  1
  K  K7  1  0.571412  0.571412  0.142823  1
  Cu  Cu8  1  0.500000  0.000000  0.000000  1
  Cu  Cu9  1  0.750000  0.750000  0.500000  1
  Cu  Cu10  1  0.000000  0.500000  0.000000  1
  Cu  Cu11  1  0.250000  0.250000  0.500000  1
  F  F12  1  0.017061  0.482939  0.500000  1
  F  F13  1  0.923315  0.423315  0.846630  1
  F  F14  1  0.076685  0.576685  0.153370  1
  F  F15  1  0.517061  0.517061  0.500000  1
  F  F16  1  0.826677  0.826677  0.653353  1
  F  F17  1  0.482939  0.017061  0.500000  1
  F  F18  1  0.232939  0.732939  1.000000  1
  F  F19  1  0.732939  0.767061  0.000000  1
  F  F20  1  0.767061  0.267061  0.000000  1
  F  F21  1  0.423315  0.923315  0.846630  1
  F  F22  1  0.673323  0.673323  0.346647  1
  F  F23  1  0.173323  0.173323  0.346647  1
  F  F24  1  0.576685  0.076685  0.153370  1
  F  F25  1  0.326677  0.326677  0.653353  1
  F  F26  1  0.267061  0.232939  0.000000  1
  F  F27  1  0.982939  0.982939  0.500000  1
