# generated using pymatgen
data_U2S3
_symmetry_space_group_name_H-M   'P 1'
_cell_length_a   3.80407371
_cell_length_b   10.44537870
_cell_length_c   10.50978421
_cell_angle_alpha   90.00000000
_cell_angle_beta   90.00000000
_cell_angle_gamma   90.00000000
_symmetry_Int_Tables_number   1
_chemical_formula_structural   U2S3
_chemical_formula_sum   'U8 S12'
_cell_volume   417.60617578
_cell_formula_units_Z   4
loop_
 _symmetry_equiv_pos_site_id
 _symmetry_equiv_pos_as_xyz
  1  'x, y, z'
loop_
 _atom_site_type_symbol
 _atom_site_label
 _atom_site_symmetry_multiplicity
 _atom_site_fract_x
 _atom_site_fract_y
 _atom_site_fract_z
 _atom_site_occupancy
  S  S0  1  0.250000  0.869381  0.051684  1
  S  S1  1  0.750000  0.130619  0.948316  1
  S  S2  1  0.750000  0.369381  0.448316  1
  S  S3  1  0.250000  0.630619  0.551684  1
  S  S4  1  0.250000  0.554428  0.873272  1
  S  S5  1  0.750000  0.445572  0.126728  1
  S  S6  1  0.750000  0.054428  0.626728  1
  S  S7  1  0.250000  0.945572  0.373272  1
  S  S8  1  0.250000  0.204380  0.226181  1
  S  S9  1  0.750000  0.795620  0.773819  1
  S  S10  1  0.750000  0.704380  0.273819  1
  S  S11  1  0.250000  0.295620  0.726181  1
  U  U12  1  0.250000  0.317221  0.989706  1
  U  U13  1  0.750000  0.682779  0.010294  1
  U  U14  1  0.750000  0.817221  0.510294  1
  U  U15  1  0.250000  0.182779  0.489706  1
  U  U16  1  0.250000  0.509344  0.313426  1
  U  U17  1  0.750000  0.490656  0.686574  1
  U  U18  1  0.750000  0.009344  0.186574  1
  U  U19  1  0.250000  0.990656  0.813426  1
