# generated using pymatgen
data_Mn8Cl3O10
_symmetry_space_group_name_H-M   'P 1'
_cell_length_a   9.41068593
_cell_length_b   9.41068594
_cell_length_c   9.41068593
_cell_angle_alpha   91.54805295
_cell_angle_beta   119.11029232
_cell_angle_gamma   119.11029241
_symmetry_Int_Tables_number   1
_chemical_formula_structural   Mn8Cl3O10
_chemical_formula_sum   'Mn16 Cl6 O20'
_cell_volume   597.00609817
_cell_formula_units_Z   2
loop_
 _symmetry_equiv_pos_site_id
 _symmetry_equiv_pos_as_xyz
  1  'x, y, z'
loop_
 _atom_site_type_symbol
 _atom_site_label
 _atom_site_symmetry_multiplicity
 _atom_site_fract_x
 _atom_site_fract_y
 _atom_site_fract_z
 _atom_site_occupancy
  O  O0  1  0.199911  0.100089  0.900177  1
  O  O1  1  0.800089  0.700266  0.900177  1
  O  O2  1  0.800089  0.099823  0.899912  1
  O  O3  1  0.199911  0.900177  0.100088  1
  O  O4  1  0.800089  0.900177  0.700266  1
  O  O5  1  0.800089  0.899911  0.099823  1
  O  O6  1  0.199912  0.299734  0.099823  1
  O  O7  1  0.199912  0.099823  0.299734  1
  O  O8  1  0.500000  0.401942  0.901941  1
  O  O9  1  0.499999  0.901941  0.401941  1
  O  O10  1  0.500000  0.598058  0.098059  1
  O  O11  1  0.500000  0.098058  0.598059  1
  O  O12  1  0.189283  0.594642  0.094642  1
  O  O13  1  0.500000  0.905358  0.094642  1
  O  O14  1  0.499999  0.594642  0.405358  1
  O  O15  1  0.189284  0.094642  0.594642  1
  O  O16  1  0.500000  0.094642  0.905358  1
  O  O17  1  0.500000  0.405358  0.594642  1
  O  O18  1  0.810716  0.905358  0.405358  1
  O  O19  1  0.810716  0.405358  0.905358  1
  Cl  Cl20  1  0.000000  0.303169  0.303170  1
  Cl  Cl21  1  0.394355  0.697178  0.697177  1
  Cl  Cl22  1  0.000001  0.697178  0.302823  1
  Cl  Cl23  1  0.999999  0.302822  0.697177  1
  Cl  Cl24  1  0.605645  0.302823  0.302823  1
  Cl  Cl25  1  0.000000  0.696831  0.696830  1
  Mn  Mn26  1  1.000000  0.500000  0.500000  1
  Mn  Mn27  1  0.000000  0.000000  0.000000  1
  Mn  Mn28  1  0.500000  0.750000  0.250000  1
  Mn  Mn29  1  0.500000  0.250001  0.750000  1
  Mn  Mn30  1  0.649539  1.000000  0.649539  1
  Mn  Mn31  1  0.649539  0.649539  0.000000  1
  Mn  Mn32  1  0.350461  0.350462  0.000000  1
  Mn  Mn33  1  0.350462  0.000000  0.350461  1
  Mn  Mn34  1  0.350773  0.999088  0.999088  1
  Mn  Mn35  1  0.649228  0.648316  0.648316  1
  Mn  Mn36  1  0.649227  0.000912  0.000912  1
  Mn  Mn37  1  0.000001  0.648316  0.999089  1
  Mn  Mn38  1  0.000001  0.999089  0.648316  1
  Mn  Mn39  1  0.000000  0.000912  0.351685  1
  Mn  Mn40  1  1.000000  0.351684  0.000912  1
  Mn  Mn41  1  0.350773  0.351684  0.351685  1
