# generated using pymatgen
data_Zr4Co4Ge7
_symmetry_space_group_name_H-M   'P 1'
_cell_length_a   5.25076215
_cell_length_b   9.75387750
_cell_length_c   9.75387750
_cell_angle_alpha   85.84536004
_cell_angle_beta   74.38554474
_cell_angle_gamma   74.38554477
_symmetry_Int_Tables_number   1
_chemical_formula_structural   Zr4Co4Ge7
_chemical_formula_sum   'Zr8 Co8 Ge14'
_cell_volume   463.35613407
_cell_formula_units_Z   2
loop_
 _symmetry_equiv_pos_site_id
 _symmetry_equiv_pos_as_xyz
  1  'x, y, z'
loop_
 _atom_site_type_symbol
 _atom_site_label
 _atom_site_symmetry_multiplicity
 _atom_site_fract_x
 _atom_site_fract_y
 _atom_site_fract_z
 _atom_site_occupancy
  Co  Co0  1  0.398306  0.500000  0.203388  1
  Co  Co1  1  0.601694  0.796612  0.500000  1
  Co  Co2  1  0.898306  0.203388  0.500000  1
  Co  Co3  1  0.101694  0.500000  0.796612  1
  Co  Co4  1  0.601694  0.500000  0.796612  1
  Co  Co5  1  0.398306  0.203388  0.500000  1
  Co  Co6  1  0.101694  0.796612  0.500000  1
  Co  Co7  1  0.898306  0.500000  0.203388  1
  Ge  Ge8  1  0.292020  0.000000  0.415959  1
  Ge  Ge9  1  0.707980  0.584041  0.000000  1
  Ge  Ge10  1  0.292020  0.415959  0.000000  1
  Ge  Ge11  1  0.707980  0.000000  0.584041  1
  Ge  Ge12  1  0.293324  0.706676  0.706676  1
  Ge  Ge13  1  0.000000  0.293324  0.706676  1
  Ge  Ge14  1  0.000000  0.706676  0.293324  1
  Ge  Ge15  1  0.706676  0.293324  0.293324  1
  Ge  Ge16  1  0.906065  0.593935  0.593935  1
  Ge  Ge17  1  0.500000  0.406065  0.593935  1
  Ge  Ge18  1  0.500000  0.593935  0.406065  1
  Ge  Ge19  1  0.093935  0.406065  0.406065  1
  Ge  Ge20  1  0.249302  0.000000  0.000000  1
  Ge  Ge21  1  0.750698  0.000000  0.000000  1
  Zr  Zr22  1  0.138726  0.000000  0.722547  1
  Zr  Zr23  1  0.861274  0.277453  0.000000  1
  Zr  Zr24  1  0.138726  0.722547  0.000000  1
  Zr  Zr25  1  0.861274  0.000000  0.277453  1
  Zr  Zr26  1  0.695651  0.804349  0.804349  1
  Zr  Zr27  1  0.500000  0.195651  0.804349  1
  Zr  Zr28  1  0.500000  0.804349  0.195651  1
  Zr  Zr29  1  0.304349  0.195651  0.195651  1
