# generated using pymatgen
data_Rb2ZrTe3
_symmetry_space_group_name_H-M   'P 1'
_cell_length_a   6.99717611
_cell_length_b   9.97171162
_cell_length_c   14.57732439
_cell_angle_alpha   90.00000000
_cell_angle_beta   90.00000000
_cell_angle_gamma   108.00270516
_symmetry_Int_Tables_number   1
_chemical_formula_structural   Rb2ZrTe3
_chemical_formula_sum   'Rb8 Zr4 Te12'
_cell_volume   967.31961909
_cell_formula_units_Z   4
loop_
 _symmetry_equiv_pos_site_id
 _symmetry_equiv_pos_as_xyz
  1  'x, y, z'
loop_
 _atom_site_type_symbol
 _atom_site_label
 _atom_site_symmetry_multiplicity
 _atom_site_fract_x
 _atom_site_fract_y
 _atom_site_fract_z
 _atom_site_occupancy
  Rb  Rb0  1  0.322012  0.648156  0.045410  1
  Rb  Rb1  1  0.177988  0.351844  0.545410  1
  Rb  Rb2  1  0.677988  0.351844  0.954590  1
  Rb  Rb3  1  0.822012  0.648156  0.454590  1
  Rb  Rb4  1  0.920271  0.905478  0.135385  1
  Rb  Rb5  1  0.579729  0.094522  0.635385  1
  Rb  Rb6  1  0.079729  0.094522  0.864615  1
  Rb  Rb7  1  0.420271  0.905478  0.364615  1
  Zr  Zr8  1  0.329447  0.296644  0.251652  1
  Zr  Zr9  1  0.170553  0.703356  0.751652  1
  Zr  Zr10  1  0.670553  0.703356  0.748348  1
  Zr  Zr11  1  0.829447  0.296644  0.248348  1
  Te  Te12  1  0.089629  0.273371  0.087987  1
  Te  Te13  1  0.410371  0.726629  0.587987  1
  Te  Te14  1  0.910371  0.726629  0.912013  1
  Te  Te15  1  0.589629  0.273371  0.412013  1
  Te  Te16  1  0.698972  0.526598  0.188288  1
  Te  Te17  1  0.801028  0.473402  0.688288  1
  Te  Te18  1  0.301028  0.473402  0.811712  1
  Te  Te19  1  0.198972  0.526598  0.311712  1
  Te  Te20  1  0.506786  0.094961  0.150879  1
  Te  Te21  1  0.993214  0.905039  0.650879  1
  Te  Te22  1  0.493214  0.905039  0.849121  1
  Te  Te23  1  0.006786  0.094961  0.349121  1
