# generated using pymatgen
data_As2S2F3
_symmetry_space_group_name_H-M   'P 1'
_cell_length_a   6.15822471
_cell_length_b   9.96248499
_cell_length_c   20.20033976
_cell_angle_alpha   90.00000000
_cell_angle_beta   90.00000000
_cell_angle_gamma   90.00000000
_symmetry_Int_Tables_number   1
_chemical_formula_structural   As2S2F3
_chemical_formula_sum   'As16 S16 F24'
_cell_volume   1239.31551371
_cell_formula_units_Z   8
loop_
 _symmetry_equiv_pos_site_id
 _symmetry_equiv_pos_as_xyz
  1  'x, y, z'
loop_
 _atom_site_type_symbol
 _atom_site_label
 _atom_site_symmetry_multiplicity
 _atom_site_fract_x
 _atom_site_fract_y
 _atom_site_fract_z
 _atom_site_occupancy
  F  F0  1  0.250471  0.750000  0.215895  1
  F  F1  1  0.250471  0.250000  0.284105  1
  F  F2  1  0.749529  0.250000  0.784105  1
  F  F3  1  0.749529  0.750000  0.715895  1
  F  F4  1  0.721231  0.750000  0.111979  1
  F  F5  1  0.721231  0.250000  0.388021  1
  F  F6  1  0.278769  0.250000  0.888021  1
  F  F7  1  0.278769  0.750000  0.611979  1
  F  F8  1  0.394177  0.375551  0.785672  1
  F  F9  1  0.394177  0.624449  0.714328  1
  F  F10  1  0.605823  0.875551  0.214328  1
  F  F11  1  0.605823  0.124449  0.285672  1
  F  F12  1  0.605823  0.624449  0.214328  1
  F  F13  1  0.605823  0.375551  0.285672  1
  F  F14  1  0.394177  0.124449  0.785672  1
  F  F15  1  0.394177  0.875551  0.714328  1
  F  F16  1  0.366018  0.876039  0.113812  1
  F  F17  1  0.366018  0.123961  0.386188  1
  F  F18  1  0.366018  0.623961  0.113812  1
  F  F19  1  0.633982  0.623961  0.613812  1
  F  F20  1  0.366018  0.376039  0.386188  1
  F  F21  1  0.633982  0.123961  0.886188  1
  F  F22  1  0.633982  0.876039  0.613812  1
  F  F23  1  0.633982  0.376039  0.886188  1
  S  S24  1  0.690991  0.750000  0.863279  1
  S  S25  1  0.690991  0.250000  0.636721  1
  S  S26  1  0.309009  0.250000  0.136721  1
  S  S27  1  0.309009  0.750000  0.363279  1
  S  S28  1  0.691038  0.750000  0.962941  1
  S  S29  1  0.691038  0.250000  0.537059  1
  S  S30  1  0.308962  0.250000  0.037059  1
  S  S31  1  0.308962  0.750000  0.462941  1
  S  S32  1  0.141986  0.576593  0.923207  1
  S  S33  1  0.858014  0.923407  0.423207  1
  S  S34  1  0.858014  0.076593  0.076793  1
  S  S35  1  0.858014  0.423407  0.076793  1
  S  S36  1  0.141986  0.076593  0.576793  1
  S  S37  1  0.141986  0.923407  0.923207  1
  S  S38  1  0.858014  0.576593  0.423207  1
  S  S39  1  0.141986  0.423407  0.576793  1
  As  As40  1  0.001580  0.376873  0.674452  1
  As  As41  1  0.001580  0.623127  0.825548  1
  As  As42  1  0.998420  0.876873  0.325548  1
  As  As43  1  0.998420  0.123127  0.174452  1
  As  As44  1  0.998420  0.623127  0.325548  1
  As  As45  1  0.998420  0.376873  0.174452  1
  As  As46  1  0.001580  0.123127  0.674452  1
  As  As47  1  0.001580  0.876873  0.825548  1
  As  As48  1  0.944887  0.750000  0.491101  1
  As  As49  1  0.944887  0.250000  0.008899  1
  As  As50  1  0.055113  0.250000  0.508899  1
  As  As51  1  0.055113  0.750000  0.991101  1
  As  As52  1  0.487232  0.750000  0.163629  1
  As  As53  1  0.487232  0.250000  0.336371  1
  As  As54  1  0.512768  0.250000  0.836371  1
  As  As55  1  0.512768  0.750000  0.663629  1
