# generated using pymatgen
data_SmGeRu
_symmetry_space_group_name_H-M   'P 1'
_cell_length_a   4.53130570
_cell_length_b   7.21553323
_cell_length_c   7.21641617
_cell_angle_alpha   90.00000000
_cell_angle_beta   90.00000000
_cell_angle_gamma   90.00000000
_symmetry_Int_Tables_number   1
_chemical_formula_structural   SmGeRu
_chemical_formula_sum   'Sm4 Ge4 Ru4'
_cell_volume   235.94640494
_cell_formula_units_Z   4
loop_
 _symmetry_equiv_pos_site_id
 _symmetry_equiv_pos_as_xyz
  1  'x, y, z'
loop_
 _atom_site_type_symbol
 _atom_site_label
 _atom_site_symmetry_multiplicity
 _atom_site_fract_x
 _atom_site_fract_y
 _atom_site_fract_z
 _atom_site_occupancy
  Ge  Ge0  1  0.250000  0.893981  0.302733  1
  Ge  Ge1  1  0.750000  0.106019  0.697267  1
  Ge  Ge2  1  0.750000  0.393981  0.197267  1
  Ge  Ge3  1  0.250000  0.606019  0.802733  1
  Ru  Ru4  1  0.250000  0.566903  0.151497  1
  Ru  Ru5  1  0.750000  0.433097  0.848503  1
  Ru  Ru6  1  0.750000  0.066903  0.348503  1
  Ru  Ru7  1  0.250000  0.933097  0.651497  1
  Sm  Sm8  1  0.250000  0.188258  0.979369  1
  Sm  Sm9  1  0.750000  0.811742  0.020631  1
  Sm  Sm10  1  0.750000  0.688258  0.520631  1
  Sm  Sm11  1  0.250000  0.311742  0.479369  1
