# generated using pymatgen
data_HoCoO3
_symmetry_space_group_name_H-M   'P 1'
_cell_length_a   5.18082627
_cell_length_b   5.66956800
_cell_length_c   7.46305413
_cell_angle_alpha   90.00000000
_cell_angle_beta   90.00000000
_cell_angle_gamma   90.00000000
_symmetry_Int_Tables_number   1
_chemical_formula_structural   HoCoO3
_chemical_formula_sum   'Ho4 Co4 O12'
_cell_volume   219.21263848
_cell_formula_units_Z   4
loop_
 _symmetry_equiv_pos_site_id
 _symmetry_equiv_pos_as_xyz
  1  'x, y, z'
loop_
 _atom_site_type_symbol
 _atom_site_label
 _atom_site_symmetry_multiplicity
 _atom_site_fract_x
 _atom_site_fract_y
 _atom_site_fract_z
 _atom_site_occupancy
  O  O0  1  0.697552  0.314481  0.446134  1
  O  O1  1  0.197552  0.185519  0.553866  1
  O  O2  1  0.802448  0.814481  0.053866  1
  O  O3  1  0.302448  0.685519  0.946134  1
  O  O4  1  0.302448  0.685519  0.553866  1
  O  O5  1  0.802448  0.814481  0.446134  1
  O  O6  1  0.197552  0.185519  0.946134  1
  O  O7  1  0.697552  0.314481  0.053866  1
  O  O8  1  0.108152  0.469970  0.250000  1
  O  O9  1  0.608152  0.030030  0.750000  1
  O  O10  1  0.391848  0.969970  0.250000  1
  O  O11  1  0.891848  0.530030  0.750000  1
  Co  Co12  1  0.500000  0.000000  0.500000  1
  Co  Co13  1  0.000000  0.500000  0.500000  1
  Co  Co14  1  0.000000  0.500000  0.000000  1
  Co  Co15  1  0.500000  0.000000  0.000000  1
  Ho  Ho16  1  0.023495  0.916013  0.750000  1
  Ho  Ho17  1  0.523495  0.583987  0.250000  1
  Ho  Ho18  1  0.476505  0.416013  0.750000  1
  Ho  Ho19  1  0.976505  0.083987  0.250000  1
