# generated using pymatgen
data_Na2CoGeO4
_symmetry_space_group_name_H-M   'P 1'
_cell_length_a   5.45919711
_cell_length_b   6.25578494
_cell_length_c   6.47033577
_cell_angle_alpha   90.00000000
_cell_angle_beta   90.00000000
_cell_angle_gamma   90.00000000
_symmetry_Int_Tables_number   1
_chemical_formula_structural   Na2CoGeO4
_chemical_formula_sum   'Na4 Co2 Ge2 O8'
_cell_volume   220.97208010
_cell_formula_units_Z   2
loop_
 _symmetry_equiv_pos_site_id
 _symmetry_equiv_pos_as_xyz
  1  'x, y, z'
loop_
 _atom_site_type_symbol
 _atom_site_label
 _atom_site_symmetry_multiplicity
 _atom_site_fract_x
 _atom_site_fract_y
 _atom_site_fract_z
 _atom_site_occupancy
  O  O0  1  0.674953  0.127658  0.500000  1
  O  O1  1  0.174953  0.872342  0.000000  1
  O  O2  1  0.140835  0.897070  0.500000  1
  O  O3  1  0.640835  0.102930  0.000000  1
  O  O4  1  0.581306  0.698728  0.228778  1
  O  O5  1  0.581306  0.698728  0.771222  1
  O  O6  1  0.081306  0.301272  0.728778  1
  O  O7  1  0.081306  0.301272  0.271222  1
  Na  Na8  1  0.009648  0.665662  0.251446  1
  Na  Na9  1  0.509648  0.334338  0.751446  1
  Na  Na10  1  0.509648  0.334338  0.248554  1
  Na  Na11  1  0.009648  0.665662  0.748554  1
  Co  Co12  1  0.002943  0.147883  0.000000  1
  Co  Co13  1  0.502943  0.852117  0.500000  1
  Ge  Ge14  1  0.499361  0.847151  0.000000  1
  Ge  Ge15  1  0.999361  0.152849  0.500000  1
