# generated using pymatgen
data_BiAsO4
_symmetry_space_group_name_H-M   'P 1'
_cell_length_a   6.83591309
_cell_length_b   6.99197319
_cell_length_c   7.28856735
_cell_angle_alpha   90.00000000
_cell_angle_beta   90.00000000
_cell_angle_gamma   105.30109656
_symmetry_Int_Tables_number   1
_chemical_formula_structural   BiAsO4
_chemical_formula_sum   'Bi4 As4 O16'
_cell_volume   336.01933652
_cell_formula_units_Z   4
loop_
 _symmetry_equiv_pos_site_id
 _symmetry_equiv_pos_as_xyz
  1  'x, y, z'
loop_
 _atom_site_type_symbol
 _atom_site_label
 _atom_site_symmetry_multiplicity
 _atom_site_fract_x
 _atom_site_fract_y
 _atom_site_fract_z
 _atom_site_occupancy
  O  O0  1  0.220727  0.608481  0.292867  1
  O  O1  1  0.279273  0.891519  0.792867  1
  O  O2  1  0.779273  0.391519  0.707133  1
  O  O3  1  0.720727  0.108481  0.207133  1
  O  O4  1  0.335471  0.973163  0.398480  1
  O  O5  1  0.164529  0.526837  0.898480  1
  O  O6  1  0.664529  0.026837  0.601520  1
  O  O7  1  0.835471  0.473163  0.101520  1
  O  O8  1  0.422428  0.262797  1.001456  1
  O  O9  1  0.077572  0.237203  0.501456  1
  O  O10  1  0.577572  0.737203  -0.001456  1
  O  O11  1  0.922428  0.762797  0.498544  1
  O  O12  1  0.520598  0.390356  0.356153  1
  O  O13  1  0.979402  0.109644  0.856153  1
  O  O14  1  0.479402  0.609644  0.643847  1
  O  O15  1  0.020598  0.890356  0.143847  1
  As  As16  1  0.110047  0.798271  0.337525  1
  As  As17  1  0.389953  0.701729  0.837525  1
  As  As18  1  0.889953  0.201729  0.662475  1
  As  As19  1  0.610047  0.298271  0.162475  1
  Bi  Bi20  1  0.580302  0.781384  0.366953  1
  Bi  Bi21  1  0.919698  0.718616  0.866953  1
  Bi  Bi22  1  0.419698  0.218616  0.633047  1
  Bi  Bi23  1  0.080302  0.281384  0.133047  1
