# generated using pymatgen
data_Ba2EuCl7
_symmetry_space_group_name_H-M   'P 1'
_cell_length_a   7.04579590
_cell_length_b   10.75191471
_cell_length_c   15.76922278
_cell_angle_alpha   90.00000000
_cell_angle_beta   90.00000000
_cell_angle_gamma   91.26976512
_symmetry_Int_Tables_number   1
_chemical_formula_structural   Ba2EuCl7
_chemical_formula_sum   'Ba8 Eu4 Cl28'
_cell_volume   1194.31668767
_cell_formula_units_Z   4
loop_
 _symmetry_equiv_pos_site_id
 _symmetry_equiv_pos_as_xyz
  1  'x, y, z'
loop_
 _atom_site_type_symbol
 _atom_site_label
 _atom_site_symmetry_multiplicity
 _atom_site_fract_x
 _atom_site_fract_y
 _atom_site_fract_z
 _atom_site_occupancy
  Cl  Cl0  1  0.708903  0.535823  0.141276  1
  Cl  Cl1  1  0.291097  0.964177  0.641276  1
  Cl  Cl2  1  0.291097  0.464177  0.858724  1
  Cl  Cl3  1  0.708903  0.035823  0.358724  1
  Cl  Cl4  1  0.141743  0.376543  0.069833  1
  Cl  Cl5  1  0.858257  0.123457  0.569833  1
  Cl  Cl6  1  0.858257  0.623457  0.930167  1
  Cl  Cl7  1  0.141743  0.876543  0.430167  1
  Cl  Cl8  1  0.695899  0.290597  0.955798  1
  Cl  Cl9  1  0.304101  0.209403  0.455798  1
  Cl  Cl10  1  0.304101  0.709403  0.044202  1
  Cl  Cl11  1  0.695899  0.790597  0.544202  1
  Cl  Cl12  1  0.002499  0.569923  0.396201  1
  Cl  Cl13  1  0.997501  0.930077  0.896201  1
  Cl  Cl14  1  0.997501  0.430077  0.603799  1
  Cl  Cl15  1  0.002499  0.069923  0.103799  1
  Cl  Cl16  1  0.507588  0.806365  0.241106  1
  Cl  Cl17  1  0.492412  0.693635  0.741106  1
  Cl  Cl18  1  0.492412  0.193635  0.758894  1
  Cl  Cl19  1  0.507588  0.306365  0.258894  1
  Cl  Cl20  1  0.003571  0.795917  0.224671  1
  Cl  Cl21  1  0.996429  0.704083  0.724671  1
  Cl  Cl22  1  0.996429  0.204083  0.775329  1
  Cl  Cl23  1  0.003571  0.295917  0.275329  1
  Cl  Cl24  1  0.508452  0.582493  0.396230  1
  Cl  Cl25  1  0.491548  0.917507  0.896230  1
  Cl  Cl26  1  0.491548  0.417507  0.603770  1
  Cl  Cl27  1  0.508452  0.082493  0.103770  1
  Ba  Ba28  1  0.270900  0.551843  0.222298  1
  Ba  Ba29  1  0.729100  0.948157  0.722298  1
  Ba  Ba30  1  0.729100  0.448157  0.777702  1
  Ba  Ba31  1  0.270900  0.051843  0.277702  1
  Ba  Ba32  1  0.727581  0.827579  0.061640  1
  Ba  Ba33  1  0.272419  0.672421  0.561640  1
  Ba  Ba34  1  0.272419  0.172421  0.938360  1
  Ba  Ba35  1  0.727581  0.327579  0.438360  1
  Eu  Eu36  1  0.785526  0.784629  0.373830  1
  Eu  Eu37  1  0.214474  0.715371  0.873830  1
  Eu  Eu38  1  0.214474  0.215371  0.626170  1
  Eu  Eu39  1  0.785526  0.284629  0.126170  1
