# generated using pymatgen
data_Tb5Ge3
_symmetry_space_group_name_H-M   'P 1'
_cell_length_a   8.56038191
_cell_length_b   8.56038191
_cell_length_c   6.46458623
_cell_angle_alpha   90.00000000
_cell_angle_beta   90.00000000
_cell_angle_gamma   120.00000003
_symmetry_Int_Tables_number   1
_chemical_formula_structural   Tb5Ge3
_chemical_formula_sum   'Tb10 Ge6'
_cell_volume   410.25855464
_cell_formula_units_Z   2
loop_
 _symmetry_equiv_pos_site_id
 _symmetry_equiv_pos_as_xyz
  1  'x, y, z'
loop_
 _atom_site_type_symbol
 _atom_site_label
 _atom_site_symmetry_multiplicity
 _atom_site_fract_x
 _atom_site_fract_y
 _atom_site_fract_z
 _atom_site_occupancy
  Ge  Ge0  1  0.606215  0.000000  0.250000  1
  Ge  Ge1  1  0.606215  0.606215  0.750000  1
  Ge  Ge2  1  0.000000  0.393785  0.750000  1
  Ge  Ge3  1  0.000000  0.606215  0.250000  1
  Ge  Ge4  1  0.393785  0.393785  0.250000  1
  Ge  Ge5  1  0.393785  0.000000  0.750000  1
  Tb  Tb6  1  0.333333  0.666667  0.000000  1
  Tb  Tb7  1  0.666667  0.333333  0.500000  1
  Tb  Tb8  1  0.666667  0.333333  0.000000  1
  Tb  Tb9  1  0.333333  0.666667  0.500000  1
  Tb  Tb10  1  0.242243  0.000000  0.250000  1
  Tb  Tb11  1  0.242243  0.242243  0.750000  1
  Tb  Tb12  1  0.000000  0.757757  0.750000  1
  Tb  Tb13  1  0.000000  0.242243  0.250000  1
  Tb  Tb14  1  0.757757  0.757757  0.250000  1
  Tb  Tb15  1  0.757757  0.000000  0.750000  1
