# generated using pymatgen
data_Pr(ClO4)3
_symmetry_space_group_name_H-M   'P 1'
_cell_length_a   9.51854548
_cell_length_b   9.51854569
_cell_length_c   5.91857614
_cell_angle_alpha   90.00000000
_cell_angle_beta   90.00000000
_cell_angle_gamma   119.99999925
_symmetry_Int_Tables_number   1
_chemical_formula_structural   Pr(ClO4)3
_chemical_formula_sum   'Pr2 Cl6 O24'
_cell_volume   464.39663276
_cell_formula_units_Z   2
loop_
 _symmetry_equiv_pos_site_id
 _symmetry_equiv_pos_as_xyz
  1  'x, y, z'
loop_
 _atom_site_type_symbol
 _atom_site_label
 _atom_site_symmetry_multiplicity
 _atom_site_fract_x
 _atom_site_fract_y
 _atom_site_fract_z
 _atom_site_occupancy
  Pr  Pr0  1  0.666667  0.333333  0.250000  1
  Pr  Pr1  1  0.333333  0.666667  0.750000  1
  Cl  Cl2  1  0.292210  0.383900  0.250000  1
  Cl  Cl3  1  0.908309  0.292210  0.750000  1
  Cl  Cl4  1  0.383900  0.091691  0.750000  1
  Cl  Cl5  1  0.616100  0.908309  0.250000  1
  Cl  Cl6  1  0.091691  0.707790  0.250000  1
  Cl  Cl7  1  0.707790  0.616100  0.750000  1
  O  O8  1  0.466201  0.437168  0.250000  1
  O  O9  1  0.029032  0.466201  0.750000  1
  O  O10  1  0.437168  0.970967  0.750000  1
  O  O11  1  0.562832  0.029032  0.250000  1
  O  O12  1  0.970967  0.533799  0.250000  1
  O  O13  1  0.533799  0.562832  0.750000  1
  O  O14  1  0.803920  0.258344  0.949807  1
  O  O15  1  0.545576  0.803920  0.449807  1
  O  O16  1  0.258344  0.454424  0.449807  1
  O  O17  1  0.741656  0.545576  0.949807  1
  O  O18  1  0.454424  0.196080  0.949807  1
  O  O19  1  0.196080  0.741656  0.449807  1
  O  O20  1  0.196080  0.741656  0.050193  1
  O  O21  1  0.454424  0.196080  0.550193  1
  O  O22  1  0.741656  0.545576  0.550193  1
  O  O23  1  0.258344  0.454424  0.050193  1
  O  O24  1  0.545576  0.803920  0.050193  1
  O  O25  1  0.803920  0.258344  0.550193  1
  O  O26  1  0.192438  0.212762  0.250000  1
  O  O27  1  0.979676  0.192438  0.750000  1
  O  O28  1  0.212762  0.020324  0.750000  1
  O  O29  1  0.787238  0.979676  0.250000  1
  O  O30  1  0.020324  0.807562  0.250000  1
  O  O31  1  0.807562  0.787238  0.750000  1
