# generated using pymatgen
data_H3I3N2
_symmetry_space_group_name_H-M   'P 1'
_cell_length_a   6.32522003
_cell_length_b   7.39895667
_cell_length_c   7.73318869
_cell_angle_alpha   90.00000000
_cell_angle_beta   90.00000000
_cell_angle_gamma   98.87966531
_symmetry_Int_Tables_number   1
_chemical_formula_structural   H3I3N2
_chemical_formula_sum   'H6 I6 N4'
_cell_volume   357.57581696
_cell_formula_units_Z   2
loop_
 _symmetry_equiv_pos_site_id
 _symmetry_equiv_pos_as_xyz
  1  'x, y, z'
loop_
 _atom_site_type_symbol
 _atom_site_label
 _atom_site_symmetry_multiplicity
 _atom_site_fract_x
 _atom_site_fract_y
 _atom_site_fract_z
 _atom_site_occupancy
  H  H0  1  0.063328  0.710792  0.357819  1
  H  H1  1  0.936672  0.289208  0.857819  1
  H  H2  1  0.936672  0.289208  0.642181  1
  H  H3  1  0.063328  0.710792  0.142181  1
  H  H4  1  0.114657  0.189113  0.750000  1
  H  H5  1  0.885343  0.810887  0.250000  1
  N  N6  1  0.537707  0.330278  0.250000  1
  N  N7  1  0.462293  0.669722  0.750000  1
  N  N8  1  0.039805  0.785493  0.250000  1
  N  N9  1  0.960195  0.214507  0.750000  1
  I  I10  1  0.148775  0.752992  0.750000  1
  I  I11  1  0.851225  0.247008  0.250000  1
  I  I12  1  0.696851  0.924353  0.750000  1
  I  I13  1  0.303149  0.075647  0.250000  1
  I  I14  1  0.500000  0.500000  0.500000  1
  I  I15  1  0.500000  0.500000  0.000000  1
