# generated using pymatgen
data_Rb3AsSe16
_symmetry_space_group_name_H-M   'P 1'
_cell_length_a   12.10058488
_cell_length_b   12.10058488
_cell_length_c   12.10058488
_cell_angle_alpha   60.00000000
_cell_angle_beta   60.00000001
_cell_angle_gamma   59.99999999
_symmetry_Int_Tables_number   1
_chemical_formula_structural   Rb3AsSe16
_chemical_formula_sum   'Rb6 As2 Se32'
_cell_volume   1252.86445884
_cell_formula_units_Z   2
loop_
 _symmetry_equiv_pos_site_id
 _symmetry_equiv_pos_as_xyz
  1  'x, y, z'
loop_
 _atom_site_type_symbol
 _atom_site_label
 _atom_site_symmetry_multiplicity
 _atom_site_fract_x
 _atom_site_fract_y
 _atom_site_fract_z
 _atom_site_occupancy
  As  As0  1  0.125000  0.125000  0.125000  1
  As  As1  1  0.875000  0.875000  0.875000  1
  Se  Se2  1  0.051066  0.463140  0.673474  1
  Se  Se3  1  0.673474  0.463140  0.312320  1
  Se  Se4  1  0.673474  0.051066  0.463140  1
  Se  Se5  1  0.051066  0.312320  0.463140  1
  Se  Se6  1  0.312320  0.673474  0.463140  1
  Se  Se7  1  0.463140  0.051066  0.312320  1
  Se  Se8  1  0.204990  0.885031  0.204990  1
  Se  Se9  1  0.204990  0.204990  0.885031  1
  Se  Se10  1  0.885031  0.204990  0.204990  1
  Se  Se11  1  0.204990  0.204990  0.204990  1
  Se  Se12  1  0.795010  0.114970  0.795010  1
  Se  Se13  1  0.795010  0.795010  0.114970  1
  Se  Se14  1  0.114970  0.795010  0.795010  1
  Se  Se15  1  0.795010  0.795010  0.795010  1
  Se  Se16  1  0.326526  0.687680  0.948934  1
  Se  Se17  1  0.948934  0.326526  0.687680  1
  Se  Se18  1  0.687680  0.948934  0.326526  1
  Se  Se19  1  0.536860  0.326526  0.948934  1
  Se  Se20  1  0.687680  0.536860  0.948934  1
  Se  Se21  1  0.536860  0.687680  0.326526  1
  Se  Se22  1  0.948934  0.687680  0.536860  1
  Se  Se23  1  0.326526  0.948934  0.536860  1
  Se  Se24  1  0.326526  0.536860  0.687680  1
  Se  Se25  1  0.948934  0.536860  0.326526  1
  Se  Se26  1  0.536860  0.948934  0.687680  1
  Se  Se27  1  0.687680  0.326526  0.536860  1
  Se  Se28  1  0.673474  0.312320  0.051066  1
  Se  Se29  1  0.051066  0.673474  0.312320  1
  Se  Se30  1  0.312320  0.051066  0.673474  1
  Se  Se31  1  0.463140  0.673474  0.051066  1
  Se  Se32  1  0.312320  0.463140  0.051066  1
  Se  Se33  1  0.463140  0.312320  0.673474  1
  Rb  Rb34  1  0.375000  0.375000  0.375000  1
  Rb  Rb35  1  0.625000  0.625000  0.625000  1
  Rb  Rb36  1  0.000000  0.000000  0.000000  1
  Rb  Rb37  1  0.000000  0.500000  0.000000  1
  Rb  Rb38  1  0.500000  0.000000  0.000000  1
  Rb  Rb39  1  0.000000  0.000000  0.500000  1
