# generated using pymatgen
data_KTiH2S2O9
_symmetry_space_group_name_H-M   'P 1'
_cell_length_a   5.33231238
_cell_length_b   7.78417337
_cell_length_c   9.24978295
_cell_angle_alpha   101.34205856
_cell_angle_beta   90.00000000
_cell_angle_gamma   90.00000000
_symmetry_Int_Tables_number   1
_chemical_formula_structural   KTiH2S2O9
_chemical_formula_sum   'K2 Ti2 H4 S4 O18'
_cell_volume   376.43862873
_cell_formula_units_Z   2
loop_
 _symmetry_equiv_pos_site_id
 _symmetry_equiv_pos_as_xyz
  1  'x, y, z'
loop_
 _atom_site_type_symbol
 _atom_site_label
 _atom_site_symmetry_multiplicity
 _atom_site_fract_x
 _atom_site_fract_y
 _atom_site_fract_z
 _atom_site_occupancy
  K  K0  1  0.750000  0.429988  0.284088  1
  K  K1  1  0.250000  0.570013  0.715912  1
  Ti  Ti2  1  0.750000  0.914676  0.266288  1
  Ti  Ti3  1  0.250000  0.085324  0.733712  1
  H  H4  1  0.750000  0.030530  0.002681  1
  H  H5  1  0.250000  0.969470  0.997319  1
  H  H6  1  0.750000  0.816988  0.965358  1
  H  H7  1  0.250000  0.183012  0.034642  1
  S  S8  1  0.750000  0.835581  0.612695  1
  S  S9  1  0.250000  0.164419  0.387305  1
  S  S10  1  0.250000  0.668526  0.143630  1
  S  S11  1  0.750000  0.331474  0.856370  1
  O  O12  1  0.250000  0.477855  0.110929  1
  O  O13  1  0.250000  0.078731  0.956048  1
  O  O14  1  0.750000  0.249984  0.986888  1
  O  O15  1  0.250000  0.750016  0.013112  1
  O  O16  1  0.750000  0.522145  0.889071  1
  O  O17  1  0.522301  0.269529  0.759974  1
  O  O18  1  0.250000  0.065947  0.509707  1
  O  O19  1  0.750000  0.934053  0.490293  1
  O  O20  1  0.477362  0.109764  0.291731  1
  O  O21  1  0.022301  0.730471  0.240026  1
  O  O22  1  0.522638  0.890236  0.708269  1
  O  O23  1  0.977362  0.890236  0.708269  1
  O  O24  1  0.022638  0.109764  0.291731  1
  O  O25  1  0.250000  0.353961  0.436346  1
  O  O26  1  0.477699  0.730471  0.240026  1
  O  O27  1  0.977699  0.269529  0.759974  1
  O  O28  1  0.750000  0.646039  0.563654  1
  O  O29  1  0.750000  0.921269  0.043952  1
