# generated using pymatgen
data_K3NaFeCl6
_symmetry_space_group_name_H-M   'P 1'
_cell_length_a   8.43311532
_cell_length_b   8.43311532
_cell_length_c   8.43311533
_cell_angle_alpha   92.79940744
_cell_angle_beta   92.79940740
_cell_angle_gamma   92.79940749
_symmetry_Int_Tables_number   1
_chemical_formula_structural   K3NaFeCl6
_chemical_formula_sum   'K6 Na2 Fe2 Cl12'
_cell_volume   597.52171048
_cell_formula_units_Z   2
loop_
 _symmetry_equiv_pos_site_id
 _symmetry_equiv_pos_as_xyz
  1  'x, y, z'
loop_
 _atom_site_type_symbol
 _atom_site_label
 _atom_site_symmetry_multiplicity
 _atom_site_fract_x
 _atom_site_fract_y
 _atom_site_fract_z
 _atom_site_occupancy
  Na  Na0  1  0.750000  0.750000  0.750000  1
  Na  Na1  1  0.250000  0.250000  0.250000  1
  Cl  Cl2  1  0.715679  0.920710  0.044637  1
  Cl  Cl3  1  0.920710  0.044637  0.715679  1
  Cl  Cl4  1  0.044637  0.715679  0.920710  1
  Cl  Cl5  1  0.455363  0.579290  0.784321  1
  Cl  Cl6  1  0.579290  0.784321  0.455363  1
  Cl  Cl7  1  0.784321  0.455363  0.579290  1
  Cl  Cl8  1  0.215679  0.544637  0.420710  1
  Cl  Cl9  1  0.420710  0.215679  0.544637  1
  Cl  Cl10  1  0.544637  0.420710  0.215679  1
  Cl  Cl11  1  0.955363  0.284321  0.079290  1
  Cl  Cl12  1  0.079290  0.955363  0.284321  1
  Cl  Cl13  1  0.284321  0.079290  0.955363  1
  K  K14  1  0.250000  0.873727  0.626273  1
  K  K15  1  0.873727  0.626273  0.250000  1
  K  K16  1  0.626273  0.250000  0.873727  1
  K  K17  1  0.750000  0.126273  0.373727  1
  K  K18  1  0.126273  0.373727  0.750000  1
  K  K19  1  0.373727  0.750000  0.126273  1
  Fe  Fe20  1  0.000000  0.000000  0.000000  1
  Fe  Fe21  1  0.500000  0.500000  0.500000  1
