# generated using pymatgen
data_Pb2OF2
_symmetry_space_group_name_H-M   'P 1'
_cell_length_a   5.82548830
_cell_length_b   8.35383230
_cell_length_c   8.35383230
_cell_angle_alpha   90.00000000
_cell_angle_beta   90.00000000
_cell_angle_gamma   90.00000000
_symmetry_Int_Tables_number   1
_chemical_formula_structural   Pb2OF2
_chemical_formula_sum   'Pb8 O4 F8'
_cell_volume   406.54052137
_cell_formula_units_Z   4
loop_
 _symmetry_equiv_pos_site_id
 _symmetry_equiv_pos_as_xyz
  1  'x, y, z'
loop_
 _atom_site_type_symbol
 _atom_site_label
 _atom_site_symmetry_multiplicity
 _atom_site_fract_x
 _atom_site_fract_y
 _atom_site_fract_z
 _atom_site_occupancy
  O  O0  1  0.169258  0.750000  0.750000  1
  O  O1  1  0.669258  0.750000  0.750000  1
  O  O2  1  0.830742  0.250000  0.250000  1
  O  O3  1  0.330742  0.250000  0.250000  1
  F  F4  1  0.750000  0.463882  0.536118  1
  F  F5  1  0.250000  0.963882  0.463882  1
  F  F6  1  0.250000  0.536118  0.036118  1
  F  F7  1  0.750000  0.036118  0.963882  1
  F  F8  1  0.250000  0.963882  0.036118  1
  F  F9  1  0.750000  0.463882  0.963882  1
  F  F10  1  0.750000  0.036118  0.536118  1
  F  F11  1  0.250000  0.536118  0.463882  1
  Pb  Pb12  1  0.445504  0.971168  0.750000  1
  Pb  Pb13  1  0.445504  0.528832  0.750000  1
  Pb  Pb14  1  0.945504  0.750000  0.528832  1
  Pb  Pb15  1  0.945504  0.750000  0.971168  1
  Pb  Pb16  1  0.054496  0.250000  0.471168  1
  Pb  Pb17  1  0.554496  0.028832  0.250000  1
  Pb  Pb18  1  0.554496  0.471168  0.250000  1
  Pb  Pb19  1  0.054496  0.250000  0.028832  1
