# generated using pymatgen
data_Co(C2N3)2
_symmetry_space_group_name_H-M   'P 1'
_cell_length_a   6.07927737
_cell_length_b   7.14718152
_cell_length_c   7.34214514
_cell_angle_alpha   90.00000000
_cell_angle_beta   90.00000000
_cell_angle_gamma   90.00000000
_symmetry_Int_Tables_number   1
_chemical_formula_structural   Co(C2N3)2
_chemical_formula_sum   'Co2 C8 N12'
_cell_volume   319.01399542
_cell_formula_units_Z   2
loop_
 _symmetry_equiv_pos_site_id
 _symmetry_equiv_pos_as_xyz
  1  'x, y, z'
loop_
 _atom_site_type_symbol
 _atom_site_label
 _atom_site_symmetry_multiplicity
 _atom_site_fract_x
 _atom_site_fract_y
 _atom_site_fract_z
 _atom_site_occupancy
  C  C0  1  0.743488  0.155812  0.653812  1
  C  C1  1  0.243488  0.344188  0.846188  1
  C  C2  1  0.743488  0.155812  0.346188  1
  C  C3  1  0.243488  0.344188  0.153812  1
  C  C4  1  0.756512  0.655812  0.153812  1
  C  C5  1  0.256512  0.844188  0.346188  1
  C  C6  1  0.256512  0.844188  0.653812  1
  C  C7  1  0.756512  0.655812  0.846188  1
  N  N8  1  0.825327  0.728435  0.000000  1
  N  N9  1  0.325327  0.771565  0.500000  1
  N  N10  1  0.799520  0.098504  0.203650  1
  N  N11  1  0.299520  0.401496  0.296350  1
  N  N12  1  0.700480  0.598504  0.296350  1
  N  N13  1  0.200480  0.901496  0.203650  1
  N  N14  1  0.200480  0.901496  0.796350  1
  N  N15  1  0.700480  0.598504  0.703650  1
  N  N16  1  0.299520  0.401496  0.703650  1
  N  N17  1  0.799520  0.098504  0.796350  1
  N  N18  1  0.674673  0.228435  0.500000  1
  N  N19  1  0.174673  0.271565  0.000000  1
  Co  Co20  1  0.500000  0.500000  0.500000  1
  Co  Co21  1  0.000000  0.000000  0.000000  1
