# generated using pymatgen
data_U6Cu2S13
_symmetry_space_group_name_H-M   'P 1'
_cell_length_a   8.02987608
_cell_length_b   8.02987608
_cell_length_c   14.23101248
_cell_angle_alpha   98.74954055
_cell_angle_beta   98.74954056
_cell_angle_gamma   100.22699560
_symmetry_Int_Tables_number   1
_chemical_formula_structural   U6Cu2S13
_chemical_formula_sum   'U12 Cu4 S26'
_cell_volume   877.24769532
_cell_formula_units_Z   2
loop_
 _symmetry_equiv_pos_site_id
 _symmetry_equiv_pos_as_xyz
  1  'x, y, z'
loop_
 _atom_site_type_symbol
 _atom_site_label
 _atom_site_symmetry_multiplicity
 _atom_site_fract_x
 _atom_site_fract_y
 _atom_site_fract_z
 _atom_site_occupancy
  S  S0  1  0.172136  0.827864  0.250000  1
  S  S1  1  0.827864  0.172136  0.750000  1
  S  S2  1  0.061566  0.710518  0.025809  1
  S  S3  1  0.289482  0.938434  0.474191  1
  S  S4  1  0.938434  0.289482  0.974191  1
  S  S5  1  0.710518  0.061566  0.525809  1
  S  S6  1  0.933948  0.329803  0.414238  1
  S  S7  1  0.670197  0.066052  0.085762  1
  S  S8  1  0.066052  0.670197  0.585762  1
  S  S9  1  0.329803  0.933948  0.914238  1
  S  S10  1  0.846375  0.513814  0.202931  1
  S  S11  1  0.486186  0.153625  0.297069  1
  S  S12  1  0.153625  0.486186  0.797069  1
  S  S13  1  0.513814  0.846375  0.702931  1
  S  S14  1  0.277980  0.511312  0.334909  1
  S  S15  1  0.488688  0.722020  0.165091  1
  S  S16  1  0.648019  0.688377  0.952979  1
  S  S17  1  0.311623  0.351981  0.547021  1
  S  S18  1  0.351981  0.311623  0.047021  1
  S  S19  1  0.688377  0.648019  0.452979  1
  S  S20  1  0.143439  0.068881  0.667340  1
  S  S21  1  0.931119  0.856561  0.832660  1
  S  S22  1  0.856561  0.931119  0.332660  1
  S  S23  1  0.068881  0.143439  0.167340  1
  S  S24  1  0.511312  0.277980  0.834909  1
  S  S25  1  0.722020  0.488688  0.665091  1
  Cu  Cu26  1  0.672978  0.386208  0.370763  1
  Cu  Cu27  1  0.613792  0.327022  0.129237  1
  Cu  Cu28  1  0.327022  0.613792  0.629237  1
  Cu  Cu29  1  0.386208  0.672978  0.870763  1
  U  U30  1  0.835335  0.823209  0.142407  1
  U  U31  1  0.176791  0.164665  0.357593  1
  U  U32  1  0.164665  0.176791  0.857593  1
  U  U33  1  0.823209  0.835335  0.642407  1
  U  U34  1  0.156876  0.490501  0.143493  1
  U  U35  1  0.509499  0.843124  0.356507  1
  U  U36  1  0.843124  0.509499  0.856507  1
  U  U37  1  0.490501  0.156876  0.643493  1
  U  U38  1  0.014337  0.667727  0.389809  1
  U  U39  1  0.332273  0.985663  0.110191  1
  U  U40  1  0.985663  0.332273  0.610191  1
  U  U41  1  0.667727  0.014337  0.889809  1
