# generated using pymatgen
data_RhBr3
_symmetry_space_group_name_H-M   'P 1'
_cell_length_a   6.44046116
_cell_length_b   6.44046079
_cell_length_c   6.77750509
_cell_angle_alpha   99.20223039
_cell_angle_beta   99.20222970
_cell_angle_gamma   119.94417112
_symmetry_Int_Tables_number   1
_chemical_formula_structural   RhBr3
_chemical_formula_sum   'Rh2 Br6'
_cell_volume   230.82691267
_cell_formula_units_Z   2
loop_
 _symmetry_equiv_pos_site_id
 _symmetry_equiv_pos_as_xyz
  1  'x, y, z'
loop_
 _atom_site_type_symbol
 _atom_site_label
 _atom_site_symmetry_multiplicity
 _atom_site_fract_x
 _atom_site_fract_y
 _atom_site_fract_z
 _atom_site_occupancy
  Rh  Rh0  1  0.833230  0.166770  0.000000  1
  Rh  Rh1  1  0.166770  0.833230  1.000000  1
  Br  Br2  1  0.781154  0.781154  0.780495  1
  Br  Br3  1  0.218846  0.218846  0.219505  1
  Br  Br4  1  0.573681  0.928918  0.219121  1
  Br  Br5  1  0.071082  0.426319  0.780879  1
  Br  Br6  1  0.426319  0.071082  0.780879  1
  Br  Br7  1  0.928918  0.573681  0.219121  1
