# generated using pymatgen
data_EuSbPt
_symmetry_space_group_name_H-M   'P 1'
_cell_length_a   4.67997830
_cell_length_b   7.59028457
_cell_length_c   8.00944584
_cell_angle_alpha   90.00000000
_cell_angle_beta   90.00000000
_cell_angle_gamma   90.00000000
_symmetry_Int_Tables_number   1
_chemical_formula_structural   EuSbPt
_chemical_formula_sum   'Eu4 Sb4 Pt4'
_cell_volume   284.51447522
_cell_formula_units_Z   4
loop_
 _symmetry_equiv_pos_site_id
 _symmetry_equiv_pos_as_xyz
  1  'x, y, z'
loop_
 _atom_site_type_symbol
 _atom_site_label
 _atom_site_symmetry_multiplicity
 _atom_site_fract_x
 _atom_site_fract_y
 _atom_site_fract_z
 _atom_site_occupancy
  Sb  Sb0  1  0.250000  0.683915  0.409668  1
  Sb  Sb1  1  0.250000  0.183915  0.090332  1
  Sb  Sb2  1  0.750000  0.316085  0.590332  1
  Sb  Sb3  1  0.750000  0.816085  0.909668  1
  Eu  Eu4  1  0.750000  0.491299  0.195855  1
  Eu  Eu5  1  0.250000  0.008701  0.695855  1
  Eu  Eu6  1  0.750000  0.991299  0.304145  1
  Eu  Eu7  1  0.250000  0.508701  0.804145  1
  Pt  Pt8  1  0.250000  0.804557  0.085841  1
  Pt  Pt9  1  0.250000  0.304557  0.414159  1
  Pt  Pt10  1  0.750000  0.695443  0.585841  1
  Pt  Pt11  1  0.750000  0.195443  0.914159  1
