# generated using pymatgen
data_MnH2(SO4)2
_symmetry_space_group_name_H-M   'P 1'
_cell_length_a   5.13855226
_cell_length_b   7.70662107
_cell_length_c   8.46294724
_cell_angle_alpha   90.00000000
_cell_angle_beta   90.00000000
_cell_angle_gamma   99.67094131
_symmetry_Int_Tables_number   1
_chemical_formula_structural   MnH2(SO4)2
_chemical_formula_sum   'Mn2 H4 S4 O16'
_cell_volume   330.37737199
_cell_formula_units_Z   2
loop_
 _symmetry_equiv_pos_site_id
 _symmetry_equiv_pos_as_xyz
  1  'x, y, z'
loop_
 _atom_site_type_symbol
 _atom_site_label
 _atom_site_symmetry_multiplicity
 _atom_site_fract_x
 _atom_site_fract_y
 _atom_site_fract_z
 _atom_site_occupancy
  H  H0  1  0.220480  0.655845  0.018062  1
  H  H1  1  0.279520  0.844155  0.518062  1
  H  H2  1  0.779520  0.344155  0.981938  1
  H  H3  1  0.720480  0.155845  0.481938  1
  O  O4  1  0.285572  0.614837  0.914859  1
  O  O5  1  0.214428  0.885163  0.414859  1
  O  O6  1  0.806368  0.429200  0.651273  1
  O  O7  1  0.693632  0.070800  0.151273  1
  O  O8  1  0.193632  0.570800  0.348727  1
  O  O9  1  0.306368  0.929200  0.848727  1
  O  O10  1  0.213763  0.306628  0.624677  1
  O  O11  1  0.286237  0.193372  0.124677  1
  O  O12  1  0.786237  0.693372  0.375323  1
  O  O13  1  0.713763  0.806628  0.875323  1
  O  O14  1  0.915611  0.219664  0.844783  1
  O  O15  1  0.584389  0.280336  0.344783  1
  O  O16  1  0.084389  0.780336  0.155217  1
  O  O17  1  0.415611  0.719664  0.655217  1
  O  O18  1  0.785572  0.114837  0.585141  1
  O  O19  1  0.714428  0.385163  0.085141  1
  S  S20  1  0.439417  0.777632  0.821961  1
  S  S21  1  0.060583  0.722368  0.321961  1
  S  S22  1  0.560583  0.222368  0.178039  1
  S  S23  1  0.939417  0.277632  0.678039  1
  Mn  Mn24  1  0.500000  0.500000  0.500000  1
  Mn  Mn25  1  0.000000  0.000000  0.000000  1
