# generated using pymatgen
data_YNiSn2
_symmetry_space_group_name_H-M   'P 1'
_cell_length_a   4.45502429
_cell_length_b   14.68997639
_cell_length_c   16.15140167
_cell_angle_alpha   90.00000000
_cell_angle_beta   90.00000000
_cell_angle_gamma   90.00000000
_symmetry_Int_Tables_number   1
_chemical_formula_structural   YNiSn2
_chemical_formula_sum   'Y12 Ni12 Sn24'
_cell_volume   1057.01558761
_cell_formula_units_Z   12
loop_
 _symmetry_equiv_pos_site_id
 _symmetry_equiv_pos_as_xyz
  1  'x, y, z'
loop_
 _atom_site_type_symbol
 _atom_site_label
 _atom_site_symmetry_multiplicity
 _atom_site_fract_x
 _atom_site_fract_y
 _atom_site_fract_z
 _atom_site_occupancy
  Ni  Ni0  1  0.250000  0.895201  0.551604  1
  Ni  Ni1  1  0.750000  0.104799  0.448396  1
  Ni  Ni2  1  0.750000  0.395201  0.948396  1
  Ni  Ni3  1  0.250000  0.604799  0.051604  1
  Ni  Ni4  1  0.250000  0.751764  0.803566  1
  Ni  Ni5  1  0.750000  0.248236  0.196434  1
  Ni  Ni6  1  0.750000  0.251764  0.696434  1
  Ni  Ni7  1  0.250000  0.748236  0.303566  1
  Ni  Ni8  1  0.250000  0.456002  0.299641  1
  Ni  Ni9  1  0.750000  0.543998  0.700359  1
  Ni  Ni10  1  0.750000  0.956002  0.200359  1
  Ni  Ni11  1  0.250000  0.043998  0.799641  1
  Y  Y12  1  0.250000  0.527364  0.849125  1
  Y  Y13  1  0.750000  0.472636  0.150875  1
  Y  Y14  1  0.750000  0.027364  0.650875  1
  Y  Y15  1  0.250000  0.972636  0.349125  1
  Y  Y16  1  0.250000  0.229269  0.374431  1
  Y  Y17  1  0.750000  0.770731  0.625569  1
  Y  Y18  1  0.750000  0.729269  0.125569  1
  Y  Y19  1  0.250000  0.270731  0.874431  1
  Y  Y20  1  0.250000  0.106316  0.145509  1
  Y  Y21  1  0.750000  0.893684  0.854491  1
  Y  Y22  1  0.750000  0.606316  0.354491  1
  Y  Y23  1  0.250000  0.393684  0.645509  1
  Sn  Sn24  1  0.250000  0.324731  0.185312  1
  Sn  Sn25  1  0.750000  0.675269  0.814688  1
  Sn  Sn26  1  0.750000  0.824731  0.314688  1
  Sn  Sn27  1  0.250000  0.175269  0.685312  1
  Sn  Sn28  1  0.250000  0.450077  0.456599  1
  Sn  Sn29  1  0.750000  0.549923  0.543401  1
  Sn  Sn30  1  0.750000  0.950077  0.043401  1
  Sn  Sn31  1  0.250000  0.049923  0.956599  1
  Sn  Sn32  1  0.250000  0.421742  0.020641  1
  Sn  Sn33  1  0.750000  0.578258  0.979359  1
  Sn  Sn34  1  0.750000  0.921742  0.479359  1
  Sn  Sn35  1  0.250000  0.078258  0.520641  1
  Sn  Sn36  1  0.250000  0.894169  0.713906  1
  Sn  Sn37  1  0.750000  0.105830  0.286094  1
  Sn  Sn38  1  0.750000  0.394170  0.786094  1
  Sn  Sn39  1  0.250000  0.605831  0.213906  1
  Sn  Sn40  1  0.250000  0.759268  0.966263  1
  Sn  Sn41  1  0.750000  0.240732  0.033737  1
  Sn  Sn42  1  0.750000  0.259268  0.533737  1
  Sn  Sn43  1  0.250000  0.740732  0.466263  1
  Sn  Sn44  1  0.250000  0.628113  0.673351  1
  Sn  Sn45  1  0.750000  0.371887  0.326649  1
  Sn  Sn46  1  0.750000  0.128113  0.826649  1
  Sn  Sn47  1  0.250000  0.871887  0.173351  1
