# generated using pymatgen
data_TcO2F3
_symmetry_space_group_name_H-M   'P 1'
_cell_length_a   8.11233247
_cell_length_b   8.07179281
_cell_length_c   11.96838530
_cell_angle_alpha   89.72795501
_cell_angle_beta   88.69128975
_cell_angle_gamma   85.09835112
_symmetry_Int_Tables_number   1
_chemical_formula_structural   TcO2F3
_chemical_formula_sum   'Tc8 O16 F24'
_cell_volume   780.62975239
_cell_formula_units_Z   8
loop_
 _symmetry_equiv_pos_site_id
 _symmetry_equiv_pos_as_xyz
  1  'x, y, z'
loop_
 _atom_site_type_symbol
 _atom_site_label
 _atom_site_symmetry_multiplicity
 _atom_site_fract_x
 _atom_site_fract_y
 _atom_site_fract_z
 _atom_site_occupancy
  O  O0  1  0.216335  0.594336  0.021932  1
  O  O1  1  0.779959  0.980209  0.497340  1
  O  O2  1  0.664754  0.423994  0.304530  1
  O  O3  1  0.220041  0.019791  0.502660  1
  O  O4  1  0.738836  0.091506  0.704429  1
  O  O5  1  0.261164  0.908494  0.295571  1
  O  O6  1  0.084211  0.417876  0.627160  1
  O  O7  1  0.213514  0.866760  0.838620  1
  O  O8  1  0.786486  0.133240  0.161380  1
  O  O9  1  0.380823  0.133220  0.847234  1
  O  O10  1  0.619177  0.866780  0.152766  1
  O  O11  1  0.684757  0.447270  0.770462  1
  O  O12  1  0.315243  0.552730  0.229538  1
  O  O13  1  0.335246  0.576006  0.695470  1
  O  O14  1  0.915789  0.582124  0.372840  1
  O  O15  1  0.783665  0.405664  0.978068  1
  F  F16  1  0.971836  0.563071  0.831716  1
  F  F17  1  0.453702  0.352410  0.068786  1
  F  F18  1  0.546298  0.647590  0.931214  1
  F  F19  1  0.000000  0.000000  0.000000  1
  F  F20  1  0.028164  0.436929  0.168284  1
  F  F21  1  0.829476  0.733689  0.991711  1
  F  F22  1  0.170524  0.266311  0.008289  1
  F  F23  1  0.274878  0.224980  0.221510  1
  F  F24  1  0.725122  0.775020  0.778490  1
  F  F25  1  0.685597  0.031088  0.963721  1
  F  F26  1  0.608916  0.734587  0.380574  1
  F  F27  1  0.026937  0.156286  0.344228  1
  F  F28  1  0.973063  0.843714  0.655772  1
  F  F29  1  0.475309  0.111302  0.374518  1
  F  F30  1  0.524691  0.888698  0.625482  1
  F  F31  1  0.314403  0.968912  0.036279  1
  F  F32  1  0.947370  0.829272  0.177503  1
  F  F33  1  0.052630  0.170728  0.822497  1
  F  F34  1  0.500000  0.500000  0.500000  1
  F  F35  1  0.242835  0.336167  0.433077  1
  F  F36  1  0.757165  0.663833  0.566923  1
  F  F37  1  0.391084  0.265413  0.619426  1
  F  F38  1  0.791911  0.353366  0.507666  1
  F  F39  1  0.208089  0.646634  0.492334  1
  Tc  Tc40  1  0.726409  0.531405  0.414667  1
  Tc  Tc41  1  0.273591  0.468595  0.585333  1
  Tc  Tc42  1  0.751272  0.913724  0.629915  1
  Tc  Tc43  1  0.248728  0.086276  0.370085  1
  Tc  Tc44  1  0.752541  0.553707  0.878889  1
  Tc  Tc45  1  0.247459  0.446293  0.121111  1
  Tc  Tc46  1  0.784845  0.950050  0.094361  1
  Tc  Tc47  1  0.215155  0.049950  0.905639  1
