# generated using pymatgen
data_IF5
_symmetry_space_group_name_H-M   'P 1'
_cell_length_a   7.11747248
_cell_length_b   8.56004139
_cell_length_c   18.78309423
_cell_angle_alpha   93.06197402
_cell_angle_beta   90.00000000
_cell_angle_gamma   114.56581335
_symmetry_Int_Tables_number   1
_chemical_formula_structural   IF5
_chemical_formula_sum   'I10 F50'
_cell_volume   1038.99552922
_cell_formula_units_Z   10
loop_
 _symmetry_equiv_pos_site_id
 _symmetry_equiv_pos_as_xyz
  1  'x, y, z'
loop_
 _atom_site_type_symbol
 _atom_site_label
 _atom_site_symmetry_multiplicity
 _atom_site_fract_x
 _atom_site_fract_y
 _atom_site_fract_z
 _atom_site_occupancy
  F  F0  1  0.707938  0.348907  0.921762  1
  F  F1  1  0.359030  0.651093  0.578238  1
  F  F2  1  0.292062  0.651093  0.078238  1
  F  F3  1  0.640970  0.348907  0.421762  1
  F  F4  1  0.108641  0.574296  0.916022  1
  F  F5  1  0.534345  0.425704  0.583978  1
  F  F6  1  0.891359  0.425704  0.083978  1
  F  F7  1  0.465655  0.574296  0.416022  1
  F  F8  1  0.117460  0.458360  0.778684  1
  F  F9  1  0.659100  0.541640  0.721316  1
  F  F10  1  0.007773  0.000000  0.250000  1
  F  F11  1  0.992227  0.000000  0.750000  1
  F  F12  1  0.888571  0.205837  0.198743  1
  F  F13  1  0.682734  0.794163  0.301257  1
  F  F14  1  0.111429  0.794163  0.801257  1
  F  F15  1  0.317266  0.205837  0.698743  1
  F  F16  1  0.850682  0.135629  0.337389  1
  F  F17  1  0.715053  0.864371  0.162611  1
  F  F18  1  0.149318  0.864371  0.662611  1
  F  F19  1  0.284947  0.135629  0.837389  1
  F  F20  1  0.146128  0.122256  0.087903  1
  F  F21  1  0.023872  0.877744  0.412097  1
  F  F22  1  0.853872  0.877744  0.912097  1
  F  F23  1  0.976128  0.122256  0.587903  1
  F  F24  1  0.299322  0.005215  0.992245  1
  F  F25  1  0.294107  0.994785  0.507755  1
  F  F26  1  0.700678  0.994785  0.007755  1
  F  F27  1  0.705893  0.005215  0.492245  1
  F  F28  1  0.296417  0.321156  0.990997  1
  F  F29  1  0.975261  0.678844  0.509003  1
  F  F30  1  0.703583  0.678844  0.009003  1
  F  F31  1  0.024739  0.321156  0.490997  1
  F  F32  1  0.446616  0.393608  0.124951  1
  F  F33  1  0.053008  0.606392  0.375049  1
  F  F34  1  0.553384  0.606392  0.875049  1
  F  F35  1  0.946992  0.393608  0.624951  1
  F  F36  1  0.456993  0.083013  0.127598  1
  F  F37  1  0.373980  0.916987  0.372402  1
  F  F38  1  0.543007  0.916987  0.872402  1
  F  F39  1  0.626020  0.083013  0.627598  1
  F  F40  1  0.282242  0.262998  0.377288  1
  F  F41  1  0.019244  0.737002  0.122712  1
  F  F42  1  0.717758  0.737002  0.622712  1
  F  F43  1  0.980756  0.262998  0.877288  1
  F  F44  1  0.521463  0.239434  0.284180  1
  F  F45  1  0.282029  0.760566  0.215820  1
  F  F46  1  0.478537  0.760566  0.715820  1
  F  F47  1  0.717971  0.239434  0.784180  1
  F  F48  1  0.340900  0.458360  0.278684  1
  F  F49  1  0.882540  0.541640  0.221316  1
  I  I50  1  0.902554  0.428635  0.845984  1
  I  I51  1  0.473919  0.571365  0.654016  1
  I  I52  1  0.097446  0.571365  0.154016  1
  I  I53  1  0.526081  0.428635  0.345984  1
  I  I54  1  0.799776  0.212452  0.553393  1
  I  I55  1  0.587324  0.787548  0.946607  1
  I  I56  1  0.200224  0.787548  0.446607  1
  I  I57  1  0.412676  0.212452  0.053393  1
  I  I58  1  0.253092  0.000000  0.750000  1
  I  I59  1  0.746908  0.000000  0.250000  1
