# generated using pymatgen
data_Ca2PdWO6
_symmetry_space_group_name_H-M   'P 1'
_cell_length_a   5.64146931
_cell_length_b   6.10042439
_cell_length_c   8.12691212
_cell_angle_alpha   90.00000000
_cell_angle_beta   90.00000000
_cell_angle_gamma   90.00000000
_symmetry_Int_Tables_number   1
_chemical_formula_structural   Ca2PdWO6
_chemical_formula_sum   'Ca4 Pd2 W2 O12'
_cell_volume   279.69058171
_cell_formula_units_Z   2
loop_
 _symmetry_equiv_pos_site_id
 _symmetry_equiv_pos_as_xyz
  1  'x, y, z'
loop_
 _atom_site_type_symbol
 _atom_site_label
 _atom_site_symmetry_multiplicity
 _atom_site_fract_x
 _atom_site_fract_y
 _atom_site_fract_z
 _atom_site_occupancy
  O  O0  1  0.500000  0.458225  0.737494  1
  O  O1  1  0.500000  0.458225  0.262506  1
  O  O2  1  0.000000  0.957650  0.762490  1
  O  O3  1  0.000000  0.957650  0.237510  1
  O  O4  1  0.756726  0.680567  0.500000  1
  O  O5  1  0.243274  0.680567  0.500000  1
  O  O6  1  0.721779  0.222201  0.500000  1
  O  O7  1  0.278221  0.222201  0.500000  1
  O  O8  1  0.257185  0.178671  0.000000  1
  O  O9  1  0.742815  0.178671  0.000000  1
  O  O10  1  0.778905  0.720236  0.000000  1
  O  O11  1  0.221095  0.720236  0.000000  1
  Ca  Ca12  1  0.000000  0.576113  0.249872  1
  Ca  Ca13  1  0.000000  0.576113  0.750128  1
  Ca  Ca14  1  0.500000  0.076668  0.749495  1
  Ca  Ca15  1  0.500000  0.076668  0.250505  1
  Pd  Pd16  1  0.000000  0.984667  0.500000  1
  Pd  Pd17  1  0.500000  0.483746  0.000000  1
  W  W18  1  0.000000  0.974721  0.000000  1
  W  W19  1  0.500000  0.476206  0.500000  1
