# generated using pymatgen
data_BeH8(ClO2)2
_symmetry_space_group_name_H-M   'P 1'
_cell_length_a   6.66342449
_cell_length_b   7.93286791
_cell_length_c   13.12322438
_cell_angle_alpha   90.00000000
_cell_angle_beta   90.00000000
_cell_angle_gamma   104.00928497
_symmetry_Int_Tables_number   1
_chemical_formula_structural   BeH8(ClO2)2
_chemical_formula_sum   'Be4 H32 Cl8 O16'
_cell_volume   673.06161415
_cell_formula_units_Z   4
loop_
 _symmetry_equiv_pos_site_id
 _symmetry_equiv_pos_as_xyz
  1  'x, y, z'
loop_
 _atom_site_type_symbol
 _atom_site_label
 _atom_site_symmetry_multiplicity
 _atom_site_fract_x
 _atom_site_fract_y
 _atom_site_fract_z
 _atom_site_occupancy
  H  H0  1  0.024366  0.236720  0.687053  1
  H  H1  1  0.975634  0.263280  0.187053  1
  H  H2  1  0.975634  0.763280  0.312947  1
  H  H3  1  0.024366  0.736720  0.812947  1
  H  H4  1  0.138881  0.432527  0.648627  1
  H  H5  1  0.861119  0.067473  0.148627  1
  H  H6  1  0.861119  0.567473  0.351373  1
  H  H7  1  0.138881  0.932527  0.851373  1
  H  H8  1  0.612446  0.422164  0.657638  1
  H  H9  1  0.387554  0.077836  0.157638  1
  H  H10  1  0.387554  0.577836  0.342362  1
  H  H11  1  0.612446  0.922164  0.842362  1
  H  H12  1  0.640212  0.368022  0.539774  1
  H  H13  1  0.359788  0.131978  0.039774  1
  H  H14  1  0.239058  0.137983  0.420410  1
  H  H15  1  0.359788  0.631978  0.460226  1
  H  H16  1  0.276117  0.933518  0.616891  1
  H  H17  1  0.723883  0.566482  0.116891  1
  H  H18  1  0.723883  0.066482  0.383109  1
  H  H19  1  0.276117  0.433518  0.883109  1
  H  H20  1  0.488719  0.050268  0.662924  1
  H  H21  1  0.511281  0.449732  0.162924  1
  H  H22  1  0.511281  0.949732  0.337076  1
  H  H23  1  0.488719  0.550268  0.837076  1
  H  H24  1  0.088611  0.255747  0.461565  1
  H  H25  1  0.911389  0.244253  0.961565  1
  H  H26  1  0.911389  0.744253  0.538435  1
  H  H27  1  0.088611  0.755747  0.038435  1
  H  H28  1  0.239058  0.637983  0.079590  1
  H  H29  1  0.760942  0.862017  0.579590  1
  H  H30  1  0.760942  0.362017  0.920410  1
  H  H31  1  0.640212  0.868022  0.960226  1
  Be  Be32  1  0.313714  0.736398  0.907655  1
  Be  Be33  1  0.686286  0.763602  0.407655  1
  Be  Be34  1  0.686286  0.263602  0.092345  1
  Be  Be35  1  0.313714  0.236398  0.592345  1
  O  O36  1  0.213497  0.711229  0.021405  1
  O  O37  1  0.786503  0.788771  0.521405  1
  O  O38  1  0.786503  0.288770  0.978595  1
  O  O39  1  0.213497  0.211229  0.478595  1
  O  O40  1  0.158075  0.314970  0.665525  1
  O  O41  1  0.841925  0.185030  0.165525  1
  O  O42  1  0.841925  0.685030  0.334475  1
  O  O43  1  0.158075  0.814970  0.834475  1
  O  O44  1  0.536915  0.379016  0.593391  1
  O  O45  1  0.463085  0.120984  0.093391  1
  O  O46  1  0.463085  0.620984  0.406609  1
  O  O47  1  0.536915  0.879016  0.906609  1
  O  O48  1  0.348444  0.054768  0.636550  1
  O  O49  1  0.651556  0.445232  0.136550  1
  O  O50  1  0.651556  0.945232  0.363450  1
  O  O51  1  0.348444  0.554768  0.863450  1
  Cl  Cl52  1  0.825745  0.821536  0.075352  1
  Cl  Cl53  1  0.174255  0.678464  0.575352  1
  Cl  Cl54  1  0.174255  0.178464  0.924648  1
  Cl  Cl55  1  0.825745  0.321536  0.424648  1
  Cl  Cl56  1  0.763983  0.018561  0.707056  1
  Cl  Cl57  1  0.236017  0.481439  0.207056  1
  Cl  Cl58  1  0.236017  0.981439  0.292944  1
  Cl  Cl59  1  0.763983  0.518561  0.792944  1
