# generated using pymatgen
data_H7Se2NO6
_symmetry_space_group_name_H-M   'P 1'
_cell_length_a   5.91613713
_cell_length_b   6.50508676
_cell_length_c   17.95076529
_cell_angle_alpha   90.00000000
_cell_angle_beta   90.00000000
_cell_angle_gamma   90.00000000
_symmetry_Int_Tables_number   1
_chemical_formula_structural   H7Se2NO6
_chemical_formula_sum   'H28 Se8 N4 O24'
_cell_volume   690.83493857
_cell_formula_units_Z   4
loop_
 _symmetry_equiv_pos_site_id
 _symmetry_equiv_pos_as_xyz
  1  'x, y, z'
loop_
 _atom_site_type_symbol
 _atom_site_label
 _atom_site_symmetry_multiplicity
 _atom_site_fract_x
 _atom_site_fract_y
 _atom_site_fract_z
 _atom_site_occupancy
  H  H0  1  0.354256  0.835445  0.430801  1
  H  H1  1  0.854256  0.164555  0.069199  1
  H  H2  1  0.145744  0.335445  0.569199  1
  H  H3  1  0.645744  0.664555  0.930801  1
  H  H4  1  0.131080  0.777978  0.374079  1
  H  H5  1  0.631080  0.222022  0.125921  1
  H  H6  1  0.368920  0.277978  0.625921  1
  H  H7  1  0.868920  0.722022  0.874079  1
  H  H8  1  0.138629  0.688258  0.463466  1
  H  H9  1  0.638629  0.311742  0.036534  1
  H  H10  1  0.361371  0.188258  0.536534  1
  H  H11  1  0.861371  0.811742  0.963466  1
  H  H12  1  0.318137  0.593949  0.398796  1
  H  H13  1  0.818137  0.406051  0.101204  1
  H  H14  1  0.181863  0.093949  0.601204  1
  H  H15  1  0.681863  0.906051  0.898796  1
  H  H16  1  0.599079  0.787117  0.114142  1
  H  H17  1  0.099079  0.212883  0.385858  1
  H  H18  1  0.900921  0.287117  0.885858  1
  H  H19  1  0.400921  0.712883  0.614142  1
  H  H20  1  0.485482  0.943370  0.248226  1
  H  H21  1  0.985482  0.056630  0.251774  1
  H  H22  1  0.014518  0.443370  0.751774  1
  H  H23  1  0.514518  0.556630  0.748226  1
  H  H24  1  0.265447  0.515505  0.030458  1
  H  H25  1  0.765447  0.484495  0.469542  1
  H  H26  1  0.234553  0.015505  0.969542  1
  H  H27  1  0.734553  0.984495  0.530458  1
  N  N28  1  0.235336  0.724481  0.417132  1
  N  N29  1  0.735336  0.275519  0.082868  1
  N  N30  1  0.264664  0.224481  0.582868  1
  N  N31  1  0.764664  0.775519  0.917132  1
  O  O32  1  0.950670  0.849370  0.294586  1
  O  O33  1  0.450670  0.150630  0.205414  1
  O  O34  1  0.549330  0.349370  0.705414  1
  O  O35  1  0.049330  0.650630  0.794586  1
  O  O36  1  0.074241  0.942109  0.037226  1
  O  O37  1  0.574241  0.057891  0.462774  1
  O  O38  1  0.425759  0.442109  0.962774  1
  O  O39  1  0.925759  0.557891  0.537226  1
  O  O40  1  0.787558  0.696949  0.164514  1
  O  O41  1  0.287558  0.303051  0.335486  1
  O  O42  1  0.712442  0.196949  0.835486  1
  O  O43  1  0.212442  0.803051  0.664514  1
  O  O44  1  0.489323  0.840305  0.073454  1
  O  O45  1  0.989323  0.159695  0.426546  1
  O  O46  1  0.010677  0.340305  0.926546  1
  O  O47  1  0.510677  0.659695  0.573454  1
  O  O48  1  0.493923  0.802772  0.274980  1
  O  O49  1  0.993923  0.197228  0.225020  1
  O  O50  1  0.006077  0.302772  0.725020  1
  O  O51  1  0.506077  0.697228  0.774980  1
  O  O52  1  0.171403  0.545208  0.077080  1
  O  O53  1  0.671403  0.454792  0.422920  1
  O  O54  1  0.328597  0.045208  0.922920  1
  O  O55  1  0.828597  0.954792  0.577080  1
  Se  Se56  1  0.760413  0.677864  0.259265  1
  Se  Se57  1  0.260413  0.322136  0.240735  1
  Se  Se58  1  0.739587  0.177864  0.740735  1
  Se  Se59  1  0.239587  0.822136  0.759265  1
  Se  Se60  1  0.205195  0.807208  0.105275  1
  Se  Se61  1  0.705195  0.192792  0.394725  1
  Se  Se62  1  0.294805  0.307208  0.894725  1
  Se  Se63  1  0.794805  0.692792  0.605275  1
