# generated using pymatgen
data_ErSiRh
_symmetry_space_group_name_H-M   'P 1'
_cell_length_a   4.22441382
_cell_length_b   6.84521910
_cell_length_c   7.39847898
_cell_angle_alpha   90.00000000
_cell_angle_beta   90.00000000
_cell_angle_gamma   90.00000000
_symmetry_Int_Tables_number   1
_chemical_formula_structural   ErSiRh
_chemical_formula_sum   'Er4 Si4 Rh4'
_cell_volume   213.94209904
_cell_formula_units_Z   4
loop_
 _symmetry_equiv_pos_site_id
 _symmetry_equiv_pos_as_xyz
  1  'x, y, z'
loop_
 _atom_site_type_symbol
 _atom_site_label
 _atom_site_symmetry_multiplicity
 _atom_site_fract_x
 _atom_site_fract_y
 _atom_site_fract_z
 _atom_site_occupancy
  Si  Si0  1  0.250000  0.293858  0.894732  1
  Si  Si1  1  0.750000  0.706142  0.105268  1
  Si  Si2  1  0.250000  0.793858  0.605268  1
  Si  Si3  1  0.750000  0.206142  0.394732  1
  Rh  Rh4  1  0.750000  0.845630  0.431055  1
  Rh  Rh5  1  0.250000  0.154370  0.568945  1
  Rh  Rh6  1  0.750000  0.345630  0.068945  1
  Rh  Rh7  1  0.250000  0.654370  0.931055  1
  Er  Er8  1  0.250000  0.500958  0.309648  1
  Er  Er9  1  0.750000  0.499042  0.690352  1
  Er  Er10  1  0.250000  0.000958  0.190352  1
  Er  Er11  1  0.750000  0.999042  0.809648  1
