# generated using pymatgen
data_TeWBr9
_symmetry_space_group_name_H-M   'P 1'
_cell_length_a   7.11290629
_cell_length_b   10.38584376
_cell_length_c   12.17127293
_cell_angle_alpha   90.00000000
_cell_angle_beta   90.00000000
_cell_angle_gamma   103.41716775
_symmetry_Int_Tables_number   1
_chemical_formula_structural   TeWBr9
_chemical_formula_sum   'Te2 W2 Br18'
_cell_volume   874.59430380
_cell_formula_units_Z   2
loop_
 _symmetry_equiv_pos_site_id
 _symmetry_equiv_pos_as_xyz
  1  'x, y, z'
loop_
 _atom_site_type_symbol
 _atom_site_label
 _atom_site_symmetry_multiplicity
 _atom_site_fract_x
 _atom_site_fract_y
 _atom_site_fract_z
 _atom_site_occupancy
  Br  Br0  1  0.547472  0.305501  0.606826  1
  Br  Br1  1  0.452528  0.694499  0.106826  1
  Br  Br2  1  0.452528  0.694499  0.393174  1
  Br  Br3  1  0.547472  0.305501  0.893174  1
  Br  Br4  1  0.315011  0.011279  0.750000  1
  Br  Br5  1  0.684989  0.988721  0.250000  1
  Br  Br6  1  0.481030  0.651116  0.750000  1
  Br  Br7  1  0.518970  0.348884  0.250000  1
  Br  Br8  1  0.978531  0.315283  0.750000  1
  Br  Br9  1  0.021469  0.684717  0.250000  1
  Br  Br10  1  0.754692  0.025453  0.898856  1
  Br  Br11  1  0.245308  0.974547  0.398856  1
  Br  Br12  1  0.245308  0.974547  0.101144  1
  Br  Br13  1  0.754692  0.025453  0.601144  1
  Br  Br14  1  0.949468  0.664313  0.906359  1
  Br  Br15  1  0.050532  0.335687  0.406359  1
  Br  Br16  1  0.050532  0.335687  0.093641  1
  Br  Br17  1  0.949468  0.664313  0.593641  1
  Te  Te18  1  0.243007  0.468560  0.250000  1
  Te  Te19  1  0.756993  0.531440  0.750000  1
  W  W20  1  0.355455  0.853641  0.250000  1
  W  W21  1  0.644545  0.146359  0.750000  1
