# generated using pymatgen
data_Ni2As2O7
_symmetry_space_group_name_H-M   'P 1'
_cell_length_a   4.83931443
_cell_length_b   5.40349015
_cell_length_c   5.40349014
_cell_angle_alpha   107.17702362
_cell_angle_beta   96.71123853
_cell_angle_gamma   96.71123864
_symmetry_Int_Tables_number   1
_chemical_formula_structural   Ni2As2O7
_chemical_formula_sum   'Ni2 As2 O7'
_cell_volume   132.35235975
_cell_formula_units_Z   1
loop_
 _symmetry_equiv_pos_site_id
 _symmetry_equiv_pos_as_xyz
  1  'x, y, z'
loop_
 _atom_site_type_symbol
 _atom_site_label
 _atom_site_symmetry_multiplicity
 _atom_site_fract_x
 _atom_site_fract_y
 _atom_site_fract_z
 _atom_site_occupancy
  O  O0  1  0.289967  0.929973  0.593953  1
  O  O1  1  0.710033  0.406047  0.070027  1
  O  O2  1  0.710033  0.070027  0.406047  1
  O  O3  1  0.289967  0.593953  0.929973  1
  O  O4  1  0.000000  0.000000  0.000000  1
  O  O5  1  0.773827  0.590489  0.590489  1
  O  O6  1  0.226173  0.409511  0.409511  1
  Ni  Ni7  1  0.500000  0.688303  0.311697  1
  Ni  Ni8  1  0.500000  0.311697  0.688303  1
  As  As9  1  0.104216  0.756316  0.756316  1
  As  As10  1  0.895784  0.243684  0.243684  1
