# generated using pymatgen
data_Tl3PbBr5
_symmetry_space_group_name_H-M   'P 1'
_cell_length_a   8.71619281
_cell_length_b   9.24136682
_cell_length_c   15.68687620
_cell_angle_alpha   90.00000000
_cell_angle_beta   90.00000000
_cell_angle_gamma   90.00000000
_symmetry_Int_Tables_number   1
_chemical_formula_structural   Tl3PbBr5
_chemical_formula_sum   'Tl12 Pb4 Br20'
_cell_volume   1263.57058400
_cell_formula_units_Z   4
loop_
 _symmetry_equiv_pos_site_id
 _symmetry_equiv_pos_as_xyz
  1  'x, y, z'
loop_
 _atom_site_type_symbol
 _atom_site_label
 _atom_site_symmetry_multiplicity
 _atom_site_fract_x
 _atom_site_fract_y
 _atom_site_fract_z
 _atom_site_occupancy
  Br  Br0  1  0.986410  0.903803  0.099520  1
  Br  Br1  1  0.486410  0.096197  0.400480  1
  Br  Br2  1  0.513590  0.403803  0.900480  1
  Br  Br3  1  0.013590  0.596197  0.599520  1
  Br  Br4  1  0.529150  0.538898  0.524070  1
  Br  Br5  1  0.029150  0.461102  0.975930  1
  Br  Br6  1  0.970850  0.038898  0.475930  1
  Br  Br7  1  0.470850  0.961102  0.024070  1
  Br  Br8  1  0.165371  0.102636  0.885607  1
  Br  Br9  1  0.665371  0.897364  0.614393  1
  Br  Br10  1  0.334629  0.602636  0.114393  1
  Br  Br11  1  0.834629  0.397364  0.385607  1
  Br  Br12  1  0.854790  0.805199  0.861075  1
  Br  Br13  1  0.354790  0.194801  0.638925  1
  Br  Br14  1  0.645210  0.305199  0.138925  1
  Br  Br15  1  0.145210  0.694801  0.361075  1
  Br  Br16  1  0.324727  0.746747  0.774780  1
  Br  Br17  1  0.824727  0.253253  0.725220  1
  Br  Br18  1  0.175273  0.246747  0.225220  1
  Br  Br19  1  0.675273  0.753253  0.274780  1
  Tl  Tl20  1  0.022223  0.956175  0.698779  1
  Tl  Tl21  1  0.522223  0.043825  0.801221  1
  Tl  Tl22  1  0.477777  0.456176  0.301221  1
  Tl  Tl23  1  0.977777  0.543825  0.198779  1
  Tl  Tl24  1  0.162972  0.417388  0.772087  1
  Tl  Tl25  1  0.662972  0.582612  0.727913  1
  Tl  Tl26  1  0.337028  0.917388  0.227913  1
  Tl  Tl27  1  0.837028  0.082612  0.272087  1
  Tl  Tl28  1  0.185894  0.337160  0.465127  1
  Tl  Tl29  1  0.685894  0.662840  0.034873  1
  Tl  Tl30  1  0.314106  0.837160  0.534873  1
  Tl  Tl31  1  0.814106  0.162840  0.965127  1
  Pb  Pb32  1  0.826690  0.702638  0.455406  1
  Pb  Pb33  1  0.326690  0.297362  0.044594  1
  Pb  Pb34  1  0.673310  0.202638  0.544594  1
  Pb  Pb35  1  0.173310  0.797362  0.955406  1
