# generated using pymatgen
data_Sr(InSe2)2
_symmetry_space_group_name_H-M   'P 1'
_cell_length_a   13.11042417
_cell_length_b   13.11042417
_cell_length_c   13.12812934
_cell_angle_alpha   105.81505609
_cell_angle_beta   105.81505610
_cell_angle_gamma   117.01332673
_symmetry_Int_Tables_number   1
_chemical_formula_structural   Sr(InSe2)2
_chemical_formula_sum   'Sr8 In16 Se32'
_cell_volume   1715.07074888
_cell_formula_units_Z   8
loop_
 _symmetry_equiv_pos_site_id
 _symmetry_equiv_pos_as_xyz
  1  'x, y, z'
loop_
 _atom_site_type_symbol
 _atom_site_label
 _atom_site_symmetry_multiplicity
 _atom_site_fract_x
 _atom_site_fract_y
 _atom_site_fract_z
 _atom_site_occupancy
  Se  Se0  1  0.182798  0.679381  0.823749  1
  Se  Se1  1  0.855632  0.859049  0.676251  1
  Se  Se2  1  0.320619  0.817202  0.676251  1
  Se  Se3  1  0.140951  0.144368  0.823749  1
  Se  Se4  1  0.817202  0.320619  0.176251  1
  Se  Se5  1  0.144368  0.140951  0.323749  1
  Se  Se6  1  0.679381  0.182798  0.323749  1
  Se  Se7  1  0.859049  0.855632  0.176251  1
  Se  Se8  1  0.832321  0.334458  0.685617  1
  Se  Se9  1  0.648841  0.646703  0.814383  1
  Se  Se10  1  0.665542  0.167679  0.814383  1
  Se  Se11  1  0.353297  0.351159  0.685617  1
  Se  Se12  1  0.167679  0.665542  0.314383  1
  Se  Se13  1  0.351159  0.353297  0.185617  1
  Se  Se14  1  0.334458  0.832321  0.185617  1
  Se  Se15  1  0.646703  0.648841  0.314383  1
  Se  Se16  1  0.411122  0.591157  0.000190  1
  Se  Se17  1  0.590967  0.910932  0.499810  1
  Se  Se18  1  0.408843  0.588878  0.499810  1
  Se  Se19  1  0.089068  0.409033  0.000190  1
  Se  Se20  1  0.588878  0.408843  0.999810  1
  Se  Se21  1  0.409033  0.089068  0.500190  1
  Se  Se22  1  0.591157  0.411122  0.500190  1
  Se  Se23  1  0.910932  0.590967  0.999810  1
  Se  Se24  1  0.912296  0.591254  0.500687  1
  Se  Se25  1  0.090567  0.911609  0.999313  1
  Se  Se26  1  0.408746  0.087704  0.999313  1
  Se  Se27  1  0.088391  0.909433  0.500687  1
  Se  Se28  1  0.087704  0.408746  0.499313  1
  Se  Se29  1  0.909433  0.088391  0.000687  1
  Se  Se30  1  0.591254  0.912296  0.000687  1
  Se  Se31  1  0.911609  0.090567  0.499313  1
  Sr  Sr32  1  0.125000  0.875000  0.750000  1
  Sr  Sr33  1  0.875000  0.125000  0.250000  1
  Sr  Sr34  1  0.625000  0.375000  0.750000  1
  Sr  Sr35  1  0.375000  0.625000  0.250000  1
  Sr  Sr36  1  0.872275  0.127725  0.750000  1
  Sr  Sr37  1  0.377725  0.622275  0.750000  1
  Sr  Sr38  1  0.127725  0.872275  0.250000  1
  Sr  Sr39  1  0.622275  0.377725  0.250000  1
  In  In40  1  0.466728  0.966269  0.608948  1
  In  In41  1  0.357321  0.357780  0.891052  1
  In  In42  1  0.033731  0.533272  0.891052  1
  In  In43  1  0.642220  0.642679  0.608948  1
  In  In44  1  0.533272  0.033731  0.391052  1
  In  In45  1  0.642679  0.642220  0.108948  1
  In  In46  1  0.966269  0.466728  0.108948  1
  In  In47  1  0.357780  0.357321  0.391052  1
  In  In48  1  0.137144  0.135992  0.523117  1
  In  In49  1  0.612875  0.114027  0.976883  1
  In  In50  1  0.864008  0.862856  0.976883  1
  In  In51  1  0.885973  0.387125  0.523117  1
  In  In52  1  0.862856  0.864008  0.476883  1
  In  In53  1  0.387125  0.885973  0.023117  1
  In  In54  1  0.135992  0.137144  0.023117  1
  In  In55  1  0.114027  0.612875  0.476883  1
