# generated using pymatgen
data_CsCrH18Br2N6(ClO4)2
_symmetry_space_group_name_H-M   'P 1'
_cell_length_a   10.33787587
_cell_length_b   10.33787586
_cell_length_c   10.33787587
_cell_angle_alpha   42.71269739
_cell_angle_beta   42.71269742
_cell_angle_gamma   42.71269741
_symmetry_Int_Tables_number   1
_chemical_formula_structural   CsCrH18Br2N6(ClO4)2
_chemical_formula_sum   'Cs1 Cr1 H18 Br2 N6 Cl2 O8'
_cell_volume   460.50353011
_cell_formula_units_Z   1
loop_
 _symmetry_equiv_pos_site_id
 _symmetry_equiv_pos_as_xyz
  1  'x, y, z'
loop_
 _atom_site_type_symbol
 _atom_site_label
 _atom_site_symmetry_multiplicity
 _atom_site_fract_x
 _atom_site_fract_y
 _atom_site_fract_z
 _atom_site_occupancy
  H  H0  1  0.936809  0.654853  0.262029  1
  H  H1  1  0.345147  0.737972  0.063191  1
  H  H2  1  0.737972  0.063191  0.345147  1
  H  H3  1  0.063191  0.345148  0.737972  1
  H  H4  1  0.654852  0.262028  0.936809  1
  H  H5  1  0.262028  0.936809  0.654853  1
  H  H6  1  0.325390  0.976972  0.929447  1
  H  H7  1  0.191166  0.579999  0.142967  1
  H  H8  1  0.142967  0.191165  0.580000  1
  H  H9  1  0.580000  0.142967  0.191165  1
  H  H10  1  0.808835  0.420001  0.857032  1
  H  H11  1  0.857032  0.808835  0.420000  1
  H  H12  1  0.420000  0.857033  0.808835  1
  H  H13  1  0.070554  0.674610  0.023028  1
  H  H14  1  0.023029  0.070553  0.674609  1
  H  H15  1  0.674610  0.023029  0.070554  1
  H  H16  1  0.929448  0.325390  0.976970  1
  H  H17  1  0.976971  0.929447  0.325390  1
  N  N18  1  0.305864  0.882902  0.942850  1
  N  N19  1  0.117098  0.057150  0.694135  1
  N  N20  1  0.882902  0.942850  0.305864  1
  N  N21  1  0.942851  0.305864  0.882901  1
  N  N22  1  0.694136  0.117098  0.057149  1
  N  N23  1  0.057150  0.694136  0.117098  1
  O  O24  1  0.003120  0.717640  0.661835  1
  O  O25  1  0.661834  0.003119  0.717641  1
  O  O26  1  0.996882  0.282358  0.338166  1
  O  O27  1  0.136228  0.136227  0.136227  1
  O  O28  1  0.863773  0.863773  0.863772  1
  O  O29  1  0.338166  0.996881  0.282359  1
  O  O30  1  0.282359  0.338166  0.996880  1
  O  O31  1  0.717642  0.661834  0.003119  1
  Cl  Cl32  1  0.188425  0.188425  0.188424  1
  Cl  Cl33  1  0.811575  0.811575  0.811576  1
  Cr  Cr34  1  0.000000  0.000000  0.000000  1
  Br  Br35  1  0.369620  0.369621  0.369620  1
  Br  Br36  1  0.630379  0.630379  0.630379  1
  Cs  Cs37  1  0.500001  0.500000  0.500000  1
