# generated using pymatgen
data_AlVMoO7
_symmetry_space_group_name_H-M   'P 1'
_cell_length_a   5.45100529
_cell_length_b   8.30031495
_cell_length_c   12.95897267
_cell_angle_alpha   90.00000000
_cell_angle_beta   90.00000000
_cell_angle_gamma   90.00000000
_symmetry_Int_Tables_number   1
_chemical_formula_structural   AlVMoO7
_chemical_formula_sum   'Al4 V4 Mo4 O28'
_cell_volume   586.32950508
_cell_formula_units_Z   4
loop_
 _symmetry_equiv_pos_site_id
 _symmetry_equiv_pos_as_xyz
  1  'x, y, z'
loop_
 _atom_site_type_symbol
 _atom_site_label
 _atom_site_symmetry_multiplicity
 _atom_site_fract_x
 _atom_site_fract_y
 _atom_site_fract_z
 _atom_site_occupancy
  O  O0  1  0.249999  0.283404  0.905387  1
  O  O1  1  0.749999  0.716596  0.094613  1
  O  O2  1  0.749999  0.783405  0.594613  1
  O  O3  1  0.249999  0.216596  0.405387  1
  O  O4  1  0.022189  0.598689  0.930414  1
  O  O5  1  0.522189  0.401311  0.069586  1
  O  O6  1  0.977811  0.098689  0.569586  1
  O  O7  1  0.477811  0.901311  0.430414  1
  O  O8  1  0.977811  0.401311  0.069586  1
  O  O9  1  0.477811  0.598689  0.930414  1
  O  O10  1  0.022189  0.901311  0.430414  1
  O  O11  1  0.522189  0.098689  0.569586  1
  O  O12  1  0.491080  0.585842  0.351181  1
  O  O13  1  0.991080  0.414159  0.648820  1
  O  O14  1  0.508918  0.085842  0.148819  1
  O  O15  1  0.008918  0.914159  0.851181  1
  O  O16  1  0.508918  0.414159  0.648820  1
  O  O17  1  0.008918  0.585842  0.351181  1
  O  O18  1  0.491080  0.914159  0.851181  1
  O  O19  1  0.991080  0.085842  0.148819  1
  O  O20  1  0.749999  0.178119  0.746267  1
  O  O21  1  0.249999  0.655739  0.526375  1
  O  O22  1  0.249999  0.844260  0.026374  1
  O  O23  1  0.749999  0.155739  0.973625  1
  O  O24  1  0.749999  0.321882  0.246267  1
  O  O25  1  0.249999  0.678119  0.753733  1
  O  O26  1  0.249999  0.821882  0.253732  1
  O  O27  1  0.749999  0.344261  0.473626  1
  Al  Al28  1  0.749999  0.233998  0.112367  1
  Al  Al29  1  0.249999  0.766002  0.887632  1
  Al  Al30  1  0.249999  0.733998  0.387632  1
  Al  Al31  1  0.749999  0.266002  0.612367  1
  V  V32  1  0.249999  0.432346  0.985411  1
  V  V33  1  0.749999  0.567654  0.014589  1
  V  V34  1  0.249999  0.067654  0.485411  1
  V  V35  1  0.749999  0.932346  0.514589  1
  Mo  Mo36  1  0.749999  0.045145  0.855111  1
  Mo  Mo37  1  0.249999  0.954854  0.144890  1
  Mo  Mo38  1  0.249999  0.545145  0.644889  1
  Mo  Mo39  1  0.749999  0.454854  0.355110  1
