# generated using pymatgen
data_LaZnSn
_symmetry_space_group_name_H-M   'P 1'
_cell_length_a   4.62796383
_cell_length_b   4.62796382
_cell_length_c   17.17940136
_cell_angle_alpha   90.00000000
_cell_angle_beta   90.00000000
_cell_angle_gamma   119.99999997
_symmetry_Int_Tables_number   1
_chemical_formula_structural   LaZnSn
_chemical_formula_sum   'La4 Zn4 Sn4'
_cell_volume   318.65340935
_cell_formula_units_Z   4
loop_
 _symmetry_equiv_pos_site_id
 _symmetry_equiv_pos_as_xyz
  1  'x, y, z'
loop_
 _atom_site_type_symbol
 _atom_site_label
 _atom_site_symmetry_multiplicity
 _atom_site_fract_x
 _atom_site_fract_y
 _atom_site_fract_z
 _atom_site_occupancy
  Zn  Zn0  1  0.666667  0.333333  0.845094  1
  Zn  Zn1  1  0.666667  0.333333  0.654906  1
  Zn  Zn2  1  0.333333  0.666667  0.154906  1
  Zn  Zn3  1  0.333333  0.666667  0.345094  1
  Sn  Sn4  1  0.666667  0.333333  0.116358  1
  Sn  Sn5  1  0.666667  0.333333  0.383642  1
  Sn  Sn6  1  0.333333  0.666667  0.883642  1
  Sn  Sn7  1  0.333333  0.666667  0.616358  1
  La  La8  1  0.000000  0.000000  0.750000  1
  La  La9  1  0.000000  0.000000  0.250000  1
  La  La10  1  0.000000  0.000000  0.500000  1
  La  La11  1  0.000000  0.000000  0.000000  1
