# generated using pymatgen
data_LiCeGe2
_symmetry_space_group_name_H-M   'P 1'
_cell_length_a   3.97975924
_cell_length_b   7.87446469
_cell_length_c   10.65979519
_cell_angle_alpha   90.00000000
_cell_angle_beta   90.00000000
_cell_angle_gamma   90.00000000
_symmetry_Int_Tables_number   1
_chemical_formula_structural   LiCeGe2
_chemical_formula_sum   'Li4 Ce4 Ge8'
_cell_volume   334.06171025
_cell_formula_units_Z   4
loop_
 _symmetry_equiv_pos_site_id
 _symmetry_equiv_pos_as_xyz
  1  'x, y, z'
loop_
 _atom_site_type_symbol
 _atom_site_label
 _atom_site_symmetry_multiplicity
 _atom_site_fract_x
 _atom_site_fract_y
 _atom_site_fract_z
 _atom_site_occupancy
  Li  Li0  1  0.250000  0.987372  0.605908  1
  Li  Li1  1  0.250000  0.487372  0.894092  1
  Li  Li2  1  0.750000  0.512628  0.105908  1
  Li  Li3  1  0.750000  0.012628  0.394092  1
  Ge  Ge4  1  0.750000  0.342616  0.310824  1
  Ge  Ge5  1  0.250000  0.157384  0.810824  1
  Ge  Ge6  1  0.250000  0.657384  0.689176  1
  Ge  Ge7  1  0.750000  0.842616  0.189176  1
  Ge  Ge8  1  0.750000  0.770509  0.564816  1
  Ge  Ge9  1  0.250000  0.229491  0.435184  1
  Ge  Ge10  1  0.750000  0.270509  0.935184  1
  Ge  Ge11  1  0.250000  0.729491  0.064816  1
  Ce  Ce12  1  0.250000  0.634741  0.364922  1
  Ce  Ce13  1  0.750000  0.365259  0.635078  1
  Ce  Ce14  1  0.250000  0.134741  0.135078  1
  Ce  Ce15  1  0.750000  0.865259  0.864922  1
