# generated using pymatgen
data_K(BH)6
_symmetry_space_group_name_H-M   'P 1'
_cell_length_a   7.62422132
_cell_length_b   7.62422133
_cell_length_c   7.62422133
_cell_angle_alpha   60.00000004
_cell_angle_beta   60.00000001
_cell_angle_gamma   60.00000001
_symmetry_Int_Tables_number   1
_chemical_formula_structural   K(BH)6
_chemical_formula_sum   'K2 B12 H12'
_cell_volume   313.38015272
_cell_formula_units_Z   2
loop_
 _symmetry_equiv_pos_site_id
 _symmetry_equiv_pos_as_xyz
  1  'x, y, z'
loop_
 _atom_site_type_symbol
 _atom_site_label
 _atom_site_symmetry_multiplicity
 _atom_site_fract_x
 _atom_site_fract_y
 _atom_site_fract_z
 _atom_site_occupancy
  H  H0  1  0.910394  0.368990  0.631010  1
  H  H1  1  0.631010  0.089606  0.910394  1
  H  H2  1  0.368990  0.089606  0.631010  1
  H  H3  1  0.089606  0.910394  0.631010  1
  H  H4  1  0.631010  0.910394  0.368990  1
  H  H5  1  0.910394  0.631010  0.089606  1
  H  H6  1  0.631010  0.368990  0.089606  1
  H  H7  1  0.910394  0.089606  0.368990  1
  H  H8  1  0.089606  0.368990  0.910394  1
  H  H9  1  0.368990  0.910394  0.089606  1
  H  H10  1  0.089606  0.631010  0.368990  1
  H  H11  1  0.368990  0.631010  0.910394  1
  B  B12  1  0.784178  0.051399  0.948601  1
  B  B13  1  0.948601  0.215822  0.784178  1
  B  B14  1  0.215822  0.051399  0.784178  1
  B  B15  1  0.051399  0.948601  0.784178  1
  B  B16  1  0.784178  0.948601  0.215822  1
  B  B17  1  0.948601  0.784178  0.051399  1
  B  B18  1  0.784178  0.215822  0.051399  1
  B  B19  1  0.948601  0.051399  0.215822  1
  B  B20  1  0.051399  0.215822  0.948601  1
  B  B21  1  0.215822  0.948601  0.051399  1
  B  B22  1  0.051399  0.784178  0.215822  1
  B  B23  1  0.215822  0.784178  0.948601  1
  K  K24  1  0.750000  0.750000  0.750000  1
  K  K25  1  0.250000  0.250000  0.250000  1
