# generated using pymatgen
data_CsCu2Br3
_symmetry_space_group_name_H-M   'P 1'
_cell_length_a   5.62208108
_cell_length_b   8.21428505
_cell_length_c   8.21428505
_cell_angle_alpha   104.80172417
_cell_angle_beta   90.00000000
_cell_angle_gamma   90.00000000
_symmetry_Int_Tables_number   1
_chemical_formula_structural   CsCu2Br3
_chemical_formula_sum   'Cs2 Cu4 Br6'
_cell_volume   366.75862713
_cell_formula_units_Z   2
loop_
 _symmetry_equiv_pos_site_id
 _symmetry_equiv_pos_as_xyz
  1  'x, y, z'
loop_
 _atom_site_type_symbol
 _atom_site_label
 _atom_site_symmetry_multiplicity
 _atom_site_fract_x
 _atom_site_fract_y
 _atom_site_fract_z
 _atom_site_occupancy
  Cu  Cu0  1  0.000000  0.151765  0.151765  1
  Cu  Cu1  1  0.500000  0.848235  0.848235  1
  Cu  Cu2  1  0.000000  0.848235  0.848235  1
  Cu  Cu3  1  0.500000  0.151765  0.151765  1
  Br  Br4  1  0.250000  0.884529  0.115471  1
  Br  Br5  1  0.750000  0.115471  0.884529  1
  Br  Br6  1  0.250000  0.398829  0.163013  1
  Br  Br7  1  0.750000  0.601171  0.836987  1
  Br  Br8  1  0.750000  0.163013  0.398829  1
  Br  Br9  1  0.250000  0.836987  0.601171  1
  Cs  Cs10  1  0.250000  0.321744  0.678256  1
  Cs  Cs11  1  0.750000  0.678256  0.321744  1
