# generated using pymatgen
data_RbGdH2S2O9
_symmetry_space_group_name_H-M   'P 1'
_cell_length_a   8.41444734
_cell_length_b   10.36662482
_cell_length_c   10.93402105
_cell_angle_alpha   119.26408592
_cell_angle_beta   90.00000000
_cell_angle_gamma   90.00000000
_symmetry_Int_Tables_number   1
_chemical_formula_structural   RbGdH2S2O9
_chemical_formula_sum   'Rb4 Gd4 H8 S8 O36'
_cell_volume   832.04443602
_cell_formula_units_Z   4
loop_
 _symmetry_equiv_pos_site_id
 _symmetry_equiv_pos_as_xyz
  1  'x, y, z'
loop_
 _atom_site_type_symbol
 _atom_site_label
 _atom_site_symmetry_multiplicity
 _atom_site_fract_x
 _atom_site_fract_y
 _atom_site_fract_z
 _atom_site_occupancy
  H  H0  1  0.030094  0.226087  0.423436  1
  H  H1  1  0.530094  0.273913  0.076564  1
  H  H2  1  0.969906  0.773913  0.576564  1
  H  H3  1  0.469906  0.726087  0.923436  1
  H  H4  1  0.993994  0.167820  0.526687  1
  H  H5  1  0.493994  0.332180  0.973313  1
  H  H6  1  0.006006  0.832180  0.473313  1
  H  H7  1  0.506006  0.667820  0.026687  1
  O  O8  1  0.058293  0.243066  0.516834  1
  O  O9  1  0.558293  0.256934  0.983166  1
  O  O10  1  0.941707  0.756934  0.483166  1
  O  O11  1  0.441707  0.743066  0.016834  1
  O  O12  1  0.320043  0.433821  0.990318  1
  O  O13  1  0.820043  0.066179  0.509682  1
  O  O14  1  0.121561  0.514857  0.880849  1
  O  O15  1  0.679957  0.566179  0.009682  1
  O  O16  1  0.035215  0.025328  0.195710  1
  O  O17  1  0.535215  0.474672  0.304290  1
  O  O18  1  0.964785  0.974672  0.804290  1
  O  O19  1  0.464785  0.525328  0.695710  1
  O  O20  1  0.063197  0.200649  0.105918  1
  O  O21  1  0.563197  0.299351  0.394082  1
  O  O22  1  0.936803  0.799351  0.894082  1
  O  O23  1  0.436803  0.700649  0.605918  1
  O  O24  1  0.232683  0.225472  0.292185  1
  O  O25  1  0.732683  0.274528  0.207815  1
  O  O26  1  0.767317  0.774528  0.707815  1
  O  O27  1  0.267317  0.725472  0.792185  1
  O  O28  1  0.261238  0.008334  0.056887  1
  O  O29  1  0.761238  0.491666  0.443113  1
  O  O30  1  0.738762  0.991666  0.943113  1
  O  O31  1  0.238762  0.508334  0.556887  1
  O  O32  1  0.418877  0.786798  0.391802  1
  O  O33  1  0.918877  0.713202  0.108198  1
  O  O34  1  0.581123  0.213202  0.608198  1
  O  O35  1  0.081123  0.286798  0.891802  1
  O  O36  1  0.222140  0.793394  0.237264  1
  O  O37  1  0.722140  0.706606  0.262736  1
  O  O38  1  0.777860  0.206606  0.762736  1
  O  O39  1  0.277860  0.293394  0.737264  1
  O  O40  1  0.378439  0.014857  0.380849  1
  O  O41  1  0.878439  0.485143  0.119151  1
  O  O42  1  0.621561  0.985143  0.619151  1
  O  O43  1  0.179957  0.933821  0.490318  1
  S  S44  1  0.201133  0.383586  0.877130  1
  S  S45  1  0.701133  0.116414  0.622870  1
  S  S46  1  0.798867  0.616414  0.122870  1
  S  S47  1  0.298867  0.883586  0.377130  1
  S  S48  1  0.351753  0.616409  0.663874  1
  S  S49  1  0.851753  0.883591  0.836126  1
  S  S50  1  0.648247  0.383591  0.336126  1
  S  S51  1  0.148247  0.116408  0.163874  1
  Rb  Rb52  1  0.812006  0.484739  0.717255  1
  Rb  Rb53  1  0.312006  0.015261  0.782745  1
  Rb  Rb54  1  0.187994  0.515261  0.282745  1
  Rb  Rb55  1  0.687994  0.984739  0.217255  1
  Gd  Gd56  1  0.350313  0.273847  0.524182  1
  Gd  Gd57  1  0.850313  0.226153  0.975818  1
  Gd  Gd58  1  0.649687  0.726153  0.475818  1
  Gd  Gd59  1  0.149687  0.773847  0.024182  1
