# generated using pymatgen
data_Mn3SiIr
_symmetry_space_group_name_H-M   'P 1'
_cell_length_a   6.37611670
_cell_length_b   6.37611670
_cell_length_c   6.37611670
_cell_angle_alpha   90.00000000
_cell_angle_beta   90.00000000
_cell_angle_gamma   90.00000000
_symmetry_Int_Tables_number   1
_chemical_formula_structural   Mn3SiIr
_chemical_formula_sum   'Mn12 Si4 Ir4'
_cell_volume   259.22015838
_cell_formula_units_Z   4
loop_
 _symmetry_equiv_pos_site_id
 _symmetry_equiv_pos_as_xyz
  1  'x, y, z'
loop_
 _atom_site_type_symbol
 _atom_site_label
 _atom_site_symmetry_multiplicity
 _atom_site_fract_x
 _atom_site_fract_y
 _atom_site_fract_z
 _atom_site_occupancy
  Mn  Mn0  1  0.547628  0.629934  0.288469  1
  Mn  Mn1  1  0.788469  0.952372  0.370066  1
  Mn  Mn2  1  0.047628  0.870066  0.711531  1
  Mn  Mn3  1  0.870066  0.711531  0.047628  1
  Mn  Mn4  1  0.711531  0.047628  0.870066  1
  Mn  Mn5  1  0.629934  0.288469  0.547628  1
  Mn  Mn6  1  0.129934  0.211531  0.452372  1
  Mn  Mn7  1  0.370066  0.788469  0.952372  1
  Mn  Mn8  1  0.288469  0.547628  0.629934  1
  Mn  Mn9  1  0.452372  0.129934  0.211531  1
  Mn  Mn10  1  0.211531  0.452372  0.129934  1
  Mn  Mn11  1  0.952372  0.370066  0.788469  1
  Si  Si12  1  0.940320  0.559680  0.440320  1
  Si  Si13  1  0.559680  0.440320  0.940320  1
  Si  Si14  1  0.440320  0.940320  0.559680  1
  Si  Si15  1  0.059680  0.059680  0.059680  1
  Ir  Ir16  1  0.314688  0.185312  0.814688  1
  Ir  Ir17  1  0.185312  0.814688  0.314688  1
  Ir  Ir18  1  0.814688  0.314688  0.185312  1
  Ir  Ir19  1  0.685312  0.685312  0.685312  1
