# generated using pymatgen
data_EuGePd
_symmetry_space_group_name_H-M   'P 1'
_cell_length_a   6.07002782
_cell_length_b   6.19557868
_cell_length_c   7.60926594
_cell_angle_alpha   109.67340667
_cell_angle_beta   90.00000000
_cell_angle_gamma   90.00000000
_symmetry_Int_Tables_number   1
_chemical_formula_structural   EuGePd
_chemical_formula_sum   'Eu4 Ge4 Pd4'
_cell_volume   269.45992188
_cell_formula_units_Z   4
loop_
 _symmetry_equiv_pos_site_id
 _symmetry_equiv_pos_as_xyz
  1  'x, y, z'
loop_
 _atom_site_type_symbol
 _atom_site_label
 _atom_site_symmetry_multiplicity
 _atom_site_fract_x
 _atom_site_fract_y
 _atom_site_fract_z
 _atom_site_occupancy
  Ge  Ge0  1  0.634254  0.179850  0.950574  1
  Ge  Ge1  1  0.134254  0.320150  0.549426  1
  Ge  Ge2  1  0.365746  0.820150  0.049426  1
  Ge  Ge3  1  0.865746  0.679850  0.450574  1
  Pd  Pd4  1  0.898382  0.077585  0.687301  1
  Pd  Pd5  1  0.398382  0.422415  0.812699  1
  Pd  Pd6  1  0.101618  0.922416  0.312699  1
  Pd  Pd7  1  0.601618  0.577584  0.187301  1
  Eu  Eu8  1  0.634690  0.180327  0.382113  1
  Eu  Eu9  1  0.134690  0.319673  0.117887  1
  Eu  Eu10  1  0.365310  0.819673  0.617887  1
  Eu  Eu11  1  0.865310  0.680327  0.882113  1
