# generated using pymatgen
data_RbEu2I5
_symmetry_space_group_name_H-M   'P 1'
_cell_length_a   9.10135543
_cell_length_b   10.15150865
_cell_length_c   14.41070288
_cell_angle_alpha   90.30603095
_cell_angle_beta   90.00000000
_cell_angle_gamma   90.00000000
_symmetry_Int_Tables_number   1
_chemical_formula_structural   RbEu2I5
_chemical_formula_sum   'Rb4 Eu8 I20'
_cell_volume   1331.42170678
_cell_formula_units_Z   4
loop_
 _symmetry_equiv_pos_site_id
 _symmetry_equiv_pos_as_xyz
  1  'x, y, z'
loop_
 _atom_site_type_symbol
 _atom_site_label
 _atom_site_symmetry_multiplicity
 _atom_site_fract_x
 _atom_site_fract_y
 _atom_site_fract_z
 _atom_site_occupancy
  Rb  Rb0  1  0.947401  0.492798  0.168867  1
  Rb  Rb1  1  0.447401  0.507202  0.331133  1
  Rb  Rb2  1  0.052599  0.507202  0.831133  1
  Rb  Rb3  1  0.552599  0.492798  0.668867  1
  I  I4  1  0.187567  0.225823  0.284266  1
  I  I5  1  0.838854  0.216066  0.683522  1
  I  I6  1  0.338854  0.783934  0.816478  1
  I  I7  1  0.161146  0.783934  0.316478  1
  I  I8  1  0.661146  0.216066  0.183522  1
  I  I9  1  0.812433  0.774177  0.715734  1
  I  I10  1  0.312433  0.225823  0.784266  1
  I  I11  1  0.954596  0.788461  0.997508  1
  I  I12  1  0.838428  0.041159  0.400958  1
  I  I13  1  0.338428  0.958841  0.099042  1
  I  I14  1  0.161572  0.958841  0.599042  1
  I  I15  1  0.661572  0.041159  0.900958  1
  I  I16  1  0.045404  0.211539  0.002492  1
  I  I17  1  0.454596  0.211539  0.502492  1
  I  I18  1  0.674187  0.463036  0.919512  1
  I  I19  1  0.545404  0.788461  0.497508  1
  I  I20  1  0.825813  0.463036  0.419512  1
  I  I21  1  0.325813  0.536964  0.080488  1
  I  I22  1  0.174187  0.536964  0.580488  1
  I  I23  1  0.687567  0.774177  0.215734  1
  Eu  Eu24  1  0.973762  0.997011  0.180698  1
  Eu  Eu25  1  0.926797  0.753035  0.493930  1
  Eu  Eu26  1  0.426797  0.246965  0.006070  1
  Eu  Eu27  1  0.073203  0.246965  0.506070  1
  Eu  Eu28  1  0.573203  0.753035  0.993930  1
  Eu  Eu29  1  0.526238  0.997011  0.680698  1
  Eu  Eu30  1  0.026238  0.002989  0.819302  1
  Eu  Eu31  1  0.473762  0.002989  0.319302  1
