# generated using pymatgen
data_Th2P11
_symmetry_space_group_name_H-M   'P 1'
_cell_length_a   10.16134303
_cell_length_b   17.42281566
_cell_length_c   19.14272365
_cell_angle_alpha   116.50830948
_cell_angle_beta   90.00000000
_cell_angle_gamma   90.00000000
_symmetry_Int_Tables_number   1
_chemical_formula_structural   Th2P11
_chemical_formula_sum   'Th24 P132'
_cell_volume   3032.72449313
_cell_formula_units_Z   12
loop_
 _symmetry_equiv_pos_site_id
 _symmetry_equiv_pos_as_xyz
  1  'x, y, z'
loop_
 _atom_site_type_symbol
 _atom_site_label
 _atom_site_symmetry_multiplicity
 _atom_site_fract_x
 _atom_site_fract_y
 _atom_site_fract_z
 _atom_site_occupancy
  P  P0  1  0.107666  0.893558  0.969399  1
  P  P1  1  0.607666  0.606442  0.530601  1
  P  P2  1  0.892334  0.106442  0.030601  1
  P  P3  1  0.392334  0.393558  0.469399  1
  P  P4  1  0.118200  0.573949  0.977660  1
  P  P5  1  0.618200  0.926051  0.522340  1
  P  P6  1  0.881800  0.426051  0.022340  1
  P  P7  1  0.381800  0.073949  0.477660  1
  P  P8  1  0.115799  0.247074  0.980166  1
  P  P9  1  0.615799  0.252926  0.519834  1
  P  P10  1  0.884201  0.752926  0.019834  1
  P  P11  1  0.384201  0.747074  0.480166  1
  P  P12  1  0.098033  0.991294  0.092146  1
  P  P13  1  0.598033  0.508706  0.407854  1
  P  P14  1  0.901967  0.008706  0.907854  1
  P  P15  1  0.401967  0.491294  0.592146  1
  P  P16  1  0.104077  0.650889  0.104053  1
  P  P17  1  0.604077  0.849111  0.395947  1
  P  P18  1  0.895923  0.349111  0.895947  1
  P  P19  1  0.395923  0.150889  0.604053  1
  P  P20  1  0.102493  0.323227  0.106902  1
  P  P21  1  0.602493  0.176773  0.393098  1
  P  P22  1  0.897507  0.676773  0.893098  1
  P  P23  1  0.397507  0.823227  0.606902  1
  P  P24  1  0.390558  0.464954  0.396285  1
  P  P25  1  0.890558  0.035046  0.103715  1
  P  P26  1  0.609442  0.535046  0.603715  1
  P  P27  1  0.109442  0.964954  0.896285  1
  P  P28  1  0.392828  0.834546  0.366087  1
  P  P29  1  0.892828  0.665454  0.133913  1
  P  P30  1  0.607172  0.165454  0.633913  1
  P  P31  1  0.107172  0.334546  0.866087  1
  P  P32  1  0.392036  0.162725  0.361108  1
  P  P33  1  0.892036  0.337275  0.138892  1
  P  P34  1  0.607964  0.837275  0.638892  1
  P  P35  1  0.107964  0.662725  0.861108  1
  P  P36  1  0.599830  0.132102  0.131328  1
  P  P37  1  0.099830  0.367898  0.368672  1
  P  P38  1  0.400170  0.867898  0.868672  1
  P  P39  1  0.900170  0.632102  0.631328  1
  P  P40  1  0.595411  0.467624  0.133970  1
  P  P41  1  0.095411  0.032376  0.366030  1
  P  P42  1  0.404589  0.532376  0.866030  1
  P  P43  1  0.904589  0.967624  0.633970  1
  P  P44  1  0.595123  0.797709  0.132103  1
  P  P45  1  0.095123  0.702291  0.367897  1
  P  P46  1  0.404877  0.202291  0.867897  1
  P  P47  1  0.904877  0.297709  0.632103  1
  P  P48  1  0.610777  0.863343  0.837757  1
  P  P49  1  0.110777  0.636657  0.662243  1
  P  P50  1  0.389223  0.136657  0.162243  1
  P  P51  1  0.889223  0.363343  0.337757  1
  P  P52  1  0.618235  0.521848  0.836712  1
  P  P53  1  0.118235  0.978152  0.663288  1
  P  P54  1  0.381765  0.478152  0.163288  1
  P  P55  1  0.881765  0.021848  0.336712  1
  P  P56  1  0.617201  0.192122  0.834833  1
  P  P57  1  0.117201  0.307878  0.665167  1
  P  P58  1  0.382799  0.807878  0.165167  1
  P  P59  1  0.882799  0.692122  0.334833  1
  P  P60  1  0.601368  0.765968  0.712160  1
  P  P61  1  0.101368  0.734032  0.787840  1
  P  P62  1  0.398632  0.234032  0.287840  1
  P  P63  1  0.898632  0.265968  0.212160  1
  P  P64  1  0.616530  0.437732  0.708369  1
  P  P65  1  0.116530  0.062268  0.791631  1
  P  P66  1  0.383470  0.562268  0.291631  1
  P  P67  1  0.883470  0.937732  0.208369  1
  P  P68  1  0.604811  0.096414  0.708148  1
  P  P69  1  0.104811  0.403586  0.791852  1
  P  P70  1  0.395189  0.903586  0.291852  1
  P  P71  1  0.895189  0.596414  0.208148  1
  P  P72  1  0.395612  0.722762  0.700371  1
  P  P73  1  0.895612  0.777238  0.799629  1
  P  P74  1  0.604388  0.277238  0.299629  1
  P  P75  1  0.104388  0.222762  0.200371  1
  P  P76  1  0.417135  0.379513  0.694478  1
  P  P77  1  0.917135  0.120487  0.805522  1
  P  P78  1  0.582865  0.620487  0.305522  1
  P  P79  1  0.082865  0.879513  0.194478  1
  P  P80  1  0.401635  0.050184  0.699461  1
  P  P81  1  0.901635  0.449816  0.800539  1
  P  P82  1  0.598365  0.949816  0.300539  1
  P  P83  1  0.098365  0.550184  0.199461  1
  P  P84  1  0.406550  0.654802  0.774590  1
  P  P85  1  0.906550  0.845198  0.725410  1
  P  P86  1  0.593450  0.345198  0.225410  1
  P  P87  1  0.093450  0.154802  0.274590  1
  P  P88  1  0.402912  0.318520  0.774284  1
  P  P89  1  0.902912  0.181480  0.725716  1
  P  P90  1  0.597088  0.681480  0.225716  1
  P  P91  1  0.097088  0.818520  0.274284  1
  P  P92  1  0.421352  0.989107  0.778769  1
  P  P93  1  0.921352  0.510893  0.721231  1
  P  P94  1  0.578648  0.010893  0.221231  1
  P  P95  1  0.078648  0.489107  0.278769  1
  P  P96  1  0.393687  0.756557  0.899681  1
  P  P97  1  0.893687  0.743443  0.600319  1
  P  P98  1  0.606313  0.243443  0.100319  1
  P  P99  1  0.106313  0.256557  0.399681  1
  P  P100  1  0.397130  0.423422  0.898691  1
  P  P101  1  0.897130  0.076578  0.601309  1
  P  P102  1  0.602870  0.576578  0.101309  1
  P  P103  1  0.102870  0.923422  0.398691  1
  P  P104  1  0.398489  0.094422  0.901315  1
  P  P105  1  0.898489  0.405578  0.598685  1
  P  P106  1  0.601511  0.905578  0.098685  1
  P  P107  1  0.101511  0.594422  0.401315  1
  P  P108  1  0.603979  0.751360  0.929424  1
  P  P109  1  0.103979  0.748640  0.570576  1
  P  P110  1  0.396021  0.248640  0.070576  1
  P  P111  1  0.896021  0.251360  0.429424  1
  P  P112  1  0.607216  0.427919  0.935203  1
  P  P113  1  0.107216  0.072081  0.564797  1
  P  P114  1  0.392784  0.572081  0.064797  1
  P  P115  1  0.892784  0.927919  0.435203  1
  P  P116  1  0.609172  0.096558  0.936570  1
  P  P117  1  0.109172  0.403442  0.563430  1
  P  P118  1  0.390828  0.903442  0.063430  1
  P  P119  1  0.890828  0.596558  0.436570  1
  P  P120  1  0.396272  0.975023  0.992496  1
  P  P121  1  0.896272  0.524977  0.507504  1
  P  P122  1  0.603728  0.024977  0.007504  1
  P  P123  1  0.103728  0.475023  0.492496  1
  P  P124  1  0.397168  0.639046  0.990394  1
  P  P125  1  0.897168  0.860954  0.509606  1
  P  P126  1  0.602832  0.360954  0.009606  1
  P  P127  1  0.102832  0.139046  0.490394  1
  P  P128  1  0.397545  0.310742  0.992524  1
  P  P129  1  0.897545  0.189258  0.507476  1
  P  P130  1  0.602455  0.689258  0.007476  1
  P  P131  1  0.102455  0.810742  0.492524  1
  Th  Th132  1  0.688401  0.377265  0.463232  1
  Th  Th133  1  0.188401  0.122735  0.036768  1
  Th  Th134  1  0.311599  0.622735  0.536768  1
  Th  Th135  1  0.811599  0.877265  0.963232  1
  Th  Th136  1  0.676998  0.057214  0.468365  1
  Th  Th137  1  0.176998  0.442786  0.031635  1
  Th  Th138  1  0.323002  0.942786  0.531635  1
  Th  Th139  1  0.823002  0.557214  0.968365  1
  Th  Th140  1  0.676425  0.733531  0.472888  1
  Th  Th141  1  0.176425  0.766469  0.027112  1
  Th  Th142  1  0.323575  0.266469  0.527112  1
  Th  Th143  1  0.823575  0.233531  0.972888  1
  Th  Th144  1  0.799037  0.137247  0.265062  1
  Th  Th145  1  0.299037  0.362753  0.234938  1
  Th  Th146  1  0.200963  0.862753  0.734938  1
  Th  Th147  1  0.700963  0.637247  0.765062  1
  Th  Th148  1  0.802696  0.821057  0.273367  1
  Th  Th149  1  0.302696  0.678943  0.226633  1
  Th  Th150  1  0.197304  0.178943  0.726633  1
  Th  Th151  1  0.697304  0.321057  0.773367  1
  Th  Th152  1  0.785645  0.488686  0.278086  1
  Th  Th153  1  0.285645  0.011314  0.221914  1
  Th  Th154  1  0.214355  0.511314  0.721914  1
  Th  Th155  1  0.714355  0.988686  0.778086  1
