# generated using pymatgen
data_Sn3BrF5
_symmetry_space_group_name_H-M   'P 1'
_cell_length_a   4.33112124
_cell_length_b   12.91274237
_cell_length_c   12.99505050
_cell_angle_alpha   90.00000000
_cell_angle_beta   89.90216859
_cell_angle_gamma   90.00000000
_symmetry_Int_Tables_number   1
_chemical_formula_structural   Sn3BrF5
_chemical_formula_sum   'Sn12 Br4 F20'
_cell_volume   726.76861680
_cell_formula_units_Z   4
loop_
 _symmetry_equiv_pos_site_id
 _symmetry_equiv_pos_as_xyz
  1  'x, y, z'
loop_
 _atom_site_type_symbol
 _atom_site_label
 _atom_site_symmetry_multiplicity
 _atom_site_fract_x
 _atom_site_fract_y
 _atom_site_fract_z
 _atom_site_occupancy
  F  F0  1  0.516958  0.346739  0.657748  1
  F  F1  1  0.983042  0.846739  0.842252  1
  F  F2  1  0.483042  0.653261  0.342252  1
  F  F3  1  0.016958  0.153261  0.157748  1
  F  F4  1  0.999438  0.010904  0.624142  1
  F  F5  1  0.500562  0.510904  0.875858  1
  F  F6  1  0.000562  0.989096  0.375858  1
  F  F7  1  0.499438  0.489096  0.124142  1
  F  F8  1  0.075167  0.379163  0.987789  1
  F  F9  1  0.424833  0.879163  0.512211  1
  F  F10  1  0.924833  0.620837  0.012211  1
  F  F11  1  0.575167  0.120837  0.487789  1
  F  F12  1  0.019022  0.226805  0.604572  1
  F  F13  1  0.480978  0.726805  0.895428  1
  F  F14  1  0.980978  0.773195  0.395428  1
  F  F15  1  0.519022  0.273195  0.104572  1
  F  F16  1  0.529086  0.100246  0.273497  1
  F  F17  1  0.970914  0.600246  0.226503  1
  F  F18  1  0.470914  0.899754  0.726503  1
  F  F19  1  0.029086  0.399754  0.773497  1
  Br  Br20  1  0.011805  0.124325  0.877203  1
  Br  Br21  1  0.488195  0.624325  0.622797  1
  Br  Br22  1  0.988195  0.875675  0.122797  1
  Br  Br23  1  0.511805  0.375675  0.377203  1
  Sn  Sn24  1  0.636343  0.124967  0.655581  1
  Sn  Sn25  1  0.863657  0.624967  0.844419  1
  Sn  Sn26  1  0.363657  0.875033  0.344419  1
  Sn  Sn27  1  0.136343  0.375033  0.155581  1
  Sn  Sn28  1  0.419611  0.342587  0.867885  1
  Sn  Sn29  1  0.080389  0.842587  0.632115  1
  Sn  Sn30  1  0.580389  0.657413  0.132115  1
  Sn  Sn31  1  0.919611  0.157413  0.367885  1
  Sn  Sn32  1  0.061472  0.398127  0.602179  1
  Sn  Sn33  1  0.438528  0.898127  0.897821  1
  Sn  Sn34  1  0.938528  0.601873  0.397821  1
  Sn  Sn35  1  0.561472  0.101873  0.102179  1
