# generated using pymatgen
data_Mn(SbO3)2
_symmetry_space_group_name_H-M   'P 1'
_cell_length_a   8.94758665
_cell_length_b   8.94758665
_cell_length_c   4.80724979
_cell_angle_alpha   90.00000000
_cell_angle_beta   90.00000000
_cell_angle_gamma   119.99999998
_symmetry_Int_Tables_number   1
_chemical_formula_structural   Mn(SbO3)2
_chemical_formula_sum   'Mn3 Sb6 O18'
_cell_volume   333.30294152
_cell_formula_units_Z   3
loop_
 _symmetry_equiv_pos_site_id
 _symmetry_equiv_pos_as_xyz
  1  'x, y, z'
loop_
 _atom_site_type_symbol
 _atom_site_label
 _atom_site_symmetry_multiplicity
 _atom_site_fract_x
 _atom_site_fract_y
 _atom_site_fract_z
 _atom_site_occupancy
  O  O0  1  0.778943  0.224514  0.717051  1
  O  O1  1  0.775486  0.554429  0.717051  1
  O  O2  1  0.445571  0.221057  0.717051  1
  O  O3  1  0.554429  0.775486  0.282949  1
  O  O4  1  0.221057  0.445571  0.282949  1
  O  O5  1  0.224514  0.778943  0.282949  1
  O  O6  1  0.588961  0.471932  0.269229  1
  O  O7  1  0.528068  0.117029  0.269229  1
  O  O8  1  0.882971  0.411039  0.269229  1
  O  O9  1  0.103303  0.889710  0.764025  1
  O  O10  1  0.110290  0.213593  0.764025  1
  O  O11  1  0.786407  0.896697  0.764025  1
  O  O12  1  0.213593  0.110290  0.235975  1
  O  O13  1  0.896697  0.786407  0.235975  1
  O  O14  1  0.889710  0.103303  0.235975  1
  O  O15  1  0.471932  0.588961  0.730771  1
  O  O16  1  0.411039  0.882971  0.730771  1
  O  O17  1  0.117029  0.528068  0.730771  1
  Mn  Mn18  1  0.366828  0.366828  0.000000  1
  Mn  Mn19  1  0.000000  0.633172  0.000000  1
  Mn  Mn20  1  0.633172  0.000000  0.000000  1
  Sb  Sb21  1  0.694868  0.694868  0.500000  1
  Sb  Sb22  1  0.000000  0.305132  0.500000  1
  Sb  Sb23  1  0.305132  0.000000  0.500000  1
  Sb  Sb24  1  0.666667  0.333333  0.490687  1
  Sb  Sb25  1  0.333333  0.666667  0.509313  1
  Sb  Sb26  1  0.000000  0.000000  0.000000  1
