# generated using pymatgen
data_CeCrSe3
_symmetry_space_group_name_H-M   'P 1'
_cell_length_a   3.97624830
_cell_length_b   8.14979819
_cell_length_c   13.64741779
_cell_angle_alpha   90.00000000
_cell_angle_beta   90.00000000
_cell_angle_gamma   90.00000000
_symmetry_Int_Tables_number   1
_chemical_formula_structural   CeCrSe3
_chemical_formula_sum   'Ce4 Cr4 Se12'
_cell_volume   442.25305124
_cell_formula_units_Z   4
loop_
 _symmetry_equiv_pos_site_id
 _symmetry_equiv_pos_as_xyz
  1  'x, y, z'
loop_
 _atom_site_type_symbol
 _atom_site_label
 _atom_site_symmetry_multiplicity
 _atom_site_fract_x
 _atom_site_fract_y
 _atom_site_fract_z
 _atom_site_occupancy
  Cr  Cr0  1  0.250000  0.838712  0.448002  1
  Cr  Cr1  1  0.750000  0.161288  0.551998  1
  Cr  Cr2  1  0.250000  0.338712  0.051998  1
  Cr  Cr3  1  0.750000  0.661288  0.948002  1
  Se  Se4  1  0.750000  0.514405  0.109323  1
  Se  Se5  1  0.250000  0.485595  0.890677  1
  Se  Se6  1  0.750000  0.014405  0.390677  1
  Se  Se7  1  0.250000  0.985595  0.609323  1
  Se  Se8  1  0.750000  0.811523  0.786451  1
  Se  Se9  1  0.250000  0.188477  0.213549  1
  Se  Se10  1  0.750000  0.311523  0.713549  1
  Se  Se11  1  0.250000  0.688477  0.286451  1
  Se  Se12  1  0.750000  0.657034  0.505603  1
  Se  Se13  1  0.250000  0.342966  0.494397  1
  Se  Se14  1  0.750000  0.157034  0.994397  1
  Se  Se15  1  0.250000  0.842966  0.005603  1
  Ce  Ce16  1  0.250000  0.594337  0.671954  1
  Ce  Ce17  1  0.750000  0.405663  0.328046  1
  Ce  Ce18  1  0.250000  0.094337  0.828046  1
  Ce  Ce19  1  0.750000  0.905663  0.171954  1
