# generated using pymatgen
data_Ba2Tb2Co4O11
_symmetry_space_group_name_H-M   'P 1'
_cell_length_a   3.92112667
_cell_length_b   7.68919976
_cell_length_c   7.86510730
_cell_angle_alpha   90.00000000
_cell_angle_beta   90.00000000
_cell_angle_gamma   90.00000000
_symmetry_Int_Tables_number   1
_chemical_formula_structural   Ba2Tb2Co4O11
_chemical_formula_sum   'Ba2 Tb2 Co4 O11'
_cell_volume   237.13555109
_cell_formula_units_Z   1
loop_
 _symmetry_equiv_pos_site_id
 _symmetry_equiv_pos_as_xyz
  1  'x, y, z'
loop_
 _atom_site_type_symbol
 _atom_site_label
 _atom_site_symmetry_multiplicity
 _atom_site_fract_x
 _atom_site_fract_y
 _atom_site_fract_z
 _atom_site_occupancy
  O  O0  1  0.000000  0.302950  0.770472  1
  O  O1  1  0.000000  0.697050  0.229528  1
  O  O2  1  0.000000  0.302950  0.229528  1
  O  O3  1  0.000000  0.697050  0.770472  1
  O  O4  1  0.500001  0.277985  0.499999  1
  O  O5  1  0.500001  0.722016  0.499999  1
  O  O6  1  0.500001  0.315695  0.000000  1
  O  O7  1  0.500001  0.684305  0.000000  1
  O  O8  1  0.000000  0.000000  0.000000  1
  O  O9  1  0.000000  0.500000  0.499999  1
  O  O10  1  0.000000  0.000000  0.499999  1
  Co  Co11  1  0.000000  0.259998  0.000000  1
  Co  Co12  1  0.000000  0.740002  0.000000  1
  Co  Co13  1  0.000000  0.746022  0.499999  1
  Co  Co14  1  0.000000  0.253978  0.499999  1
  Ba  Ba15  1  0.500001  0.000000  0.750529  1
  Ba  Ba16  1  0.500001  0.000000  0.249471  1
  Tb  Tb17  1  0.500001  0.500000  0.272014  1
  Tb  Tb18  1  0.500001  0.500000  0.727986  1
