# generated using pymatgen
data_LiNiPO4
_symmetry_space_group_name_H-M   'P 1'
_cell_length_a   10.15449353
_cell_length_b   5.91994350
_cell_length_c   4.72688624
_cell_angle_alpha   90.00000000
_cell_angle_beta   90.00000000
_cell_angle_gamma   90.00000000
_symmetry_Int_Tables_number   1
_chemical_formula_structural   LiNiPO4
_chemical_formula_sum   'Li4 Ni4 P4 O16'
_cell_volume   284.15217164
_cell_formula_units_Z   4
loop_
 _symmetry_equiv_pos_site_id
 _symmetry_equiv_pos_as_xyz
  1  'x, y, z'
loop_
 _atom_site_type_symbol
 _atom_site_label
 _atom_site_symmetry_multiplicity
 _atom_site_fract_x
 _atom_site_fract_y
 _atom_site_fract_z
 _atom_site_occupancy
  Li  Li0  1  0.000000  0.000000  0.000000  1
  Li  Li1  1  0.000000  0.500001  0.000000  1
  Li  Li2  1  0.500000  0.000000  0.500000  1
  Li  Li3  1  0.500000  0.500001  0.500000  1
  O  O4  1  0.099247  0.250000  0.743434  1
  O  O5  1  0.900754  0.750000  0.256566  1
  O  O6  1  0.834302  0.957525  0.722241  1
  O  O7  1  0.834302  0.542476  0.722241  1
  O  O8  1  0.048398  0.750000  0.700450  1
  O  O9  1  0.951601  0.250000  0.299550  1
  O  O10  1  0.165698  0.042475  0.277761  1
  O  O11  1  0.165698  0.457524  0.277761  1
  O  O12  1  0.334301  0.542476  0.777761  1
  O  O13  1  0.334301  0.957525  0.777761  1
  O  O14  1  0.665698  0.457524  0.222241  1
  O  O15  1  0.451602  0.250000  0.200450  1
  O  O16  1  0.548399  0.750000  0.799550  1
  O  O17  1  0.599247  0.250000  0.756566  1
  O  O18  1  0.665698  0.042475  0.222241  1
  O  O19  1  0.400754  0.750000  0.243434  1
  P  P20  1  0.905775  0.750000  0.581279  1
  P  P21  1  0.594226  0.250000  0.081279  1
  P  P22  1  0.405775  0.750000  0.918721  1
  P  P23  1  0.094225  0.250000  0.418721  1
  Ni  Ni24  1  0.224606  0.750000  0.484048  1
  Ni  Ni25  1  0.275394  0.250000  0.984048  1
  Ni  Ni26  1  0.724606  0.750000  0.015952  1
  Ni  Ni27  1  0.775395  0.250000  0.515952  1
