# generated using pymatgen
data_Mg2VBiO6
_symmetry_space_group_name_H-M   'P 1'
_cell_length_a   5.52463374
_cell_length_b   8.01462682
_cell_length_c   12.49227741
_cell_angle_alpha   90.00000000
_cell_angle_beta   90.00000000
_cell_angle_gamma   90.00000000
_symmetry_Int_Tables_number   1
_chemical_formula_structural   Mg2VBiO6
_chemical_formula_sum   'Mg8 V4 Bi4 O24'
_cell_volume   553.13153190
_cell_formula_units_Z   4
loop_
 _symmetry_equiv_pos_site_id
 _symmetry_equiv_pos_as_xyz
  1  'x, y, z'
loop_
 _atom_site_type_symbol
 _atom_site_label
 _atom_site_symmetry_multiplicity
 _atom_site_fract_x
 _atom_site_fract_y
 _atom_site_fract_z
 _atom_site_occupancy
  O  O0  1  0.749999  0.789151  0.240779  1
  O  O1  1  0.250000  0.210849  0.759220  1
  O  O2  1  0.250000  0.289151  0.259220  1
  O  O3  1  0.749999  0.710848  0.740780  1
  O  O4  1  0.250000  0.636552  0.293524  1
  O  O5  1  0.749999  0.363448  0.706476  1
  O  O6  1  0.749999  0.136552  0.206476  1
  O  O7  1  0.250000  0.863448  0.793524  1
  O  O8  1  0.502107  0.671317  0.507382  1
  O  O9  1  0.002106  0.328683  0.492618  1
  O  O10  1  0.497895  0.171317  0.992618  1
  O  O11  1  0.997893  0.828683  0.007382  1
  O  O12  1  0.497895  0.328683  0.492618  1
  O  O13  1  0.997893  0.671317  0.507382  1
  O  O14  1  0.502107  0.828683  0.007382  1
  O  O15  1  0.002106  0.171317  0.992618  1
  O  O16  1  0.989666  0.006561  0.617279  1
  O  O17  1  0.489665  0.993439  0.382721  1
  O  O18  1  0.010336  0.506561  0.882721  1
  O  O19  1  0.510334  0.493440  0.117280  1
  O  O20  1  0.489665  0.506561  0.882721  1
  O  O21  1  0.510334  0.006561  0.617279  1
  O  O22  1  0.989666  0.493440  0.117280  1
  O  O23  1  0.010336  0.993439  0.382721  1
  Mg  Mg24  1  0.250000  0.187804  0.405249  1
  Mg  Mg25  1  0.749999  0.812197  0.594751  1
  Mg  Mg26  1  0.749999  0.687803  0.094751  1
  Mg  Mg27  1  0.250000  0.312197  0.905249  1
  Mg  Mg28  1  0.749999  0.198760  0.584737  1
  Mg  Mg29  1  0.749999  0.301239  0.084738  1
  Mg  Mg30  1  0.250000  0.698760  0.915263  1
  Mg  Mg31  1  0.250000  0.801240  0.415263  1
  V  V32  1  0.250000  0.018667  0.698411  1
  V  V33  1  0.749999  0.518667  0.801589  1
  V  V34  1  0.749999  0.981334  0.301590  1
  V  V35  1  0.250000  0.481333  0.198411  1
  Bi  Bi36  1  0.749999  0.512724  0.409287  1
  Bi  Bi37  1  0.250000  0.487276  0.590713  1
  Bi  Bi38  1  0.250000  0.012723  0.090714  1
  Bi  Bi39  1  0.749999  0.987277  0.909287  1
