# generated using pymatgen
data_Zr2Se
_symmetry_space_group_name_H-M   'P 1'
_cell_length_a   3.64069979
_cell_length_b   12.72777034
_cell_length_c   15.90645679
_cell_angle_alpha   90.00000000
_cell_angle_beta   90.00000000
_cell_angle_gamma   90.00000000
_symmetry_Int_Tables_number   1
_chemical_formula_structural   Zr2Se
_chemical_formula_sum   'Zr24 Se12'
_cell_volume   737.07324846
_cell_formula_units_Z   12
loop_
 _symmetry_equiv_pos_site_id
 _symmetry_equiv_pos_as_xyz
  1  'x, y, z'
loop_
 _atom_site_type_symbol
 _atom_site_label
 _atom_site_symmetry_multiplicity
 _atom_site_fract_x
 _atom_site_fract_y
 _atom_site_fract_z
 _atom_site_occupancy
  Se  Se0  1  0.000000  0.579112  0.793242  1
  Se  Se1  1  0.000000  0.420888  0.206758  1
  Se  Se2  1  0.500000  0.079112  0.706758  1
  Se  Se3  1  0.500000  0.920888  0.293242  1
  Se  Se4  1  0.000000  0.754549  0.580251  1
  Se  Se5  1  0.000000  0.245451  0.419749  1
  Se  Se6  1  0.500000  0.254549  0.919749  1
  Se  Se7  1  0.500000  0.745451  0.080251  1
  Se  Se8  1  0.000000  0.317172  0.651887  1
  Se  Se9  1  0.000000  0.682828  0.348113  1
  Se  Se10  1  0.500000  0.817172  0.848113  1
  Se  Se11  1  0.500000  0.182828  0.151887  1
  Zr  Zr12  1  0.000000  0.850317  0.976216  1
  Zr  Zr13  1  0.000000  0.149683  0.023784  1
  Zr  Zr14  1  0.500000  0.350317  0.523784  1
  Zr  Zr15  1  0.500000  0.649683  0.476216  1
  Zr  Zr16  1  0.000000  0.922754  0.746901  1
  Zr  Zr17  1  0.000000  0.077246  0.253099  1
  Zr  Zr18  1  0.500000  0.422754  0.753099  1
  Zr  Zr19  1  0.500000  0.577246  0.246901  1
  Zr  Zr20  1  0.000000  0.416863  0.919804  1
  Zr  Zr21  1  0.000000  0.583137  0.080196  1
  Zr  Zr22  1  0.500000  0.916863  0.580196  1
  Zr  Zr23  1  0.500000  0.083137  0.419804  1
  Zr  Zr24  1  0.000000  0.532467  0.609694  1
  Zr  Zr25  1  0.000000  0.467533  0.390306  1
  Zr  Zr26  1  0.500000  0.032467  0.890306  1
  Zr  Zr27  1  0.500000  0.967533  0.109694  1
  Zr  Zr28  1  0.000000  0.199418  0.796804  1
  Zr  Zr29  1  0.000000  0.800582  0.203196  1
  Zr  Zr30  1  0.500000  0.699418  0.703196  1
  Zr  Zr31  1  0.500000  0.300582  0.296804  1
  Zr  Zr32  1  0.000000  0.122749  0.576031  1
  Zr  Zr33  1  0.000000  0.877251  0.423969  1
  Zr  Zr34  1  0.500000  0.622749  0.923969  1
  Zr  Zr35  1  0.500000  0.377251  0.076031  1
