# generated using pymatgen
data_Er2CrS4
_symmetry_space_group_name_H-M   'P 1'
_cell_length_a   7.44033833
_cell_length_b   12.51851441
_cell_length_c   12.47331695
_cell_angle_alpha   90.00000000
_cell_angle_beta   90.00000000
_cell_angle_gamma   90.00000000
_symmetry_Int_Tables_number   1
_chemical_formula_structural   Er2CrS4
_chemical_formula_sum   'Er16 Cr8 S32'
_cell_volume   1161.78947031
_cell_formula_units_Z   8
loop_
 _symmetry_equiv_pos_site_id
 _symmetry_equiv_pos_as_xyz
  1  'x, y, z'
loop_
 _atom_site_type_symbol
 _atom_site_label
 _atom_site_symmetry_multiplicity
 _atom_site_fract_x
 _atom_site_fract_y
 _atom_site_fract_z
 _atom_site_occupancy
  S  S0  1  0.381554  0.072855  0.790732  1
  S  S1  1  0.618446  0.572855  0.209268  1
  S  S2  1  0.618446  0.072855  0.290732  1
  S  S3  1  0.381554  0.572855  0.709268  1
  S  S4  1  0.125794  0.203800  0.024894  1
  S  S5  1  0.874206  0.703800  0.975106  1
  S  S6  1  0.874206  0.203800  0.524894  1
  S  S7  1  0.125794  0.703800  0.475106  1
  S  S8  1  0.638556  0.298187  0.728979  1
  S  S9  1  0.361444  0.798188  0.271021  1
  S  S10  1  0.361444  0.298187  0.228979  1
  S  S11  1  0.638556  0.798188  0.771021  1
  S  S12  1  0.141670  0.293731  0.735120  1
  S  S13  1  0.858330  0.793731  0.264880  1
  S  S14  1  0.858330  0.293731  0.235120  1
  S  S15  1  0.141670  0.793731  0.764880  1
  S  S16  1  0.616994  0.192248  0.009026  1
  S  S17  1  0.383006  0.692248  0.990974  1
  S  S18  1  0.383006  0.192248  0.509026  1
  S  S19  1  0.616994  0.692248  0.490974  1
  S  S20  1  0.375872  0.931067  0.549410  1
  S  S21  1  0.624128  0.431067  0.450590  1
  S  S22  1  0.624128  0.931067  0.049410  1
  S  S23  1  0.375872  0.431067  0.950590  1
  S  S24  1  0.881873  0.548096  0.710733  1
  S  S25  1  0.118127  0.048096  0.289267  1
  S  S26  1  0.118127  0.548096  0.210733  1
  S  S27  1  0.881873  0.048096  0.789267  1
  S  S28  1  0.883692  0.940891  0.528905  1
  S  S29  1  0.116308  0.440891  0.471095  1
  S  S30  1  0.116308  0.940891  0.028905  1
  S  S31  1  0.883692  0.440891  0.971095  1
  Cr  Cr32  1  0.380488  0.248255  0.872887  1
  Cr  Cr33  1  0.619512  0.748255  0.127113  1
  Cr  Cr34  1  0.619512  0.248255  0.372887  1
  Cr  Cr35  1  0.380488  0.748255  0.627113  1
  Cr  Cr36  1  0.116107  0.377692  0.110774  1
  Cr  Cr37  1  0.883893  0.877692  0.889226  1
  Cr  Cr38  1  0.883893  0.377692  0.610774  1
  Cr  Cr39  1  0.116107  0.877692  0.389226  1
  Er  Er40  1  0.613713  0.384783  0.107422  1
  Er  Er41  1  0.386287  0.884783  0.892578  1
  Er  Er42  1  0.386287  0.384783  0.607422  1
  Er  Er43  1  0.613713  0.884783  0.392578  1
  Er  Er44  1  0.884521  0.245497  0.872223  1
  Er  Er45  1  0.115479  0.745497  0.127777  1
  Er  Er46  1  0.115479  0.245497  0.372223  1
  Er  Er47  1  0.884521  0.745497  0.627777  1
  Er  Er48  1  0.130857  0.078585  0.633756  1
  Er  Er49  1  0.869143  0.578585  0.366244  1
  Er  Er50  1  0.869143  0.078585  0.133756  1
  Er  Er51  1  0.130857  0.578585  0.866244  1
  Er  Er52  1  0.631263  0.080021  0.634370  1
  Er  Er53  1  0.368737  0.580021  0.365630  1
  Er  Er54  1  0.368737  0.080021  0.134370  1
  Er  Er55  1  0.631263  0.580021  0.865630  1
