# generated using pymatgen
data_Rb6Si10O23
_symmetry_space_group_name_H-M   'P 1'
_cell_length_a   8.19073732
_cell_length_b   9.47486648
_cell_length_c   9.54380425
_cell_angle_alpha   119.76134139
_cell_angle_beta   90.00000000
_cell_angle_gamma   90.00000000
_symmetry_Int_Tables_number   1
_chemical_formula_structural   Rb6Si10O23
_chemical_formula_sum   'Rb6 Si10 O23'
_cell_volume   642.96548975
_cell_formula_units_Z   1
loop_
 _symmetry_equiv_pos_site_id
 _symmetry_equiv_pos_as_xyz
  1  'x, y, z'
loop_
 _atom_site_type_symbol
 _atom_site_label
 _atom_site_symmetry_multiplicity
 _atom_site_fract_x
 _atom_site_fract_y
 _atom_site_fract_z
 _atom_site_occupancy
  O  O0  1  0.195173  0.150628  0.570818  1
  O  O1  1  0.804827  0.579810  0.429182  1
  O  O2  1  0.804827  0.150628  0.570818  1
  O  O3  1  0.195173  0.579810  0.429182  1
  O  O4  1  0.296345  0.851710  0.428302  1
  O  O5  1  0.703655  0.423408  0.571698  1
  O  O6  1  0.703655  0.851710  0.428302  1
  O  O7  1  0.296345  0.423408  0.571698  1
  O  O8  1  0.249918  0.998339  0.242499  1
  O  O9  1  0.750082  0.755840  0.757501  1
  O  O10  1  0.750082  0.998339  0.242499  1
  O  O11  1  0.249918  0.755840  0.757501  1
  O  O12  1  0.267419  0.573118  0.153127  1
  O  O13  1  0.732581  0.419990  0.846873  1
  O  O14  1  0.732581  0.573118  0.153127  1
  O  O15  1  0.267419  0.419990  0.846873  1
  O  O16  1  0.000000  0.427621  0.000000  1
  O  O17  1  0.000000  0.539635  0.623905  1
  O  O18  1  0.000000  0.915730  0.376095  1
  O  O19  1  0.500000  0.244808  0.634377  1
  O  O20  1  0.500000  0.610432  0.365623  1
  O  O21  1  0.248264  0.236956  0.000000  1
  O  O22  1  0.751736  0.236956  0.000000  1
  Si  Si23  1  0.311400  0.654760  0.343867  1
  Si  Si24  1  0.688600  0.310893  0.656133  1
  Si  Si25  1  0.688600  0.654760  0.343867  1
  Si  Si26  1  0.311400  0.310893  0.656133  1
  Si  Si27  1  0.190808  0.980594  0.390963  1
  Si  Si28  1  0.809192  0.589631  0.609037  1
  Si  Si29  1  0.809192  0.980594  0.390963  1
  Si  Si30  1  0.190808  0.589631  0.609037  1
  Si  Si31  1  0.801470  0.398412  0.000000  1
  Si  Si32  1  0.198530  0.398412  0.000000  1
  Rb  Rb33  1  0.500000  0.989736  0.761461  1
  Rb  Rb34  1  0.500000  0.228275  0.238539  1
  Rb  Rb35  1  0.000000  0.999614  0.758025  1
  Rb  Rb36  1  0.000000  0.241589  0.241975  1
  Rb  Rb37  1  0.500000  0.749679  0.000000  1
  Rb  Rb38  1  0.000000  0.755903  0.000000  1
