# generated using pymatgen
data_UH12(ClO2)3
_symmetry_space_group_name_H-M   'P 1'
_cell_length_a   6.68909471
_cell_length_b   8.04609752
_cell_length_c   9.79008428
_cell_angle_alpha   93.09756421
_cell_angle_beta   90.00000000
_cell_angle_gamma   90.00000000
_symmetry_Int_Tables_number   1
_chemical_formula_structural   UH12(ClO2)3
_chemical_formula_sum   'U2 H24 Cl6 O12'
_cell_volume   526.14335039
_cell_formula_units_Z   2
loop_
 _symmetry_equiv_pos_site_id
 _symmetry_equiv_pos_as_xyz
  1  'x, y, z'
loop_
 _atom_site_type_symbol
 _atom_site_label
 _atom_site_symmetry_multiplicity
 _atom_site_fract_x
 _atom_site_fract_y
 _atom_site_fract_z
 _atom_site_occupancy
  H  H0  1  0.744617  0.489930  0.967491  1
  H  H1  1  0.744617  0.010070  0.532509  1
  H  H2  1  0.255383  0.510070  0.032509  1
  H  H3  1  0.255383  0.989930  0.467491  1
  H  H4  1  0.667288  0.658457  0.036267  1
  H  H5  1  0.667288  0.841543  0.463733  1
  H  H6  1  0.332712  0.341543  0.963733  1
  H  H7  1  0.332712  0.158457  0.536267  1
  H  H8  1  0.444939  0.640047  0.613776  1
  H  H9  1  0.444939  0.859953  0.886224  1
  H  H10  1  0.555061  0.359953  0.386223  1
  H  H11  1  0.555061  0.140047  0.113777  1
  H  H12  1  0.520838  0.478398  0.681962  1
  H  H13  1  0.520838  0.021602  0.818038  1
  H  H14  1  0.479162  0.521602  0.318038  1
  H  H15  1  0.479162  0.978398  0.181962  1
  H  H16  1  0.909727  0.117626  0.868252  1
  H  H17  1  0.909727  0.382374  0.631748  1
  H  H18  1  0.090273  0.882374  0.131748  1
  H  H19  1  0.090273  0.617626  0.368252  1
  H  H20  1  0.912732  0.595642  0.263339  1
  H  H21  1  0.912732  0.904358  0.236661  1
  H  H22  1  0.087268  0.404358  0.736661  1
  H  H23  1  0.087268  0.095642  0.763339  1
  O  O24  1  0.705261  0.604746  0.946805  1
  O  O25  1  0.705261  0.895254  0.553195  1
  O  O26  1  0.294739  0.395254  0.053195  1
  O  O27  1  0.294739  0.104746  0.446805  1
  O  O28  1  0.567395  0.584286  0.646222  1
  O  O29  1  0.567395  0.915714  0.853778  1
  O  O30  1  0.432605  0.415714  0.353778  1
  O  O31  1  0.432605  0.084286  0.146222  1
  O  O32  1  0.955385  0.049902  0.786259  1
  O  O33  1  0.955385  0.450098  0.713741  1
  O  O34  1  0.044615  0.950098  0.213741  1
  O  O35  1  0.044615  0.549902  0.286259  1
  Cl  Cl36  1  0.176400  0.758197  0.553247  1
  Cl  Cl37  1  0.176400  0.741803  0.946753  1
  Cl  Cl38  1  0.823600  0.241803  0.446753  1
  Cl  Cl39  1  0.823600  0.258197  0.053247  1
  Cl  Cl40  1  0.632380  0.750000  0.250000  1
  Cl  Cl41  1  0.367620  0.250000  0.750000  1
  U  U42  1  0.849532  0.750000  0.750000  1
  U  U43  1  0.150468  0.250000  0.250000  1
