# generated using pymatgen
data_Li2CuPO4
_symmetry_space_group_name_H-M   'P 1'
_cell_length_a   6.17526226
_cell_length_b   5.41788241
_cell_length_c   5.05214753
_cell_angle_alpha   90.00000000
_cell_angle_beta   89.86999942
_cell_angle_gamma   90.00000000
_symmetry_Int_Tables_number   1
_chemical_formula_structural   Li2CuPO4
_chemical_formula_sum   'Li4 Cu2 P2 O8'
_cell_volume   169.02848055
_cell_formula_units_Z   2
loop_
 _symmetry_equiv_pos_site_id
 _symmetry_equiv_pos_as_xyz
  1  'x, y, z'
loop_
 _atom_site_type_symbol
 _atom_site_label
 _atom_site_symmetry_multiplicity
 _atom_site_fract_x
 _atom_site_fract_y
 _atom_site_fract_z
 _atom_site_occupancy
  Li  Li0  1  0.500000  0.149727  0.001303  1
  Li  Li1  1  0.246320  0.670261  0.000773  1
  Li  Li2  1  -0.000000  0.850273  0.501303  1
  Li  Li3  1  0.746320  0.329739  0.500773  1
  Cu  Cu4  1  0.755479  0.656055  0.006199  1
  Cu  Cu5  1  0.255479  0.343945  0.506199  1
  P  P6  1  0.000029  0.170722  0.004962  1
  P  P7  1  0.500029  0.829278  0.504962  1
  O  O8  1  0.510778  0.098931  0.397842  1
  O  O9  1  0.010778  0.901069  0.897842  1
  O  O10  1  0.207772  0.314180  0.915447  1
  O  O11  1  0.989573  0.171547  0.312877  1
  O  O12  1  0.707772  0.685820  0.415447  1
  O  O13  1  0.489573  0.828453  0.812877  1
  O  O14  1  0.791351  0.295790  0.890697  1
  O  O15  1  0.291351  0.704210  0.390697  1
