# generated using pymatgen
data_SrGe
_symmetry_space_group_name_H-M   'P 1'
_cell_length_a   4.22177979
_cell_length_b   4.85360112
_cell_length_c   6.23106319
_cell_angle_alpha   112.92140929
_cell_angle_beta   90.00000000
_cell_angle_gamma   90.00000000
_symmetry_Int_Tables_number   1
_chemical_formula_structural   SrGe
_chemical_formula_sum   'Sr2 Ge2'
_cell_volume   117.59809264
_cell_formula_units_Z   2
loop_
 _symmetry_equiv_pos_site_id
 _symmetry_equiv_pos_as_xyz
  1  'x, y, z'
loop_
 _atom_site_type_symbol
 _atom_site_label
 _atom_site_symmetry_multiplicity
 _atom_site_fract_x
 _atom_site_fract_y
 _atom_site_fract_z
 _atom_site_occupancy
  Ge  Ge0  1  0.750000  0.429206  0.858412  1
  Ge  Ge1  1  0.250000  0.570794  0.141588  1
  Sr  Sr2  1  0.750000  0.136847  0.273695  1
  Sr  Sr3  1  0.250000  0.863153  0.726305  1
