# generated using pymatgen
data_Zn2Ge3O8
_symmetry_space_group_name_H-M   'P 1'
_cell_length_a   8.34598822
_cell_length_b   8.34598822
_cell_length_c   8.34598822
_cell_angle_alpha   90.00000000
_cell_angle_beta   90.00000000
_cell_angle_gamma   90.00000000
_symmetry_Int_Tables_number   1
_chemical_formula_structural   Zn2Ge3O8
_chemical_formula_sum   'Zn8 Ge12 O32'
_cell_volume   581.34414411
_cell_formula_units_Z   4
loop_
 _symmetry_equiv_pos_site_id
 _symmetry_equiv_pos_as_xyz
  1  'x, y, z'
loop_
 _atom_site_type_symbol
 _atom_site_label
 _atom_site_symmetry_multiplicity
 _atom_site_fract_x
 _atom_site_fract_y
 _atom_site_fract_z
 _atom_site_occupancy
  O  O0  1  0.861706  0.861706  0.861706  1
  O  O1  1  0.611706  0.888294  0.111706  1
  O  O2  1  0.888294  0.111706  0.611706  1
  O  O3  1  0.111706  0.611706  0.888294  1
  O  O4  1  0.361706  0.638294  0.138294  1
  O  O5  1  0.638294  0.138294  0.361706  1
  O  O6  1  0.138294  0.361706  0.638294  1
  O  O7  1  0.388294  0.388294  0.388294  1
  O  O8  1  0.151451  0.854381  0.110393  1
  O  O9  1  0.651451  0.645619  0.889607  1
  O  O10  1  0.854381  0.110393  0.151451  1
  O  O11  1  0.145619  0.610393  0.348549  1
  O  O12  1  0.110393  0.151451  0.854381  1
  O  O13  1  0.389607  0.848549  0.354381  1
  O  O14  1  0.401451  0.860393  0.895619  1
  O  O15  1  0.901451  0.639607  0.104381  1
  O  O16  1  0.598549  0.360393  0.604381  1
  O  O17  1  0.639607  0.104381  0.901451  1
  O  O18  1  0.604381  0.598549  0.360393  1
  O  O19  1  0.104381  0.901451  0.639607  1
  O  O20  1  0.098549  0.139607  0.395619  1
  O  O21  1  0.848549  0.354381  0.389607  1
  O  O22  1  0.348549  0.145619  0.610393  1
  O  O23  1  0.645619  0.889607  0.651451  1
  O  O24  1  0.354381  0.389607  0.848549  1
  O  O25  1  0.610393  0.348549  0.145619  1
  O  O26  1  0.889607  0.651451  0.645619  1
  O  O27  1  0.395619  0.098549  0.139607  1
  O  O28  1  0.139607  0.395619  0.098549  1
  O  O29  1  0.360393  0.604381  0.598549  1
  O  O30  1  0.895619  0.401451  0.860393  1
  O  O31  1  0.860393  0.895619  0.401451  1
  Zn  Zn32  1  0.248317  0.248317  0.248317  1
  Zn  Zn33  1  -0.001683  0.501683  0.498317  1
  Zn  Zn34  1  0.501683  0.498317  -0.001683  1
  Zn  Zn35  1  0.498317  -0.001683  0.501683  1
  Zn  Zn36  1  0.748317  0.251683  0.751683  1
  Zn  Zn37  1  0.251683  0.751683  0.748317  1
  Zn  Zn38  1  0.751683  0.748317  0.251683  1
  Zn  Zn39  1  1.001683  1.001683  1.001683  1
  Ge  Ge40  1  0.625000  0.129264  0.120736  1
  Ge  Ge41  1  0.620736  0.875000  0.870736  1
  Ge  Ge42  1  0.629264  0.379264  0.375000  1
  Ge  Ge43  1  0.370736  0.879264  0.125000  1
  Ge  Ge44  1  0.879264  0.125000  0.370736  1
  Ge  Ge45  1  0.120736  0.625000  0.129264  1
  Ge  Ge46  1  0.379264  0.375000  0.629264  1
  Ge  Ge47  1  0.870736  0.620736  0.875000  1
  Ge  Ge48  1  0.129264  0.120736  0.625000  1
  Ge  Ge49  1  0.375000  0.629264  0.379264  1
  Ge  Ge50  1  0.875000  0.870736  0.620736  1
  Ge  Ge51  1  0.125000  0.370736  0.879264  1
