# generated using pymatgen
data_Na5Zr2F13
_symmetry_space_group_name_H-M   'P 1'
_cell_length_a   5.74750937
_cell_length_b   6.64432057
_cell_length_c   9.18925161
_cell_angle_alpha   93.83375867
_cell_angle_beta   90.00000000
_cell_angle_gamma   115.62714427
_symmetry_Int_Tables_number   1
_chemical_formula_structural   Na5Zr2F13
_chemical_formula_sum   'Na5 Zr2 F13'
_cell_volume   315.52968795
_cell_formula_units_Z   1
loop_
 _symmetry_equiv_pos_site_id
 _symmetry_equiv_pos_as_xyz
  1  'x, y, z'
loop_
 _atom_site_type_symbol
 _atom_site_label
 _atom_site_symmetry_multiplicity
 _atom_site_fract_x
 _atom_site_fract_y
 _atom_site_fract_z
 _atom_site_occupancy
  F  F0  1  0.356004  0.288469  0.397207  1
  F  F1  1  0.727062  0.890186  0.265467  1
  F  F2  1  0.000000  0.000000  0.000000  1
  F  F3  1  0.948854  0.353249  0.116459  1
  F  F4  1  0.595605  0.646751  0.883541  1
  F  F5  1  0.051146  0.646751  0.883541  1
  F  F6  1  0.404395  0.353249  0.116459  1
  F  F7  1  0.932464  0.288469  0.397207  1
  F  F8  1  0.272938  0.109814  0.734533  1
  F  F9  1  0.067536  0.711531  0.602793  1
  F  F10  1  0.643996  0.711531  0.602793  1
  F  F11  1  0.163123  0.890186  0.265467  1
  F  F12  1  0.836877  0.109814  0.734533  1
  Na  Na13  1  0.192937  0.385873  0.893407  1
  Na  Na14  1  0.339766  0.679532  0.419680  1
  Na  Na15  1  0.000000  0.000000  0.500000  1
  Na  Na16  1  0.660234  0.320468  0.580320  1
  Na  Na17  1  0.807063  0.614127  0.106593  1
  Zr  Zr18  1  0.919051  0.838101  0.778735  1
  Zr  Zr19  1  0.080949  0.161899  0.221265  1
