# generated using pymatgen
data_Ho5(Ge5Rh2)2
_symmetry_space_group_name_H-M   'P 1'
_cell_length_a   4.30077863
_cell_length_b   13.05410367
_cell_length_c   13.05410367
_cell_angle_alpha   90.00000000
_cell_angle_beta   90.00000000
_cell_angle_gamma   90.00000000
_symmetry_Int_Tables_number   1
_chemical_formula_structural   Ho5(Ge5Rh2)2
_chemical_formula_sum   'Ho10 Ge20 Rh8'
_cell_volume   732.89406334
_cell_formula_units_Z   2
loop_
 _symmetry_equiv_pos_site_id
 _symmetry_equiv_pos_as_xyz
  1  'x, y, z'
loop_
 _atom_site_type_symbol
 _atom_site_label
 _atom_site_symmetry_multiplicity
 _atom_site_fract_x
 _atom_site_fract_y
 _atom_site_fract_z
 _atom_site_occupancy
  Ge  Ge0  1  0.000000  0.932987  0.432987  1
  Ge  Ge1  1  0.000000  0.567013  0.932987  1
  Ge  Ge2  1  0.000000  0.432987  0.067013  1
  Ge  Ge3  1  0.000000  0.067013  0.567013  1
  Ge  Ge4  1  0.000000  0.299810  0.337979  1
  Ge  Ge5  1  0.000000  0.700190  0.662021  1
  Ge  Ge6  1  0.000000  0.337979  0.700190  1
  Ge  Ge7  1  0.000000  0.662021  0.299810  1
  Ge  Ge8  1  0.000000  0.837979  0.799810  1
  Ge  Ge9  1  0.000000  0.200190  0.837979  1
  Ge  Ge10  1  0.000000  0.799810  0.162021  1
  Ge  Ge11  1  0.000000  0.162021  0.200190  1
  Ge  Ge12  1  0.500000  0.497402  0.342256  1
  Ge  Ge13  1  0.500000  0.502598  0.657744  1
  Ge  Ge14  1  0.500000  0.342256  0.502598  1
  Ge  Ge15  1  0.500000  0.657744  0.497402  1
  Ge  Ge16  1  0.500000  0.842256  0.997402  1
  Ge  Ge17  1  0.500000  0.002598  0.842256  1
  Ge  Ge18  1  0.500000  0.157744  0.002598  1
  Ge  Ge19  1  0.500000  0.997402  0.157744  1
  Rh  Rh20  1  0.000000  0.478858  0.254236  1
  Rh  Rh21  1  0.000000  0.521142  0.745764  1
  Rh  Rh22  1  0.000000  0.254236  0.521142  1
  Rh  Rh23  1  0.000000  0.745764  0.478858  1
  Rh  Rh24  1  0.000000  0.754236  0.978858  1
  Rh  Rh25  1  0.000000  0.021142  0.754236  1
  Rh  Rh26  1  0.000000  0.978858  0.245763  1
  Rh  Rh27  1  0.000000  0.245763  0.021142  1
  Ho  Ho28  1  0.000000  0.500000  0.500000  1
  Ho  Ho29  1  0.000000  0.000000  0.000000  1
  Ho  Ho30  1  0.500000  0.387077  0.887077  1
  Ho  Ho31  1  0.500000  0.112923  0.387077  1
  Ho  Ho32  1  0.500000  0.887077  0.612923  1
  Ho  Ho33  1  0.500000  0.612923  0.112923  1
  Ho  Ho34  1  0.500000  0.825492  0.325492  1
  Ho  Ho35  1  0.500000  0.674508  0.825492  1
  Ho  Ho36  1  0.500000  0.325492  0.174508  1
  Ho  Ho37  1  0.500000  0.174508  0.674508  1
