# generated using pymatgen
data_Cr4AgBiO14
_symmetry_space_group_name_H-M   'P 1'
_cell_length_a   7.38139847
_cell_length_b   7.38139847
_cell_length_c   7.38139847
_cell_angle_alpha   108.40325187
_cell_angle_beta   108.40325179
_cell_angle_gamma   111.62894529
_symmetry_Int_Tables_number   1
_chemical_formula_structural   Cr4AgBiO14
_chemical_formula_sum   'Cr4 Ag1 Bi1 O14'
_cell_volume   309.26440067
_cell_formula_units_Z   1
loop_
 _symmetry_equiv_pos_site_id
 _symmetry_equiv_pos_as_xyz
  1  'x, y, z'
loop_
 _atom_site_type_symbol
 _atom_site_label
 _atom_site_symmetry_multiplicity
 _atom_site_fract_x
 _atom_site_fract_y
 _atom_site_fract_z
 _atom_site_occupancy
  O  O0  1  0.238845  0.738845  0.500000  1
  O  O1  1  0.738845  0.238845  0.500000  1
  O  O2  1  0.968157  0.087383  0.324083  1
  O  O3  1  0.087383  0.763300  0.119227  1
  O  O4  1  0.644074  0.968157  0.880773  1
  O  O5  1  0.763300  0.644074  0.675917  1
  O  O6  1  0.477634  0.298512  0.683457  1
  O  O7  1  0.298512  0.615055  0.820878  1
  O  O8  1  0.794178  0.477634  0.179122  1
  O  O9  1  0.615055  0.794178  0.316543  1
  O  O10  1  0.390611  0.294243  0.300194  1
  O  O11  1  0.294243  0.994050  0.903632  1
  O  O12  1  0.090418  0.390611  0.096368  1
  O  O13  1  0.994050  0.090418  0.699806  1
  Cr  Cr14  1  0.828664  0.046443  0.457987  1
  Cr  Cr15  1  0.046443  0.588456  0.217779  1
  Cr  Cr16  1  0.370677  0.828664  0.782221  1
  Cr  Cr17  1  0.588456  0.370677  0.542013  1
  Ag  Ag18  1  0.426408  0.426408  0.000000  1
  Bi  Bi19  1  0.006747  0.006747  0.000000  1
