# generated using pymatgen
data_Sr2Nb5O9
_symmetry_space_group_name_H-M   'P 1'
_cell_length_a   4.22129395
_cell_length_b   4.22129395
_cell_length_c   12.23548409
_cell_angle_alpha   90.00000000
_cell_angle_beta   90.00000000
_cell_angle_gamma   90.00000000
_symmetry_Int_Tables_number   1
_chemical_formula_structural   Sr2Nb5O9
_chemical_formula_sum   'Sr2 Nb5 O9'
_cell_volume   218.02803832
_cell_formula_units_Z   1
loop_
 _symmetry_equiv_pos_site_id
 _symmetry_equiv_pos_as_xyz
  1  'x, y, z'
loop_
 _atom_site_type_symbol
 _atom_site_label
 _atom_site_symmetry_multiplicity
 _atom_site_fract_x
 _atom_site_fract_y
 _atom_site_fract_z
 _atom_site_occupancy
  O  O0  1  0.000000  0.000000  0.500000  1
  O  O1  1  0.000000  0.499999  0.678035  1
  O  O2  1  0.499999  0.000000  0.678035  1
  O  O3  1  0.000000  0.499999  0.321965  1
  O  O4  1  0.499999  0.000000  0.321965  1
  O  O5  1  0.499999  0.499999  0.838366  1
  O  O6  1  0.499999  0.499999  0.161633  1
  O  O7  1  0.499999  0.000000  0.000000  1
  O  O8  1  0.000000  0.499999  0.000000  1
  Sr  Sr9  1  0.000000  0.000000  0.170107  1
  Sr  Sr10  1  0.000000  0.000000  0.829893  1
  Nb  Nb11  1  0.499999  0.000000  0.500000  1
  Nb  Nb12  1  0.499999  0.499999  0.335590  1
  Nb  Nb13  1  0.000000  0.499999  0.500000  1
  Nb  Nb14  1  0.499999  0.499999  0.664411  1
  Nb  Nb15  1  0.499999  0.499999  0.000000  1
