# generated using pymatgen
data_BaSe2O5
_symmetry_space_group_name_H-M   'P 1'
_cell_length_a   4.61744841
_cell_length_b   9.96688608
_cell_length_c   12.05553717
_cell_angle_alpha   90.00000000
_cell_angle_beta   90.00000000
_cell_angle_gamma   92.56319660
_symmetry_Int_Tables_number   1
_chemical_formula_structural   BaSe2O5
_chemical_formula_sum   'Ba4 Se8 O20'
_cell_volume   554.25980512
_cell_formula_units_Z   4
loop_
 _symmetry_equiv_pos_site_id
 _symmetry_equiv_pos_as_xyz
  1  'x, y, z'
loop_
 _atom_site_type_symbol
 _atom_site_label
 _atom_site_symmetry_multiplicity
 _atom_site_fract_x
 _atom_site_fract_y
 _atom_site_fract_z
 _atom_site_occupancy
  O  O0  1  0.238749  0.904119  0.558733  1
  O  O1  1  0.761251  0.595881  0.058733  1
  O  O2  1  0.761251  0.095881  0.441267  1
  O  O3  1  0.238749  0.404119  0.941267  1
  O  O4  1  0.838695  0.740991  0.655478  1
  O  O5  1  0.161305  0.759009  0.155478  1
  O  O6  1  0.161305  0.259009  0.344522  1
  O  O7  1  0.838695  0.240991  0.844522  1
  O  O8  1  0.882908  0.341721  0.536478  1
  O  O9  1  0.117092  0.158279  0.036478  1
  O  O10  1  0.117092  0.658279  0.463522  1
  O  O11  1  0.882908  0.841721  0.963522  1
  O  O12  1  0.288013  0.700186  0.857673  1
  O  O13  1  0.711987  0.799814  0.357673  1
  O  O14  1  0.711987  0.299814  0.142327  1
  O  O15  1  0.288013  0.200186  0.642327  1
  O  O16  1  0.236286  0.961201  0.809091  1
  O  O17  1  0.763714  0.538799  0.309091  1
  O  O18  1  0.763714  0.038799  0.190909  1
  O  O19  1  0.236286  0.461201  0.690909  1
  Se  Se20  1  0.180881  0.743030  0.603920  1
  Se  Se21  1  0.819119  0.756970  0.103920  1
  Se  Se22  1  0.819119  0.256970  0.396080  1
  Se  Se23  1  0.180881  0.243030  0.896080  1
  Se  Se24  1  0.271077  0.354053  0.583193  1
  Se  Se25  1  0.728923  0.145947  0.083193  1
  Se  Se26  1  0.728923  0.645947  0.416807  1
  Se  Se27  1  0.271077  0.854053  0.916807  1
  Ba  Ba28  1  0.758266  0.038969  0.668356  1
  Ba  Ba29  1  0.241734  0.461031  0.168356  1
  Ba  Ba30  1  0.241734  0.961031  0.331644  1
  Ba  Ba31  1  0.758266  0.538969  0.831644  1
