# generated using pymatgen
data_Cd2P3Br
_symmetry_space_group_name_H-M   'P 1'
_cell_length_a   6.17823179
_cell_length_b   6.17823179
_cell_length_c   7.65239349
_cell_angle_alpha   96.69083379
_cell_angle_beta   96.69083382
_cell_angle_gamma   96.58876909
_symmetry_Int_Tables_number   1
_chemical_formula_structural   Cd2P3Br
_chemical_formula_sum   'Cd4 P6 Br2'
_cell_volume   285.68261755
_cell_formula_units_Z   2
loop_
 _symmetry_equiv_pos_site_id
 _symmetry_equiv_pos_as_xyz
  1  'x, y, z'
loop_
 _atom_site_type_symbol
 _atom_site_label
 _atom_site_symmetry_multiplicity
 _atom_site_fract_x
 _atom_site_fract_y
 _atom_site_fract_z
 _atom_site_occupancy
  P  P0  1  0.942928  0.552960  0.956918  1
  P  P1  1  0.552960  0.942928  0.456918  1
  P  P2  1  0.680756  0.589435  0.743418  1
  P  P3  1  0.589435  0.680756  0.243418  1
  P  P4  1  0.815068  0.907385  0.670833  1
  P  P5  1  0.907385  0.815068  0.170833  1
  Br  Br6  1  0.122147  0.373771  0.453304  1
  Br  Br7  1  0.373771  0.122147  0.953304  1
  Cd  Cd8  1  0.649783  0.353460  0.423967  1
  Cd  Cd9  1  0.353460  0.649783  0.923967  1
  Cd  Cd10  1  0.142812  0.847493  0.491559  1
  Cd  Cd11  1  0.847493  0.142812  0.991559  1
