# generated using pymatgen
data_LiAlH4
_symmetry_space_group_name_H-M   'P 1'
_cell_length_a   4.82215809
_cell_length_b   7.55437638
_cell_length_c   7.77937064
_cell_angle_alpha   90.00000000
_cell_angle_beta   90.00000000
_cell_angle_gamma   105.01647242
_symmetry_Int_Tables_number   1
_chemical_formula_structural   LiAlH4
_chemical_formula_sum   'Li4 Al4 H16'
_cell_volume   273.71262526
_cell_formula_units_Z   4
loop_
 _symmetry_equiv_pos_site_id
 _symmetry_equiv_pos_as_xyz
  1  'x, y, z'
loop_
 _atom_site_type_symbol
 _atom_site_label
 _atom_site_symmetry_multiplicity
 _atom_site_fract_x
 _atom_site_fract_y
 _atom_site_fract_z
 _atom_site_occupancy
  H  H0  1  0.579250  0.370977  0.237461  1
  H  H1  1  0.920750  0.129023  0.737461  1
  H  H2  1  0.420750  0.629023  0.762539  1
  H  H3  1  0.079250  0.870977  0.262539  1
  H  H4  1  0.382624  0.615640  0.416127  1
  H  H5  1  0.117376  0.884360  0.916127  1
  H  H6  1  0.617376  0.384360  0.583873  1
  H  H7  1  0.882624  0.115640  0.083873  1
  H  H8  1  0.581701  0.765538  0.097581  1
  H  H9  1  0.918299  0.734462  0.597581  1
  H  H10  1  0.418299  0.234462  0.902419  1
  H  H11  1  0.081701  0.265538  0.402419  1
  H  H12  1  0.626460  0.976806  0.374281  1
  H  H13  1  0.873540  0.523194  0.874281  1
  H  H14  1  0.373540  0.023194  0.625719  1
  H  H15  1  0.126460  0.476806  0.125719  1
  Li  Li16  1  0.756220  0.323226  0.034820  1
  Li  Li17  1  0.743780  0.176774  0.534820  1
  Li  Li18  1  0.243780  0.676774  0.965180  1
  Li  Li19  1  0.256220  0.823226  0.465180  1
  Al  Al20  1  0.295580  0.432150  0.297915  1
  Al  Al21  1  0.204420  0.067850  0.797915  1
  Al  Al22  1  0.704420  0.567850  0.702085  1
  Al  Al23  1  0.795580  0.932150  0.202085  1
