# generated using pymatgen
data_TbCd2F8
_symmetry_space_group_name_H-M   'P 1'
_cell_length_a   5.33888758
_cell_length_b   5.33799405
_cell_length_c   6.87556527
_cell_angle_alpha   112.85643407
_cell_angle_beta   112.86669347
_cell_angle_gamma   89.92694376
_symmetry_Int_Tables_number   1
_chemical_formula_structural   TbCd2F8
_chemical_formula_sum   'Tb1 Cd2 F8'
_cell_volume   163.76589539
_cell_formula_units_Z   1
loop_
 _symmetry_equiv_pos_site_id
 _symmetry_equiv_pos_as_xyz
  1  'x, y, z'
loop_
 _atom_site_type_symbol
 _atom_site_label
 _atom_site_symmetry_multiplicity
 _atom_site_fract_x
 _atom_site_fract_y
 _atom_site_fract_z
 _atom_site_occupancy
  Tb  Tb0  1  0.999909  0.999914  0.999848  1
  Cd  Cd1  1  0.676986  0.676967  0.353887  1
  Cd  Cd2  1  0.323184  0.323181  0.646284  1
  F  F3  1  0.023434  0.655071  0.658187  1
  F  F4  1  0.997089  0.976754  0.341842  1
  F  F5  1  0.344658  0.365166  0.341798  1
  F  F6  1  0.634701  0.003141  0.658206  1
  F  F7  1  0.685079  0.642366  0.882289  1
  F  F8  1  0.759869  0.314923  0.117731  1
  F  F9  1  0.357801  0.802689  0.117700  1
  F  F10  1  0.197289  0.239829  0.882227  1
