# generated using pymatgen
data_PCl5
_symmetry_space_group_name_H-M   'P 1'
_cell_length_a   7.59763370
_cell_length_b   9.75102255
_cell_length_c   9.75102255
_cell_angle_alpha   90.00000000
_cell_angle_beta   90.00000000
_cell_angle_gamma   90.00000000
_symmetry_Int_Tables_number   1
_chemical_formula_structural   PCl5
_chemical_formula_sum   'P4 Cl20'
_cell_volume   722.40155628
_cell_formula_units_Z   4
loop_
 _symmetry_equiv_pos_site_id
 _symmetry_equiv_pos_as_xyz
  1  'x, y, z'
loop_
 _atom_site_type_symbol
 _atom_site_label
 _atom_site_symmetry_multiplicity
 _atom_site_fract_x
 _atom_site_fract_y
 _atom_site_fract_z
 _atom_site_occupancy
  P  P0  1  0.000000  0.750000  0.250000  1
  P  P1  1  0.000000  0.250000  0.750000  1
  P  P2  1  0.620971  0.250000  0.250000  1
  P  P3  1  0.379029  0.750000  0.750000  1
  Cl  Cl4  1  0.149358  0.296842  0.593084  1
  Cl  Cl5  1  0.149358  0.906916  0.296842  1
  Cl  Cl6  1  0.149358  0.593084  0.203158  1
  Cl  Cl7  1  0.149358  0.203158  0.906916  1
  Cl  Cl8  1  0.850642  0.703158  0.406916  1
  Cl  Cl9  1  0.850642  0.093084  0.703158  1
  Cl  Cl10  1  0.850642  0.406916  0.796842  1
  Cl  Cl11  1  0.850642  0.796842  0.093084  1
  Cl  Cl12  1  0.904986  0.250000  0.250000  1
  Cl  Cl13  1  0.095014  0.750000  0.750000  1
  Cl  Cl14  1  0.331638  0.250000  0.250000  1
  Cl  Cl15  1  0.668362  0.750000  0.750000  1
  Cl  Cl16  1  0.617830  0.338242  0.454147  1
  Cl  Cl17  1  0.617830  0.045853  0.338242  1
  Cl  Cl18  1  0.617830  0.454147  0.161758  1
  Cl  Cl19  1  0.617830  0.161758  0.045853  1
  Cl  Cl20  1  0.382170  0.661758  0.545853  1
  Cl  Cl21  1  0.382170  0.954147  0.661758  1
  Cl  Cl22  1  0.382170  0.545853  0.838242  1
  Cl  Cl23  1  0.382170  0.838242  0.954147  1
