# generated using pymatgen
data_BiP2O7
_symmetry_space_group_name_H-M   'P 1'
_cell_length_a   6.76749999
_cell_length_b   6.91307765
_cell_length_c   6.53288155
_cell_angle_alpha   108.14308500
_cell_angle_beta   87.70302239
_cell_angle_gamma   88.97057918
_symmetry_Int_Tables_number   1
_chemical_formula_structural   BiP2O7
_chemical_formula_sum   'Bi2 P4 O14'
_cell_volume   290.05773293
_cell_formula_units_Z   2
loop_
 _symmetry_equiv_pos_site_id
 _symmetry_equiv_pos_as_xyz
  1  'x, y, z'
loop_
 _atom_site_type_symbol
 _atom_site_label
 _atom_site_symmetry_multiplicity
 _atom_site_fract_x
 _atom_site_fract_y
 _atom_site_fract_z
 _atom_site_occupancy
  O  O0  1  0.647360  0.436973  0.133103  1
  O  O1  1  0.928249  0.218954  0.457824  1
  O  O2  1  0.071751  0.781046  0.542176  1
  O  O3  1  0.063275  0.383964  0.187422  1
  O  O4  1  0.196511  0.210540  0.775641  1
  O  O5  1  0.280425  0.363303  0.478608  1
  O  O6  1  0.199089  0.038841  0.179550  1
  O  O7  1  0.352640  0.563027  0.866897  1
  O  O8  1  0.803489  0.789460  0.224359  1
  O  O9  1  0.552486  0.242980  0.659888  1
  O  O10  1  0.447514  0.757020  0.340112  1
  O  O11  1  0.800911  0.961159  0.820450  1
  O  O12  1  0.719575  0.636697  0.521392  1
  O  O13  1  0.936725  0.616036  0.812578  1
  P  P14  1  0.346308  0.345855  0.710386  1
  P  P15  1  0.653692  0.654145  0.289614  1
  P  P16  1  0.110758  0.245377  0.324907  1
  P  P17  1  0.889242  0.754623  0.675093  1
  Bi  Bi18  1  0.849343  0.279766  0.815158  1
  Bi  Bi19  1  0.150657  0.720234  0.184842  1
