# generated using pymatgen
data_CsIn5S8
_symmetry_space_group_name_H-M   'P 1'
_cell_length_a   3.93348019
_cell_length_b   9.46527750
_cell_length_c   9.87440618
_cell_angle_alpha   101.62406127
_cell_angle_beta   101.48875049
_cell_angle_gamma   90.00000002
_symmetry_Int_Tables_number   1
_chemical_formula_structural   CsIn5S8
_chemical_formula_sum   'Cs1 In5 S8'
_cell_volume   352.57520021
_cell_formula_units_Z   1
loop_
 _symmetry_equiv_pos_site_id
 _symmetry_equiv_pos_as_xyz
  1  'x, y, z'
loop_
 _atom_site_type_symbol
 _atom_site_label
 _atom_site_symmetry_multiplicity
 _atom_site_fract_x
 _atom_site_fract_y
 _atom_site_fract_z
 _atom_site_occupancy
  S  S0  1  0.832853  0.517652  0.665707  1
  S  S1  1  0.921754  0.196221  0.843507  1
  S  S2  1  0.078246  0.803779  0.156493  1
  S  S3  1  0.582139  0.135278  0.164279  1
  S  S4  1  0.417861  0.864722  0.835721  1
  S  S5  1  0.764599  0.847646  0.529197  1
  S  S6  1  0.235401  0.152354  0.470803  1
  S  S7  1  0.167147  0.482348  0.334293  1
  In  In8  1  0.000000  0.000000  0.000000  1
  In  In9  1  0.349753  0.069152  0.699506  1
  In  In10  1  0.650247  0.930848  0.300494  1
  In  In11  1  0.289706  0.660089  0.579411  1
  In  In12  1  0.710294  0.339911  0.420589  1
  Cs  Cs13  1  0.500000  0.500000  0.000000  1
