# generated using pymatgen
data_CaRuO3
_symmetry_space_group_name_H-M   'P 1'
_cell_length_a   5.40659894
_cell_length_b   5.61151087
_cell_length_c   7.73968820
_cell_angle_alpha   90.00000000
_cell_angle_beta   90.00000000
_cell_angle_gamma   90.00000000
_symmetry_Int_Tables_number   1
_chemical_formula_structural   CaRuO3
_chemical_formula_sum   'Ca4 Ru4 O12'
_cell_volume   234.81586095
_cell_formula_units_Z   4
loop_
 _symmetry_equiv_pos_site_id
 _symmetry_equiv_pos_as_xyz
  1  'x, y, z'
loop_
 _atom_site_type_symbol
 _atom_site_label
 _atom_site_symmetry_multiplicity
 _atom_site_fract_x
 _atom_site_fract_y
 _atom_site_fract_z
 _atom_site_occupancy
  O  O0  1  0.303824  0.200981  0.450319  1
  O  O1  1  0.803824  0.299019  0.549681  1
  O  O2  1  0.196176  0.700981  0.049681  1
  O  O3  1  0.696176  0.799019  0.950319  1
  O  O4  1  0.696176  0.799019  0.549681  1
  O  O5  1  0.196176  0.700981  0.450319  1
  O  O6  1  0.803824  0.299019  0.950319  1
  O  O7  1  0.303824  0.200981  0.049681  1
  O  O8  1  0.097792  0.971903  0.750000  1
  O  O9  1  0.597792  0.528097  0.250000  1
  O  O10  1  0.402208  0.471903  0.750000  1
  O  O11  1  0.902208  0.028097  0.250000  1
  Ca  Ca12  1  0.015444  0.440113  0.250000  1
  Ca  Ca13  1  0.515444  0.059887  0.750000  1
  Ca  Ca14  1  0.484556  0.940113  0.250000  1
  Ca  Ca15  1  0.984556  0.559887  0.750000  1
  Ru  Ru16  1  0.000000  0.000000  0.000000  1
  Ru  Ru17  1  0.500000  0.500000  0.000000  1
  Ru  Ru18  1  0.500000  0.500000  0.500000  1
  Ru  Ru19  1  0.000000  0.000000  0.500000  1
