# generated using pymatgen
data_UFe5Sn
_symmetry_space_group_name_H-M   'P 1'
_cell_length_a   4.70047034
_cell_length_b   8.08879278
_cell_length_c   10.44209703
_cell_angle_alpha   90.00000000
_cell_angle_beta   90.00000000
_cell_angle_gamma   90.00000000
_symmetry_Int_Tables_number   1
_chemical_formula_structural   UFe5Sn
_chemical_formula_sum   'U4 Fe20 Sn4'
_cell_volume   397.02033438
_cell_formula_units_Z   4
loop_
 _symmetry_equiv_pos_site_id
 _symmetry_equiv_pos_as_xyz
  1  'x, y, z'
loop_
 _atom_site_type_symbol
 _atom_site_label
 _atom_site_symmetry_multiplicity
 _atom_site_fract_x
 _atom_site_fract_y
 _atom_site_fract_z
 _atom_site_occupancy
  Fe  Fe0  1  0.750000  0.430353  0.606668  1
  Fe  Fe1  1  0.750000  0.106728  0.523780  1
  Fe  Fe2  1  0.250000  0.393272  0.023780  1
  Fe  Fe3  1  0.750000  0.606728  0.976220  1
  Fe  Fe4  1  0.499217  0.927419  0.684526  1
  Fe  Fe5  1  0.999217  0.072581  0.315474  1
  Fe  Fe6  1  0.000783  0.427419  0.815474  1
  Fe  Fe7  1  0.500783  0.572581  0.184526  1
  Fe  Fe8  1  0.500783  0.072581  0.315474  1
  Fe  Fe9  1  0.000783  0.927419  0.684526  1
  Fe  Fe10  1  0.999217  0.572581  0.184526  1
  Fe  Fe11  1  0.250000  0.818628  0.251241  1
  Fe  Fe12  1  0.750000  0.930354  0.893332  1
  Fe  Fe13  1  0.250000  0.069647  0.106668  1
  Fe  Fe14  1  0.499217  0.427419  0.815474  1
  Fe  Fe15  1  0.250000  0.569646  0.393332  1
  Fe  Fe16  1  0.750000  0.681372  0.751241  1
  Fe  Fe17  1  0.250000  0.318628  0.248759  1
  Fe  Fe18  1  0.750000  0.181372  0.748759  1
  Fe  Fe19  1  0.250000  0.893272  0.476220  1
  Sn  Sn20  1  0.750000  0.872491  0.139608  1
  Sn  Sn21  1  0.250000  0.127509  0.860392  1
  Sn  Sn22  1  0.750000  0.372491  0.360392  1
  Sn  Sn23  1  0.250000  0.627509  0.639608  1
  U  U24  1  0.250000  0.739499  0.939504  1
  U  U25  1  0.750000  0.260501  0.060496  1
  U  U26  1  0.250000  0.239499  0.560496  1
  U  U27  1  0.750000  0.760501  0.439504  1
