# generated using pymatgen
data_Sr2SmCu3(PbO4)2
_symmetry_space_group_name_H-M   'P 1'
_cell_length_a   3.86111950
_cell_length_b   3.86111990
_cell_length_c   16.03421253
_cell_angle_alpha   90.00000000
_cell_angle_beta   90.00000000
_cell_angle_gamma   90.03021734
_symmetry_Int_Tables_number   1
_chemical_formula_structural   Sr2SmCu3(PbO4)2
_chemical_formula_sum   'Sr2 Sm1 Cu3 Pb2 O8'
_cell_volume   239.04194116
_cell_formula_units_Z   1
loop_
 _symmetry_equiv_pos_site_id
 _symmetry_equiv_pos_as_xyz
  1  'x, y, z'
loop_
 _atom_site_type_symbol
 _atom_site_label
 _atom_site_symmetry_multiplicity
 _atom_site_fract_x
 _atom_site_fract_y
 _atom_site_fract_z
 _atom_site_occupancy
  Sr  Sr0  1  -0.000000  0.000000  0.778508  1
  Sr  Sr1  1  -0.000000  0.000000  0.221492  1
  Sm  Sm2  1  -0.000000  0.000000  0.000000  1
  Cu  Cu3  1  0.500000  0.500000  0.893333  1
  Cu  Cu4  1  0.500000  0.500000  0.106667  1
  Cu  Cu5  1  -0.000000  0.000000  0.500000  1
  Pb  Pb6  1  0.500000  0.500000  0.613269  1
  Pb  Pb7  1  0.500000  0.500000  0.386731  1
  O  O8  1  -0.000000  0.000000  0.384249  1
  O  O9  1  0.500000  0.500000  0.251438  1
  O  O10  1  -0.000000  0.000000  0.615751  1
  O  O11  1  0.500000  0.500000  0.748562  1
  O  O12  1  0.500000  0.000000  0.905380  1
  O  O13  1  -0.000000  0.500000  0.905380  1
  O  O14  1  -0.000000  0.500000  0.094620  1
  O  O15  1  0.500000  0.000000  0.094620  1
