# generated using pymatgen
data_Ta2InCuTe4
_symmetry_space_group_name_H-M   'P 1'
_cell_length_a   6.54538727
_cell_length_b   6.54538728
_cell_length_c   7.78902709
_cell_angle_alpha   114.84514338
_cell_angle_beta   114.84514345
_cell_angle_gamma   90.00000001
_symmetry_Int_Tables_number   1
_chemical_formula_structural   Ta2InCuTe4
_chemical_formula_sum   'Ta2 In1 Cu1 Te4'
_cell_volume   268.39775817
_cell_formula_units_Z   1
loop_
 _symmetry_equiv_pos_site_id
 _symmetry_equiv_pos_as_xyz
  1  'x, y, z'
loop_
 _atom_site_type_symbol
 _atom_site_label
 _atom_site_symmetry_multiplicity
 _atom_site_fract_x
 _atom_site_fract_y
 _atom_site_fract_z
 _atom_site_occupancy
  Cu  Cu0  1  0.500000  0.500000  0.000000  1
  In  In1  1  0.000000  0.000000  0.000000  1
  Te  Te2  1  0.423264  0.423264  0.274932  1
  Te  Te3  1  0.851669  0.851669  0.274932  1
  Te  Te4  1  0.148331  0.576736  0.725068  1
  Te  Te5  1  0.576736  0.148331  0.725068  1
  Ta  Ta6  1  0.750000  0.250000  0.500000  1
  Ta  Ta7  1  0.250000  0.750000  0.500000  1
