# generated using pymatgen
data_Na2ZnO2
_symmetry_space_group_name_H-M   'P 1'
_cell_length_a   5.79402134
_cell_length_b   6.04124910
_cell_length_c   7.82476361
_cell_angle_alpha   90.00000000
_cell_angle_beta   94.87361299
_cell_angle_gamma   90.00000000
_symmetry_Int_Tables_number   1
_chemical_formula_structural   Na2ZnO2
_chemical_formula_sum   'Na8 Zn4 O8'
_cell_volume   272.90094250
_cell_formula_units_Z   4
loop_
 _symmetry_equiv_pos_site_id
 _symmetry_equiv_pos_as_xyz
  1  'x, y, z'
loop_
 _atom_site_type_symbol
 _atom_site_label
 _atom_site_symmetry_multiplicity
 _atom_site_fract_x
 _atom_site_fract_y
 _atom_site_fract_z
 _atom_site_occupancy
  O  O0  1  0.748595  0.035059  0.851543  1
  O  O1  1  0.751405  0.535059  0.148457  1
  O  O2  1  0.251405  0.964941  0.148457  1
  O  O3  1  0.248595  0.464941  0.851543  1
  O  O4  1  0.302299  0.877705  0.562760  1
  O  O5  1  0.197701  0.377705  0.437240  1
  O  O6  1  0.697701  0.122295  0.437240  1
  O  O7  1  0.802299  0.622295  0.562760  1
  Na  Na8  1  0.991244  0.742063  0.972240  1
  Na  Na9  1  0.508756  0.242063  0.027760  1
  Na  Na10  1  0.008756  0.257937  0.027760  1
  Na  Na11  1  0.491244  0.757937  0.972240  1
  Na  Na12  1  0.571297  0.355125  0.675669  1
  Na  Na13  1  0.928703  0.855125  0.324331  1
  Na  Na14  1  0.428703  0.644875  0.324331  1
  Na  Na15  1  0.071297  0.144875  0.675669  1
  Zn  Zn16  1  0.144669  0.606387  0.635524  1
  Zn  Zn17  1  0.355331  0.106387  0.364476  1
  Zn  Zn18  1  0.855331  0.393613  0.364476  1
  Zn  Zn19  1  0.644669  0.893613  0.635524  1
