# generated using pymatgen
data_ZnH2(SO4)2
_symmetry_space_group_name_H-M   'P 1'
_cell_length_a   4.97609216
_cell_length_b   7.49387458
_cell_length_c   8.37720624
_cell_angle_alpha   90.00000000
_cell_angle_beta   90.00000000
_cell_angle_gamma   99.09381615
_symmetry_Int_Tables_number   1
_chemical_formula_structural   ZnH2(SO4)2
_chemical_formula_sum   'Zn2 H4 S4 O16'
_cell_volume   308.46134174
_cell_formula_units_Z   2
loop_
 _symmetry_equiv_pos_site_id
 _symmetry_equiv_pos_as_xyz
  1  'x, y, z'
loop_
 _atom_site_type_symbol
 _atom_site_label
 _atom_site_symmetry_multiplicity
 _atom_site_fract_x
 _atom_site_fract_y
 _atom_site_fract_z
 _atom_site_occupancy
  H  H0  1  0.213358  0.656845  0.020571  1
  H  H1  1  0.286642  0.843155  0.520571  1
  H  H2  1  0.786642  0.343155  0.979429  1
  H  H3  1  0.713358  0.156845  0.479429  1
  O  O4  1  0.775551  0.691580  0.377000  1
  O  O5  1  0.724449  0.808420  0.877000  1
  O  O6  1  0.918153  0.221174  0.845380  1
  O  O7  1  0.581847  0.278826  0.345380  1
  O  O8  1  0.081847  0.778826  0.154620  1
  O  O9  1  0.418153  0.721174  0.654620  1
  O  O10  1  0.695960  0.062731  0.150421  1
  O  O11  1  0.804040  0.437269  0.650421  1
  O  O12  1  0.304040  0.937269  0.849579  1
  O  O13  1  0.195960  0.562731  0.349579  1
  O  O14  1  0.783676  0.113987  0.583616  1
  O  O15  1  0.716324  0.386013  0.083616  1
  O  O16  1  0.216324  0.886013  0.416384  1
  O  O17  1  0.283676  0.613987  0.916384  1
  O  O18  1  0.275551  0.191580  0.123000  1
  O  O19  1  0.224449  0.308420  0.623000  1
  S  S20  1  0.059015  0.720295  0.323510  1
  S  S21  1  0.440985  0.779705  0.823510  1
  S  S22  1  0.940985  0.279705  0.676490  1
  S  S23  1  0.559015  0.220295  0.176490  1
  Zn  Zn24  1  0.500000  0.500000  0.500000  1
  Zn  Zn25  1  0.000000  0.000000  0.000000  1
