# generated using pymatgen
data_BiS
_symmetry_space_group_name_H-M   'P 1'
_cell_length_a   5.65361316
_cell_length_b   12.22808381
_cell_length_c   15.24353019
_cell_angle_alpha   90.00000000
_cell_angle_beta   90.00000000
_cell_angle_gamma   103.36615911
_symmetry_Int_Tables_number   1
_chemical_formula_structural   BiS
_chemical_formula_sum   'Bi10 S10'
_cell_volume   1025.28327524
_cell_formula_units_Z   10
loop_
 _symmetry_equiv_pos_site_id
 _symmetry_equiv_pos_as_xyz
  1  'x, y, z'
loop_
 _atom_site_type_symbol
 _atom_site_label
 _atom_site_symmetry_multiplicity
 _atom_site_fract_x
 _atom_site_fract_y
 _atom_site_fract_z
 _atom_site_occupancy
  S  S0  1  0.275916  0.602706  0.877217  1
  S  S1  1  0.673211  0.397294  0.122783  1
  S  S2  1  0.275916  0.602706  0.122783  1
  S  S3  1  0.673211  0.397294  0.877217  1
  S  S4  1  0.185218  0.395806  0.684552  1
  S  S5  1  0.789411  0.604194  0.315448  1
  S  S6  1  0.185218  0.395806  0.315448  1
  S  S7  1  0.789411  0.604194  0.684552  1
  S  S8  1  0.283181  0.607393  0.500000  1
  S  S9  1  0.675787  0.392607  0.500000  1
  Bi  Bi10  1  0.158890  0.368270  0.899950  1
  Bi  Bi11  1  0.790620  0.631730  0.100050  1
  Bi  Bi12  1  0.158890  0.368270  0.100050  1
  Bi  Bi13  1  0.790620  0.631730  0.899950  1
  Bi  Bi14  1  0.295879  0.628203  0.698507  1
  Bi  Bi15  1  0.667676  0.371797  0.301493  1
  Bi  Bi16  1  0.295879  0.628203  0.301493  1
  Bi  Bi17  1  0.667676  0.371797  0.698507  1
  Bi  Bi18  1  0.170169  0.370948  0.500000  1
  Bi  Bi19  1  0.799221  0.629052  0.500000  1
