# generated using pymatgen
data_Cd2P3Cl
_symmetry_space_group_name_H-M   'P 1'
_cell_length_a   6.11639199
_cell_length_b   6.11639199
_cell_length_c   7.66724322
_cell_angle_alpha   96.92006099
_cell_angle_beta   96.92006096
_cell_angle_gamma   96.79402230
_symmetry_Int_Tables_number   1
_chemical_formula_structural   Cd2P3Cl
_chemical_formula_sum   'Cd4 P6 Cl2'
_cell_volume   280.09072753
_cell_formula_units_Z   2
loop_
 _symmetry_equiv_pos_site_id
 _symmetry_equiv_pos_as_xyz
  1  'x, y, z'
loop_
 _atom_site_type_symbol
 _atom_site_label
 _atom_site_symmetry_multiplicity
 _atom_site_fract_x
 _atom_site_fract_y
 _atom_site_fract_z
 _atom_site_occupancy
  P  P0  1  0.949648  0.559931  0.967134  1
  P  P1  1  0.559931  0.949648  0.467134  1
  P  P2  1  0.684933  0.594472  0.752748  1
  P  P3  1  0.594472  0.684933  0.252748  1
  P  P4  1  0.824454  0.914811  0.681504  1
  P  P5  1  0.914811  0.824454  0.181504  1
  Cl  Cl6  1  0.119459  0.391672  0.473363  1
  Cl  Cl7  1  0.391672  0.119459  0.973363  1
  Cd  Cd8  1  0.667332  0.359880  0.432768  1
  Cd  Cd9  1  0.359880  0.667332  0.932768  1
  Cd  Cd10  1  0.149275  0.842131  0.500483  1
  Cd  Cd11  1  0.842131  0.149275  0.000483  1
