# generated using pymatgen
data_Sc2GeO5
_symmetry_space_group_name_H-M   'P 1'
_cell_length_a   7.64004531
_cell_length_b   7.64004531
_cell_length_c   10.75934721
_cell_angle_alpha   87.51518022
_cell_angle_beta   87.51518023
_cell_angle_gamma   87.71043137
_symmetry_Int_Tables_number   1
_chemical_formula_structural   Sc2GeO5
_chemical_formula_sum   'Sc12 Ge6 O30'
_cell_volume   626.38964952
_cell_formula_units_Z   6
loop_
 _symmetry_equiv_pos_site_id
 _symmetry_equiv_pos_as_xyz
  1  'x, y, z'
loop_
 _atom_site_type_symbol
 _atom_site_label
 _atom_site_symmetry_multiplicity
 _atom_site_fract_x
 _atom_site_fract_y
 _atom_site_fract_z
 _atom_site_occupancy
  O  O0  1  0.481668  0.125155  0.395892  1
  O  O1  1  0.874845  0.518332  0.104108  1
  O  O2  1  0.518332  0.874845  0.604108  1
  O  O3  1  0.125155  0.481668  0.895892  1
  O  O4  1  0.777970  0.869186  0.387879  1
  O  O5  1  0.130814  0.222030  0.112121  1
  O  O6  1  0.222030  0.130814  0.612121  1
  O  O7  1  0.869186  0.777970  0.887879  1
  O  O8  1  0.801079  0.889707  0.113462  1
  O  O9  1  0.110293  0.198921  0.386538  1
  O  O10  1  0.198921  0.110293  0.886538  1
  O  O11  1  0.889707  0.801079  0.613462  1
  O  O12  1  0.536736  0.130427  0.075403  1
  O  O13  1  0.869573  0.463264  0.424597  1
  O  O14  1  0.463264  0.869573  0.924597  1
  O  O15  1  0.130427  0.536736  0.575403  1
  O  O16  1  0.406029  0.867648  0.219439  1
  O  O17  1  0.132352  0.593971  0.280561  1
  O  O18  1  0.838118  0.224909  0.953964  1
  O  O19  1  0.775091  0.161882  0.546036  1
  O  O20  1  0.161882  0.775091  0.046036  1
  O  O21  1  0.224909  0.838118  0.453964  1
  O  O22  1  0.262401  0.737599  0.750000  1
  O  O23  1  0.737599  0.262401  0.250000  1
  O  O24  1  0.559807  0.464289  0.885536  1
  O  O25  1  0.535711  0.440193  0.614464  1
  O  O26  1  0.440193  0.535711  0.114464  1
  O  O27  1  0.464289  0.559807  0.385536  1
  O  O28  1  0.867648  0.406029  0.719439  1
  O  O29  1  0.593971  0.132352  0.780561  1
  Sc  Sc30  1  0.304055  0.005984  0.061531  1
  Sc  Sc31  1  0.994016  0.695945  0.438469  1
  Sc  Sc32  1  0.695945  0.994016  0.938469  1
  Sc  Sc33  1  0.005984  0.304055  0.561531  1
  Sc  Sc34  1  0.630045  0.348284  0.429393  1
  Sc  Sc35  1  0.651716  0.369955  0.070607  1
  Sc  Sc36  1  0.369955  0.651716  0.570607  1
  Sc  Sc37  1  0.348284  0.630045  0.929393  1
  Sc  Sc38  1  0.639295  0.007090  0.245396  1
  Sc  Sc39  1  0.992910  0.360705  0.254604  1
  Sc  Sc40  1  0.360705  0.992910  0.754604  1
  Sc  Sc41  1  0.007090  0.639295  0.745396  1
  Ge  Ge42  1  0.356508  0.643492  0.250000  1
  Ge  Ge43  1  0.643492  0.356508  0.750000  1
  Ge  Ge44  1  0.274387  0.061130  0.456163  1
  Ge  Ge45  1  0.938870  0.725613  0.043837  1
  Ge  Ge46  1  0.725613  0.938870  0.543837  1
  Ge  Ge47  1  0.061130  0.274387  0.956163  1
