# generated using pymatgen
data_K2FeH2Cl5O
_symmetry_space_group_name_H-M   'P 1'
_cell_length_a   7.38179142
_cell_length_b   9.55788612
_cell_length_c   13.95464077
_cell_angle_alpha   90.00000000
_cell_angle_beta   90.00000000
_cell_angle_gamma   90.00000000
_symmetry_Int_Tables_number   1
_chemical_formula_structural   K2FeH2Cl5O
_chemical_formula_sum   'K8 Fe4 H8 Cl20 O4'
_cell_volume   984.56021485
_cell_formula_units_Z   4
loop_
 _symmetry_equiv_pos_site_id
 _symmetry_equiv_pos_as_xyz
  1  'x, y, z'
loop_
 _atom_site_type_symbol
 _atom_site_label
 _atom_site_symmetry_multiplicity
 _atom_site_fract_x
 _atom_site_fract_y
 _atom_site_fract_z
 _atom_site_occupancy
  H  H0  1  0.459428  0.166131  0.464593  1
  H  H1  1  0.959428  0.833870  0.035407  1
  H  H2  1  0.540573  0.666130  0.535407  1
  H  H3  1  0.040573  0.333869  0.964593  1
  H  H4  1  0.540573  0.833870  0.535407  1
  H  H5  1  0.040573  0.166131  0.964593  1
  H  H6  1  0.959428  0.666130  0.035407  1
  H  H7  1  0.459428  0.333869  0.464593  1
  O  O8  1  0.474080  0.750000  0.512965  1
  O  O9  1  0.974080  0.250000  0.987036  1
  O  O10  1  0.525919  0.250000  0.487035  1
  O  O11  1  0.025919  0.750000  0.012964  1
  Cl  Cl12  1  0.576182  0.750000  0.290283  1
  Cl  Cl13  1  0.423818  0.250000  0.709717  1
  Cl  Cl14  1  0.076181  0.250000  0.209717  1
  Cl  Cl15  1  0.923818  0.750000  0.790283  1
  Cl  Cl16  1  0.378867  0.750000  0.753076  1
  Cl  Cl17  1  0.878866  0.250000  0.746924  1
  Cl  Cl18  1  0.621133  0.250000  0.246924  1
  Cl  Cl19  1  0.121133  0.750000  0.253076  1
  Cl  Cl20  1  0.456893  0.750000  0.992195  1
  Cl  Cl21  1  0.956893  0.250000  0.507805  1
  Cl  Cl22  1  0.686738  0.501022  0.601849  1
  Cl  Cl23  1  0.043107  0.750000  0.492195  1
  Cl  Cl24  1  0.186738  1.001022  0.898151  1
  Cl  Cl25  1  0.686738  -0.001021  0.601849  1
  Cl  Cl26  1  0.813262  0.501022  0.101849  1
  Cl  Cl27  1  0.313261  0.498978  0.398151  1
  Cl  Cl28  1  0.813262  -0.001021  0.101849  1
  Cl  Cl29  1  0.313261  1.001022  0.398151  1
  Cl  Cl30  1  0.186738  0.498978  0.898151  1
  Cl  Cl31  1  0.543108  0.250000  0.007805  1
  K  K32  1  0.133814  0.997491  0.648870  1
  K  K33  1  0.633815  0.002510  0.851130  1
  K  K34  1  0.866185  0.497491  0.351130  1
  K  K35  1  0.366185  0.502509  0.148870  1
  K  K36  1  0.633815  0.497491  0.851130  1
  K  K37  1  0.133814  0.502509  0.648870  1
  K  K38  1  0.866185  0.002510  0.351130  1
  K  K39  1  0.366185  0.997491  0.148870  1
  Fe  Fe40  1  0.189094  0.750000  0.890834  1
  Fe  Fe41  1  0.689093  0.250000  0.609166  1
  Fe  Fe42  1  0.810906  0.250000  0.109166  1
  Fe  Fe43  1  0.310906  0.750000  0.390834  1
