# generated using pymatgen
data_LaHO
_symmetry_space_group_name_H-M   'P 1'
_cell_length_a   5.71151625
_cell_length_b   8.08426599
_cell_length_c   8.08426599
_cell_angle_alpha   90.00000000
_cell_angle_beta   90.00000000
_cell_angle_gamma   90.00000000
_symmetry_Int_Tables_number   1
_chemical_formula_structural   LaHO
_chemical_formula_sum   'La8 H8 O8'
_cell_volume   373.27818123
_cell_formula_units_Z   8
loop_
 _symmetry_equiv_pos_site_id
 _symmetry_equiv_pos_as_xyz
  1  'x, y, z'
loop_
 _atom_site_type_symbol
 _atom_site_label
 _atom_site_symmetry_multiplicity
 _atom_site_fract_x
 _atom_site_fract_y
 _atom_site_fract_z
 _atom_site_occupancy
  La  La0  1  0.000000  0.750000  0.250000  1
  La  La1  1  0.000000  0.250000  0.750000  1
  La  La2  1  0.944312  0.250000  0.250000  1
  La  La3  1  0.055688  0.750000  0.750000  1
  La  La4  1  0.500000  0.000000  0.000000  1
  La  La5  1  0.500000  0.500000  0.000000  1
  La  La6  1  0.500000  0.000000  0.500000  1
  La  La7  1  0.500000  0.500000  0.500000  1
  O  O8  1  0.742350  0.250000  0.513628  1
  O  O9  1  0.742350  0.986372  0.250000  1
  O  O10  1  0.742350  0.513628  0.250000  1
  O  O11  1  0.742350  0.250000  0.986372  1
  O  O12  1  0.257650  0.750000  0.486372  1
  O  O13  1  0.257650  0.750000  0.013628  1
  O  O14  1  0.257650  0.013628  0.750000  1
  O  O15  1  0.257650  0.486372  0.750000  1
  H  H16  1  0.245143  0.250000  0.481619  1
  H  H17  1  0.245143  0.018381  0.250000  1
  H  H18  1  0.245143  0.481619  0.250000  1
  H  H19  1  0.245143  0.250000  0.018381  1
  H  H20  1  0.754857  0.750000  0.518381  1
  H  H21  1  0.754857  0.750000  0.981619  1
  H  H22  1  0.754857  0.981619  0.750000  1
  H  H23  1  0.754857  0.518381  0.750000  1
