# generated using pymatgen
data_Li3V2(SiO5)2
_symmetry_space_group_name_H-M   'P 1'
_cell_length_a   6.38841704
_cell_length_b   6.38841704
_cell_length_c   9.14863976
_cell_angle_alpha   90.00000000
_cell_angle_beta   90.00000000
_cell_angle_gamma   90.18688065
_symmetry_Int_Tables_number   1
_chemical_formula_structural   Li3V2(SiO5)2
_chemical_formula_sum   'Li6 V4 Si4 O20'
_cell_volume   373.37113078
_cell_formula_units_Z   2
loop_
 _symmetry_equiv_pos_site_id
 _symmetry_equiv_pos_as_xyz
  1  'x, y, z'
loop_
 _atom_site_type_symbol
 _atom_site_label
 _atom_site_symmetry_multiplicity
 _atom_site_fract_x
 _atom_site_fract_y
 _atom_site_fract_z
 _atom_site_occupancy
  Li  Li0  1  0.000000  0.000000  0.250000  1
  Li  Li1  1  0.000000  0.500000  0.250000  1
  Li  Li2  1  0.000000  0.500000  0.750000  1
  Li  Li3  1  0.500000  0.500000  0.750000  1
  Li  Li4  1  0.500000  0.000000  0.250000  1
  Li  Li5  1  0.500000  0.000000  0.750000  1
  O  O6  1  0.041599  0.751872  0.393892  1
  O  O7  1  0.042962  0.741242  0.893396  1
  O  O8  1  0.251872  0.541599  0.606108  1
  O  O9  1  0.230776  0.230776  0.366455  1
  O  O10  1  0.269224  0.269224  0.866455  1
  O  O11  1  0.241242  0.542962  0.106604  1
  O  O12  1  0.248128  0.958401  0.106108  1
  O  O13  1  0.258758  0.957038  0.606604  1
  O  O14  1  0.457038  0.758758  0.393396  1
  O  O15  1  0.458401  0.748128  0.893892  1
  O  O16  1  0.542962  0.241242  0.106604  1
  O  O17  1  0.541599  0.251872  0.606108  1
  O  O18  1  0.751872  0.041599  0.393892  1
  O  O19  1  0.758758  0.457038  0.393396  1
  O  O20  1  0.769224  0.769224  0.133545  1
  O  O21  1  0.730776  0.730776  0.633545  1
  O  O22  1  0.741242  0.042962  0.893396  1
  O  O23  1  0.748128  0.458401  0.893892  1
  O  O24  1  0.958401  0.248128  0.106108  1
  O  O25  1  0.957038  0.258758  0.606604  1
  Si  Si26  1  0.249476  0.749476  0.500000  1
  Si  Si27  1  0.250524  0.750524  0.000000  1
  Si  Si28  1  0.750524  0.250524  0.000000  1
  Si  Si29  1  0.749476  0.249476  0.500000  1
  V  V30  1  0.258399  0.258399  0.047449  1
  V  V31  1  0.241601  0.241601  0.547449  1
  V  V32  1  0.741601  0.741601  0.452551  1
  V  V33  1  0.758399  0.758399  0.952551  1
