# generated using pymatgen
data_Ce2InPt2
_symmetry_space_group_name_H-M   'P 1'
_cell_length_a   3.76358258
_cell_length_b   7.85567628
_cell_length_c   7.85567628
_cell_angle_alpha   90.00000000
_cell_angle_beta   90.00000000
_cell_angle_gamma   90.00000000
_symmetry_Int_Tables_number   1
_chemical_formula_structural   Ce2InPt2
_chemical_formula_sum   'Ce4 In2 Pt4'
_cell_volume   232.25689023
_cell_formula_units_Z   2
loop_
 _symmetry_equiv_pos_site_id
 _symmetry_equiv_pos_as_xyz
  1  'x, y, z'
loop_
 _atom_site_type_symbol
 _atom_site_label
 _atom_site_symmetry_multiplicity
 _atom_site_fract_x
 _atom_site_fract_y
 _atom_site_fract_z
 _atom_site_occupancy
  In  In0  1  0.000000  0.500000  0.500000  1
  In  In1  1  0.000000  0.000000  0.000000  1
  Ce  Ce2  1  0.500000  0.827484  0.672516  1
  Ce  Ce3  1  0.500000  0.327484  0.827484  1
  Ce  Ce4  1  0.500000  0.172516  0.327484  1
  Ce  Ce5  1  0.500000  0.672516  0.172516  1
  Pt  Pt6  1  0.000000  0.131017  0.631017  1
  Pt  Pt7  1  0.000000  0.631017  0.868983  1
  Pt  Pt8  1  0.000000  0.368983  0.131017  1
  Pt  Pt9  1  0.000000  0.868983  0.368983  1
