# generated using pymatgen
data_K4ZnO3
_symmetry_space_group_name_H-M   'P 1'
_cell_length_a   7.03859361
_cell_length_b   8.99823282
_cell_length_c   11.18832074
_cell_angle_alpha   77.51327598
_cell_angle_beta   89.33665415
_cell_angle_gamma   70.35404950
_symmetry_Int_Tables_number   1
_chemical_formula_structural   K4ZnO3
_chemical_formula_sum   'K16 Zn4 O12'
_cell_volume   650.13516183
_cell_formula_units_Z   4
loop_
 _symmetry_equiv_pos_site_id
 _symmetry_equiv_pos_as_xyz
  1  'x, y, z'
loop_
 _atom_site_type_symbol
 _atom_site_label
 _atom_site_symmetry_multiplicity
 _atom_site_fract_x
 _atom_site_fract_y
 _atom_site_fract_z
 _atom_site_occupancy
  O  O0  1  0.636024  0.690550  0.285040  1
  O  O1  1  0.925369  0.803011  0.464246  1
  O  O2  1  0.074631  0.196989  0.535754  1
  O  O3  1  0.560310  0.678652  0.581611  1
  O  O4  1  0.439690  0.321348  0.418389  1
  O  O5  1  0.859933  0.361085  0.902657  1
  O  O6  1  0.140067  0.638915  0.097343  1
  O  O7  1  0.607445  0.162806  0.105179  1
  O  O8  1  0.392555  0.837194  0.894821  1
  O  O9  1  0.363976  0.309450  0.714960  1
  O  O10  1  0.942318  0.828910  0.816195  1
  O  O11  1  0.057682  0.171090  0.183805  1
  K  K12  1  0.635749  0.088365  0.882899  1
  K  K13  1  0.221568  0.343521  0.017651  1
  K  K14  1  0.844744  0.121805  0.377798  1
  K  K15  1  0.155256  0.878195  0.622202  1
  K  K16  1  0.311298  0.644494  0.419576  1
  K  K17  1  0.114955  0.134336  0.796168  1
  K  K18  1  0.885045  0.865664  0.203832  1
  K  K19  1  0.378381  0.093814  0.331316  1
  K  K20  1  0.621619  0.906186  0.668684  1
  K  K21  1  0.016521  0.447647  0.296226  1
  K  K22  1  0.983479  0.552353  0.703774  1
  K  K23  1  0.497398  0.530109  0.800057  1
  K  K24  1  0.502602  0.469891  0.199943  1
  K  K25  1  0.688702  0.355506  0.580424  1
  K  K26  1  0.778432  0.656479  0.982349  1
  K  K27  1  0.364251  0.911635  0.117101  1
  Zn  Zn28  1  0.836213  0.233140  0.061141  1
  Zn  Zn29  1  0.163787  0.766860  0.938859  1
  Zn  Zn30  1  0.711952  0.722022  0.440853  1
  Zn  Zn31  1  0.288048  0.277978  0.559147  1
