# generated using pymatgen
data_Sb6S2O15
_symmetry_space_group_name_H-M   'P 1'
_cell_length_a   5.96384656
_cell_length_b   11.41810241
_cell_length_c   11.41810240
_cell_angle_alpha   114.14645270
_cell_angle_beta   90.00000000
_cell_angle_gamma   90.00000000
_symmetry_Int_Tables_number   1
_chemical_formula_structural   Sb6S2O15
_chemical_formula_sum   'Sb12 S4 O30'
_cell_volume   709.49370240
_cell_formula_units_Z   2
loop_
 _symmetry_equiv_pos_site_id
 _symmetry_equiv_pos_as_xyz
  1  'x, y, z'
loop_
 _atom_site_type_symbol
 _atom_site_label
 _atom_site_symmetry_multiplicity
 _atom_site_fract_x
 _atom_site_fract_y
 _atom_site_fract_z
 _atom_site_occupancy
  O  O0  1  0.329157  0.339687  0.515304  1
  O  O1  1  0.329157  0.660313  0.484696  1
  O  O2  1  0.829157  0.484696  0.660313  1
  O  O3  1  0.829157  0.515304  0.339687  1
  O  O4  1  0.282252  0.227095  0.657864  1
  O  O5  1  0.282252  0.772905  0.342136  1
  O  O6  1  0.782252  0.342136  0.772905  1
  O  O7  1  0.782252  0.657864  0.227095  1
  O  O8  1  0.150171  0.130167  0.438259  1
  O  O9  1  0.150171  0.869833  0.561741  1
  O  O10  1  0.650171  0.561741  0.869833  1
  O  O11  1  0.650171  0.438259  0.130167  1
  O  O12  1  0.158632  0.000000  0.000000  1
  O  O13  1  0.658632  0.000000  0.000000  1
  O  O14  1  0.120402  0.241101  0.238894  1
  O  O15  1  0.120402  0.758899  0.761106  1
  O  O16  1  0.620402  0.761106  0.758899  1
  O  O17  1  0.620402  0.238894  0.241101  1
  O  O18  1  0.828812  0.949208  0.742804  1
  O  O19  1  0.828812  0.050792  0.257196  1
  O  O20  1  0.328812  0.257196  0.050792  1
  O  O21  1  0.328812  0.742804  0.949208  1
  O  O22  1  0.107484  0.172133  0.843883  1
  O  O23  1  0.107484  0.827867  0.156117  1
  O  O24  1  0.607484  0.156117  0.827867  1
  O  O25  1  0.607484  0.843883  0.172133  1
  O  O26  1  0.553296  0.147625  0.481507  1
  O  O27  1  0.553296  0.852375  0.518493  1
  O  O28  1  0.053296  0.518493  0.852375  1
  O  O29  1  0.053296  0.481507  0.147625  1
  S  S30  1  0.337333  0.215188  0.524541  1
  S  S31  1  0.337333  0.784812  0.475459  1
  S  S32  1  0.837333  0.475459  0.784812  1
  S  S33  1  0.837333  0.524541  0.215188  1
  Sb  Sb34  1  0.875216  0.880670  0.297098  1
  Sb  Sb35  1  0.875216  0.119330  0.702902  1
  Sb  Sb36  1  0.375216  0.702902  0.119330  1
  Sb  Sb37  1  0.375216  0.297098  0.880670  1
  Sb  Sb38  1  0.396578  0.624584  0.756921  1
  Sb  Sb39  1  0.396578  0.375416  0.243079  1
  Sb  Sb40  1  0.896578  0.243079  0.375416  1
  Sb  Sb41  1  0.896578  0.756921  0.624584  1
  Sb  Sb42  1  0.509812  0.042613  0.173291  1
  Sb  Sb43  1  0.509812  0.957387  0.826709  1
  Sb  Sb44  1  0.009812  0.826709  0.957387  1
  Sb  Sb45  1  0.009812  0.173291  0.042613  1
