# generated using pymatgen
data_Ba8Ni6N7
_symmetry_space_group_name_H-M   'P 1'
_cell_length_a   9.60208512
_cell_length_b   9.67205705
_cell_length_c   12.09413001
_cell_angle_alpha   81.60373938
_cell_angle_beta   72.89252333
_cell_angle_gamma   60.23902624
_symmetry_Int_Tables_number   1
_chemical_formula_structural   Ba8Ni6N7
_chemical_formula_sum   'Ba16 Ni12 N14'
_cell_volume   931.91667788
_cell_formula_units_Z   2
loop_
 _symmetry_equiv_pos_site_id
 _symmetry_equiv_pos_as_xyz
  1  'x, y, z'
loop_
 _atom_site_type_symbol
 _atom_site_label
 _atom_site_symmetry_multiplicity
 _atom_site_fract_x
 _atom_site_fract_y
 _atom_site_fract_z
 _atom_site_occupancy
  N  N0  1  0.500000  0.500000  0.500000  1
  N  N1  1  0.000000  0.500000  0.000000  1
  N  N2  1  0.406962  0.186077  0.750000  1
  N  N3  1  0.593038  0.813923  0.250000  1
  N  N4  1  0.915052  0.169896  0.750000  1
  N  N5  1  0.084948  0.830104  0.250000  1
  N  N6  1  0.753654  0.883887  0.499929  1
  N  N7  1  0.362460  0.883887  0.000071  1
  N  N8  1  0.246346  0.116113  0.500071  1
  N  N9  1  0.637540  0.116113  0.999929  1
  N  N10  1  0.931102  0.661524  0.728815  1
  N  N11  1  0.407374  0.661524  0.771185  1
  N  N12  1  0.068898  0.338476  0.271185  1
  N  N13  1  0.592626  0.338476  0.228815  1
  Ni  Ni14  1  0.059409  0.158170  0.614187  1
  Ni  Ni15  1  0.782421  0.158170  0.885813  1
  Ni  Ni16  1  0.633996  0.237988  0.101067  1
  Ni  Ni17  1  0.128017  0.237988  0.398933  1
  Ni  Ni18  1  0.366004  0.762012  0.898933  1
  Ni  Ni19  1  0.871983  0.762012  0.601067  1
  Ni  Ni20  1  0.040849  0.416350  0.132467  1
  Ni  Ni21  1  0.542801  0.416350  0.367533  1
  Ni  Ni22  1  0.959151  0.583650  0.867533  1
  Ni  Ni23  1  0.457199  0.583650  0.632467  1
  Ni  Ni24  1  0.217579  0.841830  0.114187  1
  Ni  Ni25  1  0.940591  0.841830  0.385813  1
  Ba  Ba26  1  0.082593  0.834814  0.750000  1
  Ba  Ba27  1  0.917407  0.165186  0.250000  1
  Ba  Ba28  1  0.752814  0.494372  0.750000  1
  Ba  Ba29  1  0.247186  0.505628  0.250000  1
  Ba  Ba30  1  0.703634  0.179472  0.598893  1
  Ba  Ba31  1  0.116893  0.179472  0.901107  1
  Ba  Ba32  1  0.296366  0.820528  0.401107  1
  Ba  Ba33  1  0.883107  0.820528  0.098893  1
  Ba  Ba34  1  0.636452  0.595538  0.103346  1
  Ba  Ba35  1  0.768010  0.595538  0.396654  1
  Ba  Ba36  1  0.363548  0.404462  0.896654  1
  Ba  Ba37  1  0.231990  0.404462  0.603346  1
  Ba  Ba38  1  0.553512  0.064444  0.357164  1
  Ba  Ba39  1  0.382044  0.064444  0.142836  1
  Ba  Ba40  1  0.446488  0.935556  0.642836  1
  Ba  Ba41  1  0.617956  0.935556  0.857164  1
