# generated using pymatgen
data_AsPbF7
_symmetry_space_group_name_H-M   'P 1'
_cell_length_a   4.74827577
_cell_length_b   7.36548066
_cell_length_c   7.63294090
_cell_angle_alpha   105.88971766
_cell_angle_beta   101.54526852
_cell_angle_gamma   90.75353728
_symmetry_Int_Tables_number   1
_chemical_formula_structural   AsPbF7
_chemical_formula_sum   'As2 Pb2 F14'
_cell_volume   250.89973195
_cell_formula_units_Z   2
loop_
 _symmetry_equiv_pos_site_id
 _symmetry_equiv_pos_as_xyz
  1  'x, y, z'
loop_
 _atom_site_type_symbol
 _atom_site_label
 _atom_site_symmetry_multiplicity
 _atom_site_fract_x
 _atom_site_fract_y
 _atom_site_fract_z
 _atom_site_occupancy
  F  F0  1  0.278209  0.578390  0.084675  1
  F  F1  1  0.721791  0.421610  0.915325  1
  F  F2  1  0.923376  0.941027  0.662296  1
  F  F3  1  0.076624  0.058973  0.337704  1
  F  F4  1  0.134629  0.185208  0.067375  1
  F  F5  1  0.865371  0.814792  0.932625  1
  F  F6  1  0.796745  0.596362  0.610097  1
  F  F7  1  0.203255  0.403638  0.389903  1
  F  F8  1  0.567969  0.205408  0.511773  1
  F  F9  1  0.432031  0.794592  0.488227  1
  F  F10  1  0.628930  0.319627  0.239501  1
  F  F11  1  0.371070  0.680373  0.760499  1
  F  F12  1  0.491666  0.973971  0.187299  1
  F  F13  1  0.508334  0.026029  0.812701  1
  As  As14  1  0.647872  0.810881  0.711289  1
  As  As15  1  0.352128  0.189119  0.288711  1
  Pb  Pb16  1  0.822046  0.652041  0.200216  1
  Pb  Pb17  1  0.177954  0.347959  0.799784  1
