# generated using pymatgen
data_MoPb2O5
_symmetry_space_group_name_H-M   'P 1'
_cell_length_a   5.93187730
_cell_length_b   7.50007128
_cell_length_c   7.78108946
_cell_angle_alpha   110.47606698
_cell_angle_beta   112.40633955
_cell_angle_gamma   90.00000001
_symmetry_Int_Tables_number   1
_chemical_formula_structural   MoPb2O5
_chemical_formula_sum   'Mo2 Pb4 O10'
_cell_volume   296.24646654
_cell_formula_units_Z   2
loop_
 _symmetry_equiv_pos_site_id
 _symmetry_equiv_pos_as_xyz
  1  'x, y, z'
loop_
 _atom_site_type_symbol
 _atom_site_label
 _atom_site_symmetry_multiplicity
 _atom_site_fract_x
 _atom_site_fract_y
 _atom_site_fract_z
 _atom_site_occupancy
  O  O0  1  0.746804  0.000000  0.000000  1
  O  O1  1  0.253196  0.000000  0.000000  1
  O  O2  1  0.699018  0.306182  0.398037  1
  O  O3  1  0.300982  0.693818  0.601963  1
  O  O4  1  0.903987  0.778526  0.291482  1
  O  O5  1  0.612505  0.221474  0.708518  1
  O  O6  1  0.907347  0.596512  0.814693  1
  O  O7  1  0.092653  0.403488  0.185307  1
  O  O8  1  0.387495  0.778526  0.291482  1
  O  O9  1  0.096013  0.221474  0.708518  1
  Mo  Mo10  1  0.829676  0.340753  0.659352  1
  Mo  Mo11  1  0.170324  0.659247  0.340648  1
  Pb  Pb12  1  0.509086  0.248858  0.018171  1
  Pb  Pb13  1  0.490914  0.751142  0.981829  1
  Pb  Pb14  1  0.135166  0.112081  0.270332  1
  Pb  Pb15  1  0.864834  0.887919  0.729668  1
