# generated using pymatgen
data_Tl3BSe3
_symmetry_space_group_name_H-M   'P 1'
_cell_length_a   5.80223999
_cell_length_b   6.91777728
_cell_length_c   10.44054343
_cell_angle_alpha   90.00000000
_cell_angle_beta   90.00000000
_cell_angle_gamma   97.75890723
_symmetry_Int_Tables_number   1
_chemical_formula_structural   Tl3BSe3
_chemical_formula_sum   'Tl6 B2 Se6'
_cell_volume   415.23222991
_cell_formula_units_Z   2
loop_
 _symmetry_equiv_pos_site_id
 _symmetry_equiv_pos_as_xyz
  1  'x, y, z'
loop_
 _atom_site_type_symbol
 _atom_site_label
 _atom_site_symmetry_multiplicity
 _atom_site_fract_x
 _atom_site_fract_y
 _atom_site_fract_z
 _atom_site_occupancy
  Tl  Tl0  1  0.183310  0.009132  0.750000  1
  Tl  Tl1  1  0.816690  0.990868  0.250000  1
  Tl  Tl2  1  0.275444  0.664461  0.447857  1
  Tl  Tl3  1  0.724556  0.335539  0.947857  1
  Tl  Tl4  1  0.724556  0.335539  0.552143  1
  Tl  Tl5  1  0.275444  0.664461  0.052143  1
  Se  Se6  1  0.318553  0.554524  0.750000  1
  Se  Se7  1  0.681447  0.445476  0.250000  1
  Se  Se8  1  0.751394  0.831701  0.913867  1
  Se  Se9  1  0.248606  0.168299  0.413867  1
  Se  Se10  1  0.248606  0.168299  0.086133  1
  Se  Se11  1  0.751394  0.831701  0.586133  1
  B  B12  1  0.607615  0.740175  0.750000  1
  B  B13  1  0.392385  0.259825  0.250000  1
