# generated using pymatgen
data_LaNiGe2
_symmetry_space_group_name_H-M   'P 1'
_cell_length_a   4.27044578
_cell_length_b   4.32244723
_cell_length_c   8.75669935
_cell_angle_alpha   104.28870728
_cell_angle_beta   90.00000000
_cell_angle_gamma   90.00000000
_symmetry_Int_Tables_number   1
_chemical_formula_structural   LaNiGe2
_chemical_formula_sum   'La2 Ni2 Ge4'
_cell_volume   156.63758853
_cell_formula_units_Z   2
loop_
 _symmetry_equiv_pos_site_id
 _symmetry_equiv_pos_as_xyz
  1  'x, y, z'
loop_
 _atom_site_type_symbol
 _atom_site_label
 _atom_site_symmetry_multiplicity
 _atom_site_fract_x
 _atom_site_fract_y
 _atom_site_fract_z
 _atom_site_occupancy
  Ni  Ni0  1  0.750000  0.182038  0.364077  1
  Ni  Ni1  1  0.250000  0.817962  0.635923  1
  Ge  Ge2  1  0.250000  0.249782  0.499564  1
  Ge  Ge3  1  0.750000  0.750218  0.500436  1
  Ge  Ge4  1  0.750000  0.042976  0.085952  1
  Ge  Ge5  1  0.250000  0.957024  0.914048  1
  La  La6  1  0.250000  0.609052  0.218105  1
  La  La7  1  0.750000  0.390948  0.781895  1
