# generated using pymatgen
data_CeTaO4
_symmetry_space_group_name_H-M   'P 1'
_cell_length_a   5.49787092
_cell_length_b   7.73793993
_cell_length_c   7.78690843
_cell_angle_alpha   100.27419856
_cell_angle_beta   90.00000000
_cell_angle_gamma   90.00000000
_symmetry_Int_Tables_number   1
_chemical_formula_structural   CeTaO4
_chemical_formula_sum   'Ce4 Ta4 O16'
_cell_volume   325.96037836
_cell_formula_units_Z   4
loop_
 _symmetry_equiv_pos_site_id
 _symmetry_equiv_pos_as_xyz
  1  'x, y, z'
loop_
 _atom_site_type_symbol
 _atom_site_label
 _atom_site_symmetry_multiplicity
 _atom_site_fract_x
 _atom_site_fract_y
 _atom_site_fract_z
 _atom_site_occupancy
  O  O0  1  0.503788  0.667203  0.130356  1
  O  O1  1  0.003788  0.332797  0.369644  1
  O  O2  1  0.496212  0.332797  0.869644  1
  O  O3  1  0.996212  0.667203  0.630356  1
  O  O4  1  0.987318  0.614714  0.169706  1
  O  O5  1  0.487318  0.385286  0.330294  1
  O  O6  1  0.012682  0.385286  0.830294  1
  O  O7  1  0.512682  0.614714  0.669706  1
  O  O8  1  0.845932  0.828956  0.943627  1
  O  O9  1  0.345932  0.171044  0.556373  1
  O  O10  1  0.154068  0.171044  0.056373  1
  O  O11  1  0.654068  0.828956  0.443627  1
  O  O12  1  0.408863  0.942767  0.794351  1
  O  O13  1  0.908863  0.057232  0.705649  1
  O  O14  1  0.591137  0.057232  0.205649  1
  O  O15  1  0.091137  0.942767  0.294351  1
  Ce  Ce16  1  0.223033  0.649540  0.896627  1
  Ce  Ce17  1  0.723033  0.350460  0.603373  1
  Ce  Ce18  1  0.776967  0.350460  0.103373  1
  Ce  Ce19  1  0.276967  0.649540  0.396627  1
  Ta  Ta20  1  0.732480  0.834783  0.695222  1
  Ta  Ta21  1  0.232480  0.165217  0.804778  1
  Ta  Ta22  1  0.267520  0.165217  0.304778  1
  Ta  Ta23  1  0.767520  0.834783  0.195222  1
