# generated using pymatgen
data_Rb5Zr4F21
_symmetry_space_group_name_H-M   'P 1'
_cell_length_a   8.02553474
_cell_length_b   11.45095330
_cell_length_c   11.75179593
_cell_angle_alpha   90.00000000
_cell_angle_beta   98.24456358
_cell_angle_gamma   90.00000000
_symmetry_Int_Tables_number   1
_chemical_formula_structural   Rb5Zr4F21
_chemical_formula_sum   'Rb10 Zr8 F42'
_cell_volume   1068.82862019
_cell_formula_units_Z   2
loop_
 _symmetry_equiv_pos_site_id
 _symmetry_equiv_pos_as_xyz
  1  'x, y, z'
loop_
 _atom_site_type_symbol
 _atom_site_label
 _atom_site_symmetry_multiplicity
 _atom_site_fract_x
 _atom_site_fract_y
 _atom_site_fract_z
 _atom_site_occupancy
  F  F0  1  0.941260  0.103921  0.712309  1
  F  F1  1  0.058740  0.603921  0.287691  1
  F  F2  1  0.623641  0.063745  0.602378  1
  F  F3  1  0.376359  0.563745  0.397622  1
  F  F4  1  0.947670  0.122505  0.497227  1
  F  F5  1  0.052330  0.622505  0.502773  1
  F  F6  1  0.480057  0.167792  0.809943  1
  F  F7  1  0.519943  0.667792  0.190057  1
  F  F8  1  0.886740  0.356379  0.559811  1
  F  F9  1  0.113260  0.856379  0.440189  1
  F  F10  1  0.434640  0.331938  0.301617  1
  F  F11  1  0.565360  0.831938  0.698383  1
  F  F12  1  0.543705  0.303408  0.598570  1
  F  F13  1  0.456295  0.803408  0.401430  1
  F  F14  1  0.328357  0.206189  0.126203  1
  F  F15  1  0.344792  0.403708  0.882268  1
  F  F16  1  0.295618  0.129922  0.383006  1
  F  F17  1  0.704382  0.629922  0.616994  1
  F  F18  1  0.610695  0.002421  0.323771  1
  F  F19  1  0.389305  0.502421  0.676229  1
  F  F20  1  0.013121  0.893453  0.990133  1
  F  F21  1  0.986879  0.393453  0.009867  1
  F  F22  1  0.006718  0.794190  0.764019  1
  F  F23  1  0.993282  0.294190  0.235981  1
  F  F24  1  0.346787  0.995599  0.198842  1
  F  F25  1  0.653213  0.495599  0.801158  1
  F  F26  1  0.103736  0.648741  0.966442  1
  F  F27  1  0.896264  0.148741  0.033558  1
  F  F28  1  0.236597  0.779316  0.241476  1
  F  F29  1  0.763403  0.279316  0.758524  1
  F  F30  1  0.285447  0.945137  0.844436  1
  F  F31  1  0.714553  0.445137  0.155564  1
  F  F32  1  0.329620  0.693283  0.819637  1
  F  F33  1  0.670380  0.193283  0.180363  1
  F  F34  1  0.346858  0.706138  0.581161  1
  F  F35  1  0.653142  0.206138  0.418839  1
  F  F36  1  0.739606  0.793815  0.310673  1
  F  F37  1  0.260394  0.293815  0.689327  1
  F  F38  1  0.361938  0.817751  0.047768  1
  F  F39  1  0.638062  0.317751  0.952232  1
  F  F40  1  0.671643  0.706189  0.873797  1
  F  F41  1  0.655208  0.903708  0.117732  1
  Rb  Rb42  1  0.315268  0.478503  0.114416  1
  Rb  Rb43  1  0.684732  0.978503  0.885584  1
  Rb  Rb44  1  0.024096  0.510089  0.744294  1
  Rb  Rb45  1  0.975904  0.010089  0.255706  1
  Rb  Rb46  1  0.166117  0.173521  0.904752  1
  Rb  Rb47  1  0.833883  0.673521  0.095248  1
  Rb  Rb48  1  0.193436  0.359854  0.455771  1
  Rb  Rb49  1  0.806564  0.859854  0.544229  1
  Rb  Rb50  1  0.282220  0.024128  0.608346  1
  Rb  Rb51  1  0.717780  0.524128  0.391654  1
  Zr  Zr52  1  0.465730  0.158092  0.276310  1
  Zr  Zr53  1  0.534270  0.658092  0.723690  1
  Zr  Zr54  1  0.825680  0.305337  0.092478  1
  Zr  Zr55  1  0.174320  0.805337  0.907522  1
  Zr  Zr56  1  0.497575  0.339918  0.771499  1
  Zr  Zr57  1  0.502425  0.839918  0.228501  1
  Zr  Zr58  1  0.783886  0.198209  0.593556  1
  Zr  Zr59  1  0.216114  0.698209  0.406444  1
