# generated using pymatgen
data_H4INO4
_symmetry_space_group_name_H-M   'P 1'
_cell_length_a   6.25950105
_cell_length_b   6.25950105
_cell_length_c   7.58224815
_cell_angle_alpha   114.37917637
_cell_angle_beta   114.37917643
_cell_angle_gamma   90.00000000
_symmetry_Int_Tables_number   1
_chemical_formula_structural   H4INO4
_chemical_formula_sum   'H8 I2 N2 O8'
_cell_volume   241.21146774
_cell_formula_units_Z   2
loop_
 _symmetry_equiv_pos_site_id
 _symmetry_equiv_pos_as_xyz
  1  'x, y, z'
loop_
 _atom_site_type_symbol
 _atom_site_label
 _atom_site_symmetry_multiplicity
 _atom_site_fract_x
 _atom_site_fract_y
 _atom_site_fract_z
 _atom_site_occupancy
  H  H0  1  0.648038  0.056060  0.348826  1
  H  H1  1  0.292766  0.148038  0.848826  1
  H  H2  1  0.556060  0.200788  0.848826  1
  H  H3  1  0.700788  0.792766  0.348826  1
  H  H4  1  0.351962  0.943940  0.651174  1
  H  H5  1  0.707234  0.851962  0.151174  1
  H  H6  1  0.443940  0.799212  0.151174  1
  H  H7  1  0.299212  0.207234  0.651174  1
  N  N8  1  0.375000  0.125000  0.750000  1
  N  N9  1  0.625000  0.875000  0.250000  1
  O  O10  1  0.671420  0.338754  0.584992  1
  O  O11  1  0.328580  0.661246  0.415008  1
  O  O12  1  0.086428  0.253763  0.415008  1
  O  O13  1  0.753763  0.828580  0.915008  1
  O  O14  1  0.838754  0.413572  0.084992  1
  O  O15  1  0.246237  0.171420  0.084992  1
  O  O16  1  0.913572  0.746237  0.584992  1
  O  O17  1  0.161246  0.586428  0.915008  1
  I  I18  1  0.875000  0.625000  0.750000  1
  I  I19  1  0.125000  0.375000  0.250000  1
