# generated using pymatgen
data_Ce4Ge9Rh13
_symmetry_space_group_name_H-M   'P 1'
_cell_length_a   3.98185338
_cell_length_b   11.38274284
_cell_length_c   19.67599137
_cell_angle_alpha   90.00000000
_cell_angle_beta   90.00000000
_cell_angle_gamma   90.00000000
_symmetry_Int_Tables_number   1
_chemical_formula_structural   Ce4Ge9Rh13
_chemical_formula_sum   'Ce8 Ge18 Rh26'
_cell_volume   891.80276004
_cell_formula_units_Z   2
loop_
 _symmetry_equiv_pos_site_id
 _symmetry_equiv_pos_as_xyz
  1  'x, y, z'
loop_
 _atom_site_type_symbol
 _atom_site_label
 _atom_site_symmetry_multiplicity
 _atom_site_fract_x
 _atom_site_fract_y
 _atom_site_fract_z
 _atom_site_occupancy
  Ge  Ge0  1  0.250000  0.250000  0.601872  1
  Ge  Ge1  1  0.750000  0.750000  0.398128  1
  Ge  Ge2  1  0.250000  0.061290  0.419157  1
  Ge  Ge3  1  0.750000  0.938710  0.580843  1
  Ge  Ge4  1  0.750000  0.561290  0.580843  1
  Ge  Ge5  1  0.250000  0.438710  0.419157  1
  Ge  Ge6  1  0.250000  0.566589  0.915206  1
  Ge  Ge7  1  0.750000  0.433411  0.084794  1
  Ge  Ge8  1  0.750000  0.066589  0.084794  1
  Ge  Ge9  1  0.250000  0.933411  0.915206  1
  Ge  Ge10  1  0.250000  0.623766  0.229795  1
  Ge  Ge11  1  0.750000  0.376234  0.770205  1
  Ge  Ge12  1  0.750000  0.123766  0.770205  1
  Ge  Ge13  1  0.250000  0.876234  0.229795  1
  Ge  Ge14  1  0.250000  0.750000  0.102672  1
  Ge  Ge15  1  0.750000  0.250000  0.897328  1
  Ge  Ge16  1  0.250000  0.250000  0.230838  1
  Ge  Ge17  1  0.750000  0.750000  0.769162  1
  Rh  Rh18  1  0.250000  0.449535  0.546185  1
  Rh  Rh19  1  0.750000  0.550465  0.453815  1
  Rh  Rh20  1  0.750000  0.949535  0.453815  1
  Rh  Rh21  1  0.250000  0.050465  0.546185  1
  Rh  Rh22  1  0.250000  0.435202  0.164754  1
  Rh  Rh23  1  0.750000  0.564798  0.835246  1
  Rh  Rh24  1  0.750000  0.935202  0.835246  1
  Rh  Rh25  1  0.250000  0.064798  0.164754  1
  Rh  Rh26  1  0.250000  0.376726  0.854556  1
  Rh  Rh27  1  0.750000  0.623274  0.145444  1
  Rh  Rh28  1  0.750000  0.876726  0.145444  1
  Rh  Rh29  1  0.250000  0.123274  0.854556  1
  Rh  Rh30  1  0.250000  0.558655  0.040688  1
  Rh  Rh31  1  0.750000  0.441345  0.959312  1
  Rh  Rh32  1  0.750000  0.058655  0.959312  1
  Rh  Rh33  1  0.250000  0.941345  0.040688  1
  Rh  Rh34  1  0.250000  0.626802  0.356865  1
  Rh  Rh35  1  0.750000  0.373198  0.643135  1
  Rh  Rh36  1  0.750000  0.126802  0.643135  1
  Rh  Rh37  1  0.250000  0.873198  0.356865  1
  Rh  Rh38  1  0.250000  0.750000  0.844024  1
  Rh  Rh39  1  0.750000  0.250000  0.155976  1
  Rh  Rh40  1  0.250000  0.250000  0.357011  1
  Rh  Rh41  1  0.750000  0.750000  0.642989  1
  Rh  Rh42  1  0.250000  0.250000  0.727410  1
  Rh  Rh43  1  0.750000  0.750000  0.272590  1
  Ce  Ce44  1  0.250000  0.560252  0.708017  1
  Ce  Ce45  1  0.750000  0.439748  0.291983  1
  Ce  Ce46  1  0.750000  0.060252  0.291983  1
  Ce  Ce47  1  0.250000  0.939748  0.708017  1
  Ce  Ce48  1  0.250000  0.750000  0.521283  1
  Ce  Ce49  1  0.750000  0.250000  0.478717  1
  Ce  Ce50  1  0.250000  0.250000  0.020205  1
  Ce  Ce51  1  0.750000  0.750000  0.979795  1
