# generated using pymatgen
data_EuPS3
_symmetry_space_group_name_H-M   'P 1'
_cell_length_a   6.69129368
_cell_length_b   7.58284206
_cell_length_c   9.37426637
_cell_angle_alpha   90.00000000
_cell_angle_beta   91.77904940
_cell_angle_gamma   90.00000000
_symmetry_Int_Tables_number   1
_chemical_formula_structural   EuPS3
_chemical_formula_sum   'Eu4 P4 S12'
_cell_volume   475.41184952
_cell_formula_units_Z   4
loop_
 _symmetry_equiv_pos_site_id
 _symmetry_equiv_pos_as_xyz
  1  'x, y, z'
loop_
 _atom_site_type_symbol
 _atom_site_label
 _atom_site_symmetry_multiplicity
 _atom_site_fract_x
 _atom_site_fract_y
 _atom_site_fract_z
 _atom_site_occupancy
  P  P0  1  0.065402  0.892619  0.433831  1
  P  P1  1  0.434598  0.392619  0.066169  1
  P  P2  1  0.934598  0.107381  0.566169  1
  P  P3  1  0.565402  0.607381  0.933831  1
  S  S4  1  0.607831  0.499721  0.739303  1
  S  S5  1  0.892169  -0.000279  0.760697  1
  S  S6  1  0.392169  0.500279  0.260697  1
  S  S7  1  0.107831  1.000279  0.239303  1
  S  S8  1  0.819970  0.688494  0.040170  1
  S  S9  1  0.680030  0.188494  0.459830  1
  S  S10  1  0.180030  0.311506  0.959830  1
  S  S11  1  0.319970  0.811506  0.540170  1
  S  S12  1  0.353091  0.801007  0.939065  1
  S  S13  1  0.146909  0.301007  0.560935  1
  S  S14  1  0.646909  0.198993  0.060935  1
  S  S15  1  0.853091  0.698993  0.439065  1
  Eu  Eu16  1  0.540300  0.883834  0.249259  1
  Eu  Eu17  1  0.959700  0.383833  0.250741  1
  Eu  Eu18  1  0.459700  0.116167  0.750741  1
  Eu  Eu19  1  0.040300  0.616166  0.749259  1
