# generated using pymatgen
data_TlAuCl4
_symmetry_space_group_name_H-M   'P 1'
_cell_length_a   5.93938817
_cell_length_b   6.92908325
_cell_length_c   10.22052073
_cell_angle_alpha   100.23311238
_cell_angle_beta   90.00000000
_cell_angle_gamma   115.37772951
_symmetry_Int_Tables_number   1
_chemical_formula_structural   TlAuCl4
_chemical_formula_sum   'Tl2 Au2 Cl8'
_cell_volume   372.61261997
_cell_formula_units_Z   2
loop_
 _symmetry_equiv_pos_site_id
 _symmetry_equiv_pos_as_xyz
  1  'x, y, z'
loop_
 _atom_site_type_symbol
 _atom_site_label
 _atom_site_symmetry_multiplicity
 _atom_site_fract_x
 _atom_site_fract_y
 _atom_site_fract_z
 _atom_site_occupancy
  Cl  Cl0  1  0.727790  0.533602  0.851901  1
  Cl  Cl1  1  0.194188  0.466398  0.648099  1
  Cl  Cl2  1  0.272210  0.466398  0.148099  1
  Cl  Cl3  1  0.805812  0.533602  0.351901  1
  Cl  Cl4  1  0.321633  0.124258  0.432093  1
  Cl  Cl5  1  0.197375  0.875742  0.067907  1
  Cl  Cl6  1  0.678367  0.875742  0.567907  1
  Cl  Cl7  1  0.802625  0.124258  0.932093  1
  Au  Au8  1  0.000000  0.500000  0.000000  1
  Au  Au9  1  0.500000  0.500000  0.500000  1
  Tl  Tl10  1  0.227031  0.000000  0.750000  1
  Tl  Tl11  1  0.772969  0.000000  0.250000  1
