# generated using pymatgen
data_CuAs2PbO7
_symmetry_space_group_name_H-M   'P 1'
_cell_length_a   5.69610990
_cell_length_b   8.51909579
_cell_length_c   13.22538477
_cell_angle_alpha   90.00000000
_cell_angle_beta   92.18433079
_cell_angle_gamma   90.00000000
_symmetry_Int_Tables_number   1
_chemical_formula_structural   CuAs2PbO7
_chemical_formula_sum   'Cu4 As8 Pb4 O28'
_cell_volume   641.30480650
_cell_formula_units_Z   4
loop_
 _symmetry_equiv_pos_site_id
 _symmetry_equiv_pos_as_xyz
  1  'x, y, z'
loop_
 _atom_site_type_symbol
 _atom_site_label
 _atom_site_symmetry_multiplicity
 _atom_site_fract_x
 _atom_site_fract_y
 _atom_site_fract_z
 _atom_site_occupancy
  Cu  Cu0  1  0.704062  0.363820  0.382352  1
  Cu  Cu1  1  0.295938  0.636180  0.617648  1
  Cu  Cu2  1  0.795938  0.863820  0.117648  1
  Cu  Cu3  1  0.204062  0.136180  0.882352  1
  As  As4  1  0.752514  0.473754  0.159139  1
  As  As5  1  0.252514  0.026246  0.659139  1
  As  As6  1  0.747486  0.973754  0.340861  1
  As  As7  1  0.672250  0.189568  0.007256  1
  As  As8  1  0.247486  0.526246  0.840861  1
  As  As9  1  0.172250  0.310432  0.507256  1
  As  As10  1  0.327750  0.810432  0.992744  1
  As  As11  1  0.827750  0.689568  0.492744  1
  Pb  Pb12  1  0.295788  0.682207  0.274432  1
  Pb  Pb13  1  0.204212  0.182207  0.225568  1
  Pb  Pb14  1  0.704212  0.317792  0.725568  1
  Pb  Pb15  1  0.795788  0.817793  0.774432  1
  O  O16  1  0.677352  0.595844  0.394079  1
  O  O17  1  0.624858  0.848919  0.985057  1
  O  O18  1  0.651216  0.663370  0.153672  1
  O  O19  1  0.348784  0.336630  0.846328  1
  O  O20  1  0.875142  0.348919  0.514943  1
  O  O21  1  0.708977  0.396533  0.035387  1
  O  O22  1  0.798674  0.174850  0.893812  1
  O  O23  1  0.298674  0.325150  0.393812  1
  O  O24  1  0.959429  0.546443  0.805316  1
  O  O25  1  0.208977  0.103467  0.535387  1
  O  O26  1  0.291023  0.603467  0.964613  1
  O  O27  1  0.934258  0.881633  0.259677  1
  O  O28  1  0.322648  0.404156  0.605921  1
  O  O29  1  0.065742  0.118367  0.740323  1
  O  O30  1  0.822648  0.095844  0.105921  1
  O  O31  1  0.791023  0.896533  0.464613  1
  O  O32  1  0.177352  0.904156  0.894079  1
  O  O33  1  0.201326  0.825150  0.106188  1
  O  O34  1  0.124858  0.651081  0.485057  1
  O  O35  1  0.565742  0.381633  0.240323  1
  O  O36  1  0.375142  0.151081  0.014943  1
  O  O37  1  0.701326  0.674850  0.606188  1
  O  O38  1  0.040571  0.453557  0.194684  1
  O  O39  1  0.459429  0.953557  0.305316  1
  O  O40  1  0.434258  0.618367  0.759677  1
  O  O41  1  0.540571  0.046443  0.694684  1
  O  O42  1  0.848784  0.163370  0.346328  1
  O  O43  1  0.151216  0.836630  0.653672  1
