# generated using pymatgen
data_MgBHO3
_symmetry_space_group_name_H-M   'P 1'
_cell_length_a   3.17945583
_cell_length_b   10.49384588
_cell_length_c   12.69026282
_cell_angle_alpha   90.00000000
_cell_angle_beta   95.91544148
_cell_angle_gamma   90.00000000
_symmetry_Int_Tables_number   1
_chemical_formula_structural   MgBHO3
_chemical_formula_sum   'Mg8 B8 H8 O24'
_cell_volume   421.15244974
_cell_formula_units_Z   8
loop_
 _symmetry_equiv_pos_site_id
 _symmetry_equiv_pos_as_xyz
  1  'x, y, z'
loop_
 _atom_site_type_symbol
 _atom_site_label
 _atom_site_symmetry_multiplicity
 _atom_site_fract_x
 _atom_site_fract_y
 _atom_site_fract_z
 _atom_site_occupancy
  Mg  Mg0  1  0.767030  0.862457  0.494892  1
  Mg  Mg1  1  0.232970  0.137543  0.505108  1
  Mg  Mg2  1  0.767030  0.637543  0.994892  1
  Mg  Mg3  1  0.292168  0.578789  0.587815  1
  Mg  Mg4  1  0.232970  0.362457  0.005108  1
  Mg  Mg5  1  0.707832  0.078789  0.912185  1
  Mg  Mg6  1  0.292168  0.921211  0.087815  1
  Mg  Mg7  1  0.707832  0.421211  0.412185  1
  B  B8  1  0.374146  0.951595  0.693091  1
  B  B9  1  0.625854  0.048405  0.306909  1
  B  B10  1  0.374146  0.548405  0.193091  1
  B  B11  1  0.240878  0.831597  0.861571  1
  B  B12  1  0.759122  0.331597  0.638429  1
  B  B13  1  0.625854  0.451595  0.806909  1
  B  B14  1  0.240878  0.668403  0.361571  1
  B  B15  1  0.759122  0.168403  0.138429  1
  H  H16  1  0.316283  0.881954  0.306106  1
  H  H17  1  0.858039  0.757852  0.161317  1
  H  H18  1  0.141961  0.257852  0.338683  1
  H  H19  1  0.683717  0.381954  0.193894  1
  H  H20  1  0.141961  0.242148  0.838683  1
  H  H21  1  0.683717  0.118046  0.693894  1
  H  H22  1  0.316283  0.618046  0.806106  1
  H  H23  1  0.858039  0.742148  0.661317  1
  O  O24  1  0.601727  0.049620  0.746731  1
  O  O25  1  0.728183  0.154535  0.248580  1
  O  O26  1  0.770072  0.291939  0.101855  1
  O  O27  1  0.271817  0.845465  0.751420  1
  O  O28  1  0.271817  0.654535  0.251420  1
  O  O29  1  0.719318  0.456076  0.914482  1
  O  O30  1  0.229928  0.708061  0.898145  1
  O  O31  1  0.398273  0.950380  0.253269  1
  O  O32  1  0.221929  0.937210  0.923689  1
  O  O33  1  0.398273  0.549620  0.753269  1
  O  O34  1  0.778071  0.437210  0.576311  1
  O  O35  1  0.794806  0.795374  0.090888  1
  O  O36  1  0.205194  0.204626  0.909112  1
  O  O37  1  0.601727  0.450380  0.246731  1
  O  O38  1  0.205194  0.295374  0.409112  1
  O  O39  1  0.280682  0.956076  0.585518  1
  O  O40  1  0.728183  0.345465  0.748580  1
  O  O41  1  0.229928  0.791939  0.398145  1
  O  O42  1  0.794806  0.704626  0.590888  1
  O  O43  1  0.770072  0.208061  0.601855  1
  O  O44  1  0.778071  0.062790  0.076311  1
  O  O45  1  0.221929  0.562790  0.423689  1
  O  O46  1  0.280682  0.543924  0.085518  1
  O  O47  1  0.719318  0.043924  0.414482  1
