# generated using pymatgen
data_Tm5(Ge5Rh2)2
_symmetry_space_group_name_H-M   'P 1'
_cell_length_a   4.26821846
_cell_length_b   13.01157988
_cell_length_c   13.01157988
_cell_angle_alpha   90.00000000
_cell_angle_beta   90.00000000
_cell_angle_gamma   90.00000000
_symmetry_Int_Tables_number   1
_chemical_formula_structural   Tm5(Ge5Rh2)2
_chemical_formula_sum   'Tm10 Ge20 Rh8'
_cell_volume   722.61455398
_cell_formula_units_Z   2
loop_
 _symmetry_equiv_pos_site_id
 _symmetry_equiv_pos_as_xyz
  1  'x, y, z'
loop_
 _atom_site_type_symbol
 _atom_site_label
 _atom_site_symmetry_multiplicity
 _atom_site_fract_x
 _atom_site_fract_y
 _atom_site_fract_z
 _atom_site_occupancy
  Ge  Ge0  1  0.500000  0.495755  0.343553  1
  Ge  Ge1  1  0.500000  0.504245  0.656447  1
  Ge  Ge2  1  0.500000  0.343553  0.504245  1
  Ge  Ge3  1  0.500000  0.656447  0.495755  1
  Ge  Ge4  1  0.500000  0.843553  0.995755  1
  Ge  Ge5  1  0.500000  0.004245  0.843553  1
  Ge  Ge6  1  0.500000  0.995755  0.156447  1
  Ge  Ge7  1  0.500000  0.156447  0.004245  1
  Ge  Ge8  1  0.000000  0.299965  0.337338  1
  Ge  Ge9  1  0.000000  0.700035  0.662662  1
  Ge  Ge10  1  0.000000  0.337338  0.700035  1
  Ge  Ge11  1  0.000000  0.662662  0.299965  1
  Ge  Ge12  1  0.000000  0.837338  0.799965  1
  Ge  Ge13  1  0.000000  0.200035  0.837338  1
  Ge  Ge14  1  0.000000  0.799965  0.162662  1
  Ge  Ge15  1  0.000000  0.162662  0.200035  1
  Ge  Ge16  1  0.000000  0.933201  0.433201  1
  Ge  Ge17  1  0.000000  0.566799  0.933201  1
  Ge  Ge18  1  0.000000  0.066799  0.566799  1
  Ge  Ge19  1  0.000000  0.433201  0.066799  1
  Rh  Rh20  1  0.000000  0.979376  0.246144  1
  Rh  Rh21  1  0.000000  0.020624  0.753856  1
  Rh  Rh22  1  0.000000  0.246144  0.020624  1
  Rh  Rh23  1  0.000000  0.753856  0.979376  1
  Rh  Rh24  1  0.000000  0.746144  0.479376  1
  Rh  Rh25  1  0.000000  0.520624  0.746144  1
  Rh  Rh26  1  0.000000  0.479376  0.253856  1
  Rh  Rh27  1  0.000000  0.253856  0.520624  1
  Tm  Tm28  1  0.500000  0.613306  0.113306  1
  Tm  Tm29  1  0.500000  0.886694  0.613306  1
  Tm  Tm30  1  0.500000  0.113306  0.386694  1
  Tm  Tm31  1  0.500000  0.386694  0.886694  1
  Tm  Tm32  1  0.500000  0.826128  0.326128  1
  Tm  Tm33  1  0.500000  0.673872  0.826128  1
  Tm  Tm34  1  0.500000  0.326128  0.173872  1
  Tm  Tm35  1  0.500000  0.173872  0.673872  1
  Tm  Tm36  1  0.000000  0.500000  0.500000  1
  Tm  Tm37  1  0.000000  0.000000  0.000000  1
