# generated using pymatgen
data_Pu2Si4Tc3
_symmetry_space_group_name_H-M   'P 1'
_cell_length_a   5.55295548
_cell_length_b   6.65248818
_cell_length_c   8.11740384
_cell_angle_alpha   90.00000000
_cell_angle_beta   90.00000000
_cell_angle_gamma   105.05793165
_symmetry_Int_Tables_number   1
_chemical_formula_structural   Pu2Si4Tc3
_chemical_formula_sum   'Pu4 Si8 Tc6'
_cell_volume   289.56851268
_cell_formula_units_Z   2
loop_
 _symmetry_equiv_pos_site_id
 _symmetry_equiv_pos_as_xyz
  1  'x, y, z'
loop_
 _atom_site_type_symbol
 _atom_site_label
 _atom_site_symmetry_multiplicity
 _atom_site_fract_x
 _atom_site_fract_y
 _atom_site_fract_z
 _atom_site_occupancy
  Si  Si0  1  0.776891  0.583578  0.250883  1
  Si  Si1  1  0.723109  0.416422  0.750883  1
  Si  Si2  1  0.223109  0.416422  0.749117  1
  Si  Si3  1  0.276891  0.583578  0.249117  1
  Si  Si4  1  0.128759  0.866373  0.897047  1
  Si  Si5  1  0.371241  0.133627  0.397047  1
  Si  Si6  1  0.628759  0.866373  0.602953  1
  Si  Si7  1  0.871241  0.133627  0.102953  1
  Tc  Tc8  1  0.500000  0.500000  0.500000  1
  Tc  Tc9  1  0.000000  0.500000  0.000000  1
  Tc  Tc10  1  0.121958  0.898418  0.194196  1
  Tc  Tc11  1  0.378042  0.101582  0.694196  1
  Tc  Tc12  1  0.621958  0.898418  0.305804  1
  Tc  Tc13  1  0.878042  0.101582  0.805804  1
  Pu  Pu14  1  0.923425  0.269829  0.446696  1
  Pu  Pu15  1  0.576575  0.730171  0.946696  1
  Pu  Pu16  1  0.076575  0.730171  0.553304  1
  Pu  Pu17  1  0.423425  0.269829  0.053304  1
