# generated using pymatgen
data_K2NiH12(SO7)2
_symmetry_space_group_name_H-M   'P 1'
_cell_length_a   6.20083178
_cell_length_b   9.01383187
_cell_length_c   12.32135421
_cell_angle_alpha   90.00000000
_cell_angle_beta   90.00000000
_cell_angle_gamma   104.59453069
_symmetry_Int_Tables_number   1
_chemical_formula_structural   K2NiH12(SO7)2
_chemical_formula_sum   'K4 Ni2 H24 S4 O28'
_cell_volume   666.45909437
_cell_formula_units_Z   2
loop_
 _symmetry_equiv_pos_site_id
 _symmetry_equiv_pos_as_xyz
  1  'x, y, z'
loop_
 _atom_site_type_symbol
 _atom_site_label
 _atom_site_symmetry_multiplicity
 _atom_site_fract_x
 _atom_site_fract_y
 _atom_site_fract_z
 _atom_site_occupancy
  H  H0  1  0.002486  0.359412  0.687767  1
  H  H1  1  0.997514  0.140588  0.187767  1
  H  H2  1  0.997514  0.640588  0.312233  1
  H  H3  1  0.002486  0.859412  0.812233  1
  H  H4  1  0.929880  0.228737  0.599264  1
  H  H5  1  0.070120  0.271263  0.099264  1
  H  H6  1  0.070120  0.771263  0.400736  1
  H  H7  1  0.929880  0.728737  0.900736  1
  H  H8  1  0.913394  0.751239  0.126125  1
  H  H9  1  0.681416  0.283857  0.411009  1
  H  H10  1  0.318584  0.216143  0.911009  1
  H  H11  1  0.318584  0.716143  0.588991  1
  H  H12  1  0.681416  0.783857  0.088991  1
  H  H13  1  0.672272  0.470385  0.644414  1
  H  H14  1  0.327728  0.029615  0.144414  1
  H  H15  1  0.327728  0.529615  0.355586  1
  H  H16  1  0.672272  0.970385  0.855586  1
  H  H17  1  0.660506  0.599037  0.558566  1
  H  H18  1  0.339494  0.900963  0.058566  1
  H  H19  1  0.339494  0.400963  0.441434  1
  H  H20  1  0.660506  0.099037  0.941434  1
  H  H21  1  0.086606  0.748761  0.626125  1
  H  H22  1  0.913394  0.251239  0.373875  1
  H  H23  1  0.086606  0.248761  0.873875  1
  O  O24  1  0.757474  0.556389  0.923334  1
  O  O25  1  0.242526  0.943611  0.423334  1
  O  O26  1  0.699707  0.999405  0.933460  1
  O  O27  1  0.300293  0.500595  0.433460  1
  O  O28  1  0.300293  0.000595  0.066540  1
  O  O29  1  0.699707  0.499405  0.566540  1
  O  O30  1  0.835912  0.833414  0.112810  1
  O  O31  1  0.757474  0.056389  0.576666  1
  O  O32  1  0.164088  0.166586  0.887190  1
  O  O33  1  0.835912  0.333414  0.387190  1
  O  O34  1  0.036736  0.830468  0.886973  1
  O  O35  1  0.963264  0.669532  0.386973  1
  O  O36  1  0.963264  0.169532  0.113027  1
  O  O37  1  0.036736  0.330468  0.613027  1
  O  O38  1  0.242526  0.443611  0.076666  1
  O  O39  1  0.420978  0.090711  0.266829  1
  O  O40  1  0.579022  0.409289  0.766829  1
  O  O41  1  0.579022  0.909289  0.733171  1
  O  O42  1  0.420978  0.590711  0.233171  1
  O  O43  1  0.052090  0.111328  0.325924  1
  O  O44  1  0.947910  0.388672  0.825924  1
  O  O45  1  0.947910  0.888672  0.674076  1
  O  O46  1  0.164088  0.666586  0.612810  1
  O  O47  1  0.385160  0.219192  0.436360  1
  O  O48  1  0.614840  0.280808  0.936360  1
  O  O49  1  0.614840  0.780808  0.563640  1
  O  O50  1  0.385160  0.719192  0.063640  1
  O  O51  1  0.052090  0.611328  0.174076  1
  S  S52  1  0.273261  0.590266  0.137005  1
  S  S53  1  0.726739  0.909734  0.637005  1
  S  S54  1  0.273261  0.090266  0.362995  1
  S  S55  1  0.726739  0.409734  0.862995  1
  K  K56  1  0.653459  0.865373  0.345817  1
  K  K57  1  0.346541  0.634627  0.845817  1
  K  K58  1  0.346541  0.134627  0.654183  1
  K  K59  1  0.653459  0.365373  0.154183  1
  Ni  Ni60  1  0.000000  0.000000  0.000000  1
  Ni  Ni61  1  0.000000  0.500000  0.500000  1
