# generated using pymatgen
data_Li3PWCO7
_symmetry_space_group_name_H-M   'P 1'
_cell_length_a   5.11244260
_cell_length_b   6.67115855
_cell_length_c   9.27897249
_cell_angle_alpha   90.00000000
_cell_angle_beta   84.04527257
_cell_angle_gamma   90.00000000
_symmetry_Int_Tables_number   1
_chemical_formula_structural   Li3PWCO7
_chemical_formula_sum   'Li6 P2 W2 C2 O14'
_cell_volume   314.76024469
_cell_formula_units_Z   2
loop_
 _symmetry_equiv_pos_site_id
 _symmetry_equiv_pos_as_xyz
  1  'x, y, z'
loop_
 _atom_site_type_symbol
 _atom_site_label
 _atom_site_symmetry_multiplicity
 _atom_site_fract_x
 _atom_site_fract_y
 _atom_site_fract_z
 _atom_site_occupancy
  Li  Li0  1  0.681758  0.962727  0.743230  1
  Li  Li1  1  0.318242  0.037273  0.256770  1
  Li  Li2  1  0.824799  0.250000  0.113835  1
  Li  Li3  1  0.175201  0.750000  0.886165  1
  Li  Li4  1  0.681758  0.537272  0.743230  1
  Li  Li5  1  0.318242  0.462728  0.256770  1
  C  C6  1  0.659338  0.750000  0.040256  1
  C  C7  1  0.340662  0.250000  0.959744  1
  O  O8  1  0.183775  0.750000  0.448379  1
  O  O9  1  0.909568  0.750000  0.034153  1
  O  O10  1  0.474550  0.250000  0.827971  1
  O  O11  1  0.525450  0.750000  0.172029  1
  O  O12  1  0.093581  0.570062  0.697667  1
  O  O13  1  0.090432  0.250000  0.965847  1
  O  O14  1  0.093581  0.929937  0.697667  1
  O  O15  1  0.906419  0.429938  0.302333  1
  O  O16  1  0.906419  0.070063  0.302333  1
  O  O17  1  0.474289  0.250000  0.373114  1
  O  O18  1  0.538220  0.750000  0.924574  1
  O  O19  1  0.461780  0.250000  0.075426  1
  O  O20  1  0.525711  0.750000  0.626886  1
  O  O21  1  0.816225  0.250000  0.551621  1
  P  P22  1  0.769508  0.250000  0.390604  1
  P  P23  1  0.230492  0.750000  0.609396  1
  W  W24  1  0.846060  0.750000  0.324396  1
  W  W25  1  0.153940  0.250000  0.675604  1
