# generated using pymatgen
data_Cd2AsCl2
_symmetry_space_group_name_H-M   'P 1'
_cell_length_a   8.00226522
_cell_length_b   8.22368024
_cell_length_c   9.37282541
_cell_angle_alpha   90.00000000
_cell_angle_beta   90.00000000
_cell_angle_gamma   116.94587749
_symmetry_Int_Tables_number   1
_chemical_formula_structural   Cd2AsCl2
_chemical_formula_sum   'Cd8 As4 Cl8'
_cell_volume   549.84382548
_cell_formula_units_Z   4
loop_
 _symmetry_equiv_pos_site_id
 _symmetry_equiv_pos_as_xyz
  1  'x, y, z'
loop_
 _atom_site_type_symbol
 _atom_site_label
 _atom_site_symmetry_multiplicity
 _atom_site_fract_x
 _atom_site_fract_y
 _atom_site_fract_z
 _atom_site_occupancy
  Cl  Cl0  1  0.950484  0.196325  0.979434  1
  Cl  Cl1  1  0.549516  0.303675  0.479434  1
  Cl  Cl2  1  0.049516  0.803675  0.020566  1
  Cl  Cl3  1  0.450484  0.696325  0.520566  1
  Cl  Cl4  1  -0.003347  0.417667  0.310159  1
  Cl  Cl5  1  0.503347  0.082333  0.810159  1
  Cl  Cl6  1  1.003347  0.582333  0.689841  1
  Cl  Cl7  1  0.496653  0.917667  0.189841  1
  As  As8  1  0.490373  0.558907  0.881176  1
  As  As9  1  0.990373  0.058907  0.618824  1
  As  As10  1  0.009627  0.941093  0.381176  1
  As  As11  1  0.509627  0.441093  0.118824  1
  Cd  Cd12  1  0.690184  0.251511  0.080001  1
  Cd  Cd13  1  0.809816  0.248489  0.580001  1
  Cd  Cd14  1  0.309816  0.748489  0.919999  1
  Cd  Cd15  1  0.190184  0.751511  0.419999  1
  Cd  Cd16  1  0.669884  0.715325  0.297715  1
  Cd  Cd17  1  0.330116  0.284675  0.702285  1
  Cd  Cd18  1  0.169884  0.215325  0.202285  1
  Cd  Cd19  1  0.830116  0.784675  0.797715  1
