# generated using pymatgen
data_Na2BeO2
_symmetry_space_group_name_H-M   'P 1'
_cell_length_a   5.34665110
_cell_length_b   7.92879385
_cell_length_c   11.60391210
_cell_angle_alpha   99.31124159
_cell_angle_beta   90.00000000
_cell_angle_gamma   90.00000000
_symmetry_Int_Tables_number   1
_chemical_formula_structural   Na2BeO2
_chemical_formula_sum   'Na16 Be8 O16'
_cell_volume   485.43725194
_cell_formula_units_Z   8
loop_
 _symmetry_equiv_pos_site_id
 _symmetry_equiv_pos_as_xyz
  1  'x, y, z'
loop_
 _atom_site_type_symbol
 _atom_site_label
 _atom_site_symmetry_multiplicity
 _atom_site_fract_x
 _atom_site_fract_y
 _atom_site_fract_z
 _atom_site_occupancy
  Na  Na0  1  0.116449  0.997819  0.416111  1
  Na  Na1  1  0.886956  0.503571  0.081361  1
  Na  Na2  1  0.940626  0.340707  0.512798  1
  Na  Na3  1  0.945655  0.699871  0.624089  1
  Na  Na4  1  0.440626  0.659293  0.487202  1
  Na  Na5  1  0.060788  0.159271  0.985695  1
  Na  Na6  1  0.168600  0.070365  0.717860  1
  Na  Na7  1  0.616449  0.002181  0.583889  1
  Na  Na8  1  0.386956  0.496429  0.918639  1
  Na  Na9  1  0.833324  0.428533  0.783899  1
  Na  Na10  1  0.445655  0.300129  0.375911  1
  Na  Na11  1  0.668600  0.929635  0.282140  1
  Na  Na12  1  0.059070  0.798709  0.874442  1
  Na  Na13  1  0.560788  0.840730  0.014305  1
  Na  Na14  1  0.559070  0.201291  0.125558  1
  Na  Na15  1  0.333324  0.571467  0.216101  1
  Be  Be16  1  0.457528  0.619482  0.712735  1
  Be  Be17  1  0.544291  0.877800  0.789579  1
  Be  Be18  1  0.621585  0.132326  0.873073  1
  Be  Be19  1  0.044291  0.122200  0.210421  1
  Be  Be20  1  0.121585  0.867674  0.126927  1
  Be  Be21  1  0.957528  0.380518  0.287265  1
  Be  Be22  1  0.379279  0.365190  0.628786  1
  Be  Be23  1  0.879279  0.634810  0.371214  1
  O  O24  1  0.612088  0.479192  0.609407  1
  O  O25  1  0.133857  0.304697  0.173036  1
  O  O26  1  0.802970  0.806349  0.442438  1
  O  O27  1  0.366742  0.801914  0.675349  1
  O  O28  1  0.274900  0.982994  0.227362  1
  O  O29  1  0.696999  0.304510  0.943393  1
  O  O30  1  0.196999  0.695490  0.056607  1
  O  O31  1  0.633857  0.695303  0.826964  1
  O  O32  1  0.112088  0.520808  0.390593  1
  O  O33  1  0.866742  0.198086  0.324651  1
  O  O34  1  0.228235  0.479377  0.730155  1
  O  O35  1  0.728235  0.520623  0.269845  1
  O  O36  1  0.388656  0.018699  0.891561  1
  O  O37  1  0.302970  0.193651  0.557562  1
  O  O38  1  0.774900  0.017006  0.772638  1
  O  O39  1  0.888656  0.981301  0.108439  1
