# generated using pymatgen
data_Dy(Fe2Ge)2
_symmetry_space_group_name_H-M   'P 1'
_cell_length_a   3.86221599
_cell_length_b   7.27828323
_cell_length_c   7.27828258
_cell_angle_alpha   90.10041498
_cell_angle_beta   90.00000000
_cell_angle_gamma   90.00000000
_symmetry_Int_Tables_number   1
_chemical_formula_structural   Dy(Fe2Ge)2
_chemical_formula_sum   'Dy2 Fe8 Ge4'
_cell_volume   204.59440620
_cell_formula_units_Z   2
loop_
 _symmetry_equiv_pos_site_id
 _symmetry_equiv_pos_as_xyz
  1  'x, y, z'
loop_
 _atom_site_type_symbol
 _atom_site_label
 _atom_site_symmetry_multiplicity
 _atom_site_fract_x
 _atom_site_fract_y
 _atom_site_fract_z
 _atom_site_occupancy
  Dy  Dy0  1  0.500000  0.000000  0.000000  1
  Dy  Dy1  1  0.000000  0.500000  0.500000  1
  Fe  Fe2  1  0.000000  0.090895  0.358081  1
  Fe  Fe3  1  0.500000  0.145367  0.589692  1
  Fe  Fe4  1  0.000000  0.909105  0.641919  1
  Fe  Fe5  1  0.000000  0.641919  0.909105  1
  Fe  Fe6  1  0.000000  0.358081  0.090895  1
  Fe  Fe7  1  0.500000  0.410308  0.854633  1
  Fe  Fe8  1  0.500000  0.589692  0.145367  1
  Fe  Fe9  1  0.500000  0.854633  0.410308  1
  Ge  Ge10  1  0.500000  0.284256  0.284256  1
  Ge  Ge11  1  0.500000  0.715744  0.715744  1
  Ge  Ge12  1  0.000000  0.785242  0.214758  1
  Ge  Ge13  1  0.000000  0.214758  0.785242  1
