# generated using pymatgen
data_U(PdS2)2
_symmetry_space_group_name_H-M   'P 1'
_cell_length_a   6.78054807
_cell_length_b   6.78054807
_cell_length_c   7.63180332
_cell_angle_alpha   116.37406849
_cell_angle_beta   116.37406854
_cell_angle_gamma   90.00000000
_symmetry_Int_Tables_number   1
_chemical_formula_structural   U(PdS2)2
_chemical_formula_sum   'U2 Pd4 S8'
_cell_volume   272.99156816
_cell_formula_units_Z   2
loop_
 _symmetry_equiv_pos_site_id
 _symmetry_equiv_pos_as_xyz
  1  'x, y, z'
loop_
 _atom_site_type_symbol
 _atom_site_label
 _atom_site_symmetry_multiplicity
 _atom_site_fract_x
 _atom_site_fract_y
 _atom_site_fract_z
 _atom_site_occupancy
  S  S0  1  0.233935  0.527533  0.855421  1
  S  S1  1  0.327888  0.733935  0.355421  1
  S  S2  1  0.027533  0.121486  0.355421  1
  S  S3  1  0.621486  0.827888  0.855421  1
  S  S4  1  0.766065  0.472467  0.144579  1
  S  S5  1  0.672112  0.266065  0.644579  1
  S  S6  1  0.378514  0.172112  0.144579  1
  S  S7  1  0.972467  0.878514  0.644579  1
  Pd  Pd8  1  0.000000  0.500000  0.000000  1
  Pd  Pd9  1  0.500000  0.500000  0.500000  1
  Pd  Pd10  1  0.000000  0.500000  0.500000  1
  Pd  Pd11  1  0.000000  0.000000  0.000000  1
  U  U12  1  0.375000  0.125000  0.750000  1
  U  U13  1  0.625000  0.875000  0.250000  1
