# generated using pymatgen
data_AlH18Ru(NF)6
_symmetry_space_group_name_H-M   'P 1'
_cell_length_a   10.18670044
_cell_length_b   10.18670044
_cell_length_c   10.18670044
_cell_angle_alpha   90.00000000
_cell_angle_beta   90.00000000
_cell_angle_gamma   90.00000000
_symmetry_Int_Tables_number   1
_chemical_formula_structural   AlH18Ru(NF)6
_chemical_formula_sum   'Al4 H72 Ru4 N24 F24'
_cell_volume   1057.06235146
_cell_formula_units_Z   4
loop_
 _symmetry_equiv_pos_site_id
 _symmetry_equiv_pos_as_xyz
  1  'x, y, z'
loop_
 _atom_site_type_symbol
 _atom_site_label
 _atom_site_symmetry_multiplicity
 _atom_site_fract_x
 _atom_site_fract_y
 _atom_site_fract_z
 _atom_site_occupancy
  Al  Al0  1  0.500000  0.500000  0.000000  1
  Al  Al1  1  0.500000  0.000000  0.500000  1
  Al  Al2  1  0.000000  0.500000  0.500000  1
  Al  Al3  1  0.000000  0.000000  0.000000  1
  H  H4  1  0.324197  0.874615  0.141990  1
  H  H5  1  0.675803  0.374615  0.358010  1
  H  H6  1  0.175803  0.125385  0.641990  1
  H  H7  1  0.824197  0.625385  0.858010  1
  H  H8  1  0.141990  0.324197  0.874615  1
  H  H9  1  0.358010  0.675803  0.374615  1
  H  H10  1  0.641990  0.175803  0.125385  1
  H  H11  1  0.858010  0.824197  0.625385  1
  H  H12  1  0.874615  0.141990  0.324197  1
  H  H13  1  0.374615  0.358010  0.675803  1
  H  H14  1  0.125385  0.641990  0.175803  1
  H  H15  1  0.625385  0.858010  0.824197  1
  H  H16  1  0.675803  0.125385  0.858010  1
  H  H17  1  0.324197  0.625385  0.641990  1
  H  H18  1  0.824197  0.874615  0.358010  1
  H  H19  1  0.175803  0.374615  0.141990  1
  H  H20  1  0.858010  0.675803  0.125385  1
  H  H21  1  0.641990  0.324197  0.625385  1
  H  H22  1  0.358010  0.824197  0.874615  1
  H  H23  1  0.141990  0.175803  0.374615  1
  H  H24  1  0.125385  0.858010  0.675803  1
  H  H25  1  0.625385  0.641990  0.324197  1
  H  H26  1  0.874615  0.358010  0.824197  1
  H  H27  1  0.374615  0.141990  0.175803  1
  H  H28  1  0.457317  0.777631  0.133581  1
  H  H29  1  0.542683  0.277631  0.366419  1
  H  H30  1  0.042683  0.222369  0.633581  1
  H  H31  1  0.957317  0.722369  0.866419  1
  H  H32  1  0.133581  0.457317  0.777631  1
  H  H33  1  0.366419  0.542683  0.277631  1
  H  H34  1  0.633581  0.042683  0.222369  1
  H  H35  1  0.866419  0.957317  0.722369  1
  H  H36  1  0.777631  0.133581  0.457317  1
  H  H37  1  0.277631  0.366419  0.542683  1
  H  H38  1  0.222369  0.633581  0.042683  1
  H  H39  1  0.722369  0.866419  0.957317  1
  H  H40  1  0.542683  0.222369  0.866419  1
  H  H41  1  0.457317  0.722369  0.633581  1
  H  H42  1  0.957317  0.777631  0.366419  1
  H  H43  1  0.042683  0.277631  0.133581  1
  H  H44  1  0.866419  0.542683  0.222369  1
  H  H45  1  0.633581  0.457317  0.722369  1
  H  H46  1  0.366419  0.957317  0.777631  1
  H  H47  1  0.133581  0.042683  0.277631  1
  H  H48  1  0.222369  0.866419  0.542683  1
  H  H49  1  0.722369  0.633581  0.457317  1
  H  H50  1  0.777631  0.366419  0.957317  1
  H  H51  1  0.277631  0.133581  0.042683  1
  H  H52  1  0.450524  0.901469  0.239496  1
  H  H53  1  0.549476  0.401469  0.260504  1
  H  H54  1  0.049476  0.098531  0.739496  1
  H  H55  1  0.950524  0.598531  0.760504  1
  H  H56  1  0.239496  0.450524  0.901469  1
  H  H57  1  0.260504  0.549476  0.401469  1
  H  H58  1  0.739496  0.049476  0.098531  1
  H  H59  1  0.760504  0.950524  0.598531  1
  H  H60  1  0.901469  0.239496  0.450524  1
  H  H61  1  0.401469  0.260504  0.549476  1
  H  H62  1  0.098531  0.739496  0.049476  1
  H  H63  1  0.598531  0.760504  0.950524  1
  H  H64  1  0.549476  0.098531  0.760504  1
  H  H65  1  0.450524  0.598531  0.739496  1
  H  H66  1  0.950524  0.901469  0.260504  1
  H  H67  1  0.049476  0.401469  0.239496  1
  H  H68  1  0.760504  0.549476  0.098531  1
  H  H69  1  0.739496  0.450524  0.598531  1
  H  H70  1  0.260504  0.950524  0.901469  1
  H  H71  1  0.239496  0.049476  0.401469  1
  H  H72  1  0.098531  0.760504  0.549476  1
  H  H73  1  0.598531  0.739496  0.450524  1
  H  H74  1  0.901469  0.260504  0.950524  1
  H  H75  1  0.401469  0.239496  0.049476  1
  Ru  Ru76  1  0.000000  0.000000  0.500000  1
  Ru  Ru77  1  0.000000  0.500000  0.000000  1
  Ru  Ru78  1  0.500000  0.000000  0.000000  1
  Ru  Ru79  1  0.500000  0.500000  0.500000  1
  N  N80  1  0.424961  0.872974  0.146031  1
  N  N81  1  0.575039  0.372974  0.353969  1
  N  N82  1  0.075039  0.127026  0.646031  1
  N  N83  1  0.924961  0.627026  0.853969  1
  N  N84  1  0.146031  0.424961  0.872974  1
  N  N85  1  0.353969  0.575039  0.372974  1
  N  N86  1  0.646031  0.075039  0.127026  1
  N  N87  1  0.853969  0.924961  0.627026  1
  N  N88  1  0.872974  0.146031  0.424961  1
  N  N89  1  0.372974  0.353969  0.575039  1
  N  N90  1  0.127026  0.646031  0.075039  1
  N  N91  1  0.627026  0.853969  0.924961  1
  N  N92  1  0.575039  0.127026  0.853969  1
  N  N93  1  0.424961  0.627026  0.646031  1
  N  N94  1  0.924961  0.872974  0.353969  1
  N  N95  1  0.075039  0.372974  0.146031  1
  N  N96  1  0.853969  0.575039  0.127026  1
  N  N97  1  0.646031  0.424961  0.627026  1
  N  N98  1  0.353969  0.924961  0.872974  1
  N  N99  1  0.146031  0.075039  0.372974  1
  N  N100  1  0.127026  0.853969  0.575039  1
  N  N101  1  0.627026  0.646031  0.424961  1
  N  N102  1  0.872974  0.353969  0.924961  1
  N  N103  1  0.372974  0.146031  0.075039  1
  F  F104  1  0.558826  0.610916  0.131207  1
  F  F105  1  0.441174  0.110916  0.368793  1
  F  F106  1  0.941174  0.389084  0.631207  1
  F  F107  1  0.058826  0.889084  0.868793  1
  F  F108  1  0.131207  0.558826  0.610916  1
  F  F109  1  0.368793  0.441174  0.110916  1
  F  F110  1  0.631207  0.941174  0.389084  1
  F  F111  1  0.868793  0.058826  0.889084  1
  F  F112  1  0.610916  0.131207  0.558826  1
  F  F113  1  0.110916  0.368793  0.441174  1
  F  F114  1  0.389084  0.631207  0.941174  1
  F  F115  1  0.889084  0.868793  0.058826  1
  F  F116  1  0.441174  0.389084  0.868793  1
  F  F117  1  0.558826  0.889084  0.631207  1
  F  F118  1  0.058826  0.610916  0.368793  1
  F  F119  1  0.941174  0.110916  0.131207  1
  F  F120  1  0.868793  0.441174  0.389084  1
  F  F121  1  0.631207  0.558826  0.889084  1
  F  F122  1  0.368793  0.058826  0.610916  1
  F  F123  1  0.131207  0.941174  0.110916  1
  F  F124  1  0.389084  0.868793  0.441174  1
  F  F125  1  0.889084  0.631207  0.558826  1
  F  F126  1  0.610916  0.368793  0.058826  1
  F  F127  1  0.110916  0.131207  0.941174  1
