# generated using pymatgen
data_Si2N2O
_symmetry_space_group_name_H-M   'P 1'
_cell_length_a   5.49281862
_cell_length_b   5.49281847
_cell_length_c   13.47862181
_cell_angle_alpha   89.99862218
_cell_angle_beta   89.99862199
_cell_angle_gamma   59.99987426
_symmetry_Int_Tables_number   1
_chemical_formula_structural   Si2N2O
_chemical_formula_sum   'Si16 N16 O8'
_cell_volume   352.18112307
_cell_formula_units_Z   8
loop_
 _symmetry_equiv_pos_site_id
 _symmetry_equiv_pos_as_xyz
  1  'x, y, z'
loop_
 _atom_site_type_symbol
 _atom_site_label
 _atom_site_symmetry_multiplicity
 _atom_site_fract_x
 _atom_site_fract_y
 _atom_site_fract_z
 _atom_site_occupancy
  N  N0  1  0.185891  0.657100  0.912719  1
  N  N1  1  0.814109  0.342900  0.087281  1
  N  N2  1  0.342900  0.814109  0.087281  1
  N  N3  1  0.657100  0.185891  0.912719  1
  N  N4  1  0.342908  0.342908  0.087277  1
  N  N5  1  0.657092  0.657092  0.912723  1
  N  N6  1  0.833303  0.833303  0.086557  1
  N  N7  1  0.166697  0.166697  0.913443  1
  N  N8  1  0.676143  0.676142  0.415905  1
  N  N9  1  0.323857  0.323858  0.584095  1
  N  N10  1  0.323845  0.852345  0.584097  1
  N  N11  1  0.147655  0.676155  0.415903  1
  N  N12  1  0.676155  0.147655  0.415903  1
  N  N13  1  0.852345  0.323845  0.584097  1
  N  N14  1  0.499955  0.499955  0.240650  1
  N  N15  1  0.500045  0.500045  0.759350  1
  O  O16  1  0.833332  0.833332  0.563188  1
  O  O17  1  0.166668  0.166668  0.436812  1
  O  O18  1  0.021460  0.457220  0.757741  1
  O  O19  1  0.542780  0.978540  0.242259  1
  O  O20  1  0.978535  0.978535  0.242257  1
  O  O21  1  0.457220  0.021460  0.757741  1
  O  O22  1  0.021465  0.021465  0.757743  1
  O  O23  1  0.978540  0.542780  0.242259  1
  Si  Si24  1  0.331641  0.836850  0.834776  1
  Si  Si25  1  0.163150  0.668359  0.165224  1
  Si  Si26  1  0.668359  0.163150  0.165224  1
  Si  Si27  1  0.836850  0.331641  0.834776  1
  Si  Si28  1  0.668360  0.668360  0.165231  1
  Si  Si29  1  0.331640  0.331640  0.834769  1
  Si  Si30  1  0.000000  0.500000  0.500000  1
  Si  Si31  1  0.500000  0.000000  0.500000  1
  Si  Si32  1  0.000000  0.000000  0.500000  1
  Si  Si33  1  0.500000  0.500000  0.000000  1
  Si  Si34  1  0.833296  0.833296  0.330132  1
  Si  Si35  1  0.166704  0.166704  0.669868  1
  Si  Si36  1  0.499975  0.499975  0.371020  1
  Si  Si37  1  0.500025  0.500025  0.628980  1
  Si  Si38  1  0.166648  0.166648  0.044825  1
  Si  Si39  1  0.833352  0.833352  0.955175  1
