# generated using pymatgen
data_CaLaMn2O6
_symmetry_space_group_name_H-M   'P 1'
_cell_length_a   5.52974952
_cell_length_b   7.67389461
_cell_length_c   11.00373455
_cell_angle_alpha   90.00000000
_cell_angle_beta   90.00000000
_cell_angle_gamma   90.00000000
_symmetry_Int_Tables_number   1
_chemical_formula_structural   CaLaMn2O6
_chemical_formula_sum   'Ca4 La4 Mn8 O24'
_cell_volume   466.94033996
_cell_formula_units_Z   4
loop_
 _symmetry_equiv_pos_site_id
 _symmetry_equiv_pos_as_xyz
  1  'x, y, z'
loop_
 _atom_site_type_symbol
 _atom_site_label
 _atom_site_symmetry_multiplicity
 _atom_site_fract_x
 _atom_site_fract_y
 _atom_site_fract_z
 _atom_site_occupancy
  O  O0  1  0.924640  0.500000  0.117418  1
  O  O1  1  0.075360  0.000000  0.617418  1
  O  O2  1  0.082134  0.000000  0.135756  1
  O  O3  1  0.917866  0.500000  0.635756  1
  O  O4  1  0.582889  0.500000  0.368850  1
  O  O5  1  0.417111  0.000000  0.868850  1
  O  O6  1  0.425569  0.000000  0.387707  1
  O  O7  1  0.574431  0.500000  0.887707  1
  O  O8  1  0.249074  0.288162  0.002518  1
  O  O9  1  0.750926  0.211838  0.502518  1
  O  O10  1  0.750926  0.788162  0.502518  1
  O  O11  1  0.249074  0.711838  0.002518  1
  O  O12  1  0.766794  0.206789  0.757387  1
  O  O13  1  0.233206  0.293211  0.257387  1
  O  O14  1  0.233206  0.706789  0.257387  1
  O  O15  1  0.766794  0.793211  0.757387  1
  O  O16  1  0.748928  0.795546  0.002758  1
  O  O17  1  0.251072  0.704454  0.502758  1
  O  O18  1  0.251072  0.295546  0.502758  1
  O  O19  1  0.748928  0.204454  0.002758  1
  O  O20  1  0.733344  0.793538  0.247846  1
  O  O21  1  0.266656  0.706462  0.747846  1
  O  O22  1  0.266656  0.293538  0.747846  1
  O  O23  1  0.733344  0.206462  0.247846  1
  Ca  Ca24  1  0.509488  0.000000  0.120811  1
  Ca  Ca25  1  0.490512  0.500000  0.620811  1
  Ca  Ca26  1  0.010217  0.500000  0.385238  1
  Ca  Ca27  1  0.989783  0.000000  0.885238  1
  Mn  Mn28  1  0.004852  0.252926  0.627710  1
  Mn  Mn29  1  0.995148  0.247074  0.127710  1
  Mn  Mn30  1  0.004852  0.747074  0.627710  1
  Mn  Mn31  1  0.995148  0.752926  0.127710  1
  Mn  Mn32  1  0.495905  0.253126  0.377512  1
  Mn  Mn33  1  0.504095  0.753126  0.877512  1
  Mn  Mn34  1  0.504095  0.246874  0.877512  1
  Mn  Mn35  1  0.495905  0.746874  0.377512  1
  La  La36  1  0.490813  0.500000  0.131189  1
  La  La37  1  0.509187  0.000000  0.631189  1
  La  La38  1  0.008340  0.500000  0.873770  1
  La  La39  1  0.991660  0.000000  0.373770  1
