# generated using pymatgen
data_Rb3BiO3
_symmetry_space_group_name_H-M   'P 1'
_cell_length_a   8.97140090
_cell_length_b   8.97140090
_cell_length_c   8.97140090
_cell_angle_alpha   90.00000000
_cell_angle_beta   90.00000000
_cell_angle_gamma   90.00000000
_symmetry_Int_Tables_number   1
_chemical_formula_structural   Rb3BiO3
_chemical_formula_sum   'Rb12 Bi4 O12'
_cell_volume   722.07247884
_cell_formula_units_Z   4
loop_
 _symmetry_equiv_pos_site_id
 _symmetry_equiv_pos_as_xyz
  1  'x, y, z'
loop_
 _atom_site_type_symbol
 _atom_site_label
 _atom_site_symmetry_multiplicity
 _atom_site_fract_x
 _atom_site_fract_y
 _atom_site_fract_z
 _atom_site_occupancy
  O  O0  1  0.438919  0.003524  0.215100  1
  O  O1  1  0.938919  0.496476  0.784900  1
  O  O2  1  0.561081  0.503524  0.284900  1
  O  O3  1  0.496476  0.784900  0.938919  1
  O  O4  1  0.003524  0.215100  0.438919  1
  O  O5  1  0.215100  0.438919  0.003524  1
  O  O6  1  0.503524  0.284900  0.561081  1
  O  O7  1  0.996476  0.715100  0.061081  1
  O  O8  1  0.715100  0.061081  0.996476  1
  O  O9  1  0.061081  0.996476  0.715100  1
  O  O10  1  0.284900  0.561081  0.503524  1
  O  O11  1  0.784900  0.938919  0.496476  1
  Rb  Rb12  1  0.284396  0.284396  0.284396  1
  Rb  Rb13  1  0.215604  0.715604  0.784396  1
  Rb  Rb14  1  0.784396  0.215604  0.715604  1
  Rb  Rb15  1  0.715604  0.784396  0.215604  1
  Rb  Rb16  1  0.710206  0.210206  0.289794  1
  Rb  Rb17  1  0.789794  0.789794  0.789794  1
  Rb  Rb18  1  0.978918  0.521082  0.478918  1
  Rb  Rb19  1  0.521082  0.478918  0.978918  1
  Rb  Rb20  1  0.478918  0.978918  0.521082  1
  Rb  Rb21  1  0.021082  0.021082  0.021082  1
  Rb  Rb22  1  0.210206  0.289794  0.710206  1
  Rb  Rb23  1  0.289794  0.710206  0.210206  1
  Bi  Bi24  1  0.486194  0.013806  0.986194  1
  Bi  Bi25  1  0.013806  0.986194  0.486194  1
  Bi  Bi26  1  0.986194  0.486194  0.013806  1
  Bi  Bi27  1  0.513806  0.513806  0.513806  1
