# generated using pymatgen
data_Al13(TlS7)3
_symmetry_space_group_name_H-M   'P 1'
_cell_length_a   9.38658369
_cell_length_b   14.86421527
_cell_length_c   14.86421526
_cell_angle_alpha   61.26300294
_cell_angle_beta   78.22679413
_cell_angle_gamma   78.22679412
_symmetry_Int_Tables_number   1
_chemical_formula_structural   Al13(TlS7)3
_chemical_formula_sum   'Al26 Tl6 S42'
_cell_volume   1766.62013854
_cell_formula_units_Z   2
loop_
 _symmetry_equiv_pos_site_id
 _symmetry_equiv_pos_as_xyz
  1  'x, y, z'
loop_
 _atom_site_type_symbol
 _atom_site_label
 _atom_site_symmetry_multiplicity
 _atom_site_fract_x
 _atom_site_fract_y
 _atom_site_fract_z
 _atom_site_occupancy
  Al  Al0  1  0.698551  0.178910  0.643943  1
  Al  Al1  1  0.698551  0.643943  0.178910  1
  Al  Al2  1  0.033997  0.223039  0.716151  1
  Al  Al3  1  0.033997  0.716151  0.223039  1
  Al  Al4  1  0.052095  0.208909  0.467345  1
  Al  Al5  1  0.052095  0.467345  0.208909  1
  Al  Al6  1  0.368865  0.860096  0.102608  1
  Al  Al7  1  0.368865  0.102608  0.860096  1
  Al  Al8  1  0.714990  0.151346  0.406331  1
  Al  Al9  1  0.714990  0.406331  0.151346  1
  Al  Al10  1  0.714335  0.405406  0.405406  1
  Al  Al11  1  0.366648  0.600374  0.098905  1
  Al  Al12  1  0.366648  0.098905  0.600374  1
  Al  Al13  1  0.037325  0.482361  0.947502  1
  Al  Al14  1  0.037325  0.947502  0.482361  1
  Al  Al15  1  0.044075  0.713389  0.713389  1
  Al  Al16  1  0.711868  0.905476  0.154567  1
  Al  Al17  1  0.711868  0.154567  0.905476  1
  Al  Al18  1  0.702695  0.413965  0.906632  1
  Al  Al19  1  0.702695  0.906632  0.413965  1
  Al  Al20  1  0.369059  0.347501  0.848407  1
  Al  Al21  1  0.369059  0.848407  0.347501  1
  Al  Al22  1  0.377947  0.598985  0.852747  1
  Al  Al23  1  0.377947  0.852747  0.598985  1
  Al  Al24  1  0.063623  0.460362  0.709871  1
  Al  Al25  1  0.063623  0.709871  0.460362  1
  S  S26  1  0.293997  0.948846  0.192539  1
  S  S27  1  0.293997  0.192539  0.948846  1
  S  S28  1  0.958420  0.648295  0.880955  1
  S  S29  1  0.958420  0.880955  0.648295  1
  S  S30  1  0.966556  0.382568  0.382568  1
  S  S31  1  0.625461  0.084840  0.578658  1
  S  S32  1  0.625461  0.578658  0.084840  1
  S  S33  1  0.951743  0.142454  0.636642  1
  S  S34  1  0.951743  0.636642  0.142454  1
  S  S35  1  0.307549  0.444018  0.690539  1
  S  S36  1  0.307549  0.690539  0.444018  1
  S  S37  1  0.288680  0.698456  0.186035  1
  S  S38  1  0.288680  0.186035  0.698456  1
  S  S39  1  0.292615  0.201778  0.445488  1
  S  S40  1  0.292615  0.445488  0.201778  1
  S  S41  1  0.636440  0.325630  0.325630  1
  S  S42  1  0.312002  0.694456  0.937510  1
  S  S43  1  0.312002  0.937510  0.694456  1
  S  S44  1  0.318717  0.939333  0.939333  1
  S  S45  1  0.959477  0.390923  0.882719  1
  S  S46  1  0.959477  0.882719  0.390923  1
  S  S47  1  0.968134  0.125829  0.394250  1
  S  S48  1  0.968134  0.394250  0.125829  1
  S  S49  1  0.956279  0.882653  0.128040  1
  S  S50  1  0.956279  0.128040  0.882653  1
  S  S51  1  0.297462  0.691252  0.691252  1
  S  S52  1  0.288219  0.943426  0.440375  1
  S  S53  1  0.288219  0.440375  0.943426  1
  S  S54  1  0.625738  0.833375  0.328332  1
  S  S55  1  0.625738  0.328332  0.833375  1
  S  S56  1  0.974522  0.392743  0.630624  1
  S  S57  1  0.974522  0.630624  0.392743  1
  S  S58  1  0.966952  0.633591  0.633591  1
  S  S59  1  0.616193  0.343753  0.568931  1
  S  S60  1  0.616193  0.568931  0.343753  1
  S  S61  1  0.649870  0.078418  0.324482  1
  S  S62  1  0.649870  0.324482  0.078418  1
  S  S63  1  0.624719  0.818031  0.087845  1
  S  S64  1  0.624719  0.087845  0.818031  1
  S  S65  1  0.620792  0.578267  0.813069  1
  S  S66  1  0.620792  0.813069  0.578267  1
  S  S67  1  0.645080  0.076878  0.076878  1
  Tl  Tl68  1  0.594060  0.817151  0.817151  1
  Tl  Tl69  1  0.042459  0.888412  0.888412  1
  Tl  Tl70  1  0.279807  0.451031  0.451031  1
  Tl  Tl71  1  0.620621  0.580874  0.580874  1
  Tl  Tl72  1  0.389344  0.179107  0.179107  1
  Tl  Tl73  1  0.960345  0.110040  0.110040  1
