# generated using pymatgen
data_Rb2AgCl3
_symmetry_space_group_name_H-M   'P 1'
_cell_length_a   4.53398830
_cell_length_b   9.41656064
_cell_length_c   18.20914391
_cell_angle_alpha   90.00000000
_cell_angle_beta   90.00000000
_cell_angle_gamma   90.00000000
_symmetry_Int_Tables_number   1
_chemical_formula_structural   Rb2AgCl3
_chemical_formula_sum   'Rb8 Ag4 Cl12'
_cell_volume   777.43167434
_cell_formula_units_Z   4
loop_
 _symmetry_equiv_pos_site_id
 _symmetry_equiv_pos_as_xyz
  1  'x, y, z'
loop_
 _atom_site_type_symbol
 _atom_site_label
 _atom_site_symmetry_multiplicity
 _atom_site_fract_x
 _atom_site_fract_y
 _atom_site_fract_z
 _atom_site_occupancy
  Ag  Ag0  1  0.750000  0.623286  0.368943  1
  Ag  Ag1  1  0.250000  0.376714  0.631057  1
  Ag  Ag2  1  0.750000  0.123286  0.131057  1
  Ag  Ag3  1  0.250000  0.876714  0.868943  1
  Rb  Rb4  1  0.250000  0.921663  0.286342  1
  Rb  Rb5  1  0.750000  0.078337  0.713658  1
  Rb  Rb6  1  0.250000  0.421663  0.213658  1
  Rb  Rb7  1  0.750000  0.578337  0.786342  1
  Rb  Rb8  1  0.750000  0.239507  0.456341  1
  Rb  Rb9  1  0.250000  0.760493  0.543659  1
  Rb  Rb10  1  0.750000  0.739507  0.043659  1
  Rb  Rb11  1  0.250000  0.260493  0.956341  1
  Cl  Cl12  1  0.750000  0.875755  0.427448  1
  Cl  Cl13  1  0.250000  0.124245  0.572552  1
  Cl  Cl14  1  0.750000  0.375755  0.072552  1
  Cl  Cl15  1  0.250000  0.624245  0.927448  1
  Cl  Cl16  1  0.750000  0.682437  0.227566  1
  Cl  Cl17  1  0.250000  0.317563  0.772434  1
  Cl  Cl18  1  0.750000  0.182437  0.272434  1
  Cl  Cl19  1  0.250000  0.817563  0.727566  1
  Cl  Cl20  1  0.250000  0.495700  0.401223  1
  Cl  Cl21  1  0.750000  0.504300  0.598777  1
  Cl  Cl22  1  0.250000  0.995700  0.098777  1
  Cl  Cl23  1  0.750000  0.004300  0.901223  1
