# generated using pymatgen
data_PH6NO4
_symmetry_space_group_name_H-M   'P 1'
_cell_length_a   6.56357675
_cell_length_b   6.56357674
_cell_length_c   6.56357674
_cell_angle_alpha   105.47054943
_cell_angle_beta   111.50783706
_cell_angle_gamma   111.50783695
_symmetry_Int_Tables_number   1
_chemical_formula_structural   PH6NO4
_chemical_formula_sum   'P2 H12 N2 O8'
_cell_volume   216.88190937
_cell_formula_units_Z   2
loop_
 _symmetry_equiv_pos_site_id
 _symmetry_equiv_pos_as_xyz
  1  'x, y, z'
loop_
 _atom_site_type_symbol
 _atom_site_label
 _atom_site_symmetry_multiplicity
 _atom_site_fract_x
 _atom_site_fract_y
 _atom_site_fract_z
 _atom_site_occupancy
  H  H0  1  0.365927  0.209343  0.804463  1
  H  H1  1  0.634073  0.438536  0.843416  1
  H  H2  1  0.865927  0.554463  0.459343  1
  H  H3  1  0.595120  0.156584  0.790657  1
  H  H4  1  0.404880  0.195537  0.561464  1
  H  H5  1  0.095120  0.540657  0.406584  1
  H  H6  1  0.395252  0.375000  0.270252  1
  H  H7  1  0.134073  0.593416  0.688536  1
  H  H8  1  0.604748  0.875000  0.979748  1
  H  H9  1  0.895252  0.020252  0.625000  1
  H  H10  1  0.104748  0.729748  0.125000  1
  H  H11  1  0.904880  0.311464  0.445537  1
  N  N12  1  0.500000  0.250000  0.750000  1
  N  N13  1  0.000000  0.500000  0.500000  1
  O  O14  1  0.936462  0.739503  0.978313  1
  O  O15  1  0.563538  0.553042  0.291851  1
  O  O16  1  0.436462  0.728313  0.989503  1
  O  O17  1  0.063538  0.041851  0.803042  1
  O  O18  1  0.761191  0.021687  0.958149  1
  O  O19  1  0.238809  0.196958  0.260497  1
  O  O20  1  0.261191  0.708149  0.271687  1
  O  O21  1  0.738809  0.010497  0.446958  1
  P  P22  1  0.000000  0.000000  0.000000  1
  P  P23  1  0.500000  0.750000  0.250000  1
