# generated using pymatgen
data_Tb6FeBi2
_symmetry_space_group_name_H-M   'P 1'
_cell_length_a   8.39677069
_cell_length_b   8.39677069
_cell_length_c   4.16694191
_cell_angle_alpha   90.00000000
_cell_angle_beta   90.00000000
_cell_angle_gamma   120.00000002
_symmetry_Int_Tables_number   1
_chemical_formula_structural   Tb6FeBi2
_chemical_formula_sum   'Tb6 Fe1 Bi2'
_cell_volume   254.43254622
_cell_formula_units_Z   1
loop_
 _symmetry_equiv_pos_site_id
 _symmetry_equiv_pos_as_xyz
  1  'x, y, z'
loop_
 _atom_site_type_symbol
 _atom_site_label
 _atom_site_symmetry_multiplicity
 _atom_site_fract_x
 _atom_site_fract_y
 _atom_site_fract_z
 _atom_site_occupancy
  Fe  Fe0  1  0.000000  0.000000  0.500000  1
  Tb  Tb1  1  0.229746  0.000000  0.000000  1
  Tb  Tb2  1  0.000000  0.606787  0.500000  1
  Tb  Tb3  1  0.393213  0.393213  0.500000  1
  Tb  Tb4  1  0.770254  0.770254  0.000000  1
  Tb  Tb5  1  0.000000  0.229746  0.000000  1
  Tb  Tb6  1  0.606787  0.000000  0.500000  1
  Bi  Bi7  1  0.333333  0.666667  0.000000  1
  Bi  Bi8  1  0.666667  0.333333  0.000000  1
