# generated using pymatgen
data_YClO
_symmetry_space_group_name_H-M   'P 1'
_cell_length_a   3.93024034
_cell_length_b   3.93024034
_cell_length_c   6.74428041
_cell_angle_alpha   90.00000000
_cell_angle_beta   90.00000000
_cell_angle_gamma   90.00000000
_symmetry_Int_Tables_number   1
_chemical_formula_structural   YClO
_chemical_formula_sum   'Y2 Cl2 O2'
_cell_volume   104.17747733
_cell_formula_units_Z   2
loop_
 _symmetry_equiv_pos_site_id
 _symmetry_equiv_pos_as_xyz
  1  'x, y, z'
loop_
 _atom_site_type_symbol
 _atom_site_label
 _atom_site_symmetry_multiplicity
 _atom_site_fract_x
 _atom_site_fract_y
 _atom_site_fract_z
 _atom_site_occupancy
  Y  Y0  1  0.750000  0.750000  0.166657  1
  Y  Y1  1  0.250000  0.250000  0.833343  1
  O  O2  1  0.250000  0.750000  0.000000  1
  O  O3  1  0.750000  0.250000  0.000000  1
  Cl  Cl4  1  0.750000  0.750000  0.628032  1
  Cl  Cl5  1  0.250000  0.250000  0.371968  1
