# generated using pymatgen
data_KFe2S3
_symmetry_space_group_name_H-M   'P 1'
_cell_length_a   5.15245870
_cell_length_b   7.10124506
_cell_length_c   7.10124555
_cell_angle_alpha   78.11177504
_cell_angle_beta   90.00000000
_cell_angle_gamma   90.00000000
_symmetry_Int_Tables_number   1
_chemical_formula_structural   KFe2S3
_chemical_formula_sum   'K2 Fe4 S6'
_cell_volume   254.25363262
_cell_formula_units_Z   2
loop_
 _symmetry_equiv_pos_site_id
 _symmetry_equiv_pos_as_xyz
  1  'x, y, z'
loop_
 _atom_site_type_symbol
 _atom_site_label
 _atom_site_symmetry_multiplicity
 _atom_site_fract_x
 _atom_site_fract_y
 _atom_site_fract_z
 _atom_site_occupancy
  K  K0  1  0.250000  0.667590  0.667590  1
  K  K1  1  0.750000  0.332410  0.332410  1
  Fe  Fe2  1  0.000000  0.141675  0.858325  1
  Fe  Fe3  1  0.500000  0.141675  0.858325  1
  Fe  Fe4  1  0.000000  0.858325  0.141675  1
  Fe  Fe5  1  0.500000  0.858325  0.141675  1
  S  S6  1  0.750000  0.889654  0.889654  1
  S  S7  1  0.250000  0.110346  0.110346  1
  S  S8  1  0.750000  0.836992  0.382854  1
  S  S9  1  0.750000  0.382854  0.836992  1
  S  S10  1  0.250000  0.163008  0.617146  1
  S  S11  1  0.250000  0.617146  0.163008  1
