# generated using pymatgen
data_Sn3BF9
_symmetry_space_group_name_H-M   'P 1'
_cell_length_a   7.79006502
_cell_length_b   10.95898932
_cell_length_c   10.54952852
_cell_angle_alpha   97.23356674
_cell_angle_beta   90.00000000
_cell_angle_gamma   90.00000000
_symmetry_Int_Tables_number   1
_chemical_formula_structural   Sn3BF9
_chemical_formula_sum   'Sn12 B4 F36'
_cell_volume   893.45833363
_cell_formula_units_Z   4
loop_
 _symmetry_equiv_pos_site_id
 _symmetry_equiv_pos_as_xyz
  1  'x, y, z'
loop_
 _atom_site_type_symbol
 _atom_site_label
 _atom_site_symmetry_multiplicity
 _atom_site_fract_x
 _atom_site_fract_y
 _atom_site_fract_z
 _atom_site_occupancy
  B  B0  1  0.924914  0.803435  0.407870  1
  B  B1  1  0.424914  0.696565  0.592130  1
  B  B2  1  0.075086  0.196565  0.592130  1
  B  B3  1  0.575086  0.303435  0.407870  1
  F  F4  1  0.452568  0.674824  0.460478  1
  F  F5  1  0.952568  0.825176  0.539522  1
  F  F6  1  0.547432  0.325176  0.539522  1
  F  F7  1  0.047432  0.174824  0.460478  1
  F  F8  1  0.775047  0.865523  0.373278  1
  F  F9  1  0.275047  0.634477  0.626722  1
  F  F10  1  0.224953  0.134477  0.626722  1
  F  F11  1  0.724953  0.365523  0.373278  1
  F  F12  1  0.613618  0.406621  0.040972  1
  F  F13  1  0.113618  0.093379  0.959028  1
  F  F14  1  0.386382  0.593379  0.959028  1
  F  F15  1  0.886382  0.906621  0.040972  1
  F  F16  1  0.760515  0.172737  0.070955  1
  F  F17  1  0.260515  0.327263  0.929045  1
  F  F18  1  0.239485  0.827263  0.929045  1
  F  F19  1  0.739485  0.672737  0.070955  1
  F  F20  1  0.126669  0.278263  0.176579  1
  F  F21  1  0.626669  0.221737  0.823421  1
  F  F22  1  0.873331  0.721737  0.823421  1
  F  F23  1  0.373331  0.778263  0.176579  1
  F  F24  1  0.900574  0.473337  0.176086  1
  F  F25  1  0.400574  0.026663  0.823914  1
  F  F26  1  0.099426  0.526663  0.823914  1
  F  F27  1  0.599426  0.973337  0.176086  1
  F  F28  1  0.246544  0.033672  0.195080  1
  F  F29  1  0.746544  0.466328  0.804920  1
  F  F30  1  0.753456  0.966328  0.804920  1
  F  F31  1  0.253456  0.533672  0.195080  1
  F  F32  1  0.432717  0.345675  0.339197  1
  F  F33  1  0.932717  0.154325  0.660803  1
  F  F34  1  0.567283  0.654325  0.660803  1
  F  F35  1  0.067283  0.845675  0.339197  1
  F  F36  1  0.595420  0.174193  0.368800  1
  F  F37  1  0.095420  0.325807  0.631200  1
  F  F38  1  0.404580  0.825807  0.631200  1
  F  F39  1  0.904580  0.674193  0.368800  1
  Sn  Sn40  1  0.399486  0.940140  0.315867  1
  Sn  Sn41  1  0.899486  0.559860  0.684133  1
  Sn  Sn42  1  0.600514  0.059860  0.684133  1
  Sn  Sn43  1  0.100514  0.440140  0.315867  1
  Sn  Sn44  1  0.637601  0.555730  0.201844  1
  Sn  Sn45  1  0.137601  0.944270  0.798156  1
  Sn  Sn46  1  0.362399  0.444270  0.798156  1
  Sn  Sn47  1  0.862399  0.055730  0.201844  1
  Sn  Sn48  1  0.165084  0.685219  0.058087  1
  Sn  Sn49  1  0.665084  0.814781  0.941913  1
  Sn  Sn50  1  0.834916  0.314781  0.941913  1
  Sn  Sn51  1  0.334916  0.185219  0.058087  1
