# generated using pymatgen
data_K3TlF6
_symmetry_space_group_name_H-M   'P 1'
_cell_length_a   13.10489092
_cell_length_b   13.10489073
_cell_length_c   13.10489027
_cell_angle_alpha   59.99999840
_cell_angle_beta   59.99999885
_cell_angle_gamma   60.00000035
_symmetry_Int_Tables_number   1
_chemical_formula_structural   K3TlF6
_chemical_formula_sum   'K24 Tl8 F48'
_cell_volume   1591.42141472
_cell_formula_units_Z   8
loop_
 _symmetry_equiv_pos_site_id
 _symmetry_equiv_pos_as_xyz
  1  'x, y, z'
loop_
 _atom_site_type_symbol
 _atom_site_label
 _atom_site_symmetry_multiplicity
 _atom_site_fract_x
 _atom_site_fract_y
 _atom_site_fract_z
 _atom_site_occupancy
  F  F0  1  0.892781  0.065875  0.161974  1
  F  F1  1  0.161974  0.892781  0.065875  1
  F  F2  1  0.065875  0.161974  0.892781  1
  F  F3  1  0.379370  0.892781  0.161974  1
  F  F4  1  0.065875  0.379370  0.161974  1
  F  F5  1  0.379370  0.065875  0.892781  1
  F  F6  1  0.161974  0.065875  0.379370  1
  F  F7  1  0.892781  0.161974  0.379370  1
  F  F8  1  0.892781  0.379370  0.065875  1
  F  F9  1  0.161974  0.379370  0.892781  1
  F  F10  1  0.379370  0.161974  0.065875  1
  F  F11  1  0.065875  0.892781  0.379370  1
  F  F12  1  0.107219  0.934125  0.838026  1
  F  F13  1  0.838026  0.107219  0.934125  1
  F  F14  1  0.934125  0.838026  0.107219  1
  F  F15  1  0.620630  0.107219  0.838026  1
  F  F16  1  0.934125  0.620630  0.838026  1
  F  F17  1  0.620630  0.934125  0.107219  1
  F  F18  1  0.838026  0.934125  0.620630  1
  F  F19  1  0.107219  0.838026  0.620630  1
  F  F20  1  0.107219  0.620630  0.934125  1
  F  F21  1  0.838026  0.620630  0.107219  1
  F  F22  1  0.620630  0.838026  0.934125  1
  F  F23  1  0.934125  0.107219  0.620630  1
  F  F24  1  0.393501  0.564132  0.663047  1
  F  F25  1  0.663047  0.393501  0.564132  1
  F  F26  1  0.564132  0.663047  0.393501  1
  F  F27  1  0.879321  0.393501  0.663047  1
  F  F28  1  0.564132  0.879321  0.663047  1
  F  F29  1  0.879321  0.564132  0.393501  1
  F  F30  1  0.663047  0.564132  0.879321  1
  F  F31  1  0.393501  0.663047  0.879321  1
  F  F32  1  0.393501  0.879321  0.564132  1
  F  F33  1  0.663047  0.879321  0.393501  1
  F  F34  1  0.879321  0.663047  0.564132  1
  F  F35  1  0.564132  0.393501  0.879321  1
  F  F36  1  0.606499  0.435868  0.336953  1
  F  F37  1  0.336953  0.606499  0.435868  1
  F  F38  1  0.435868  0.336953  0.606499  1
  F  F39  1  0.120679  0.606499  0.336953  1
  F  F40  1  0.435868  0.120679  0.336953  1
  F  F41  1  0.120679  0.435868  0.606499  1
  F  F42  1  0.336953  0.435868  0.120679  1
  F  F43  1  0.606499  0.336953  0.120679  1
  F  F44  1  0.606499  0.120679  0.435868  1
  F  F45  1  0.336953  0.120679  0.606499  1
  F  F46  1  0.120679  0.336953  0.435868  1
  F  F47  1  0.435868  0.606499  0.120679  1
  K  K48  1  0.125000  0.125000  0.125000  1
  K  K49  1  0.875000  0.875000  0.875000  1
  K  K50  1  0.625000  0.625000  0.625000  1
  K  K51  1  0.375000  0.375000  0.375000  1
  K  K52  1  0.250371  0.250371  0.250371  1
  K  K53  1  0.748886  0.250371  0.250371  1
  K  K54  1  0.250371  0.748886  0.250371  1
  K  K55  1  0.250371  0.250371  0.748886  1
  K  K56  1  0.749629  0.749629  0.749629  1
  K  K57  1  0.251114  0.749629  0.749629  1
  K  K58  1  0.749629  0.251114  0.749629  1
  K  K59  1  0.749629  0.749629  0.251114  1
  K  K60  1  0.875568  0.374432  0.374432  1
  K  K61  1  0.374432  0.875568  0.374432  1
  K  K62  1  0.374432  0.374432  0.875568  1
  K  K63  1  0.875568  0.875568  0.374432  1
  K  K64  1  0.875568  0.374432  0.875568  1
  K  K65  1  0.374432  0.875568  0.875568  1
  K  K66  1  0.124432  0.625568  0.625568  1
  K  K67  1  0.625568  0.124432  0.625568  1
  K  K68  1  0.625568  0.625568  0.124432  1
  K  K69  1  0.124432  0.124432  0.625568  1
  K  K70  1  0.124432  0.625568  0.124432  1
  K  K71  1  0.625568  0.124432  0.124432  1
  Tl  Tl72  1  0.000000  0.000000  0.000000  1
  Tl  Tl73  1  0.500000  0.000000  0.000000  1
  Tl  Tl74  1  0.000000  0.500000  0.000000  1
  Tl  Tl75  1  0.000000  0.000000  0.500000  1
  Tl  Tl76  1  0.500000  0.500000  0.500000  1
  Tl  Tl77  1  0.000000  0.500000  0.500000  1
  Tl  Tl78  1  0.500000  0.000000  0.500000  1
  Tl  Tl79  1  0.500000  0.500000  0.000000  1
