# generated using pymatgen
data_SmIn2Rh
_symmetry_space_group_name_H-M   'P 1'
_cell_length_a   4.44285130
_cell_length_b   5.58762864
_cell_length_c   7.99717674
_cell_angle_alpha   90.00000000
_cell_angle_beta   90.00000000
_cell_angle_gamma   113.42582016
_symmetry_Int_Tables_number   1
_chemical_formula_structural   SmIn2Rh
_chemical_formula_sum   'Sm2 In4 Rh2'
_cell_volume   182.16621864
_cell_formula_units_Z   2
loop_
 _symmetry_equiv_pos_site_id
 _symmetry_equiv_pos_as_xyz
  1  'x, y, z'
loop_
 _atom_site_type_symbol
 _atom_site_label
 _atom_site_symmetry_multiplicity
 _atom_site_fract_x
 _atom_site_fract_y
 _atom_site_fract_z
 _atom_site_occupancy
  Rh  Rh0  1  0.784858  0.569716  0.750000  1
  Rh  Rh1  1  0.215142  0.430284  0.250000  1
  In  In2  1  0.355078  0.710156  0.550770  1
  In  In3  1  0.644922  0.289844  0.449230  1
  In  In4  1  0.355078  0.710156  0.949230  1
  In  In5  1  0.644922  0.289844  0.050770  1
  Sm  Sm6  1  0.932819  0.865637  0.250000  1
  Sm  Sm7  1  0.067181  0.134363  0.750000  1
