# generated using pymatgen
data_Na2Li2FeO4
_symmetry_space_group_name_H-M   'P 1'
_cell_length_a   8.19817814
_cell_length_b   8.04406628
_cell_length_c   6.63707706
_cell_angle_alpha   89.91921634
_cell_angle_beta   90.00000000
_cell_angle_gamma   90.00000000
_symmetry_Int_Tables_number   1
_chemical_formula_structural   Na2Li2FeO4
_chemical_formula_sum   'Na8 Li8 Fe4 O16'
_cell_volume   437.69281777
_cell_formula_units_Z   4
loop_
 _symmetry_equiv_pos_site_id
 _symmetry_equiv_pos_as_xyz
  1  'x, y, z'
loop_
 _atom_site_type_symbol
 _atom_site_label
 _atom_site_symmetry_multiplicity
 _atom_site_fract_x
 _atom_site_fract_y
 _atom_site_fract_z
 _atom_site_occupancy
  Li  Li0  1  0.915490  0.201608  0.471372  1
  Li  Li1  1  0.859164  0.010713  0.752828  1
  Li  Li2  1  0.640836  0.510713  0.252828  1
  Li  Li3  1  0.584510  0.701608  0.971372  1
  Li  Li4  1  0.084510  0.798392  0.528628  1
  Li  Li5  1  0.140836  0.989287  0.247172  1
  Li  Li6  1  0.359164  0.489287  0.747172  1
  Li  Li7  1  0.415490  0.298392  0.028628  1
  O  O8  1  0.790673  0.568802  0.032740  1
  O  O9  1  0.774432  0.448089  0.492257  1
  O  O10  1  0.990881  0.798456  0.254518  1
  O  O11  1  0.960165  0.788322  0.766801  1
  O  O12  1  0.509119  0.298456  0.754518  1
  O  O13  1  0.539835  0.288322  0.266801  1
  O  O14  1  0.490881  0.701544  0.245482  1
  O  O15  1  0.209327  0.431198  0.967260  1
  O  O16  1  0.460165  0.711678  0.733199  1
  O  O17  1  0.274432  0.051911  0.007743  1
  O  O18  1  0.725568  0.948089  0.992257  1
  O  O19  1  0.290673  0.931198  0.467260  1
  O  O20  1  0.039835  0.211678  0.233199  1
  O  O21  1  0.009119  0.201544  0.745482  1
  O  O22  1  0.225568  0.551911  0.507743  1
  O  O23  1  0.709327  0.068802  0.532740  1
  Na  Na24  1  0.973634  0.497121  0.742627  1
  Na  Na25  1  0.745730  0.754082  0.512126  1
  Na  Na26  1  0.526366  0.997121  0.242627  1
  Na  Na27  1  0.254270  0.245918  0.487874  1
  Na  Na28  1  0.245730  0.745918  0.987874  1
  Na  Na29  1  0.026366  0.502879  0.257373  1
  Na  Na30  1  0.754270  0.254082  0.012126  1
  Na  Na31  1  0.473634  0.002879  0.757373  1
  Fe  Fe32  1  0.874504  0.781275  0.021843  1
  Fe  Fe33  1  0.625496  0.281275  0.521843  1
  Fe  Fe34  1  0.374504  0.718725  0.478157  1
  Fe  Fe35  1  0.125496  0.218725  0.978157  1
