# generated using pymatgen
data_Pb2WO5
_symmetry_space_group_name_H-M   'P 1'
_cell_length_a   5.96195495
_cell_length_b   7.54236833
_cell_length_c   7.80230443
_cell_angle_alpha   110.03897539
_cell_angle_beta   112.46157305
_cell_angle_gamma   90.00000003
_symmetry_Int_Tables_number   1
_chemical_formula_structural   Pb2WO5
_chemical_formula_sum   'Pb4 W2 O10'
_cell_volume   301.11936895
_cell_formula_units_Z   2
loop_
 _symmetry_equiv_pos_site_id
 _symmetry_equiv_pos_as_xyz
  1  'x, y, z'
loop_
 _atom_site_type_symbol
 _atom_site_label
 _atom_site_symmetry_multiplicity
 _atom_site_fract_x
 _atom_site_fract_y
 _atom_site_fract_z
 _atom_site_occupancy
  O  O0  1  0.747328  0.000000  0.000000  1
  O  O1  1  0.252672  1.000000  1.000000  1
  O  O2  1  0.695170  0.303617  0.390339  1
  O  O3  1  0.304830  0.696383  0.609661  1
  O  O4  1  0.904733  0.780655  0.295242  1
  O  O5  1  0.609491  0.219345  0.704758  1
  O  O6  1  0.904371  0.594416  0.808742  1
  O  O7  1  0.095629  0.405584  0.191258  1
  O  O8  1  0.390509  0.780655  0.295242  1
  O  O9  1  0.095267  0.219345  0.704758  1
  W  W10  1  0.826886  0.338800  0.653773  1
  W  W11  1  0.173114  0.661200  0.346227  1
  Pb  Pb12  1  0.506170  0.245134  0.012340  1
  Pb  Pb13  1  0.493830  0.754866  0.987660  1
  Pb  Pb14  1  0.134177  0.111964  0.268354  1
  Pb  Pb15  1  0.865823  0.888036  0.731646  1
