# generated using pymatgen
data_DyCoSn
_symmetry_space_group_name_H-M   'P 1'
_cell_length_a   4.58150871
_cell_length_b   7.35652750
_cell_length_c   7.23464515
_cell_angle_alpha   90.00000000
_cell_angle_beta   90.00000000
_cell_angle_gamma   90.00000000
_symmetry_Int_Tables_number   1
_chemical_formula_structural   DyCoSn
_chemical_formula_sum   'Dy4 Co4 Sn4'
_cell_volume   243.83644264
_cell_formula_units_Z   4
loop_
 _symmetry_equiv_pos_site_id
 _symmetry_equiv_pos_as_xyz
  1  'x, y, z'
loop_
 _atom_site_type_symbol
 _atom_site_label
 _atom_site_symmetry_multiplicity
 _atom_site_fract_x
 _atom_site_fract_y
 _atom_site_fract_z
 _atom_site_occupancy
  Co  Co0  1  0.750000  0.351884  0.057668  1
  Co  Co1  1  0.250000  0.148116  0.557668  1
  Co  Co2  1  0.750000  0.851884  0.442332  1
  Co  Co3  1  0.250000  0.648116  0.942332  1
  Sn  Sn4  1  0.250000  0.797133  0.610839  1
  Sn  Sn5  1  0.750000  0.702867  0.110839  1
  Sn  Sn6  1  0.250000  0.297133  0.889161  1
  Sn  Sn7  1  0.750000  0.202867  0.389161  1
  Dy  Dy8  1  0.250000  0.474486  0.301453  1
  Dy  Dy9  1  0.750000  0.525514  0.698547  1
  Dy  Dy10  1  0.250000  0.974486  0.198547  1
  Dy  Dy11  1  0.750000  0.025514  0.801453  1
