# generated using pymatgen
data_Rb2CuH12(SO7)2
_symmetry_space_group_name_H-M   'P 1'
_cell_length_a   6.28273136
_cell_length_b   9.29762904
_cell_length_c   12.48853568
_cell_angle_alpha   90.00000000
_cell_angle_beta   90.00000000
_cell_angle_gamma   104.89632203
_symmetry_Int_Tables_number   1
_chemical_formula_structural   Rb2CuH12(SO7)2
_chemical_formula_sum   'Rb4 Cu2 H24 S4 O28'
_cell_volume   704.99463498
_cell_formula_units_Z   2
loop_
 _symmetry_equiv_pos_site_id
 _symmetry_equiv_pos_as_xyz
  1  'x, y, z'
loop_
 _atom_site_type_symbol
 _atom_site_label
 _atom_site_symmetry_multiplicity
 _atom_site_fract_x
 _atom_site_fract_y
 _atom_site_fract_z
 _atom_site_occupancy
  Rb  Rb0  1  0.349614  0.121230  0.348239  1
  Rb  Rb1  1  0.650386  0.878770  0.651761  1
  Rb  Rb2  1  0.349614  0.621230  0.151761  1
  Rb  Rb3  1  0.650386  0.378770  0.848239  1
  Cu  Cu4  1  0.000000  0.000000  0.000000  1
  Cu  Cu5  1  0.000000  0.500000  0.500000  1
  H  H6  1  0.082824  0.234203  0.121075  1
  H  H7  1  0.692146  0.968666  0.141430  1
  H  H8  1  0.324710  0.900302  0.938643  1
  H  H9  1  0.924550  0.707568  0.104506  1
  H  H10  1  0.992715  0.829721  0.194631  1
  H  H11  1  0.075450  0.292432  0.895494  1
  H  H12  1  0.917176  0.265797  0.621075  1
  H  H13  1  0.675290  0.099698  0.061357  1
  H  H14  1  0.007285  0.670279  0.694631  1
  H  H15  1  0.917176  0.765797  0.878925  1
  H  H16  1  0.992715  0.329721  0.305369  1
  H  H17  1  0.315986  0.201128  0.088376  1
  H  H18  1  0.684014  0.298872  0.588376  1
  H  H19  1  0.692146  0.468666  0.358570  1
  H  H20  1  0.082824  0.734203  0.378925  1
  H  H21  1  0.307854  0.031334  0.858570  1
  H  H22  1  0.007285  0.170279  0.805369  1
  H  H23  1  0.675290  0.599698  0.438643  1
  H  H24  1  0.924550  0.207568  0.395494  1
  H  H25  1  0.075450  0.792432  0.604506  1
  H  H26  1  0.307854  0.531334  0.641430  1
  H  H27  1  0.324710  0.400302  0.561357  1
  H  H28  1  0.684014  0.798872  0.911624  1
  H  H29  1  0.315986  0.701128  0.411624  1
  S  S30  1  0.728418  0.390877  0.138239  1
  S  S31  1  0.271582  0.109123  0.638239  1
  S  S32  1  0.728418  0.890877  0.361761  1
  S  S33  1  0.271582  0.609123  0.861761  1
  O  O34  1  0.159566  0.654149  0.391102  1
  O  O35  1  0.713363  0.501588  0.435079  1
  O  O36  1  0.286637  -0.001588  0.935079  1
  O  O37  1  0.240608  0.971418  0.573589  1
  O  O38  1  0.053327  0.135156  0.668242  1
  O  O39  1  0.599768  0.901454  0.262703  1
  O  O40  1  0.759392  0.528582  0.073589  1
  O  O41  1  0.713363  1.001588  0.064921  1
  O  O42  1  0.400232  0.598546  0.762703  1
  O  O43  1  0.946673  0.864844  0.331758  1
  O  O44  1  0.240608  0.471418  0.926411  1
  O  O45  1  0.029518  0.304473  0.378950  1
  O  O46  1  0.759392  0.028582  0.426411  1
  O  O47  1  0.946673  0.364844  0.168242  1
  O  O48  1  0.029518  0.804473  0.121050  1
  O  O49  1  0.970482  0.695527  0.621050  1
  O  O50  1  0.159566  0.154149  0.108898  1
  O  O51  1  0.600175  0.261469  0.072603  1
  O  O52  1  0.286637  0.498412  0.564921  1
  O  O53  1  0.970482  0.195527  0.878950  1
  O  O54  1  0.053327  0.635156  0.831758  1
  O  O55  1  0.840434  0.345851  0.608898  1
  O  O56  1  0.840434  0.845851  0.891102  1
  O  O57  1  0.599768  0.401454  0.237297  1
  O  O58  1  0.400232  0.098546  0.737297  1
  O  O59  1  0.399825  0.238531  0.572603  1
  O  O60  1  0.600175  0.761469  0.427397  1
  O  O61  1  0.399825  0.738531  0.927397  1
