# generated using pymatgen
data_Tl2Te2O5
_symmetry_space_group_name_H-M   'P 1'
_cell_length_a   7.49402473
_cell_length_b   8.93144807
_cell_length_c   12.26095016
_cell_angle_alpha   90.00000000
_cell_angle_beta   90.00000000
_cell_angle_gamma   115.97642221
_symmetry_Int_Tables_number   1
_chemical_formula_structural   Tl2Te2O5
_chemical_formula_sum   'Tl8 Te8 O20'
_cell_volume   737.74866748
_cell_formula_units_Z   4
loop_
 _symmetry_equiv_pos_site_id
 _symmetry_equiv_pos_as_xyz
  1  'x, y, z'
loop_
 _atom_site_type_symbol
 _atom_site_label
 _atom_site_symmetry_multiplicity
 _atom_site_fract_x
 _atom_site_fract_y
 _atom_site_fract_z
 _atom_site_occupancy
  O  O0  1  0.114328  0.986258  0.351024  1
  O  O1  1  0.385672  0.513742  0.851024  1
  O  O2  1  0.885672  0.013742  0.648976  1
  O  O3  1  0.614328  0.486258  0.148976  1
  O  O4  1  0.515223  0.239737  0.372630  1
  O  O5  1  0.984777  0.260263  0.872630  1
  O  O6  1  0.484777  0.760263  0.627370  1
  O  O7  1  0.015223  0.739737  0.127370  1
  O  O8  1  0.484657  0.432899  0.595660  1
  O  O9  1  0.015343  0.067101  0.095660  1
  O  O10  1  0.515343  0.567101  0.404340  1
  O  O11  1  0.984657  0.932899  0.904340  1
  O  O12  1  0.126414  0.398904  0.672090  1
  O  O13  1  0.373586  0.101096  0.172090  1
  O  O14  1  0.873586  0.601096  0.327910  1
  O  O15  1  0.626414  0.898904  0.827910  1
  O  O16  1  0.655763  0.767460  0.044305  1
  O  O17  1  0.844237  0.732540  0.544305  1
  O  O18  1  0.344237  0.232540  0.955695  1
  O  O19  1  0.155763  0.267460  0.455695  1
  Te  Te20  1  0.277070  0.204123  0.298272  1
  Te  Te21  1  0.222930  0.295877  0.798272  1
  Te  Te22  1  0.722930  0.795877  0.701728  1
  Te  Te23  1  0.777070  0.704123  0.201728  1
  Te  Te24  1  0.282143  0.481835  0.529166  1
  Te  Te25  1  0.217857  0.018165  0.029166  1
  Te  Te26  1  0.717857  0.518165  0.470834  1
  Te  Te27  1  0.782143  0.981835  0.970834  1
  Tl  Tl28  1  0.770440  0.978043  0.440673  1
  Tl  Tl29  1  0.729560  0.521957  0.940673  1
  Tl  Tl30  1  0.229560  0.021957  0.559327  1
  Tl  Tl31  1  0.270440  0.478043  0.059327  1
  Tl  Tl32  1  0.262072  0.786860  0.286199  1
  Tl  Tl33  1  0.237928  0.713140  0.786199  1
  Tl  Tl34  1  0.737928  0.213140  0.713801  1
  Tl  Tl35  1  0.762072  0.286860  0.213801  1
