# generated using pymatgen
data_K3PSe16
_symmetry_space_group_name_H-M   'P 1'
_cell_length_a   11.88976402
_cell_length_b   11.88976403
_cell_length_c   11.88976403
_cell_angle_alpha   60.00000002
_cell_angle_beta   60.00000001
_cell_angle_gamma   60.00000002
_symmetry_Int_Tables_number   1
_chemical_formula_structural   K3PSe16
_chemical_formula_sum   'K6 P2 Se32'
_cell_volume   1188.51511287
_cell_formula_units_Z   2
loop_
 _symmetry_equiv_pos_site_id
 _symmetry_equiv_pos_as_xyz
  1  'x, y, z'
loop_
 _atom_site_type_symbol
 _atom_site_label
 _atom_site_symmetry_multiplicity
 _atom_site_fract_x
 _atom_site_fract_y
 _atom_site_fract_z
 _atom_site_occupancy
  P  P0  1  0.875000  0.875000  0.875000  1
  P  P1  1  0.125000  0.125000  0.125000  1
  K  K2  1  0.625000  0.625000  0.625000  1
  K  K3  1  0.000000  0.500000  0.000000  1
  K  K4  1  0.000000  0.000000  0.500000  1
  K  K5  1  0.500000  0.000000  0.000000  1
  K  K6  1  0.000000  0.000000  0.000000  1
  K  K7  1  0.375000  0.375000  0.375000  1
  Se  Se8  1  0.534626  0.692399  0.947429  1
  Se  Se9  1  0.534626  0.325547  0.692399  1
  Se  Se10  1  0.947429  0.325547  0.534626  1
  Se  Se11  1  0.692399  0.947429  0.534626  1
  Se  Se12  1  0.692399  0.534626  0.325547  1
  Se  Se13  1  0.947429  0.534626  0.692399  1
  Se  Se14  1  0.534626  0.947429  0.325547  1
  Se  Se15  1  0.325547  0.692399  0.534626  1
  Se  Se16  1  0.307602  0.674453  0.052571  1
  Se  Se17  1  0.052571  0.307602  0.674453  1
  Se  Se18  1  0.674453  0.052571  0.307602  1
  Se  Se19  1  0.465374  0.307602  0.052571  1
  Se  Se20  1  0.325547  0.534626  0.947429  1
  Se  Se21  1  0.465374  0.674453  0.307602  1
  Se  Se22  1  0.052571  0.674453  0.465374  1
  Se  Se23  1  0.307602  0.052571  0.465374  1
  Se  Se24  1  0.307602  0.465374  0.674453  1
  Se  Se25  1  0.052571  0.465374  0.307602  1
  Se  Se26  1  0.465374  0.052571  0.674453  1
  Se  Se27  1  0.674453  0.307602  0.465374  1
  Se  Se28  1  0.798185  0.105446  0.798185  1
  Se  Se29  1  0.798185  0.798185  0.105446  1
  Se  Se30  1  0.105446  0.798185  0.798185  1
  Se  Se31  1  0.798185  0.798185  0.798185  1
  Se  Se32  1  0.201815  0.894554  0.201815  1
  Se  Se33  1  0.201815  0.201815  0.894554  1
  Se  Se34  1  0.894554  0.201815  0.201815  1
  Se  Se35  1  0.201815  0.201815  0.201815  1
  Se  Se36  1  0.325547  0.947429  0.692399  1
  Se  Se37  1  0.947429  0.692399  0.325547  1
  Se  Se38  1  0.692399  0.325547  0.947429  1
  Se  Se39  1  0.674453  0.465374  0.052571  1
