# generated using pymatgen
data_BaYbCo4O7
_symmetry_space_group_name_H-M   'P 1'
_cell_length_a   6.36052748
_cell_length_b   6.36052748
_cell_length_c   10.31114053
_cell_angle_alpha   90.00000000
_cell_angle_beta   90.00000000
_cell_angle_gamma   120.00000000
_symmetry_Int_Tables_number   1
_chemical_formula_structural   BaYbCo4O7
_chemical_formula_sum   'Ba2 Yb2 Co8 O14'
_cell_volume   361.26309993
_cell_formula_units_Z   2
loop_
 _symmetry_equiv_pos_site_id
 _symmetry_equiv_pos_as_xyz
  1  'x, y, z'
loop_
 _atom_site_type_symbol
 _atom_site_label
 _atom_site_symmetry_multiplicity
 _atom_site_fract_x
 _atom_site_fract_y
 _atom_site_fract_z
 _atom_site_occupancy
  O  O0  1  0.908641  0.675436  0.999492  1
  O  O1  1  0.324564  0.233205  0.999492  1
  O  O2  1  0.766795  0.091360  0.999492  1
  O  O3  1  0.675437  0.908641  0.499492  1
  O  O4  1  0.233205  0.324565  0.499492  1
  O  O5  1  0.091359  0.766795  0.499492  1
  O  O6  1  0.000000  0.000000  0.734601  1
  O  O7  1  0.000000  0.000000  0.234602  1
  O  O8  1  0.488951  0.021433  0.248747  1
  O  O9  1  0.978567  0.467518  0.248747  1
  O  O10  1  0.532483  0.511050  0.248747  1
  O  O11  1  0.021433  0.488951  0.748748  1
  O  O12  1  0.511049  0.532482  0.748748  1
  O  O13  1  0.467518  0.978568  0.748748  1
  Co  Co14  1  0.849086  0.657889  0.177835  1
  Co  Co15  1  0.342111  0.191198  0.177835  1
  Co  Co16  1  0.808802  0.150914  0.177835  1
  Co  Co17  1  0.657888  0.849086  0.677834  1
  Co  Co18  1  0.191198  0.342112  0.677834  1
  Co  Co19  1  0.150913  0.808803  0.677834  1
  Co  Co20  1  0.000000  0.000000  0.434959  1
  Co  Co21  1  0.000000  0.000000  0.934960  1
  Ba  Ba22  1  0.333334  0.666668  0.980900  1
  Ba  Ba23  1  0.666667  0.333334  0.480900  1
  Yb  Yb24  1  0.333334  0.666668  0.372017  1
  Yb  Yb25  1  0.666667  0.333334  0.872017  1
