# generated using pymatgen
data_ZnH20Se2(NO7)2
_symmetry_space_group_name_H-M   'P 1'
_cell_length_a   6.51136369
_cell_length_b   9.39710563
_cell_length_c   12.74705598
_cell_angle_alpha   90.00000000
_cell_angle_beta   90.00000000
_cell_angle_gamma   106.43283452
_symmetry_Int_Tables_number   1
_chemical_formula_structural   ZnH20Se2(NO7)2
_chemical_formula_sum   'Zn2 H40 Se4 N4 O28'
_cell_volume   748.10644927
_cell_formula_units_Z   2
loop_
 _symmetry_equiv_pos_site_id
 _symmetry_equiv_pos_as_xyz
  1  'x, y, z'
loop_
 _atom_site_type_symbol
 _atom_site_label
 _atom_site_symmetry_multiplicity
 _atom_site_fract_x
 _atom_site_fract_y
 _atom_site_fract_z
 _atom_site_occupancy
  H  H0  1  0.455274  0.572273  0.179446  1
  H  H1  1  0.056100  0.762380  0.596985  1
  H  H2  1  0.943900  0.737620  0.096985  1
  H  H3  1  0.943900  0.237620  0.403016  1
  H  H4  1  0.199126  0.069585  0.329038  1
  H  H5  1  0.800874  0.430415  0.829038  1
  H  H6  1  0.800874  0.930415  0.670962  1
  H  H7  1  0.199126  0.569585  0.170962  1
  H  H8  1  0.374240  0.168377  0.419338  1
  H  H9  1  0.625760  0.331623  0.919338  1
  H  H10  1  0.625760  0.831623  0.580662  1
  H  H11  1  0.374240  0.668377  0.080662  1
  H  H12  1  0.388986  0.229815  0.293526  1
  H  H13  1  0.611014  0.270185  0.793526  1
  H  H14  1  0.611014  0.770185  0.706474  1
  H  H15  1  0.388986  0.729815  0.206474  1
  H  H16  1  0.455274  0.072273  0.320554  1
  H  H17  1  0.544726  0.427727  0.820554  1
  H  H18  1  0.544726  0.927727  0.679446  1
  H  H19  1  0.895111  0.748509  0.879027  1
  H  H20  1  0.994270  0.637650  0.685206  1
  H  H21  1  0.005730  0.862350  0.185206  1
  H  H22  1  0.005730  0.362350  0.314794  1
  H  H23  1  0.994270  0.137650  0.814794  1
  H  H24  1  0.679543  0.284803  0.584806  1
  H  H25  1  0.320457  0.215197  0.084806  1
  H  H26  1  0.320457  0.715197  0.415194  1
  H  H27  1  0.679543  0.784803  0.915194  1
  H  H28  1  0.895111  0.248509  0.620973  1
  H  H29  1  0.104889  0.251491  0.120973  1
  H  H30  1  0.323814  0.024616  0.858504  1
  H  H31  1  0.676186  0.475384  0.358504  1
  H  H32  1  0.676186  0.975384  0.141496  1
  H  H33  1  0.323814  0.524616  0.641496  1
  H  H34  1  0.331069  0.902312  0.943009  1
  H  H35  1  0.668931  0.597688  0.443009  1
  H  H36  1  0.668931  0.097688  0.056991  1
  H  H37  1  0.331069  0.402312  0.556991  1
  H  H38  1  0.104889  0.751491  0.379027  1
  H  H39  1  0.056100  0.262380  0.903015  1
  N  N40  1  0.354367  0.136267  0.340526  1
  N  N41  1  0.354367  0.636267  0.159474  1
  N  N42  1  0.645633  0.363733  0.840526  1
  N  N43  1  0.645633  0.863733  0.659474  1
  O  O44  1  0.829572  0.329658  0.607681  1
  O  O45  1  0.707061  0.003495  0.066739  1
  O  O46  1  0.707061  0.503495  0.433261  1
  O  O47  1  0.292939  0.996505  0.933261  1
  O  O48  1  0.968406  0.386599  0.179497  1
  O  O49  1  0.031594  0.113401  0.679497  1
  O  O50  1  0.963131  0.159917  0.888280  1
  O  O51  1  0.036869  0.340083  0.388280  1
  O  O52  1  0.036869  0.840083  0.111720  1
  O  O53  1  0.963131  0.659917  0.611720  1
  O  O54  1  0.031594  0.613401  0.820503  1
  O  O55  1  0.968406  0.886599  0.320503  1
  O  O56  1  0.609423  0.270419  0.055682  1
  O  O57  1  0.390577  0.229581  0.555682  1
  O  O58  1  0.170428  0.170342  0.107681  1
  O  O59  1  0.292939  0.496505  0.566739  1
  O  O60  1  0.829572  0.829658  0.892319  1
  O  O61  1  0.390577  0.729581  0.944318  1
  O  O62  1  0.789632  0.068751  0.437105  1
  O  O63  1  0.210368  0.431249  0.937105  1
  O  O64  1  0.210368  0.931249  0.562895  1
  O  O65  1  0.789632  0.568751  0.062895  1
  O  O66  1  0.575912  0.921971  0.266662  1
  O  O67  1  0.424088  0.578029  0.766662  1
  O  O68  1  0.424088  0.078029  0.733338  1
  O  O69  1  0.575912  0.421971  0.233338  1
  O  O70  1  0.609423  0.770419  0.444318  1
  O  O71  1  0.170428  0.670342  0.392319  1
  Zn  Zn72  1  0.000000  0.000000  0.000000  1
  Zn  Zn73  1  0.000000  0.500000  0.500000  1
  Se  Se74  1  0.259745  0.586529  0.867487  1
  Se  Se75  1  0.740255  0.913471  0.367487  1
  Se  Se76  1  0.259745  0.086529  0.632513  1
  Se  Se77  1  0.740255  0.413471  0.132513  1
