# generated using pymatgen
data_Re2(PCl8)3
_symmetry_space_group_name_H-M   'P 1'
_cell_length_a   13.60982681
_cell_length_b   15.98324308
_cell_length_c   15.98324308
_cell_angle_alpha   90.00000000
_cell_angle_beta   90.00000000
_cell_angle_gamma   90.00000000
_symmetry_Int_Tables_number   1
_chemical_formula_structural   Re2(PCl8)3
_chemical_formula_sum   'Re8 P12 Cl96'
_cell_volume   3476.82160399
_cell_formula_units_Z   4
loop_
 _symmetry_equiv_pos_site_id
 _symmetry_equiv_pos_as_xyz
  1  'x, y, z'
loop_
 _atom_site_type_symbol
 _atom_site_label
 _atom_site_symmetry_multiplicity
 _atom_site_fract_x
 _atom_site_fract_y
 _atom_site_fract_z
 _atom_site_occupancy
  P  P0  1  0.750000  0.876696  0.376696  1
  P  P1  1  0.250000  0.623304  0.876696  1
  P  P2  1  0.250000  0.376696  0.123304  1
  P  P3  1  0.750000  0.123304  0.623304  1
  P  P4  1  0.250000  0.123304  0.623304  1
  P  P5  1  0.750000  0.376696  0.123304  1
  P  P6  1  0.750000  0.623304  0.876696  1
  P  P7  1  0.250000  0.876696  0.376696  1
  P  P8  1  0.250000  0.500000  0.500000  1
  P  P9  1  0.750000  0.500000  0.500000  1
  P  P10  1  0.750000  0.000000  0.000000  1
  P  P11  1  0.250000  0.000000  0.000000  1
  Cl  Cl12  1  0.000000  0.121833  0.452476  1
  Cl  Cl13  1  0.500000  0.547524  0.121833  1
  Cl  Cl14  1  0.500000  0.452476  0.878167  1
  Cl  Cl15  1  0.000000  0.878167  0.547524  1
  Cl  Cl16  1  0.000000  0.621833  0.047524  1
  Cl  Cl17  1  0.000000  0.378167  0.952476  1
  Cl  Cl18  1  0.500000  0.952476  0.621833  1
  Cl  Cl19  1  0.500000  0.047524  0.378167  1
  Cl  Cl20  1  0.000000  0.328298  0.499241  1
  Cl  Cl21  1  0.500000  0.500759  0.328298  1
  Cl  Cl22  1  0.500000  0.499241  0.671702  1
  Cl  Cl23  1  0.000000  0.671702  0.500759  1
  Cl  Cl24  1  0.000000  0.828298  0.000759  1
  Cl  Cl25  1  0.000000  0.171702  0.999241  1
  Cl  Cl26  1  0.500000  0.999241  0.828298  1
  Cl  Cl27  1  0.500000  0.000759  0.171702  1
  Cl  Cl28  1  0.000000  0.374198  0.293667  1
  Cl  Cl29  1  0.500000  0.706333  0.374198  1
  Cl  Cl30  1  0.500000  0.293667  0.625802  1
  Cl  Cl31  1  0.000000  0.625802  0.706333  1
  Cl  Cl32  1  0.000000  0.874198  0.206333  1
  Cl  Cl33  1  0.000000  0.125802  0.793667  1
  Cl  Cl34  1  0.500000  0.793667  0.874198  1
  Cl  Cl35  1  0.500000  0.206333  0.125802  1
  Cl  Cl36  1  0.171278  0.250579  0.376640  1
  Cl  Cl37  1  0.671278  0.623360  0.250579  1
  Cl  Cl38  1  0.671278  0.376640  0.749421  1
  Cl  Cl39  1  0.171278  0.749421  0.623360  1
  Cl  Cl40  1  0.828722  0.750579  0.123360  1
  Cl  Cl41  1  0.828722  0.249421  0.876640  1
  Cl  Cl42  1  0.328722  0.876640  0.750579  1
  Cl  Cl43  1  0.328722  0.123360  0.249421  1
  Cl  Cl44  1  0.828722  0.749421  0.623360  1
  Cl  Cl45  1  0.328722  0.376640  0.749421  1
  Cl  Cl46  1  0.328722  0.623360  0.250579  1
  Cl  Cl47  1  0.828722  0.250579  0.376640  1
  Cl  Cl48  1  0.171278  0.249421  0.876640  1
  Cl  Cl49  1  0.171278  0.750579  0.123360  1
  Cl  Cl50  1  0.671278  0.123360  0.249421  1
  Cl  Cl51  1  0.671278  0.876640  0.750579  1
  Cl  Cl52  1  0.000000  0.167909  0.251061  1
  Cl  Cl53  1  0.500000  0.748939  0.167909  1
  Cl  Cl54  1  0.500000  0.251061  0.832091  1
  Cl  Cl55  1  0.000000  0.832091  0.748939  1
  Cl  Cl56  1  0.000000  0.667909  0.248939  1
  Cl  Cl57  1  0.000000  0.332091  0.751061  1
  Cl  Cl58  1  0.500000  0.751061  0.667909  1
  Cl  Cl59  1  0.500000  0.248939  0.332091  1
  Cl  Cl60  1  0.663971  0.875987  0.278830  1
  Cl  Cl61  1  0.163971  0.721170  0.875987  1
  Cl  Cl62  1  0.163971  0.278830  0.124013  1
  Cl  Cl63  1  0.663971  0.124013  0.721170  1
  Cl  Cl64  1  0.336029  0.375987  0.221170  1
  Cl  Cl65  1  0.336029  0.624013  0.778830  1
  Cl  Cl66  1  0.836029  0.778830  0.375987  1
  Cl  Cl67  1  0.836029  0.221170  0.624013  1
  Cl  Cl68  1  0.336029  0.124013  0.721170  1
  Cl  Cl69  1  0.836029  0.278830  0.124013  1
  Cl  Cl70  1  0.836029  0.721170  0.875987  1
  Cl  Cl71  1  0.336029  0.875987  0.278830  1
  Cl  Cl72  1  0.663971  0.624013  0.778830  1
  Cl  Cl73  1  0.663971  0.375987  0.221170  1
  Cl  Cl74  1  0.163971  0.221170  0.624013  1
  Cl  Cl75  1  0.163971  0.778830  0.375987  1
  Cl  Cl76  1  0.831950  0.978157  0.376841  1
  Cl  Cl77  1  0.331950  0.623159  0.978157  1
  Cl  Cl78  1  0.331950  0.376841  0.021843  1
  Cl  Cl79  1  0.831950  0.021843  0.623159  1
  Cl  Cl80  1  0.168050  0.478157  0.123159  1
  Cl  Cl81  1  0.168050  0.521843  0.876841  1
  Cl  Cl82  1  0.668050  0.876841  0.478157  1
  Cl  Cl83  1  0.668050  0.123159  0.521843  1
  Cl  Cl84  1  0.168050  0.021843  0.623159  1
  Cl  Cl85  1  0.668050  0.376841  0.021843  1
  Cl  Cl86  1  0.668050  0.623159  0.978157  1
  Cl  Cl87  1  0.168050  0.978157  0.376841  1
  Cl  Cl88  1  0.831950  0.521843  0.876841  1
  Cl  Cl89  1  0.831950  0.478157  0.123159  1
  Cl  Cl90  1  0.331950  0.123159  0.521843  1
  Cl  Cl91  1  0.331950  0.876841  0.478157  1
  Cl  Cl92  1  0.165841  0.512532  0.598786  1
  Cl  Cl93  1  0.665841  0.401214  0.512532  1
  Cl  Cl94  1  0.665841  0.598786  0.487468  1
  Cl  Cl95  1  0.165841  0.487468  0.401214  1
  Cl  Cl96  1  0.834159  0.012532  0.901214  1
  Cl  Cl97  1  0.834159  0.987468  0.098786  1
  Cl  Cl98  1  0.334159  0.098786  0.012532  1
  Cl  Cl99  1  0.334159  0.901214  0.987468  1
  Cl  Cl100  1  0.834159  0.487468  0.401214  1
  Cl  Cl101  1  0.334159  0.598786  0.487468  1
  Cl  Cl102  1  0.334159  0.401214  0.512532  1
  Cl  Cl103  1  0.834159  0.512532  0.598786  1
  Cl  Cl104  1  0.165841  0.987468  0.098786  1
  Cl  Cl105  1  0.165841  0.012532  0.901214  1
  Cl  Cl106  1  0.665841  0.901214  0.987468  1
  Cl  Cl107  1  0.665841  0.098786  0.012532  1
  Re  Re108  1  0.000000  0.248044  0.373943  1
  Re  Re109  1  0.500000  0.626057  0.248044  1
  Re  Re110  1  0.500000  0.373943  0.751956  1
  Re  Re111  1  0.000000  0.751956  0.626057  1
  Re  Re112  1  0.000000  0.748044  0.126057  1
  Re  Re113  1  0.000000  0.251956  0.873943  1
  Re  Re114  1  0.500000  0.873943  0.748044  1
  Re  Re115  1  0.500000  0.126057  0.251956  1
