# generated using pymatgen
data_Cr2CdH14(NO2)4
_symmetry_space_group_name_H-M   'P 1'
_cell_length_a   6.20001295
_cell_length_b   7.08149487
_cell_length_c   7.84496268
_cell_angle_alpha   108.37524838
_cell_angle_beta   91.16865001
_cell_angle_gamma   115.96059341
_symmetry_Int_Tables_number   1
_chemical_formula_structural   Cr2CdH14(NO2)4
_chemical_formula_sum   'Cr2 Cd1 H14 N4 O8'
_cell_volume   288.78270970
_cell_formula_units_Z   1
loop_
 _symmetry_equiv_pos_site_id
 _symmetry_equiv_pos_as_xyz
  1  'x, y, z'
loop_
 _atom_site_type_symbol
 _atom_site_label
 _atom_site_symmetry_multiplicity
 _atom_site_fract_x
 _atom_site_fract_y
 _atom_site_fract_z
 _atom_site_occupancy
  H  H0  1  0.429881  0.567181  0.217635  1
  H  H1  1  0.570119  0.432819  0.782365  1
  H  H2  1  0.158569  0.557500  0.203867  1
  H  H3  1  0.841431  0.442500  0.796133  1
  H  H4  1  0.356456  0.706610  0.410243  1
  H  H5  1  0.643544  0.293390  0.589757  1
  H  H6  1  0.415660  0.810024  0.241529  1
  H  H7  1  0.584340  0.189976  0.758471  1
  H  H8  1  0.059362  0.907071  0.643373  1
  H  H9  1  0.940638  0.092929  0.356627  1
  H  H10  1  0.064329  0.156769  0.702112  1
  H  H11  1  0.801401  0.922046  0.656798  1
  H  H12  1  0.198599  0.077954  0.343202  1
  H  H13  1  0.935671  0.843231  0.297888  1
  N  N14  1  0.341068  0.662235  0.268586  1
  N  N15  1  0.982441  0.001533  0.715632  1
  N  N16  1  0.017559  0.998467  0.284368  1
  N  N17  1  0.658932  0.337765  0.731414  1
  O  O18  1  0.201845  0.413853  0.627441  1
  O  O19  1  0.798155  0.586147  0.372559  1
  O  O20  1  0.417502  0.853140  0.660772  1
  O  O21  1  0.582498  0.146860  0.339228  1
  O  O22  1  0.123617  0.708003  0.900199  1
  O  O23  1  0.876383  0.291997  0.099801  1
  O  O24  1  0.572724  0.716415  0.907895  1
  O  O25  1  0.427276  0.283585  0.092105  1
  Cr  Cr26  1  0.329539  0.675093  0.774454  1
  Cr  Cr27  1  0.670461  0.324907  0.225546  1
  Cd  Cd28  1  0.000000  0.000000  0.000000  1
