# generated using pymatgen
data_PuSi
_symmetry_space_group_name_H-M   'P 1'
_cell_length_a   3.61116693
_cell_length_b   5.51817021
_cell_length_c   7.67316693
_cell_angle_alpha   90.00000000
_cell_angle_beta   90.00000000
_cell_angle_gamma   90.00000000
_symmetry_Int_Tables_number   1
_chemical_formula_structural   PuSi
_chemical_formula_sum   'Pu4 Si4'
_cell_volume   152.90345659
_cell_formula_units_Z   4
loop_
 _symmetry_equiv_pos_site_id
 _symmetry_equiv_pos_as_xyz
  1  'x, y, z'
loop_
 _atom_site_type_symbol
 _atom_site_label
 _atom_site_symmetry_multiplicity
 _atom_site_fract_x
 _atom_site_fract_y
 _atom_site_fract_z
 _atom_site_occupancy
  Si  Si0  1  0.250000  0.872194  0.538313  1
  Si  Si1  1  0.750000  0.127806  0.461687  1
  Si  Si2  1  0.750000  0.372194  0.961687  1
  Si  Si3  1  0.250000  0.627806  0.038313  1
  Pu  Pu4  1  0.250000  0.396805  0.674871  1
  Pu  Pu5  1  0.750000  0.603195  0.325129  1
  Pu  Pu6  1  0.750000  0.896805  0.825129  1
  Pu  Pu7  1  0.250000  0.103195  0.174871  1
