# generated using pymatgen
data_PH6NO4
_symmetry_space_group_name_H-M   'P 1'
_cell_length_a   7.12431505
_cell_length_b   8.50007363
_cell_length_c   7.89743147
_cell_angle_alpha   90.00000000
_cell_angle_beta   90.00000000
_cell_angle_gamma   90.00000000
_symmetry_Int_Tables_number   1
_chemical_formula_structural   PH6NO4
_chemical_formula_sum   'P4 H24 N4 O16'
_cell_volume   478.24635667
_cell_formula_units_Z   4
loop_
 _symmetry_equiv_pos_site_id
 _symmetry_equiv_pos_as_xyz
  1  'x, y, z'
loop_
 _atom_site_type_symbol
 _atom_site_label
 _atom_site_symmetry_multiplicity
 _atom_site_fract_x
 _atom_site_fract_y
 _atom_site_fract_z
 _atom_site_occupancy
  H  H0  1  0.689907  0.903160  0.310088  1
  H  H1  1  0.189907  0.596840  0.689912  1
  H  H2  1  0.310093  0.403160  0.189912  1
  H  H3  1  0.810093  0.096840  0.810088  1
  H  H4  1  0.429963  0.242960  0.401271  1
  H  H5  1  0.929963  0.257040  0.598729  1
  H  H6  1  0.570037  0.742960  0.098729  1
  H  H7  1  0.070037  0.757040  0.901271  1
  H  H8  1  0.095107  0.812511  0.517551  1
  H  H9  1  0.595107  0.687489  0.482449  1
  H  H10  1  0.904893  0.312511  0.982449  1
  H  H11  1  0.404893  0.187489  0.017551  1
  H  H12  1  0.222334  0.976666  0.551555  1
  H  H13  1  0.517464  0.015124  0.055820  1
  H  H14  1  0.777666  0.476666  0.948445  1
  H  H15  1  0.277666  0.023334  0.051555  1
  H  H16  1  0.090390  0.954911  0.367138  1
  H  H17  1  0.590390  0.545089  0.632862  1
  H  H18  1  0.909610  0.454911  0.132862  1
  H  H19  1  0.409610  0.045089  0.867138  1
  H  H20  1  0.982536  0.984876  0.555820  1
  H  H21  1  0.482536  0.515124  0.444180  1
  H  H22  1  0.017464  0.484876  0.944180  1
  H  H23  1  0.722334  0.523334  0.448445  1
  N  N24  1  0.402449  0.066944  0.998021  1
  N  N25  1  0.597551  0.566944  0.501979  1
  N  N26  1  0.097551  0.933056  0.498021  1
  N  N27  1  0.902449  0.433056  0.001979  1
  O  O28  1  0.042089  0.328058  0.616264  1
  O  O29  1  0.275085  0.382753  0.377649  1
  O  O30  1  0.224915  0.617247  0.877649  1
  O  O31  1  0.724915  0.882753  0.122351  1
  O  O32  1  0.542089  0.171942  0.383736  1
  O  O33  1  0.775085  0.117247  0.622351  1
  O  O34  1  0.457911  0.671942  0.116264  1
  O  O35  1  0.957911  0.828058  0.883736  1
  O  O36  1  0.846586  0.102236  0.936783  1
  O  O37  1  0.934197  0.477425  0.349557  1
  O  O38  1  0.434197  0.022575  0.650443  1
  O  O39  1  0.065803  0.977425  0.150443  1
  O  O40  1  0.346586  0.397764  0.063217  1
  O  O41  1  0.153414  0.602236  0.563217  1
  O  O42  1  0.653414  0.897764  0.436783  1
  O  O43  1  0.565803  0.522575  0.849557  1
  P  P44  1  0.597010  0.055674  0.533126  1
  P  P45  1  0.097010  0.444327  0.466874  1
  P  P46  1  0.402990  0.555674  0.966874  1
  P  P47  1  0.902990  0.944326  0.033126  1
