# generated using pymatgen
data_DyMnO3
_symmetry_space_group_name_H-M   'P 1'
_cell_length_a   5.33729912
_cell_length_b   5.84122554
_cell_length_c   7.52549940
_cell_angle_alpha   90.00812226
_cell_angle_beta   89.97541137
_cell_angle_gamma   89.99975926
_symmetry_Int_Tables_number   1
_chemical_formula_structural   DyMnO3
_chemical_formula_sum   'Dy4 Mn4 O12'
_cell_volume   234.61771427
_cell_formula_units_Z   4
loop_
 _symmetry_equiv_pos_site_id
 _symmetry_equiv_pos_as_xyz
  1  'x, y, z'
loop_
 _atom_site_type_symbol
 _atom_site_label
 _atom_site_symmetry_multiplicity
 _atom_site_fract_x
 _atom_site_fract_y
 _atom_site_fract_z
 _atom_site_occupancy
  Dy  Dy0  1  0.980613  0.080083  0.249941  1
  Dy  Dy1  1  0.019399  0.919900  0.750039  1
  Dy  Dy2  1  0.480415  0.419923  0.749819  1
  Dy  Dy3  1  0.519575  0.580117  0.250195  1
  Mn  Mn4  1  0.500073  -0.000043  0.499985  1
  Mn  Mn5  1  0.000076  0.500026  0.500003  1
  Mn  Mn6  1  0.499923  0.000029  -0.000017  1
  Mn  Mn7  1  0.999942  0.499987  0.000010  1
  O  O8  1  0.797605  0.822924  0.057298  1
  O  O9  1  0.297301  0.676867  0.942563  1
  O  O10  1  0.297804  0.677047  0.557034  1
  O  O11  1  0.797596  0.823230  0.442794  1
  O  O12  1  0.881390  0.541226  0.749770  1
  O  O13  1  0.118628  0.458762  0.250215  1
  O  O14  1  0.202414  0.176805  0.557213  1
  O  O15  1  0.381554  0.958824  0.249843  1
  O  O16  1  0.618445  0.041190  0.750173  1
  O  O17  1  0.702197  0.322906  0.442942  1
  O  O18  1  0.702673  0.323149  0.057458  1
  O  O19  1  0.202378  0.177049  0.942722  1
