# generated using pymatgen
data_Mn4Be3Ge3SeO12
_symmetry_space_group_name_H-M   'P 1'
_cell_length_a   8.61316582
_cell_length_b   8.61316582
_cell_length_c   8.61316582
_cell_angle_alpha   90.00000000
_cell_angle_beta   90.00000000
_cell_angle_gamma   90.00000000
_symmetry_Int_Tables_number   1
_chemical_formula_structural   Mn4Be3Ge3SeO12
_chemical_formula_sum   'Mn8 Be6 Ge6 Se2 O24'
_cell_volume   638.98170657
_cell_formula_units_Z   2
loop_
 _symmetry_equiv_pos_site_id
 _symmetry_equiv_pos_as_xyz
  1  'x, y, z'
loop_
 _atom_site_type_symbol
 _atom_site_label
 _atom_site_symmetry_multiplicity
 _atom_site_fract_x
 _atom_site_fract_y
 _atom_site_fract_z
 _atom_site_occupancy
  Be  Be0  1  0.250000  0.500000  0.000000  1
  Be  Be1  1  0.500000  0.000000  0.750000  1
  Be  Be2  1  0.500000  0.000000  0.250000  1
  Be  Be3  1  0.000000  0.250000  0.500000  1
  Be  Be4  1  0.000000  0.750000  0.500000  1
  Be  Be5  1  0.750000  0.500000  0.000000  1
  O  O6  1  0.635977  0.912276  0.647108  1
  O  O7  1  0.635977  0.087724  0.352892  1
  O  O8  1  0.912276  0.647108  0.635977  1
  O  O9  1  0.087724  0.647108  0.364023  1
  O  O10  1  0.647108  0.635977  0.912276  1
  O  O11  1  0.352892  0.364023  0.912276  1
  O  O12  1  0.864023  0.852892  0.412276  1
  O  O13  1  0.864023  0.147108  0.587724  1
  O  O14  1  0.135977  0.852892  0.587724  1
  O  O15  1  0.147108  0.587724  0.864023  1
  O  O16  1  0.587724  0.135977  0.852892  1
  O  O17  1  0.587724  0.864023  0.147108  1
  O  O18  1  0.852892  0.412276  0.864023  1
  O  O19  1  0.412276  0.864023  0.852892  1
  O  O20  1  0.135977  0.147108  0.412276  1
  O  O21  1  0.364023  0.912276  0.352892  1
  O  O22  1  0.364023  0.087724  0.647108  1
  O  O23  1  0.087724  0.352892  0.635977  1
  O  O24  1  0.912276  0.352892  0.364023  1
  O  O25  1  0.647108  0.364023  0.087724  1
  O  O26  1  0.352892  0.635977  0.087724  1
  O  O27  1  0.412276  0.135977  0.147108  1
  O  O28  1  0.147108  0.412276  0.135977  1
  O  O29  1  0.852892  0.587724  0.135977  1
  Mn  Mn30  1  0.673829  0.673829  0.673829  1
  Mn  Mn31  1  0.826171  0.173829  0.826171  1
  Mn  Mn32  1  0.173829  0.826171  0.826171  1
  Mn  Mn33  1  0.826171  0.826171  0.173829  1
  Mn  Mn34  1  0.673829  0.326171  0.326171  1
  Mn  Mn35  1  0.326171  0.326171  0.673829  1
  Mn  Mn36  1  0.326171  0.673829  0.326171  1
  Mn  Mn37  1  0.173829  0.173829  0.173829  1
  Ge  Ge38  1  0.750000  0.000000  0.500000  1
  Ge  Ge39  1  0.500000  0.750000  0.000000  1
  Ge  Ge40  1  0.500000  0.250000  0.000000  1
  Ge  Ge41  1  0.000000  0.500000  0.250000  1
  Ge  Ge42  1  0.000000  0.500000  0.750000  1
  Ge  Ge43  1  0.250000  0.000000  0.500000  1
  Se  Se44  1  0.000000  0.000000  0.000000  1
  Se  Se45  1  0.500000  0.500000  0.500000  1
