# generated using pymatgen
data_ReNClF5
_symmetry_space_group_name_H-M   'P 1'
_cell_length_a   5.12207365
_cell_length_b   6.48347972
_cell_length_c   8.64488412
_cell_angle_alpha   90.00000000
_cell_angle_beta   90.00000000
_cell_angle_gamma   95.63033887
_symmetry_Int_Tables_number   1
_chemical_formula_structural   ReNClF5
_chemical_formula_sum   'Re2 N2 Cl2 F10'
_cell_volume   285.70172744
_cell_formula_units_Z   2
loop_
 _symmetry_equiv_pos_site_id
 _symmetry_equiv_pos_as_xyz
  1  'x, y, z'
loop_
 _atom_site_type_symbol
 _atom_site_label
 _atom_site_symmetry_multiplicity
 _atom_site_fract_x
 _atom_site_fract_y
 _atom_site_fract_z
 _atom_site_occupancy
  N  N0  1  0.236496  0.032435  0.750000  1
  N  N1  1  0.763504  0.967565  0.250000  1
  F  F2  1  0.777434  0.325908  0.404898  1
  F  F3  1  0.222566  0.674092  0.904898  1
  F  F4  1  0.186734  0.461773  0.250000  1
  F  F5  1  0.813266  0.538227  0.750000  1
  F  F6  1  0.201173  0.118861  0.098312  1
  F  F7  1  0.798827  0.881139  0.598312  1
  F  F8  1  0.798827  0.881139  0.901688  1
  F  F9  1  0.201173  0.118861  0.401688  1
  F  F10  1  0.777434  0.325908  0.095102  1
  F  F11  1  0.222566  0.674092  0.595102  1
  Cl  Cl12  1  0.427508  0.236661  0.750000  1
  Cl  Cl13  1  0.572492  0.763339  0.250000  1
  Re  Re14  1  0.033601  0.798886  0.750000  1
  Re  Re15  1  0.966399  0.201114  0.250000  1
