# generated using pymatgen
data_CaAs(HO)7
_symmetry_space_group_name_H-M   'P 1'
_cell_length_a   10.85382218
_cell_length_b   11.37086002
_cell_length_c   11.11791336
_cell_angle_alpha   90.00000000
_cell_angle_beta   90.00000000
_cell_angle_gamma   90.00000000
_symmetry_Int_Tables_number   1
_chemical_formula_structural   CaAs(HO)7
_chemical_formula_sum   'Ca8 As8 H56 O56'
_cell_volume   1372.14276726
_cell_formula_units_Z   8
loop_
 _symmetry_equiv_pos_site_id
 _symmetry_equiv_pos_as_xyz
  1  'x, y, z'
loop_
 _atom_site_type_symbol
 _atom_site_label
 _atom_site_symmetry_multiplicity
 _atom_site_fract_x
 _atom_site_fract_y
 _atom_site_fract_z
 _atom_site_occupancy
  H  H0  1  0.842964  0.339860  0.326126  1
  H  H1  1  0.342964  0.160140  0.673874  1
  H  H2  1  0.157036  0.839860  0.173874  1
  H  H3  1  0.657036  0.660140  0.826126  1
  H  H4  1  0.157036  0.660140  0.673874  1
  H  H5  1  0.657036  0.839860  0.326126  1
  H  H6  1  0.842964  0.160140  0.826126  1
  H  H7  1  0.342964  0.339860  0.173874  1
  H  H8  1  0.952454  0.416552  0.274988  1
  H  H9  1  0.452454  0.083448  0.725012  1
  H  H10  1  0.047546  0.916552  0.225012  1
  H  H11  1  0.547546  0.583448  0.774988  1
  H  H12  1  0.047546  0.583448  0.725012  1
  H  H13  1  0.547546  0.916552  0.274988  1
  H  H14  1  0.952454  0.083448  0.774988  1
  H  H15  1  0.452454  0.416552  0.225012  1
  H  H16  1  0.870462  0.131453  0.105344  1
  H  H17  1  0.370462  0.368547  0.894656  1
  H  H18  1  0.129538  0.631453  0.394656  1
  H  H19  1  0.629538  0.868547  0.605344  1
  H  H20  1  0.129538  0.868547  0.894656  1
  H  H21  1  0.629538  0.631453  0.105344  1
  H  H22  1  0.870462  0.368547  0.605344  1
  H  H23  1  0.370462  0.131453  0.394656  1
  H  H24  1  0.961171  0.142614  0.994750  1
  H  H25  1  0.461171  0.357386  0.005250  1
  H  H26  1  0.038829  0.642614  0.505250  1
  H  H27  1  0.538829  0.857386  0.494750  1
  H  H28  1  0.038829  0.857386  0.005250  1
  H  H29  1  0.538829  0.642614  0.994750  1
  H  H30  1  0.961171  0.357386  0.494750  1
  H  H31  1  0.461171  0.142614  0.505250  1
  H  H32  1  0.186626  0.212379  0.506021  1
  H  H33  1  0.686626  0.287621  0.493979  1
  H  H34  1  0.813374  0.712379  0.993979  1
  H  H35  1  0.313374  0.787621  0.006021  1
  H  H36  1  0.813374  0.787621  0.493979  1
  H  H37  1  0.313374  0.712379  0.506021  1
  H  H38  1  0.186626  0.287621  0.006021  1
  H  H39  1  0.686626  0.212379  0.993979  1
  H  H40  1  0.236489  0.328294  0.443086  1
  H  H41  1  0.736489  0.171706  0.556914  1
  H  H42  1  0.763511  0.828294  0.056914  1
  H  H43  1  0.263511  0.671706  0.943086  1
  H  H44  1  0.763511  0.671706  0.556914  1
  H  H45  1  0.263511  0.828294  0.443086  1
  H  H46  1  0.236489  0.171706  0.943086  1
  H  H47  1  0.736489  0.328294  0.056914  1
  H  H48  1  0.606247  0.518244  0.573239  1
  H  H49  1  0.106247  0.981756  0.426761  1
  H  H50  1  0.393753  0.018244  0.926761  1
  H  H51  1  0.893753  0.481756  0.073239  1
  H  H52  1  0.393753  0.481756  0.426761  1
  H  H53  1  0.893753  0.018244  0.573239  1
  H  H54  1  0.606247  0.981756  0.073239  1
  H  H55  1  0.106247  0.518244  0.926761  1
  O  O56  1  0.934865  0.343836  0.321921  1
  O  O57  1  0.434865  0.156164  0.678079  1
  O  O58  1  0.065135  0.843836  0.178079  1
  O  O59  1  0.565135  0.656164  0.821921  1
  O  O60  1  0.065135  0.656164  0.678079  1
  O  O61  1  0.565135  0.843836  0.321921  1
  O  O62  1  0.934865  0.156164  0.821921  1
  O  O63  1  0.434865  0.343836  0.178079  1
  O  O64  1  0.957330  0.141339  0.083477  1
  O  O65  1  0.457330  0.358661  0.916523  1
  O  O66  1  0.042670  0.641339  0.416523  1
  O  O67  1  0.542670  0.858661  0.583477  1
  O  O68  1  0.042670  0.858661  0.916523  1
  O  O69  1  0.542670  0.641339  0.083477  1
  O  O70  1  0.957330  0.358661  0.583477  1
  O  O71  1  0.457330  0.141339  0.416523  1
  O  O72  1  0.188624  0.255596  0.428078  1
  O  O73  1  0.688624  0.244404  0.571922  1
  O  O74  1  0.811376  0.755596  0.071922  1
  O  O75  1  0.311376  0.744404  0.928078  1
  O  O76  1  0.811376  0.744404  0.571922  1
  O  O77  1  0.311376  0.755596  0.428078  1
  O  O78  1  0.188624  0.244404  0.928078  1
  O  O79  1  0.688624  0.255596  0.071922  1
  O  O80  1  0.677796  0.543966  0.519152  1
  O  O81  1  0.177796  0.956034  0.480848  1
  O  O82  1  0.322204  0.043966  0.980848  1
  O  O83  1  0.822204  0.456034  0.019152  1
  O  O84  1  0.322204  0.456034  0.480848  1
  O  O85  1  0.822204  0.043966  0.519152  1
  O  O86  1  0.677796  0.956034  0.019152  1
  O  O87  1  0.177796  0.543966  0.980848  1
  O  O88  1  0.741202  0.590518  0.283197  1
  O  O89  1  0.241202  0.909482  0.716803  1
  O  O90  1  0.258798  0.090518  0.216803  1
  O  O91  1  0.758798  0.409482  0.783197  1
  O  O92  1  0.258798  0.409482  0.716803  1
  O  O93  1  0.758798  0.090518  0.283197  1
  O  O94  1  0.741202  0.909482  0.783197  1
  O  O95  1  0.241202  0.590518  0.216803  1
  O  O96  1  0.683626  0.356023  0.354721  1
  O  O97  1  0.183626  0.143977  0.645279  1
  O  O98  1  0.316374  0.856023  0.145279  1
  O  O99  1  0.816374  0.643977  0.854721  1
  O  O100  1  0.316374  0.643977  0.645279  1
  O  O101  1  0.816374  0.856023  0.354721  1
  O  O102  1  0.683626  0.143977  0.854721  1
  O  O103  1  0.183626  0.356023  0.145279  1
  O  O104  1  0.496585  0.526276  0.336719  1
  O  O105  1  0.996585  0.973724  0.663281  1
  O  O106  1  0.503415  0.026276  0.163281  1
  O  O107  1  0.003415  0.473724  0.836719  1
  O  O108  1  0.503415  0.473724  0.663281  1
  O  O109  1  0.003415  0.026276  0.336719  1
  O  O110  1  0.496585  0.973724  0.836719  1
  O  O111  1  0.996585  0.526276  0.163281  1
  Ca  Ca112  1  0.086036  0.199568  0.248565  1
  Ca  Ca113  1  0.586036  0.300432  0.751435  1
  Ca  Ca114  1  0.913964  0.699568  0.251435  1
  Ca  Ca115  1  0.413964  0.800432  0.748565  1
  Ca  Ca116  1  0.913964  0.800432  0.751435  1
  Ca  Ca117  1  0.413964  0.699568  0.248565  1
  Ca  Ca118  1  0.086036  0.300432  0.748565  1
  Ca  Ca119  1  0.586036  0.199568  0.251435  1
  As  As120  1  0.650671  0.503564  0.367089  1
  As  As121  1  0.150671  0.996436  0.632911  1
  As  As122  1  0.349329  0.003564  0.132911  1
  As  As123  1  0.849329  0.496436  0.867089  1
  As  As124  1  0.349329  0.496436  0.632911  1
  As  As125  1  0.849329  0.003564  0.367089  1
  As  As126  1  0.650671  0.996436  0.867089  1
  As  As127  1  0.150671  0.503564  0.132911  1
