# generated using pymatgen
data_Ta5P3
_symmetry_space_group_name_H-M   'P 1'
_cell_length_a   3.41756746
_cell_length_b   11.55280538
_cell_length_c   25.52944638
_cell_angle_alpha   90.00000000
_cell_angle_beta   90.00000000
_cell_angle_gamma   90.00000000
_symmetry_Int_Tables_number   1
_chemical_formula_structural   Ta5P3
_chemical_formula_sum   'Ta40 P24'
_cell_volume   1007.96615578
_cell_formula_units_Z   8
loop_
 _symmetry_equiv_pos_site_id
 _symmetry_equiv_pos_as_xyz
  1  'x, y, z'
loop_
 _atom_site_type_symbol
 _atom_site_label
 _atom_site_symmetry_multiplicity
 _atom_site_fract_x
 _atom_site_fract_y
 _atom_site_fract_z
 _atom_site_occupancy
  P  P0  1  0.250000  0.586373  0.926670  1
  P  P1  1  0.750000  0.413627  0.073330  1
  P  P2  1  0.750000  0.086373  0.573330  1
  P  P3  1  0.250000  0.913627  0.426670  1
  P  P4  1  0.250000  0.316025  0.843892  1
  P  P5  1  0.750000  0.683975  0.156108  1
  P  P6  1  0.750000  0.816025  0.656108  1
  P  P7  1  0.250000  0.183975  0.343892  1
  P  P8  1  0.250000  0.755198  0.802077  1
  P  P9  1  0.750000  0.244802  0.197923  1
  P  P10  1  0.750000  0.255198  0.697923  1
  P  P11  1  0.250000  0.744802  0.302077  1
  P  P12  1  0.250000  0.497850  0.721066  1
  P  P13  1  0.750000  0.502150  0.278934  1
  P  P14  1  0.750000  -0.002150  0.778934  1
  P  P15  1  0.250000  1.002150  0.221066  1
  P  P16  1  0.250000  0.449739  0.577898  1
  P  P17  1  0.750000  0.550261  0.422102  1
  P  P18  1  0.750000  0.949739  0.922102  1
  P  P19  1  0.250000  0.050261  0.077898  1
  P  P20  1  0.250000  0.751050  0.549193  1
  P  P21  1  0.750000  0.248950  0.450807  1
  P  P22  1  0.750000  0.251050  0.950807  1
  P  P23  1  0.250000  0.748950  0.049193  1
  Ta  Ta24  1  0.250000  0.878543  0.724564  1
  Ta  Ta25  1  0.750000  0.443639  0.652595  1
  Ta  Ta26  1  0.750000  0.056361  0.152595  1
  Ta  Ta27  1  0.250000  0.943639  0.847405  1
  Ta  Ta28  1  0.250000  0.691092  0.455069  1
  Ta  Ta29  1  0.750000  0.308908  0.544931  1
  Ta  Ta30  1  0.750000  0.191092  0.044931  1
  Ta  Ta31  1  0.250000  0.808908  0.955069  1
  Ta  Ta32  1  0.250000  0.556361  0.347405  1
  Ta  Ta33  1  0.750000  0.584274  0.536924  1
  Ta  Ta34  1  0.750000  0.915726  0.036924  1
  Ta  Ta35  1  0.250000  0.084274  0.963076  1
  Ta  Ta36  1  0.250000  0.108117  0.499941  1
  Ta  Ta37  1  0.750000  0.891883  0.500059  1
  Ta  Ta38  1  0.750000  0.608117  1.000059  1
  Ta  Ta39  1  0.250000  0.391883  -0.000059  1
  Ta  Ta40  1  0.250000  0.543692  0.823261  1
  Ta  Ta41  1  0.750000  0.456308  0.176739  1
  Ta  Ta42  1  0.750000  0.043692  0.676739  1
  Ta  Ta43  1  0.250000  0.956308  0.323261  1
  Ta  Ta44  1  0.250000  0.155596  0.760732  1
  Ta  Ta45  1  0.750000  0.844404  0.239268  1
  Ta  Ta46  1  0.750000  0.655596  0.739268  1
  Ta  Ta47  1  0.250000  0.344404  0.260732  1
  Ta  Ta48  1  0.250000  0.415726  0.463076  1
  Ta  Ta49  1  0.750000  0.121457  0.275436  1
  Ta  Ta50  1  0.750000  0.378543  0.775436  1
  Ta  Ta51  1  0.250000  0.621457  0.224564  1
  Ta  Ta52  1  0.250000  0.658420  0.638088  1
  Ta  Ta53  1  0.750000  0.341580  0.361912  1
  Ta  Ta54  1  0.750000  0.158420  0.861912  1
  Ta  Ta55  1  0.250000  0.841580  0.138088  1
  Ta  Ta56  1  0.250000  0.215788  0.624582  1
  Ta  Ta57  1  0.750000  0.784212  0.375418  1
  Ta  Ta58  1  0.750000  0.715788  0.875418  1
  Ta  Ta59  1  0.250000  0.284212  0.124582  1
  Ta  Ta60  1  0.250000  0.935280  0.599403  1
  Ta  Ta61  1  0.750000  0.064720  0.400597  1
  Ta  Ta62  1  0.750000  0.435280  0.900597  1
  Ta  Ta63  1  0.250000  0.564720  0.099403  1
