# generated using pymatgen
data_Np(Al2Fe)4
_symmetry_space_group_name_H-M   'P 1'
_cell_length_a   5.01952775
_cell_length_b   6.64280608
_cell_length_c   6.64280609
_cell_angle_alpha   81.79324926
_cell_angle_beta   67.80148311
_cell_angle_gamma   67.80148306
_symmetry_Int_Tables_number   1
_chemical_formula_structural   Np(Al2Fe)4
_chemical_formula_sum   'Np1 Al8 Fe4'
_cell_volume   189.87848504
_cell_formula_units_Z   1
loop_
 _symmetry_equiv_pos_site_id
 _symmetry_equiv_pos_as_xyz
  1  'x, y, z'
loop_
 _atom_site_type_symbol
 _atom_site_label
 _atom_site_symmetry_multiplicity
 _atom_site_fract_x
 _atom_site_fract_y
 _atom_site_fract_z
 _atom_site_occupancy
  Al  Al0  1  0.719676  0.780324  0.780324  1
  Al  Al1  1  0.500000  0.219676  0.780324  1
  Al  Al2  1  0.500000  0.780324  0.219676  1
  Al  Al3  1  0.280324  0.219676  0.219676  1
  Al  Al4  1  0.658024  0.341976  0.341976  1
  Al  Al5  1  0.341976  0.658024  0.658024  1
  Al  Al6  1  0.000000  0.341976  0.658024  1
  Al  Al7  1  0.000000  0.658024  0.341976  1
  Fe  Fe8  1  0.000000  0.000000  0.500000  1
  Fe  Fe9  1  0.500000  0.500000  0.000000  1
  Fe  Fe10  1  0.000000  0.500000  0.000000  1
  Fe  Fe11  1  0.500000  0.000000  0.500000  1
  Np  Np12  1  0.000000  0.000000  0.000000  1
