# generated using pymatgen
data_NaSbO3
_symmetry_space_group_name_H-M   'P 1'
_cell_length_a   7.34158058
_cell_length_b   7.34158059
_cell_length_c   7.34158059
_cell_angle_alpha   60.00000003
_cell_angle_beta   60.00000001
_cell_angle_gamma   60.00000005
_symmetry_Int_Tables_number   1
_chemical_formula_structural   NaSbO3
_chemical_formula_sum   'Na4 Sb4 O12'
_cell_volume   279.80386762
_cell_formula_units_Z   4
loop_
 _symmetry_equiv_pos_site_id
 _symmetry_equiv_pos_as_xyz
  1  'x, y, z'
loop_
 _atom_site_type_symbol
 _atom_site_label
 _atom_site_symmetry_multiplicity
 _atom_site_fract_x
 _atom_site_fract_y
 _atom_site_fract_z
 _atom_site_occupancy
  O  O0  1  0.422272  0.827728  0.827728  1
  O  O1  1  0.172272  0.577728  0.577728  1
  O  O2  1  0.827728  0.422272  0.827728  1
  O  O3  1  0.827728  0.827728  0.422272  1
  O  O4  1  0.422272  0.422272  0.827728  1
  O  O5  1  0.422272  0.827728  0.422272  1
  O  O6  1  0.172272  0.577728  0.172272  1
  O  O7  1  0.577728  0.172272  0.577728  1
  O  O8  1  0.827728  0.422272  0.422272  1
  O  O9  1  0.577728  0.577728  0.172272  1
  O  O10  1  0.172272  0.172272  0.577728  1
  O  O11  1  0.577728  0.172272  0.172272  1
  Na  Na12  1  0.000000  0.000000  0.000000  1
  Na  Na13  1  0.000000  0.000000  0.500000  1
  Na  Na14  1  0.500000  0.000000  0.000000  1
  Na  Na15  1  0.000000  0.500000  0.000000  1
  Sb  Sb16  1  0.500000  0.500000  0.500000  1
  Sb  Sb17  1  0.500000  0.500000  0.000000  1
  Sb  Sb18  1  0.000000  0.500000  0.500000  1
  Sb  Sb19  1  0.500000  0.000000  0.500000  1
