# generated using pymatgen
data_Pu(FeSi)2
_symmetry_space_group_name_H-M   'P 1'
_cell_length_a   3.91712872
_cell_length_b   3.91712879
_cell_length_c   5.45525835
_cell_angle_alpha   111.04022727
_cell_angle_beta   111.04022743
_cell_angle_gamma   89.99998932
_symmetry_Int_Tables_number   1
_chemical_formula_structural   Pu(FeSi)2
_chemical_formula_sum   'Pu1 Fe2 Si2'
_cell_volume   72.11287692
_cell_formula_units_Z   1
loop_
 _symmetry_equiv_pos_site_id
 _symmetry_equiv_pos_as_xyz
  1  'x, y, z'
loop_
 _atom_site_type_symbol
 _atom_site_label
 _atom_site_symmetry_multiplicity
 _atom_site_fract_x
 _atom_site_fract_y
 _atom_site_fract_z
 _atom_site_occupancy
  Pu  Pu0  1  0.000000  -0.000000  -0.000000  1
  Fe  Fe1  1  0.250000  0.750000  0.500000  1
  Fe  Fe2  1  0.750000  0.250000  0.500000  1
  Si  Si3  1  0.371431  0.371431  0.742862  1
  Si  Si4  1  0.628569  0.628569  0.257138  1
