# generated using pymatgen
data_Y3GaCo3
_symmetry_space_group_name_H-M   'P 1'
_cell_length_a   4.12856374
_cell_length_b   5.39350213
_cell_length_c   12.89508589
_cell_angle_alpha   90.00000000
_cell_angle_beta   90.00000000
_cell_angle_gamma   112.50319616
_symmetry_Int_Tables_number   1
_chemical_formula_structural   Y3GaCo3
_chemical_formula_sum   'Y6 Ga2 Co6'
_cell_volume   265.27687803
_cell_formula_units_Z   2
loop_
 _symmetry_equiv_pos_site_id
 _symmetry_equiv_pos_as_xyz
  1  'x, y, z'
loop_
 _atom_site_type_symbol
 _atom_site_label
 _atom_site_symmetry_multiplicity
 _atom_site_fract_x
 _atom_site_fract_y
 _atom_site_fract_z
 _atom_site_occupancy
  Co  Co0  1  0.303426  0.606853  0.250000  1
  Co  Co1  1  0.696574  0.393147  0.750000  1
  Co  Co2  1  0.581675  0.163349  0.595839  1
  Co  Co3  1  0.418325  0.836651  0.404161  1
  Co  Co4  1  0.418325  0.836651  0.095839  1
  Co  Co5  1  0.581675  0.163349  0.904161  1
  Ga  Ga6  1  0.000000  0.000000  0.000000  1
  Ga  Ga7  1  0.000000  0.000000  0.500000  1
  Y  Y8  1  0.999723  0.999446  0.250000  1
  Y  Y9  1  0.000277  0.000554  0.750000  1
  Y  Y10  1  0.291543  0.583085  0.602977  1
  Y  Y11  1  0.708457  0.416915  0.397023  1
  Y  Y12  1  0.708457  0.416915  0.102977  1
  Y  Y13  1  0.291543  0.583085  0.897023  1
