# generated using pymatgen
data_Rb2NiH12(SO7)2
_symmetry_space_group_name_H-M   'P 1'
_cell_length_a   6.31354627
_cell_length_b   9.17062752
_cell_length_c   12.53251473
_cell_angle_alpha   90.00000000
_cell_angle_beta   90.00000000
_cell_angle_gamma   105.62831313
_symmetry_Int_Tables_number   1
_chemical_formula_structural   Rb2NiH12(SO7)2
_chemical_formula_sum   'Rb4 Ni2 H24 S4 O28'
_cell_volume   698.79576392
_cell_formula_units_Z   2
loop_
 _symmetry_equiv_pos_site_id
 _symmetry_equiv_pos_as_xyz
  1  'x, y, z'
loop_
 _atom_site_type_symbol
 _atom_site_label
 _atom_site_symmetry_multiplicity
 _atom_site_fract_x
 _atom_site_fract_y
 _atom_site_fract_z
 _atom_site_occupancy
  H  H0  1  0.318502  0.527634  0.641557  1
  H  H1  1  0.681498  0.972366  0.141557  1
  H  H2  1  0.681498  0.472367  0.358443  1
  H  H3  1  0.318501  0.027634  0.858443  1
  H  H4  1  0.334548  0.401375  0.558954  1
  H  H5  1  0.665451  0.098625  0.058954  1
  H  H6  1  0.926303  0.225096  0.402943  1
  H  H7  1  0.073696  0.274905  0.902943  1
  H  H8  1  0.073696  0.774905  0.597057  1
  H  H9  1  0.926304  0.725095  0.097058  1
  H  H10  1  0.085899  0.741575  0.372046  1
  H  H11  1  0.914101  0.758425  0.872045  1
  H  H12  1  0.914101  0.258425  0.627955  1
  H  H13  1  0.085899  0.241575  0.127955  1
  H  H14  1  0.317567  0.711150  0.405461  1
  H  H15  1  0.682433  0.788849  0.905461  1
  H  H16  1  0.682433  0.288849  0.594540  1
  H  H17  1  0.317567  0.211150  0.094540  1
  H  H18  1  0.006484  0.147091  0.814610  1
  H  H19  1  0.993517  0.352910  0.314610  1
  H  H20  1  0.334548  0.901375  0.941046  1
  H  H21  1  0.665452  0.598625  0.441046  1
  H  H22  1  0.006484  0.647091  0.685390  1
  H  H23  1  0.993517  0.852910  0.185390  1
  O  O24  1  0.838544  0.838196  0.886691  1
  O  O25  1  0.838544  0.338197  0.613309  1
  O  O26  1  0.024064  0.828726  0.110470  1
  O  O27  1  0.975936  0.671273  0.610470  1
  O  O28  1  0.975936  0.171273  0.889530  1
  O  O29  1  0.024064  0.328726  0.389530  1
  O  O30  1  0.295815  0.999088  0.935203  1
  O  O31  1  0.161456  0.161804  0.113309  1
  O  O32  1  0.704185  0.000911  0.064797  1
  O  O33  1  0.295815  0.499088  0.564797  1
  O  O34  1  0.944215  0.873822  0.322195  1
  O  O35  1  0.055785  0.626178  0.822195  1
  O  O36  1  0.055785  0.126177  0.677805  1
  O  O37  1  0.944215  0.373822  0.177805  1
  O  O38  1  0.606627  0.771599  0.426129  1
  O  O39  1  0.393373  0.728401  0.926130  1
  O  O40  1  0.393373  0.228401  0.573870  1
  O  O41  1  0.606628  0.271600  0.073871  1
  O  O42  1  0.775210  0.042344  0.423546  1
  O  O43  1  0.224790  0.457657  0.923546  1
  O  O44  1  0.224790  0.957657  0.576454  1
  O  O45  1  0.775210  0.542344  0.076454  1
  O  O46  1  0.593661  0.913339  0.263988  1
  O  O47  1  0.406340  0.586661  0.763988  1
  O  O48  1  0.406340  0.086661  0.736012  1
  O  O49  1  0.593661  0.413339  0.236012  1
  O  O50  1  0.161456  0.661804  0.386691  1
  O  O51  1  0.704185  0.500911  0.435203  1
  S  S52  1  0.268263  0.598459  0.858709  1
  S  S53  1  0.731737  0.901542  0.358709  1
  S  S54  1  0.268263  0.098458  0.641291  1
  S  S55  1  0.731737  0.401542  0.141291  1
  Ni  Ni56  1  1.000000  0.500000  0.500000  1
  Ni  Ni57  1  0.000000  0.000000  0.000000  1
  Rb  Rb58  1  0.347459  0.130507  0.350997  1
  Rb  Rb59  1  0.652541  0.369492  0.850998  1
  Rb  Rb60  1  0.652541  0.869493  0.649002  1
  Rb  Rb61  1  0.347459  0.630507  0.149002  1
