# generated using pymatgen
data_La8Nb7S22
_symmetry_space_group_name_H-M   'P 1'
_cell_length_a   5.83937710
_cell_length_b   16.38708187
_cell_length_c   16.38708188
_cell_angle_alpha   90.74233800
_cell_angle_beta   90.00000000
_cell_angle_gamma   90.00000000
_symmetry_Int_Tables_number   1
_chemical_formula_structural   La8Nb7S22
_chemical_formula_sum   'La16 Nb14 S44'
_cell_volume   1567.95399940
_cell_formula_units_Z   2
loop_
 _symmetry_equiv_pos_site_id
 _symmetry_equiv_pos_as_xyz
  1  'x, y, z'
loop_
 _atom_site_type_symbol
 _atom_site_label
 _atom_site_symmetry_multiplicity
 _atom_site_fract_x
 _atom_site_fract_y
 _atom_site_fract_z
 _atom_site_occupancy
  S  S0  1  0.331966  0.071319  0.569022  1
  S  S1  1  0.331966  0.928681  0.430978  1
  S  S2  1  0.831966  0.430978  0.928681  1
  S  S3  1  0.831966  0.569022  0.071319  1
  S  S4  1  0.831891  0.003632  0.360210  1
  S  S5  1  0.831891  0.996368  0.639790  1
  S  S6  1  0.331891  0.639790  0.996368  1
  S  S7  1  0.331891  0.360210  0.003632  1
  S  S8  1  0.828523  0.139316  0.494320  1
  S  S9  1  0.828523  0.860684  0.505680  1
  S  S10  1  0.328523  0.505680  0.860684  1
  S  S11  1  0.328523  0.494320  0.139316  1
  S  S12  1  0.333286  0.072136  0.287626  1
  S  S13  1  0.333286  0.927864  0.712374  1
  S  S14  1  0.833286  0.712374  0.927864  1
  S  S15  1  0.833286  0.287626  0.072136  1
  S  S16  1  0.330286  0.209749  0.428612  1
  S  S17  1  0.330286  0.790251  0.571388  1
  S  S18  1  0.830286  0.571388  0.790251  1
  S  S19  1  0.830286  0.428612  0.209749  1
  S  S20  1  0.829284  0.148309  0.214986  1
  S  S21  1  0.829284  0.851691  0.785014  1
  S  S22  1  0.329284  0.785014  0.851691  1
  S  S23  1  0.329284  0.214986  0.148309  1
  S  S24  1  0.832942  0.283681  0.353230  1
  S  S25  1  0.832942  0.716319  0.646770  1
  S  S26  1  0.332942  0.646770  0.716319  1
  S  S27  1  0.332942  0.353230  0.283681  1
  S  S28  1  0.578224  0.012921  0.887765  1
  S  S29  1  0.578224  0.987079  0.112235  1
  S  S30  1  0.573918  0.513038  0.388073  1
  S  S31  1  0.573918  0.486962  0.611927  1
  S  S32  1  0.073918  0.611927  0.486962  1
  S  S33  1  0.073918  0.388073  0.513038  1
  S  S34  1  0.083000  0.637272  0.263504  1
  S  S35  1  0.083000  0.362728  0.736496  1
  S  S36  1  0.583000  0.736496  0.362728  1
  S  S37  1  0.583000  0.263504  0.637272  1
  S  S38  1  0.570232  0.762500  0.138865  1
  S  S39  1  0.570232  0.237500  0.861135  1
  S  S40  1  0.070232  0.861135  0.237500  1
  S  S41  1  0.070232  0.138865  0.762500  1
  S  S42  1  0.078224  0.887765  0.012921  1
  S  S43  1  0.078224  0.112235  0.987079  1
  Nb  Nb44  1  0.000906  0.000000  0.500000  1
  Nb  Nb45  1  0.500906  0.500000  0.000000  1
  Nb  Nb46  1  0.497852  0.070101  0.428340  1
  Nb  Nb47  1  0.497852  0.929899  0.571660  1
  Nb  Nb48  1  0.997852  0.571660  0.929899  1
  Nb  Nb49  1  0.997852  0.428340  0.070101  1
  Nb  Nb50  1  1.000461  0.143020  0.355519  1
  Nb  Nb51  1  1.000461  0.856980  0.644481  1
  Nb  Nb52  1  0.500461  0.644481  0.856980  1
  Nb  Nb53  1  0.500461  0.355519  0.143020  1
  Nb  Nb54  1  0.499228  0.213375  0.287182  1
  Nb  Nb55  1  0.499228  0.786625  0.712818  1
  Nb  Nb56  1  0.999228  0.712818  0.786625  1
  Nb  Nb57  1  0.999228  0.287182  0.213375  1
  La  La58  1  0.079524  0.986816  0.860198  1
  La  La59  1  0.079524  0.013184  0.139802  1
  La  La60  1  0.579524  0.139802  0.013184  1
  La  La61  1  0.579524  0.860198  0.986816  1
  La  La62  1  0.560618  0.109869  0.734432  1
  La  La63  1  0.560618  0.890131  0.265568  1
  La  La64  1  0.060618  0.265568  0.890131  1
  La  La65  1  0.060618  0.734432  0.109869  1
  La  La66  1  0.089210  0.236183  0.609530  1
  La  La67  1  0.089210  0.763817  0.390470  1
  La  La68  1  0.589210  0.390470  0.763817  1
  La  La69  1  0.589210  0.609530  0.236183  1
  La  La70  1  0.568500  0.361412  0.483868  1
  La  La71  1  0.568500  0.638588  0.516132  1
  La  La72  1  0.068500  0.516132  0.638588  1
  La  La73  1  0.068500  0.483868  0.361412  1
