# generated using pymatgen
data_NiH6(CO3)2
_symmetry_space_group_name_H-M   'P 1'
_cell_length_a   7.11174271
_cell_length_b   8.70719504
_cell_length_c   9.30980757
_cell_angle_alpha   97.48484988
_cell_angle_beta   90.00000000
_cell_angle_gamma   90.00000000
_symmetry_Int_Tables_number   1
_chemical_formula_structural   NiH6(CO3)2
_chemical_formula_sum   'Ni4 H24 C8 O24'
_cell_volume   571.58218248
_cell_formula_units_Z   4
loop_
 _symmetry_equiv_pos_site_id
 _symmetry_equiv_pos_as_xyz
  1  'x, y, z'
loop_
 _atom_site_type_symbol
 _atom_site_label
 _atom_site_symmetry_multiplicity
 _atom_site_fract_x
 _atom_site_fract_y
 _atom_site_fract_z
 _atom_site_occupancy
  H  H0  1  0.971264  0.824294  0.394847  1
  H  H1  1  0.471264  0.175706  0.105153  1
  H  H2  1  0.028737  0.175706  0.605154  1
  H  H3  1  0.528737  0.824294  0.894847  1
  H  H4  1  0.791519  0.429206  0.224287  1
  H  H5  1  0.291519  0.570794  0.275713  1
  H  H6  1  0.208481  0.570794  0.775713  1
  H  H7  1  0.708481  0.429207  0.724287  1
  H  H8  1  0.619284  0.716781  0.508457  1
  H  H9  1  0.119284  0.283220  0.991543  1
  H  H10  1  0.380715  0.283220  0.491544  1
  H  H11  1  0.880715  0.716780  0.008456  1
  H  H12  1  0.099303  0.735567  0.047653  1
  H  H13  1  0.599304  0.264432  0.452347  1
  H  H14  1  0.900697  0.264432  0.952346  1
  H  H15  1  0.906321  0.802596  0.762019  1
  H  H16  1  0.646267  0.970251  0.220351  1
  H  H17  1  0.146267  0.029748  0.279649  1
  H  H18  1  0.353733  0.029748  0.779648  1
  H  H19  1  0.853734  0.970251  0.720351  1
  H  H20  1  0.593680  0.802596  0.262019  1
  H  H21  1  0.093680  0.197405  0.237981  1
  H  H22  1  0.406321  0.197404  0.737981  1
  H  H23  1  0.400697  0.735568  0.547653  1
  C  C24  1  0.115568  0.822331  0.438571  1
  C  C25  1  0.615568  0.177670  0.061429  1
  C  C26  1  0.884431  0.177670  0.561429  1
  C  C27  1  0.384432  0.822330  0.938571  1
  C  C28  1  0.775279  0.537512  0.773610  1
  C  C29  1  0.275279  0.462488  0.726390  1
  C  C30  1  0.724720  0.537513  0.273610  1
  C  C31  1  0.224720  0.462487  0.226390  1
  O  O32  1  0.972771  0.782655  0.068819  1
  O  O33  1  0.472771  0.217345  0.431181  1
  O  O34  1  0.027229  0.217345  0.931182  1
  O  O35  1  0.527229  0.782656  0.568819  1
  O  O36  1  0.608920  0.912923  0.301457  1
  O  O37  1  0.108920  0.087077  0.198543  1
  O  O38  1  0.391080  0.087076  0.698543  1
  O  O39  1  0.891080  0.912924  0.801456  1
  O  O40  1  0.220664  0.937041  0.423819  1
  O  O41  1  0.720663  0.062959  0.076181  1
  O  O42  1  0.779336  0.062960  0.576182  1
  O  O43  1  0.279336  0.937040  0.923819  1
  O  O44  1  0.335286  0.704506  0.998670  1
  O  O45  1  0.835286  0.295494  0.501330  1
  O  O46  1  0.725036  0.593250  0.901004  1
  O  O47  1  0.164714  0.704506  0.498670  1
  O  O48  1  0.602286  0.600231  0.200766  1
  O  O49  1  0.102286  0.399769  0.299234  1
  O  O50  1  0.397715  0.399769  0.799234  1
  O  O51  1  0.897715  0.600231  0.700766  1
  O  O52  1  0.774964  0.593250  0.401004  1
  O  O53  1  0.274964  0.406751  0.098997  1
  O  O54  1  0.225036  0.406750  0.598996  1
  O  O55  1  0.664713  0.295494  0.001330  1
  Ni  Ni56  1  0.500000  1.000000  0.500000  1
  Ni  Ni57  1  0.000000  0.000000  0.000000  1
  Ni  Ni58  1  0.500000  0.500000  1.000000  1
  Ni  Ni59  1  0.000000  0.500000  0.500000  1
