# generated using pymatgen
data_UBrO2
_symmetry_space_group_name_H-M   'P 1'
_cell_length_a   4.00998267
_cell_length_b   4.14869973
_cell_length_c   10.82564874
_cell_angle_alpha   101.04701192
_cell_angle_beta   90.00000000
_cell_angle_gamma   90.00000000
_symmetry_Int_Tables_number   1
_chemical_formula_structural   UBrO2
_chemical_formula_sum   'U2 Br2 O4'
_cell_volume   176.76064930
_cell_formula_units_Z   2
loop_
 _symmetry_equiv_pos_site_id
 _symmetry_equiv_pos_as_xyz
  1  'x, y, z'
loop_
 _atom_site_type_symbol
 _atom_site_label
 _atom_site_symmetry_multiplicity
 _atom_site_fract_x
 _atom_site_fract_y
 _atom_site_fract_z
 _atom_site_occupancy
  O  O0  1  0.250000  0.576264  0.152528  1
  O  O1  1  0.750000  0.423736  0.847472  1
  O  O2  1  0.750000  0.034521  0.069043  1
  O  O3  1  0.250000  0.965479  0.930957  1
  Br  Br4  1  0.750000  0.177242  0.354484  1
  Br  Br5  1  0.250000  0.822758  0.645516  1
  U  U6  1  0.250000  0.074362  0.148725  1
  U  U7  1  0.750000  0.925638  0.851275  1
