# generated using pymatgen
data_Pr3(BN2)2
_symmetry_space_group_name_H-M   'P 1'
_cell_length_a   3.59626936
_cell_length_b   6.35552341
_cell_length_c   6.57204017
_cell_angle_alpha   118.91603864
_cell_angle_beta   105.87882260
_cell_angle_gamma   90.00000006
_symmetry_Int_Tables_number   1
_chemical_formula_structural   Pr3(BN2)2
_chemical_formula_sum   'Pr3 B2 N4'
_cell_volume   124.89650515
_cell_formula_units_Z   1
loop_
 _symmetry_equiv_pos_site_id
 _symmetry_equiv_pos_as_xyz
  1  'x, y, z'
loop_
 _atom_site_type_symbol
 _atom_site_label
 _atom_site_symmetry_multiplicity
 _atom_site_fract_x
 _atom_site_fract_y
 _atom_site_fract_z
 _atom_site_occupancy
  B  B0  1  0.500000  0.357104  0.000000  1
  B  B1  1  0.500000  0.642896  0.000000  1
  N  N2  1  0.618209  0.362931  0.236419  1
  N  N3  1  0.618209  0.873488  0.236419  1
  N  N4  1  0.381791  0.126512  0.763581  1
  N  N5  1  0.381791  0.637069  0.763581  1
  Pr  Pr6  1  0.201871  0.701871  0.403742  1
  Pr  Pr7  1  0.798129  0.298129  0.596258  1
  Pr  Pr8  1  0.000000  0.000000  0.000000  1
