# generated using pymatgen
data_U2Cr30P19
_symmetry_space_group_name_H-M   'P 1'
_cell_length_a   14.56591528
_cell_length_b   14.56591528
_cell_length_c   3.44059250
_cell_angle_alpha   90.00000000
_cell_angle_beta   90.00000000
_cell_angle_gamma   120.00000000
_symmetry_Int_Tables_number   1
_chemical_formula_structural   U2Cr30P19
_chemical_formula_sum   'U2 Cr30 P19'
_cell_volume   632.17807427
_cell_formula_units_Z   1
loop_
 _symmetry_equiv_pos_site_id
 _symmetry_equiv_pos_as_xyz
  1  'x, y, z'
loop_
 _atom_site_type_symbol
 _atom_site_label
 _atom_site_symmetry_multiplicity
 _atom_site_fract_x
 _atom_site_fract_y
 _atom_site_fract_z
 _atom_site_occupancy
  P  P0  1  0.000000  0.000000  0.000000  1
  P  P1  1  0.271235  0.089871  0.500000  1
  P  P2  1  0.732089  0.907090  0.000000  1
  P  P3  1  0.092910  0.824998  0.000000  1
  P  P4  1  0.175002  0.267911  0.000000  1
  P  P5  1  0.503903  0.188584  0.500000  1
  P  P6  1  0.811416  0.315319  0.500000  1
  P  P7  1  0.684681  0.496097  0.500000  1
  P  P8  1  0.495813  0.812190  0.000000  1
  P  P9  1  0.187810  0.683623  0.000000  1
  P  P10  1  0.316377  0.504187  0.000000  1
  P  P11  1  0.361736  0.950731  0.500000  1
  P  P12  1  0.049269  0.411005  0.500000  1
  P  P13  1  0.588995  0.638264  0.500000  1
  P  P14  1  0.633741  0.046914  0.000000  1
  P  P15  1  0.953086  0.586827  0.000000  1
  P  P16  1  0.413173  0.366259  0.000000  1
  P  P17  1  0.910129  0.181364  0.500000  1
  P  P18  1  0.818636  0.728765  0.500000  1
  Cr  Cr19  1  0.489798  0.648068  0.000000  1
  Cr  Cr20  1  0.391532  0.190434  0.000000  1
  Cr  Cr21  1  0.798902  0.608468  0.000000  1
  Cr  Cr22  1  0.809566  0.201098  0.000000  1
  Cr  Cr23  1  0.609360  0.813194  0.500000  1
  Cr  Cr24  1  0.158270  0.510202  0.000000  1
  Cr  Cr25  1  0.186806  0.796166  0.500000  1
  Cr  Cr26  1  0.180735  0.110491  0.000000  1
  Cr  Cr27  1  0.929756  0.819265  0.000000  1
  Cr  Cr28  1  0.889509  0.070244  0.000000  1
  Cr  Cr29  1  0.857360  0.914876  0.500000  1
  Cr  Cr30  1  0.057516  0.142640  0.500000  1
  Cr  Cr31  1  0.085124  0.942484  0.500000  1
  Cr  Cr32  1  0.842677  0.489298  0.500000  1
  Cr  Cr33  1  0.510702  0.353379  0.500000  1
  Cr  Cr34  1  0.646621  0.157323  0.500000  1
  Cr  Cr35  1  0.064250  0.584474  0.500000  1
  Cr  Cr36  1  0.415526  0.479775  0.500000  1
  Cr  Cr37  1  0.520225  0.935750  0.500000  1
  Cr  Cr38  1  0.935636  0.412314  0.000000  1
  Cr  Cr39  1  0.587686  0.523321  0.000000  1
  Cr  Cr40  1  0.476679  0.064364  0.000000  1
  Cr  Cr41  1  0.023591  0.285962  0.000000  1
  Cr  Cr42  1  0.714038  0.737629  0.000000  1
  Cr  Cr43  1  0.262371  0.976409  0.000000  1
  Cr  Cr44  1  0.978125  0.711657  0.500000  1
  Cr  Cr45  1  0.288343  0.266468  0.500000  1
  Cr  Cr46  1  0.733532  0.021875  0.500000  1
  Cr  Cr47  1  0.203834  0.390640  0.500000  1
  Cr  Cr48  1  0.351932  0.841730  0.000000  1
  U  U49  1  0.333333  0.666667  0.500000  1
  U  U50  1  0.666667  0.333333  0.000000  1
