# generated using pymatgen
data_PH2F3
_symmetry_space_group_name_H-M   'P 1'
_cell_length_a   5.08984912
_cell_length_b   5.08984912
_cell_length_c   6.27863830
_cell_angle_alpha   90.00000000
_cell_angle_beta   90.00000000
_cell_angle_gamma   107.56944396
_symmetry_Int_Tables_number   1
_chemical_formula_structural   PH2F3
_chemical_formula_sum   'P2 H4 F6'
_cell_volume   155.07024279
_cell_formula_units_Z   2
loop_
 _symmetry_equiv_pos_site_id
 _symmetry_equiv_pos_as_xyz
  1  'x, y, z'
loop_
 _atom_site_type_symbol
 _atom_site_label
 _atom_site_symmetry_multiplicity
 _atom_site_fract_x
 _atom_site_fract_y
 _atom_site_fract_z
 _atom_site_occupancy
  H  H0  1  0.821675  0.594261  0.267065  1
  H  H1  1  0.178325  0.405739  0.767065  1
  H  H2  1  0.405739  0.178325  0.267065  1
  H  H3  1  0.594261  0.821675  0.767065  1
  F  F4  1  0.649188  0.350812  0.988964  1
  F  F5  1  0.725170  0.274830  0.509201  1
  F  F6  1  0.122708  0.877292  0.701218  1
  F  F7  1  0.877292  0.122708  0.201218  1
  F  F8  1  0.274830  0.725170  0.009201  1
  F  F9  1  0.350812  0.649188  0.488964  1
  P  P10  1  0.688181  0.311819  0.249487  1
  P  P11  1  0.311819  0.688181  0.749487  1
