# generated using pymatgen
data_Sb4Br2O5
_symmetry_space_group_name_H-M   'P 1'
_cell_length_a   5.24114735
_cell_length_b   6.73812728
_cell_length_c   13.79683977
_cell_angle_alpha   96.16152092
_cell_angle_beta   90.00000000
_cell_angle_gamma   90.00000000
_symmetry_Int_Tables_number   1
_chemical_formula_structural   Sb4Br2O5
_chemical_formula_sum   'Sb8 Br4 O10'
_cell_volume   484.42787431
_cell_formula_units_Z   2
loop_
 _symmetry_equiv_pos_site_id
 _symmetry_equiv_pos_as_xyz
  1  'x, y, z'
loop_
 _atom_site_type_symbol
 _atom_site_label
 _atom_site_symmetry_multiplicity
 _atom_site_fract_x
 _atom_site_fract_y
 _atom_site_fract_z
 _atom_site_occupancy
  Sb  Sb0  1  0.777525  0.826481  0.950501  1
  Sb  Sb1  1  0.277525  0.173519  0.549499  1
  Sb  Sb2  1  0.222475  0.173519  0.049499  1
  Sb  Sb3  1  0.722475  0.826481  0.450501  1
  Sb  Sb4  1  0.889289  0.191840  0.796305  1
  Sb  Sb5  1  0.389289  0.808160  0.703695  1
  Sb  Sb6  1  0.110711  0.808160  0.203695  1
  Sb  Sb7  1  0.610711  0.191840  0.296305  1
  O  O8  1  0.000000  0.000000  0.500000  1
  O  O9  1  0.500000  0.000000  0.000000  1
  O  O10  1  0.667651  0.929215  0.791038  1
  O  O11  1  0.167651  0.070785  0.708962  1
  O  O12  1  0.332349  0.070785  0.208962  1
  O  O13  1  0.832349  0.929215  0.291038  1
  O  O14  1  0.993117  0.933032  0.081956  1
  O  O15  1  0.493117  0.066968  0.418044  1
  O  O16  1  0.006883  0.066968  0.918044  1
  O  O17  1  0.506883  0.933032  0.581956  1
  Br  Br18  1  0.284762  0.491492  0.880943  1
  Br  Br19  1  0.784762  0.508508  0.619057  1
  Br  Br20  1  0.715238  0.508508  0.119057  1
  Br  Br21  1  0.215238  0.491492  0.380943  1
