# generated using pymatgen
data_Ta2NiS5
_symmetry_space_group_name_H-M   'P 1'
_cell_length_a   3.42997158
_cell_length_b   6.81899801
_cell_length_c   15.21199694
_cell_angle_alpha   90.00000000
_cell_angle_beta   90.00000000
_cell_angle_gamma   104.56635985
_symmetry_Int_Tables_number   1
_chemical_formula_structural   Ta2NiS5
_chemical_formula_sum   'Ta4 Ni2 S10'
_cell_volume   344.35667913
_cell_formula_units_Z   2
loop_
 _symmetry_equiv_pos_site_id
 _symmetry_equiv_pos_as_xyz
  1  'x, y, z'
loop_
 _atom_site_type_symbol
 _atom_site_label
 _atom_site_symmetry_multiplicity
 _atom_site_fract_x
 _atom_site_fract_y
 _atom_site_fract_z
 _atom_site_occupancy
  S  S0  1  0.688117  0.376235  0.250000  1
  S  S1  1  0.311883  0.623765  0.750000  1
  S  S2  1  0.156732  0.313463  0.449840  1
  S  S3  1  0.843268  0.686537  0.550160  1
  S  S4  1  0.843268  0.686537  0.949840  1
  S  S5  1  0.156732  0.313463  0.050160  1
  S  S6  1  0.594784  0.189567  0.864508  1
  S  S7  1  0.405216  0.810433  0.135492  1
  S  S8  1  0.405216  0.810433  0.364508  1
  S  S9  1  0.594784  0.189567  0.635492  1
  Ni  Ni10  1  0.299834  0.599668  0.250000  1
  Ni  Ni11  1  0.700166  0.400332  0.750000  1
  Ta  Ta12  1  0.222416  0.444833  0.608707  1
  Ta  Ta13  1  0.777584  0.555167  0.391293  1
  Ta  Ta14  1  0.777584  0.555167  0.108707  1
  Ta  Ta15  1  0.222416  0.444833  0.891293  1
