# generated using pymatgen
data_CaB8H4O15
_symmetry_space_group_name_H-M   'P 1'
_cell_length_a   7.57028491
_cell_length_b   8.39385098
_cell_length_c   9.85812057
_cell_angle_alpha   90.00000000
_cell_angle_beta   108.24017036
_cell_angle_gamma   90.00000000
_symmetry_Int_Tables_number   1
_chemical_formula_structural   CaB8H4O15
_chemical_formula_sum   'Ca2 B16 H8 O30'
_cell_volume   594.94689846
_cell_formula_units_Z   2
loop_
 _symmetry_equiv_pos_site_id
 _symmetry_equiv_pos_as_xyz
  1  'x, y, z'
loop_
 _atom_site_type_symbol
 _atom_site_label
 _atom_site_symmetry_multiplicity
 _atom_site_fract_x
 _atom_site_fract_y
 _atom_site_fract_z
 _atom_site_occupancy
  Ca  Ca0  1  0.104241  0.398430  0.280480  1
  Ca  Ca1  1  0.895759  0.898430  0.719520  1
  B  B2  1  0.033720  0.736051  0.018972  1
  B  B3  1  0.085171  0.486452  0.904210  1
  B  B4  1  0.914829  0.986452  0.095790  1
  B  B5  1  0.123407  0.774904  0.281191  1
  B  B6  1  0.410846  0.871257  0.476584  1
  B  B7  1  0.589154  0.371257  0.523416  1
  B  B8  1  0.613170  0.981704  0.148361  1
  B  B9  1  0.091567  0.484974  0.643810  1
  B  B10  1  0.012005  0.725808  0.486075  1
  B  B11  1  0.401000  0.881821  0.727931  1
  B  B12  1  0.987995  0.225808  0.513925  1
  B  B13  1  0.966280  0.236051  0.981028  1
  B  B14  1  0.876593  0.274904  0.718809  1
  B  B15  1  0.386830  0.481704  0.851639  1
  B  B16  1  0.599000  0.381821  0.272069  1
  B  B17  1  0.908433  0.984974  0.356190  1
  H  H18  1  0.370595  0.446239  0.574829  1
  H  H19  1  0.630592  0.915209  0.895984  1
  H  H20  1  0.369408  0.415209  0.104016  1
  H  H21  1  0.632077  0.435714  0.828324  1
  H  H22  1  0.367923  0.935714  0.171676  1
  H  H23  1  0.323761  0.925717  0.903129  1
  H  H24  1  0.676239  0.425717  0.096871  1
  H  H25  1  0.629405  0.946239  0.425171  1
  O  O26  1  0.940053  0.877354  0.477403  1
  O  O27  1  0.593165  0.921426  0.512412  1
  O  O28  1  0.002887  0.639576  0.601648  1
  O  O29  1  0.271012  0.909372  0.798467  1
  O  O30  1  0.984171  0.913117  0.243824  1
  O  O31  1  0.688550  0.342063  0.663272  1
  O  O32  1  0.708720  0.983165  0.051063  1
  O  O33  1  0.983905  0.149213  0.102033  1
  O  O34  1  0.997113  0.139576  0.398352  1
  O  O35  1  0.406835  0.421426  0.487588  1
  O  O36  1  0.106184  0.677863  0.154809  1
  O  O37  1  0.577101  0.458884  0.904612  1
  O  O38  1  0.923789  0.165922  0.619714  1
  O  O39  1  0.016095  0.649213  0.897967  1
  O  O40  1  0.728988  0.409372  0.201533  1
  O  O41  1  0.422899  0.958884  0.095388  1
  O  O42  1  0.329359  0.854675  0.583183  1
  O  O43  1  0.590140  0.879397  0.792746  1
  O  O44  1  0.311450  0.842063  0.336728  1
  O  O45  1  0.973517  0.891257  0.993934  1
  O  O46  1  0.893816  0.177863  0.845191  1
  O  O47  1  0.026483  0.391257  0.006066  1
  O  O48  1  0.296632  0.500477  0.708649  1
  O  O49  1  0.059947  0.377354  0.522597  1
  O  O50  1  0.409860  0.379397  0.207254  1
  O  O51  1  0.670641  0.354675  0.416817  1
  O  O52  1  0.703368  0.000477  0.291351  1
  O  O53  1  0.291280  0.483165  0.948937  1
  O  O54  1  0.015829  0.413117  0.756176  1
  O  O55  1  0.076211  0.665922  0.380286  1
