# generated using pymatgen
data_Zn4As2O9
_symmetry_space_group_name_H-M   'P 1'
_cell_length_a   8.35963020
_cell_length_b   9.93055880
_cell_length_c   10.13812578
_cell_angle_alpha   116.24883051
_cell_angle_beta   90.00000000
_cell_angle_gamma   90.00000000
_symmetry_Int_Tables_number   1
_chemical_formula_structural   Zn4As2O9
_chemical_formula_sum   'Zn16 As8 O36'
_cell_volume   754.83777315
_cell_formula_units_Z   4
loop_
 _symmetry_equiv_pos_site_id
 _symmetry_equiv_pos_as_xyz
  1  'x, y, z'
loop_
 _atom_site_type_symbol
 _atom_site_label
 _atom_site_symmetry_multiplicity
 _atom_site_fract_x
 _atom_site_fract_y
 _atom_site_fract_z
 _atom_site_occupancy
  O  O0  1  0.664726  0.356300  0.114477  1
  O  O1  1  0.164726  0.143700  0.385523  1
  O  O2  1  0.335274  0.643700  0.885523  1
  O  O3  1  0.835274  0.856300  0.614477  1
  O  O4  1  0.516554  0.261604  0.306510  1
  O  O5  1  0.016554  0.238396  0.193490  1
  O  O6  1  0.483446  0.738396  0.693490  1
  O  O7  1  0.983446  0.761604  0.806510  1
  O  O8  1  0.326528  0.013339  0.008635  1
  O  O9  1  0.826528  0.486661  0.491365  1
  O  O10  1  0.673472  0.986661  0.991365  1
  O  O11  1  0.173472  0.513339  0.508635  1
  O  O12  1  0.500672  0.387028  0.863455  1
  O  O13  1  0.000672  0.112972  0.636545  1
  O  O14  1  0.524371  0.562543  0.387090  1
  O  O15  1  0.499328  0.612972  0.136545  1
  O  O16  1  0.341938  0.169781  0.613396  1
  O  O17  1  0.841938  0.330219  0.886604  1
  O  O18  1  0.658062  0.830219  0.386604  1
  O  O19  1  0.158062  0.669781  0.113396  1
  O  O20  1  0.572321  0.090555  0.783627  1
  O  O21  1  0.072321  0.409445  0.716373  1
  O  O22  1  0.427679  0.909445  0.216373  1
  O  O23  1  0.927679  0.590555  0.283627  1
  O  O24  1  0.179218  0.875978  0.653234  1
  O  O25  1  0.679218  0.624022  0.846766  1
  O  O26  1  0.820782  0.124022  0.346766  1
  O  O27  1  0.320782  0.375978  0.153234  1
  O  O28  1  0.829271  0.700335  0.094286  1
  O  O29  1  0.329271  0.799665  0.405714  1
  O  O30  1  0.170729  0.299665  0.905714  1
  O  O31  1  0.670729  0.200335  0.594286  1
  O  O32  1  0.975629  0.062543  0.887090  1
  O  O33  1  0.475629  0.437457  0.612910  1
  O  O34  1  0.024371  0.937457  0.112910  1
  O  O35  1  0.999328  0.887028  0.363455  1
  Zn  Zn36  1  0.318469  0.676014  0.523320  1
  Zn  Zn37  1  0.818469  0.823986  0.976680  1
  Zn  Zn38  1  0.681531  0.323986  0.476680  1
  Zn  Zn39  1  0.181531  0.176014  0.023320  1
  Zn  Zn40  1  0.020349  0.446418  0.345756  1
  Zn  Zn41  1  0.520349  0.053582  0.154244  1
  Zn  Zn42  1  0.979651  0.553582  0.654244  1
  Zn  Zn43  1  0.479651  0.946418  0.845756  1
  Zn  Zn44  1  0.692832  0.509957  0.994453  1
  Zn  Zn45  1  0.192832  0.990043  0.505547  1
  Zn  Zn46  1  0.307168  0.490043  0.005547  1
  Zn  Zn47  1  0.807168  0.009957  0.494453  1
  Zn  Zn48  1  0.756389  0.162319  0.956345  1
  Zn  Zn49  1  0.256389  0.337681  0.543655  1
  Zn  Zn50  1  0.243611  0.837681  0.043655  1
  Zn  Zn51  1  0.743611  0.662319  0.456345  1
  As  As52  1  0.983635  0.713909  0.213924  1
  As  As53  1  0.483635  0.786091  0.286076  1
  As  As54  1  0.016365  0.286091  0.786076  1
  As  As55  1  0.516365  0.213909  0.713924  1
  As  As56  1  0.994452  0.892480  0.733290  1
  As  As57  1  0.494452  0.607520  0.766710  1
  As  As58  1  0.005548  0.107520  0.266710  1
  As  As59  1  0.505548  0.392480  0.233290  1
