# generated using pymatgen
data_Ca3(InNi2)4
_symmetry_space_group_name_H-M   'P 1'
_cell_length_a   8.98119942
_cell_length_b   8.98119942
_cell_length_c   7.54406629
_cell_angle_alpha   90.00000000
_cell_angle_beta   90.00000000
_cell_angle_gamma   120.00000001
_symmetry_Int_Tables_number   1
_chemical_formula_structural   Ca3(InNi2)4
_chemical_formula_sum   'Ca6 In8 Ni16'
_cell_volume   526.99295158
_cell_formula_units_Z   2
loop_
 _symmetry_equiv_pos_site_id
 _symmetry_equiv_pos_as_xyz
  1  'x, y, z'
loop_
 _atom_site_type_symbol
 _atom_site_label
 _atom_site_symmetry_multiplicity
 _atom_site_fract_x
 _atom_site_fract_y
 _atom_site_fract_z
 _atom_site_occupancy
  Ca  Ca0  1  0.470411  0.529589  0.233622  1
  Ca  Ca1  1  0.940822  0.470411  0.733622  1
  Ca  Ca2  1  0.529589  0.059178  0.733622  1
  Ca  Ca3  1  0.470411  0.940822  0.233622  1
  Ca  Ca4  1  0.059178  0.529589  0.233622  1
  Ca  Ca5  1  0.529589  0.470411  0.733622  1
  Ni  Ni6  1  0.000000  0.000000  0.001574  1
  Ni  Ni7  1  0.000000  0.000000  0.501574  1
  Ni  Ni8  1  0.666667  0.333333  0.427825  1
  Ni  Ni9  1  0.333333  0.666667  0.927825  1
  Ni  Ni10  1  0.097987  0.195975  0.249261  1
  Ni  Ni11  1  0.902013  0.097987  0.749261  1
  Ni  Ni12  1  0.195975  0.097987  0.749261  1
  Ni  Ni13  1  0.804025  0.902013  0.249261  1
  Ni  Ni14  1  0.097987  0.902013  0.249261  1
  Ni  Ni15  1  0.902013  0.804025  0.749261  1
  Ni  Ni16  1  0.160182  0.320363  0.561851  1
  Ni  Ni17  1  0.839818  0.160182  0.061851  1
  Ni  Ni18  1  0.320363  0.160182  0.061851  1
  Ni  Ni19  1  0.679637  0.839818  0.561851  1
  Ni  Ni20  1  0.160182  0.839818  0.561851  1
  Ni  Ni21  1  0.839818  0.679637  0.061851  1
  In  In22  1  0.333333  0.666667  0.573965  1
  In  In23  1  0.666667  0.333333  0.073965  1
  In  In24  1  0.830691  0.661382  0.430061  1
  In  In25  1  0.169309  0.830691  0.930061  1
  In  In26  1  0.661382  0.830691  0.930061  1
  In  In27  1  0.338618  0.169309  0.430061  1
  In  In28  1  0.830691  0.169309  0.430061  1
  In  In29  1  0.169309  0.338618  0.930061  1
