# generated using pymatgen
data_SICl7
_symmetry_space_group_name_H-M   'P 1'
_cell_length_a   8.87678993
_cell_length_b   10.58883476
_cell_length_c   13.04998808
_cell_angle_alpha   90.00000000
_cell_angle_beta   90.00000000
_cell_angle_gamma   108.02627179
_symmetry_Int_Tables_number   1
_chemical_formula_structural   SICl7
_chemical_formula_sum   'S4 I4 Cl28'
_cell_volume   1166.42226343
_cell_formula_units_Z   4
loop_
 _symmetry_equiv_pos_site_id
 _symmetry_equiv_pos_as_xyz
  1  'x, y, z'
loop_
 _atom_site_type_symbol
 _atom_site_label
 _atom_site_symmetry_multiplicity
 _atom_site_fract_x
 _atom_site_fract_y
 _atom_site_fract_z
 _atom_site_occupancy
  S  S0  1  0.236503  0.134242  0.080558  1
  S  S1  1  0.736503  0.134242  0.419442  1
  S  S2  1  0.763497  0.865758  0.919442  1
  S  S3  1  0.263497  0.865758  0.580558  1
  Cl  Cl4  1  0.586387  0.902339  0.279178  1
  Cl  Cl5  1  0.086387  0.902339  0.220822  1
  Cl  Cl6  1  0.413613  0.097661  0.720822  1
  Cl  Cl7  1  0.913613  0.097661  0.779178  1
  Cl  Cl8  1  0.444501  0.097849  0.105604  1
  Cl  Cl9  1  0.055499  0.902151  0.605604  1
  Cl  Cl10  1  0.555499  0.902151  0.894396  1
  Cl  Cl11  1  0.944501  0.097849  0.394396  1
  Cl  Cl12  1  0.249024  0.274674  0.188962  1
  Cl  Cl13  1  0.250976  0.725326  0.688962  1
  Cl  Cl14  1  0.750976  0.725326  0.811038  1
  Cl  Cl15  1  0.749024  0.274674  0.311038  1
  Cl  Cl16  1  0.287583  0.246537  0.951492  1
  Cl  Cl17  1  0.212417  0.753463  0.451492  1
  Cl  Cl18  1  0.712417  0.753463  0.048508  1
  Cl  Cl19  1  0.787583  0.246537  0.548508  1
  Cl  Cl20  1  0.135045  0.889248  0.951307  1
  Cl  Cl21  1  0.364955  0.110752  0.451307  1
  Cl  Cl22  1  0.864955  0.110752  0.048693  1
  Cl  Cl23  1  0.635045  0.889248  0.548693  1
  Cl  Cl24  1  0.165547  0.587792  0.250001  1
  Cl  Cl25  1  0.334453  0.412208  0.750001  1
  Cl  Cl26  1  0.834453  0.412208  0.749999  1
  Cl  Cl27  1  0.665547  0.587792  0.249999  1
  Cl  Cl28  1  0.227831  0.584216  0.978482  1
  Cl  Cl29  1  0.272169  0.415784  0.478482  1
  Cl  Cl30  1  0.772169  0.415784  0.021518  1
  Cl  Cl31  1  0.727831  0.584216  0.521518  1
  I  I32  1  0.654036  0.732271  0.397908  1
  I  I33  1  0.845964  0.267729  0.897908  1
  I  I34  1  0.345964  0.267729  0.602092  1
  I  I35  1  0.154036  0.732271  0.102092  1
