# generated using pymatgen
data_U(Mo3S4)2
_symmetry_space_group_name_H-M   'P 1'
_cell_length_a   6.47471538
_cell_length_b   6.47471538
_cell_length_c   6.47471538
_cell_angle_alpha   88.82867985
_cell_angle_beta   88.82867975
_cell_angle_gamma   88.82867984
_symmetry_Int_Tables_number   1
_chemical_formula_structural   U(Mo3S4)2
_chemical_formula_sum   'U1 Mo6 S8'
_cell_volume   271.26475471
_cell_formula_units_Z   1
loop_
 _symmetry_equiv_pos_site_id
 _symmetry_equiv_pos_as_xyz
  1  'x, y, z'
loop_
 _atom_site_type_symbol
 _atom_site_label
 _atom_site_symmetry_multiplicity
 _atom_site_fract_x
 _atom_site_fract_y
 _atom_site_fract_z
 _atom_site_occupancy
  S  S0  1  0.760446  0.760446  0.760446  1
  S  S1  1  0.239554  0.239554  0.239554  1
  S  S2  1  0.242548  0.633227  0.872300  1
  S  S3  1  0.633227  0.872300  0.242548  1
  S  S4  1  0.872300  0.242548  0.633227  1
  S  S5  1  0.757452  0.366773  0.127700  1
  S  S6  1  0.366773  0.127700  0.757452  1
  S  S7  1  0.127700  0.757452  0.366773  1
  Mo  Mo8  1  0.437944  0.778147  0.579009  1
  Mo  Mo9  1  0.778147  0.579009  0.437944  1
  Mo  Mo10  1  0.579009  0.437944  0.778147  1
  Mo  Mo11  1  0.562056  0.221853  0.420991  1
  Mo  Mo12  1  0.221853  0.420991  0.562056  1
  Mo  Mo13  1  0.420991  0.562056  0.221853  1
  U  U14  1  0.000000  0.000000  0.000000  1
