# generated using pymatgen
data_Sb2PbO6
_symmetry_space_group_name_H-M   'P 1'
_cell_length_a   5.38639902
_cell_length_b   5.38639902
_cell_length_c   5.44638649
_cell_angle_alpha   90.00000000
_cell_angle_beta   90.00000000
_cell_angle_gamma   119.99999998
_symmetry_Int_Tables_number   1
_chemical_formula_structural   Sb2PbO6
_chemical_formula_sum   'Sb2 Pb1 O6'
_cell_volume   136.84726866
_cell_formula_units_Z   1
loop_
 _symmetry_equiv_pos_site_id
 _symmetry_equiv_pos_as_xyz
  1  'x, y, z'
loop_
 _atom_site_type_symbol
 _atom_site_label
 _atom_site_symmetry_multiplicity
 _atom_site_fract_x
 _atom_site_fract_y
 _atom_site_fract_z
 _atom_site_occupancy
  O  O0  1  0.380212  0.380212  0.706593  1
  O  O1  1  0.619788  0.000000  0.706593  1
  O  O2  1  0.000000  0.619788  0.706593  1
  O  O3  1  0.380212  0.000000  0.293407  1
  O  O4  1  0.000000  0.380212  0.293407  1
  O  O5  1  0.619788  0.619788  0.293407  1
  Sb  Sb6  1  0.666667  0.333333  0.500000  1
  Sb  Sb7  1  0.333333  0.666667  0.500000  1
  Pb  Pb8  1  0.000000  0.000000  0.000000  1
