# generated using pymatgen
data_NiSeO3
_symmetry_space_group_name_H-M   'P 1'
_cell_length_a   5.01623862
_cell_length_b   5.94770759
_cell_length_c   7.63644862
_cell_angle_alpha   90.00000000
_cell_angle_beta   90.00000000
_cell_angle_gamma   90.00000000
_symmetry_Int_Tables_number   1
_chemical_formula_structural   NiSeO3
_chemical_formula_sum   'Ni4 Se4 O12'
_cell_volume   227.83436487
_cell_formula_units_Z   4
loop_
 _symmetry_equiv_pos_site_id
 _symmetry_equiv_pos_as_xyz
  1  'x, y, z'
loop_
 _atom_site_type_symbol
 _atom_site_label
 _atom_site_symmetry_multiplicity
 _atom_site_fract_x
 _atom_site_fract_y
 _atom_site_fract_z
 _atom_site_occupancy
  O  O0  1  0.858809  0.183189  0.424802  1
  O  O1  1  0.358809  0.316811  0.575198  1
  O  O2  1  0.641191  0.683189  0.075198  1
  O  O3  1  0.141191  0.816811  0.924802  1
  O  O4  1  0.141191  0.816811  0.575198  1
  O  O5  1  0.641191  0.683189  0.424802  1
  O  O6  1  0.358809  0.316811  0.924802  1
  O  O7  1  0.858809  0.183189  0.075198  1
  O  O8  1  0.324867  0.073429  0.250000  1
  O  O9  1  0.824867  0.426571  0.750000  1
  O  O10  1  0.175133  0.573429  0.250000  1
  O  O11  1  0.675133  0.926571  0.750000  1
  Ni  Ni12  1  0.500000  0.000000  0.000000  1
  Ni  Ni13  1  0.000000  0.500000  0.000000  1
  Ni  Ni14  1  0.000000  0.500000  0.500000  1
  Ni  Ni15  1  0.500000  0.000000  0.500000  1
  Se  Se16  1  0.981340  0.019729  0.250000  1
  Se  Se17  1  0.481340  0.480271  0.750000  1
  Se  Se18  1  0.518660  0.519729  0.250000  1
  Se  Se19  1  0.018660  0.980271  0.750000  1
