# generated using pymatgen
data_U(FeP3)4
_symmetry_space_group_name_H-M   'P 1'
_cell_length_a   6.72604480
_cell_length_b   6.72604481
_cell_length_c   6.72604480
_cell_angle_alpha   109.47122058
_cell_angle_beta   109.47122061
_cell_angle_gamma   109.47122067
_symmetry_Int_Tables_number   1
_chemical_formula_structural   U(FeP3)4
_chemical_formula_sum   'U1 Fe4 P12'
_cell_volume   234.23801378
_cell_formula_units_Z   1
loop_
 _symmetry_equiv_pos_site_id
 _symmetry_equiv_pos_as_xyz
  1  'x, y, z'
loop_
 _atom_site_type_symbol
 _atom_site_label
 _atom_site_symmetry_multiplicity
 _atom_site_fract_x
 _atom_site_fract_y
 _atom_site_fract_z
 _atom_site_occupancy
  P  P0  1  0.500336  0.651264  0.849072  1
  P  P1  1  0.802192  0.651264  0.150928  1
  P  P2  1  0.197808  0.348736  0.849072  1
  P  P3  1  0.348736  0.150928  0.499663  1
  P  P4  1  0.150928  0.499663  0.348736  1
  P  P5  1  0.499663  0.348736  0.150928  1
  P  P6  1  0.348736  0.849072  0.197808  1
  P  P7  1  0.150928  0.802192  0.651264  1
  P  P8  1  0.651264  0.849072  0.500336  1
  P  P9  1  0.849072  0.197808  0.348736  1
  P  P10  1  0.651264  0.150928  0.802192  1
  P  P11  1  0.849072  0.500336  0.651264  1
  Fe  Fe12  1  0.500000  0.000000  0.000000  1
  Fe  Fe13  1  0.000000  0.000000  0.500000  1
  Fe  Fe14  1  0.000000  0.500000  0.000000  1
  Fe  Fe15  1  0.500000  0.500000  0.500000  1
  U  U16  1  0.000000  0.000000  0.000000  1
