# generated using pymatgen
data_Na3BiO4
_symmetry_space_group_name_H-M   'P 1'
_cell_length_a   5.75844445
_cell_length_b   5.95982921
_cell_length_c   6.80317701
_cell_angle_alpha   90.00000000
_cell_angle_beta   90.00000000
_cell_angle_gamma   109.98985578
_symmetry_Int_Tables_number   1
_chemical_formula_structural   Na3BiO4
_chemical_formula_sum   'Na6 Bi2 O8'
_cell_volume   219.41411460
_cell_formula_units_Z   2
loop_
 _symmetry_equiv_pos_site_id
 _symmetry_equiv_pos_as_xyz
  1  'x, y, z'
loop_
 _atom_site_type_symbol
 _atom_site_label
 _atom_site_symmetry_multiplicity
 _atom_site_fract_x
 _atom_site_fract_y
 _atom_site_fract_z
 _atom_site_occupancy
  O  O0  1  0.967687  0.236875  0.654326  1
  O  O1  1  0.532313  0.763125  0.654326  1
  O  O2  1  0.032314  0.763125  0.345674  1
  O  O3  1  0.467687  0.236875  0.345674  1
  O  O4  1  0.500141  0.208667  0.898593  1
  O  O5  1  -0.000141  0.791333  0.898593  1
  O  O6  1  1.000141  0.208667  0.101407  1
  O  O7  1  0.499859  0.791333  0.101407  1
  Na  Na8  1  0.750000  0.000000  0.382427  1
  Na  Na9  1  0.250000  0.500000  0.394767  1
  Na  Na10  1  0.750000  0.500000  0.128782  1
  Na  Na11  1  0.250000  0.500000  0.871218  1
  Na  Na12  1  0.250000  0.000000  0.617573  1
  Na  Na13  1  0.750000  0.500000  0.605233  1
  Bi  Bi14  1  0.750000  0.000000  0.864068  1
  Bi  Bi15  1  0.250000  0.000000  0.135932  1
