# generated using pymatgen
data_Ho4Sb3
_symmetry_space_group_name_H-M   'P 1'
_cell_length_a   7.93235136
_cell_length_b   7.93235136
_cell_length_c   7.93235135
_cell_angle_alpha   109.47122065
_cell_angle_beta   109.47122064
_cell_angle_gamma   109.47122063
_symmetry_Int_Tables_number   1
_chemical_formula_structural   Ho4Sb3
_chemical_formula_sum   'Ho8 Sb6'
_cell_volume   384.22351147
_cell_formula_units_Z   2
loop_
 _symmetry_equiv_pos_site_id
 _symmetry_equiv_pos_as_xyz
  1  'x, y, z'
loop_
 _atom_site_type_symbol
 _atom_site_label
 _atom_site_symmetry_multiplicity
 _atom_site_fract_x
 _atom_site_fract_y
 _atom_site_fract_z
 _atom_site_occupancy
  Sb  Sb0  1  0.750000  0.875000  0.125000  1
  Sb  Sb1  1  0.625000  0.375000  0.250000  1
  Sb  Sb2  1  0.875000  0.125000  0.750000  1
  Sb  Sb3  1  0.125000  0.750000  0.875000  1
  Sb  Sb4  1  0.375000  0.250000  0.625000  1
  Sb  Sb5  1  0.250000  0.625000  0.375000  1
  Ho  Ho6  1  0.354790  0.500000  0.000000  1
  Ho  Ho7  1  0.645210  0.645210  0.645210  1
  Ho  Ho8  1  0.500000  0.000000  0.354790  1
  Ho  Ho9  1  0.000000  0.354790  0.500000  1
  Ho  Ho10  1  0.500000  0.000000  0.854790  1
  Ho  Ho11  1  0.000000  0.854790  0.500000  1
  Ho  Ho12  1  0.854790  0.500000  0.000000  1
  Ho  Ho13  1  0.145210  0.145210  0.145210  1
