# generated using pymatgen
data_CS3N
_symmetry_space_group_name_H-M   'P 1'
_cell_length_a   5.98486405
_cell_length_b   11.11835606
_cell_length_c   16.71679860
_cell_angle_alpha   76.64814823
_cell_angle_beta   79.68804619
_cell_angle_gamma   74.38670013
_symmetry_Int_Tables_number   1
_chemical_formula_structural   CS3N
_chemical_formula_sum   'C8 S24 N8'
_cell_volume   1034.22658770
_cell_formula_units_Z   8
loop_
 _symmetry_equiv_pos_site_id
 _symmetry_equiv_pos_as_xyz
  1  'x, y, z'
loop_
 _atom_site_type_symbol
 _atom_site_label
 _atom_site_symmetry_multiplicity
 _atom_site_fract_x
 _atom_site_fract_y
 _atom_site_fract_z
 _atom_site_occupancy
  C  C0  1  0.358270  0.658874  0.145978  1
  C  C1  1  0.163121  0.841126  0.354022  1
  C  C2  1  0.641730  0.341126  0.854022  1
  C  C3  1  0.836879  0.158874  0.645978  1
  C  C4  1  0.715480  -0.000617  0.854650  1
  C  C5  1  0.569514  0.500617  0.645350  1
  C  C6  1  0.284520  1.000617  0.145350  1
  C  C7  1  0.430486  0.499383  0.354650  1
  N  N8  1  0.908108  0.005455  0.855344  1
  N  N9  1  0.768908  0.494545  0.644656  1
  N  N10  1  0.091892  0.994545  0.144656  1
  N  N11  1  0.231092  0.505455  0.355344  1
  N  N12  1  0.553044  0.657507  0.149751  1
  N  N13  1  0.360303  0.842493  0.350249  1
  N  N14  1  0.446956  0.342493  0.850249  1
  N  N15  1  0.639697  0.157507  0.649751  1
  S  S16  1  0.505352  0.680225  0.897003  1
  S  S17  1  0.082580  0.819775  0.602997  1
  S  S18  1  0.494648  0.319775  0.102997  1
  S  S19  1  0.917420  0.180225  0.397003  1
  S  S20  1  0.167364  0.655997  0.938874  1
  S  S21  1  0.762236  0.844003  0.561126  1
  S  S22  1  0.832636  0.344003  0.061126  1
  S  S23  1  0.237764  0.155997  0.438874  1
  S  S24  1  0.027472  0.767506  0.025331  1
  S  S25  1  0.820309  0.732494  0.474669  1
  S  S26  1  0.972528  0.232494  0.974669  1
  S  S27  1  0.179691  0.267506  0.525331  1
  S  S28  1  0.081072  0.654295  0.142658  1
  S  S29  1  0.878025  0.845705  0.357342  1
  S  S30  1  0.918928  0.345705  0.857342  1
  S  S31  1  0.121975  0.154295  0.642658  1
  S  S32  1  0.878625  0.335265  0.303415  1
  S  S33  1  0.517305  0.164735  0.196585  1
  S  S34  1  0.121375  0.664735  0.696585  1
  S  S35  1  0.482695  0.835265  0.803415  1
  S  S36  1  0.712369  0.496934  0.355289  1
  S  S37  1  0.564592  1.003066  0.144711  1
  S  S38  1  0.287631  0.503066  0.644711  1
  S  S39  1  0.435408  -0.003066  0.855289  1
