# generated using pymatgen
data_CdP2(HO)4
_symmetry_space_group_name_H-M   'P 1'
_cell_length_a   5.55278558
_cell_length_b   6.64482861
_cell_length_c   8.41353885
_cell_angle_alpha   100.74988051
_cell_angle_beta   109.26823419
_cell_angle_gamma   90.00000005
_symmetry_Int_Tables_number   1
_chemical_formula_structural   CdP2(HO)4
_chemical_formula_sum   'Cd2 P4 H8 O8'
_cell_volume   287.27000185
_cell_formula_units_Z   2
loop_
 _symmetry_equiv_pos_site_id
 _symmetry_equiv_pos_as_xyz
  1  'x, y, z'
loop_
 _atom_site_type_symbol
 _atom_site_label
 _atom_site_symmetry_multiplicity
 _atom_site_fract_x
 _atom_site_fract_y
 _atom_site_fract_z
 _atom_site_occupancy
  H  H0  1  0.103132  0.391954  0.586110  1
  H  H1  1  0.517022  0.108046  0.413890  1
  H  H2  1  0.896868  0.608046  0.413890  1
  H  H3  1  0.482978  0.891954  0.586110  1
  H  H4  1  0.049818  0.093404  0.660439  1
  H  H5  1  0.389379  0.406596  0.339561  1
  H  H6  1  0.950182  0.906596  0.339561  1
  H  H7  1  0.610621  0.593404  0.660439  1
  O  O8  1  0.688644  0.229171  0.221922  1
  O  O9  1  0.466722  0.270829  0.778078  1
  O  O10  1  0.793068  0.899267  0.863492  1
  O  O11  1  0.929576  0.600733  0.136508  1
  O  O12  1  0.206932  0.100733  0.136508  1
  O  O13  1  0.070424  0.399267  0.863492  1
  O  O14  1  0.533278  0.729171  0.221922  1
  O  O15  1  0.311356  0.770829  0.778078  1
  P  P16  1  0.180466  0.290461  0.727121  1
  P  P17  1  0.453345  0.209539  0.272879  1
  P  P18  1  0.819534  0.709539  0.272879  1
  P  P19  1  0.546655  0.790461  0.727121  1
  Cd  Cd20  1  0.828362  0.250000  0.000000  1
  Cd  Cd21  1  0.171638  0.750000  0.000000  1
