# generated using pymatgen
data_Li3Sn2(PO4)3
_symmetry_space_group_name_H-M   'P 1'
_cell_length_a   8.73757440
_cell_length_b   9.33823807
_cell_length_c   12.89482268
_cell_angle_alpha   90.00000000
_cell_angle_beta   89.51947146
_cell_angle_gamma   90.00000000
_symmetry_Int_Tables_number   1
_chemical_formula_structural   Li3Sn2(PO4)3
_chemical_formula_sum   'Li12 Sn8 P12 O48'
_cell_volume   1052.09735498
_cell_formula_units_Z   4
loop_
 _symmetry_equiv_pos_site_id
 _symmetry_equiv_pos_as_xyz
  1  'x, y, z'
loop_
 _atom_site_type_symbol
 _atom_site_label
 _atom_site_symmetry_multiplicity
 _atom_site_fract_x
 _atom_site_fract_y
 _atom_site_fract_z
 _atom_site_occupancy
  Li  Li0  1  0.077478  0.526502  0.641972  1
  Li  Li1  1  0.070947  0.082043  0.312132  1
  Li  Li2  1  0.204308  0.765890  0.803013  1
  Li  Li3  1  0.295692  0.265890  0.696987  1
  Li  Li4  1  0.429053  0.582043  0.187868  1
  Li  Li5  1  0.422522  0.026502  0.858028  1
  Li  Li6  1  0.577478  0.973498  0.141972  1
  Li  Li7  1  0.570947  0.417957  0.812132  1
  Li  Li8  1  0.704308  0.734110  0.303013  1
  Li  Li9  1  0.795692  0.234110  0.196987  1
  Li  Li10  1  0.929053  0.917957  0.687868  1
  Li  Li11  1  0.922522  0.473498  0.358028  1
  O  O12  1  0.031556  0.855799  0.549023  1
  O  O13  1  0.044494  0.615084  0.774608  1
  O  O14  1  0.049750  0.659048  0.403748  1
  O  O15  1  0.054689  0.911517  0.090355  1
  O  O16  1  0.096703  0.375589  0.426825  1
  O  O17  1  0.120709  0.965945  0.776751  1
  O  O18  1  0.125707  0.406026  0.065645  1
  O  O19  1  0.140856  0.236518  0.808286  1
  O  O20  1  0.156013  0.200330  0.191857  1
  O  O21  1  0.194691  0.207839  0.568109  1
  O  O22  1  0.232394  0.065065  0.942359  1
  O  O23  1  0.237418  0.457667  0.240961  1
  O  O24  1  0.262582  0.957667  0.259039  1
  O  O25  1  0.267606  0.565065  0.557641  1
  O  O26  1  0.305309  0.707839  0.931891  1
  O  O27  1  0.343987  0.700330  0.308143  1
  O  O28  1  0.359144  0.736518  0.691714  1
  O  O29  1  0.374293  0.906026  0.434355  1
  O  O30  1  0.379291  0.465945  0.723249  1
  O  O31  1  0.403297  0.875589  0.073175  1
  O  O32  1  0.445311  0.411517  0.409645  1
  O  O33  1  0.450250  0.159048  0.096252  1
  O  O34  1  0.455506  0.115084  0.725392  1
  O  O35  1  0.468444  0.355799  0.950977  1
  O  O36  1  0.531556  0.644201  0.049023  1
  O  O37  1  0.544494  0.884916  0.274608  1
  O  O38  1  0.549750  0.840952  0.903748  1
  O  O39  1  0.554689  0.588483  0.590355  1
  O  O40  1  0.596703  0.124411  0.926825  1
  O  O41  1  0.620709  0.534055  0.276751  1
  O  O42  1  0.625707  0.093974  0.565645  1
  O  O43  1  0.640856  0.263482  0.308286  1
  O  O44  1  0.656013  0.299670  0.691857  1
  O  O45  1  0.694691  0.292161  0.068109  1
  O  O46  1  0.732394  0.434935  0.442359  1
  O  O47  1  0.737418  0.042333  0.740961  1
  O  O48  1  0.762582  0.542333  0.759039  1
  O  O49  1  0.767606  0.934935  0.057641  1
  O  O50  1  0.805309  0.792161  0.431891  1
  O  O51  1  0.843987  0.799670  0.808143  1
  O  O52  1  0.859144  0.763482  0.191714  1
  O  O53  1  0.874293  0.593974  0.934355  1
  O  O54  1  0.879291  0.034055  0.223249  1
  O  O55  1  0.903297  0.624411  0.573175  1
  O  O56  1  0.945311  0.088483  0.909645  1
  O  O57  1  0.950250  0.340952  0.596252  1
  O  O58  1  0.955506  0.384916  0.225392  1
  O  O59  1  0.968444  0.144201  0.450977  1
  P  P60  1  0.052475  0.261782  0.512377  1
  P  P61  1  0.105513  0.089857  0.855653  1
  P  P62  1  0.117630  0.365124  0.180031  1
  P  P63  1  0.382370  0.865124  0.319969  1
  P  P64  1  0.394487  0.589857  0.644347  1
  P  P65  1  0.447525  0.761782  0.987623  1
  P  P66  1  0.552475  0.238218  0.012377  1
  P  P67  1  0.605513  0.410143  0.355653  1
  P  P68  1  0.617630  0.134876  0.680031  1
  P  P69  1  0.882370  0.634876  0.819969  1
  P  P70  1  0.894487  0.910143  0.144347  1
  P  P71  1  0.947525  0.738218  0.487623  1
  Sn  Sn72  1  0.220228  0.452629  0.910227  1
  Sn  Sn73  1  0.246711  0.035300  0.102632  1
  Sn  Sn74  1  0.253289  0.535300  0.397368  1
  Sn  Sn75  1  0.279772  0.952629  0.589773  1
  Sn  Sn76  1  0.720228  0.047371  0.410227  1
  Sn  Sn77  1  0.746711  0.464700  0.602632  1
  Sn  Sn78  1  0.753289  0.964700  0.897368  1
  Sn  Sn79  1  0.779772  0.547371  0.089773  1
