# generated using pymatgen
data_LiH4SeNO4
_symmetry_space_group_name_H-M   'P 1'
_cell_length_a   5.17815725
_cell_length_b   5.43094368
_cell_length_c   17.51864673
_cell_angle_alpha   90.00000000
_cell_angle_beta   90.00000000
_cell_angle_gamma   90.00000000
_symmetry_Int_Tables_number   1
_chemical_formula_structural   LiH4SeNO4
_chemical_formula_sum   'Li4 H16 Se4 N4 O16'
_cell_volume   492.66429541
_cell_formula_units_Z   4
loop_
 _symmetry_equiv_pos_site_id
 _symmetry_equiv_pos_as_xyz
  1  'x, y, z'
loop_
 _atom_site_type_symbol
 _atom_site_label
 _atom_site_symmetry_multiplicity
 _atom_site_fract_x
 _atom_site_fract_y
 _atom_site_fract_z
 _atom_site_occupancy
  H  H0  1  0.818330  0.720852  0.223325  1
  H  H1  1  0.318330  0.279148  0.776675  1
  H  H2  1  0.818330  0.779148  0.723325  1
  H  H3  1  0.318330  0.220852  0.276675  1
  H  H4  1  0.811985  0.512189  0.149663  1
  H  H5  1  0.311985  0.487811  0.850337  1
  H  H6  1  0.811985  0.987811  0.649663  1
  H  H7  1  0.311985  0.012189  0.350337  1
  H  H8  1  0.999653  0.768710  0.142497  1
  H  H9  1  0.174445  0.288683  0.360880  1
  H  H10  1  0.999653  0.731290  0.642497  1
  H  H11  1  0.499653  0.231290  0.857503  1
  H  H12  1  0.674445  0.788683  0.139120  1
  H  H13  1  0.174445  0.211317  0.860880  1
  H  H14  1  0.674445  0.711317  0.639120  1
  H  H15  1  0.499653  0.268710  0.357503  1
  Li  Li16  1  0.854596  0.186812  0.499020  1
  Li  Li17  1  0.354596  0.686812  0.000981  1
  Li  Li18  1  0.854596  0.313188  0.999019  1
  Li  Li19  1  0.354596  0.813188  0.500981  1
  N  N20  1  0.327793  0.197407  0.336100  1
  N  N21  1  0.827793  0.697407  0.163900  1
  N  N22  1  0.827793  0.802593  0.663900  1
  N  N23  1  0.327793  0.302593  0.836100  1
  O  O24  1  0.250887  0.195985  0.683764  1
  O  O25  1  0.302950  0.891039  0.094331  1
  O  O26  1  0.802950  0.108961  0.905669  1
  O  O27  1  0.302950  0.608961  0.594331  1
  O  O28  1  0.750887  0.804015  0.316236  1
  O  O29  1  0.802950  0.391039  0.405669  1
  O  O30  1  0.750887  0.695985  0.816236  1
  O  O31  1  0.250887  0.304015  0.183764  1
  O  O32  1  0.682942  0.233511  0.095939  1
  O  O33  1  0.224663  0.152641  0.528143  1
  O  O34  1  0.724663  0.847359  0.471857  1
  O  O35  1  0.224663  0.347359  0.028143  1
  O  O36  1  0.182942  0.733511  0.404061  1
  O  O37  1  0.682942  0.266489  0.595939  1
  O  O38  1  0.182942  0.766489  0.904061  1
  O  O39  1  0.724663  0.652641  0.971857  1
  Se  Se40  1  0.861756  0.695693  0.398367  1
  Se  Se41  1  0.361756  0.304307  0.601633  1
  Se  Se42  1  0.861756  0.804307  0.898367  1
  Se  Se43  1  0.361756  0.195693  0.101633  1
