# generated using pymatgen
data_Nb2Te3O11
_symmetry_space_group_name_H-M   'P 1'
_cell_length_a   4.03599357
_cell_length_b   7.98461311
_cell_length_c   16.04188060
_cell_angle_alpha   90.00000000
_cell_angle_beta   90.00000000
_cell_angle_gamma   90.00000000
_symmetry_Int_Tables_number   1
_chemical_formula_structural   Nb2Te3O11
_chemical_formula_sum   'Nb4 Te6 O22'
_cell_volume   516.96319255
_cell_formula_units_Z   2
loop_
 _symmetry_equiv_pos_site_id
 _symmetry_equiv_pos_as_xyz
  1  'x, y, z'
loop_
 _atom_site_type_symbol
 _atom_site_label
 _atom_site_symmetry_multiplicity
 _atom_site_fract_x
 _atom_site_fract_y
 _atom_site_fract_z
 _atom_site_occupancy
  O  O0  1  0.834463  0.135124  0.885607  1
  O  O1  1  0.834463  0.864875  0.114393  1
  O  O2  1  0.165538  0.635124  0.614393  1
  O  O3  1  0.165538  0.364875  0.385607  1
  O  O4  1  0.794391  0.918512  0.671862  1
  O  O5  1  0.794391  0.081488  0.328138  1
  O  O6  1  0.205607  0.418512  0.828138  1
  O  O7  1  0.205607  0.581488  0.171862  1
  O  O8  1  0.798129  0.354843  0.543161  1
  O  O9  1  0.798129  0.645157  0.456839  1
  O  O10  1  0.701004  0.350403  0.107613  1
  O  O11  1  0.701004  0.649596  0.892387  1
  O  O12  1  0.298997  0.850403  0.392387  1
  O  O13  1  0.298997  0.149596  0.607613  1
  O  O14  1  0.195943  0.249983  0.219478  1
  O  O15  1  0.195943  0.750018  0.780522  1
  O  O16  1  0.201870  0.854844  0.956839  1
  O  O17  1  0.804055  0.250018  0.719478  1
  O  O18  1  0.199671  0.500000  0.000000  1
  O  O19  1  0.800330  0.000000  0.500000  1
  O  O20  1  0.201870  0.145157  0.043162  1
  O  O21  1  0.804055  0.749982  0.280522  1
  Nb  Nb22  1  0.758136  0.128725  0.602054  1
  Nb  Nb23  1  0.758136  0.871274  0.397946  1
  Nb  Nb24  1  0.241862  0.628725  0.897946  1
  Nb  Nb25  1  0.241862  0.371274  0.102053  1
  Te  Te26  1  0.133818  0.500000  0.500000  1
  Te  Te27  1  0.866182  0.000000  0.000000  1
  Te  Te28  1  0.138810  0.192509  0.798053  1
  Te  Te29  1  0.138810  0.807492  0.201948  1
  Te  Te30  1  0.861191  0.692509  0.701947  1
  Te  Te31  1  0.861191  0.307491  0.298053  1
