# generated using pymatgen
data_BaHgS2
_symmetry_space_group_name_H-M   'P 1'
_cell_length_a   4.28905620
_cell_length_b   7.45999918
_cell_length_c   14.62630395
_cell_angle_alpha   90.00000000
_cell_angle_beta   90.00000000
_cell_angle_gamma   90.00000000
_symmetry_Int_Tables_number   1
_chemical_formula_structural   BaHgS2
_chemical_formula_sum   'Ba4 Hg4 S8'
_cell_volume   467.98842427
_cell_formula_units_Z   4
loop_
 _symmetry_equiv_pos_site_id
 _symmetry_equiv_pos_as_xyz
  1  'x, y, z'
loop_
 _atom_site_type_symbol
 _atom_site_label
 _atom_site_symmetry_multiplicity
 _atom_site_fract_x
 _atom_site_fract_y
 _atom_site_fract_z
 _atom_site_occupancy
  S  S0  1  0.500000  0.388582  0.468719  1
  S  S1  1  0.500000  0.888582  0.531281  1
  S  S2  1  0.000000  0.891821  0.778444  1
  S  S3  1  0.000000  0.391821  0.221556  1
  S  S4  1  0.500000  0.399074  0.736762  1
  S  S5  1  0.500000  0.728964  0.015757  1
  S  S6  1  0.500000  0.228964  0.984243  1
  S  S7  1  0.500000  0.899074  0.263238  1
  Ba  Ba8  1  0.000000  0.003376  0.101598  1
  Ba  Ba9  1  0.000000  0.679231  0.390414  1
  Ba  Ba10  1  0.000000  0.503376  0.898402  1
  Ba  Ba11  1  0.000000  0.179231  0.609586  1
  Hg  Hg12  1  0.500000  0.665451  0.647535  1
  Hg  Hg13  1  0.500000  0.165451  0.352465  1
  Hg  Hg14  1  0.500000  -0.000098  0.859224  1
  Hg  Hg15  1  0.500000  0.499902  0.140776  1
