# generated using pymatgen
data_Tb4BBr6
_symmetry_space_group_name_H-M   'P 1'
_cell_length_a   10.81461349
_cell_length_b   10.81461348
_cell_length_c   12.68004214
_cell_angle_alpha   84.66484167
_cell_angle_beta   84.66484167
_cell_angle_gamma   63.23996302
_symmetry_Int_Tables_number   1
_chemical_formula_structural   Tb4BBr6
_chemical_formula_sum   'Tb16 B4 Br24'
_cell_volume   1316.25791605
_cell_formula_units_Z   4
loop_
 _symmetry_equiv_pos_site_id
 _symmetry_equiv_pos_as_xyz
  1  'x, y, z'
loop_
 _atom_site_type_symbol
 _atom_site_label
 _atom_site_symmetry_multiplicity
 _atom_site_fract_x
 _atom_site_fract_y
 _atom_site_fract_z
 _atom_site_occupancy
  B  B0  1  0.339368  0.587647  0.605283  1
  B  B1  1  0.412353  0.660632  0.894717  1
  B  B2  1  0.660632  0.412353  0.394717  1
  B  B3  1  0.587647  0.339368  0.105283  1
  Br  Br4  1  0.855899  0.620564  0.253030  1
  Br  Br5  1  0.379436  0.144101  0.246970  1
  Br  Br6  1  0.144101  0.379436  0.746970  1
  Br  Br7  1  0.620564  0.855899  0.753030  1
  Br  Br8  1  0.841559  0.086273  0.603475  1
  Br  Br9  1  0.913727  0.158441  0.896525  1
  Br  Br10  1  0.158441  0.913727  0.396525  1
  Br  Br11  1  0.086273  0.841559  0.103475  1
  Br  Br12  1  0.947800  0.691856  0.533533  1
  Br  Br13  1  0.308144  0.052200  0.966467  1
  Br  Br14  1  0.052200  0.308144  0.466467  1
  Br  Br15  1  0.691856  0.947800  0.033533  1
  Br  Br16  1  0.016980  0.774727  0.818868  1
  Br  Br17  1  0.225273  0.983020  0.681132  1
  Br  Br18  1  0.983020  0.225273  0.181132  1
  Br  Br19  1  0.774727  0.016980  0.318868  1
  Br  Br20  1  0.530785  0.252769  0.814975  1
  Br  Br21  1  0.747231  0.469215  0.685025  1
  Br  Br22  1  0.469215  0.747231  0.185025  1
  Br  Br23  1  0.252769  0.530785  0.314975  1
  Br  Br24  1  0.193919  0.454936  0.025088  1
  Br  Br25  1  0.545064  0.806081  0.474912  1
  Br  Br26  1  0.806081  0.545064  0.974912  1
  Br  Br27  1  0.454936  0.193919  0.525088  1
  Tb  Tb28  1  0.289344  0.529549  0.808191  1
  Tb  Tb29  1  0.470451  0.710656  0.691809  1
  Tb  Tb30  1  0.710656  0.470451  0.191809  1
  Tb  Tb31  1  0.529549  0.289344  0.308191  1
  Tb  Tb32  1  0.216676  0.456273  0.545454  1
  Tb  Tb33  1  0.543727  0.783324  0.954546  1
  Tb  Tb34  1  0.783324  0.543727  0.454546  1
  Tb  Tb35  1  0.456273  0.216676  0.045454  1
  Tb  Tb36  1  0.418376  0.640917  0.411873  1
  Tb  Tb37  1  0.359083  0.581624  0.088127  1
  Tb  Tb38  1  0.581624  0.359083  0.588127  1
  Tb  Tb39  1  0.640917  0.418376  0.911873  1
  Tb  Tb40  1  0.883939  0.188516  0.395839  1
  Tb  Tb41  1  0.811484  0.116061  0.104161  1
  Tb  Tb42  1  0.116061  0.811484  0.604161  1
  Tb  Tb43  1  0.188516  0.883939  0.895839  1
