# generated using pymatgen
data_LiDy2Br5
_symmetry_space_group_name_H-M   'P 1'
_cell_length_a   6.80222303
_cell_length_b   7.78500344
_cell_length_c   8.84714888
_cell_angle_alpha   91.10191573
_cell_angle_beta   112.60837305
_cell_angle_gamma   90.00000000
_symmetry_Int_Tables_number   1
_chemical_formula_structural   LiDy2Br5
_chemical_formula_sum   'Li2 Dy4 Br10'
_cell_volume   432.40721960
_cell_formula_units_Z   2
loop_
 _symmetry_equiv_pos_site_id
 _symmetry_equiv_pos_as_xyz
  1  'x, y, z'
loop_
 _atom_site_type_symbol
 _atom_site_label
 _atom_site_symmetry_multiplicity
 _atom_site_fract_x
 _atom_site_fract_y
 _atom_site_fract_z
 _atom_site_occupancy
  Li  Li0  1  0.500000  0.500000  0.500000  1
  Li  Li1  1  0.000000  0.000000  0.500000  1
  Br  Br2  1  0.735334  0.162684  0.592420  1
  Br  Br3  1  0.142914  0.337316  0.407580  1
  Br  Br4  1  0.122674  0.750000  0.000000  1
  Br  Br5  1  0.877326  0.250000  1.000000  1
  Br  Br6  1  0.686411  0.898968  0.179353  1
  Br  Br7  1  0.507058  0.601032  0.820647  1
  Br  Br8  1  0.313589  0.101032  0.820647  1
  Br  Br9  1  0.492942  0.398968  0.179353  1
  Br  Br10  1  0.857086  0.662684  0.592420  1
  Br  Br11  1  0.264666  0.837316  0.407580  1
  Dy  Dy12  1  0.261519  0.067213  0.142798  1
  Dy  Dy13  1  0.118721  0.432787  0.857202  1
  Dy  Dy14  1  0.738481  0.932787  0.857202  1
  Dy  Dy15  1  0.881279  0.567213  0.142798  1
