# generated using pymatgen
data_KH3(CO2)2
_symmetry_space_group_name_H-M   'P 1'
_cell_length_a   7.53105403
_cell_length_b   7.62423749
_cell_length_c   17.94111249
_cell_angle_alpha   90.00000000
_cell_angle_beta   90.00000000
_cell_angle_gamma   90.00000000
_symmetry_Int_Tables_number   1
_chemical_formula_structural   KH3(CO2)2
_chemical_formula_sum   'K8 H24 C16 O32'
_cell_volume   1030.15256543
_cell_formula_units_Z   8
loop_
 _symmetry_equiv_pos_site_id
 _symmetry_equiv_pos_as_xyz
  1  'x, y, z'
loop_
 _atom_site_type_symbol
 _atom_site_label
 _atom_site_symmetry_multiplicity
 _atom_site_fract_x
 _atom_site_fract_y
 _atom_site_fract_z
 _atom_site_occupancy
  K  K0  1  0.215406  0.436422  0.963351  1
  K  K1  1  0.784594  0.563578  0.036649  1
  K  K2  1  0.215406  0.936422  0.536649  1
  K  K3  1  0.284594  0.936422  0.036649  1
  K  K4  1  0.715406  0.563578  0.536649  1
  K  K5  1  0.715406  0.063578  0.963351  1
  K  K6  1  0.284594  0.436422  0.463351  1
  K  K7  1  0.784594  0.063578  0.463351  1
  H  H8  1  0.741590  0.312162  0.800837  1
  H  H9  1  0.758410  0.812162  0.199163  1
  H  H10  1  0.449063  0.069471  0.727685  1
  H  H11  1  0.371969  0.751732  0.343343  1
  H  H12  1  0.758410  0.312162  0.300837  1
  H  H13  1  0.741590  0.812162  0.699163  1
  H  H14  1  0.449063  0.569471  0.772315  1
  H  H15  1  0.050937  0.569471  0.272315  1
  H  H16  1  0.871969  0.748268  0.343343  1
  H  H17  1  0.258410  0.187838  0.300837  1
  H  H18  1  0.550937  0.930529  0.272315  1
  H  H19  1  0.128031  0.251732  0.656657  1
  H  H20  1  0.949063  0.430529  0.727685  1
  H  H21  1  0.871969  0.248268  0.156657  1
  H  H22  1  0.050937  0.069471  0.227685  1
  H  H23  1  0.128031  0.751732  0.843343  1
  H  H24  1  0.628031  0.248268  0.656657  1
  H  H25  1  0.628031  0.748268  0.843343  1
  H  H26  1  0.371969  0.251732  0.156657  1
  H  H27  1  0.241590  0.687838  0.699163  1
  H  H28  1  0.550937  0.430529  0.227685  1
  H  H29  1  0.241590  0.187838  0.800837  1
  H  H30  1  0.258410  0.687838  0.199163  1
  H  H31  1  0.949063  0.930529  0.772315  1
  C  C32  1  0.353786  0.126496  0.831440  1
  C  C33  1  0.853786  0.373504  0.831440  1
  C  C34  1  0.524028  0.683784  0.877635  1
  C  C35  1  0.475972  0.816216  0.377635  1
  C  C36  1  0.975972  0.683784  0.377635  1
  C  C37  1  0.975972  0.183784  0.122365  1
  C  C38  1  0.146214  0.626496  0.168560  1
  C  C39  1  0.024028  0.816216  0.877635  1
  C  C40  1  0.024028  0.316216  0.622365  1
  C  C41  1  0.646214  0.373504  0.331440  1
  C  C42  1  0.146214  0.126496  0.331440  1
  C  C43  1  0.475972  0.316216  0.122365  1
  C  C44  1  0.853786  0.873504  0.668560  1
  C  C45  1  0.646214  0.873504  0.168560  1
  C  C46  1  0.524028  0.183784  0.622365  1
  C  C47  1  0.353786  0.626496  0.668560  1
  O  O48  1  0.515403  0.717161  0.945907  1
  O  O49  1  0.984597  0.217161  0.054093  1
  O  O50  1  0.143978  0.126258  0.400730  1
  O  O51  1  0.856022  0.373742  0.900730  1
  O  O52  1  0.418427  0.577946  0.843077  1
  O  O53  1  0.581573  0.922054  0.343077  1
  O  O54  1  0.856022  0.873742  0.599270  1
  O  O55  1  0.643978  0.873742  0.099270  1
  O  O56  1  0.021716  0.058088  0.290355  1
  O  O57  1  0.015403  0.782839  0.945907  1
  O  O58  1  0.484597  0.282839  0.054093  1
  O  O59  1  0.521716  0.441912  0.290355  1
  O  O60  1  0.478284  0.558088  0.709645  1
  O  O61  1  0.418427  0.077946  0.656923  1
  O  O62  1  0.478284  0.058088  0.790355  1
  O  O63  1  0.015403  0.282839  0.554093  1
  O  O64  1  0.143978  0.626258  0.099270  1
  O  O65  1  0.521716  0.941912  0.209645  1
  O  O66  1  0.918427  0.922054  0.843077  1
  O  O67  1  0.515403  0.217161  0.554093  1
  O  O68  1  0.581573  0.422054  0.156923  1
  O  O69  1  0.978284  0.441912  0.790355  1
  O  O70  1  0.918427  0.422054  0.656923  1
  O  O71  1  0.643978  0.373742  0.400730  1
  O  O72  1  0.081573  0.577946  0.343077  1
  O  O73  1  0.978284  0.941912  0.709645  1
  O  O74  1  0.484597  0.782839  0.445907  1
  O  O75  1  0.356022  0.126258  0.900730  1
  O  O76  1  0.081573  0.077946  0.156923  1
  O  O77  1  0.356022  0.626258  0.599270  1
  O  O78  1  0.021716  0.558088  0.209645  1
  O  O79  1  0.984597  0.717161  0.445907  1
