# generated using pymatgen
data_CoP2(H4O5)2
_symmetry_space_group_name_H-M   'P 1'
_cell_length_a   5.37220711
_cell_length_b   7.23180816
_cell_length_c   9.99430107
_cell_angle_alpha   90.00000000
_cell_angle_beta   90.00000000
_cell_angle_gamma   93.97489007
_symmetry_Int_Tables_number   1
_chemical_formula_structural   CoP2(H4O5)2
_chemical_formula_sum   'Co2 P4 H16 O20'
_cell_volume   387.35229156
_cell_formula_units_Z   2
loop_
 _symmetry_equiv_pos_site_id
 _symmetry_equiv_pos_as_xyz
  1  'x, y, z'
loop_
 _atom_site_type_symbol
 _atom_site_label
 _atom_site_symmetry_multiplicity
 _atom_site_fract_x
 _atom_site_fract_y
 _atom_site_fract_z
 _atom_site_occupancy
  H  H0  1  0.613622  0.487425  0.223300  1
  H  H1  1  0.886378  0.012575  0.723300  1
  H  H2  1  0.386378  0.512575  0.776700  1
  H  H3  1  0.113622  0.987425  0.276700  1
  H  H4  1  0.153050  0.594958  0.109787  1
  H  H5  1  0.346950  0.905042  0.609787  1
  H  H6  1  0.313714  0.734220  0.951520  1
  H  H7  1  0.186286  0.765780  0.451520  1
  H  H8  1  0.686286  0.265780  0.048480  1
  H  H9  1  0.813714  0.234220  0.548480  1
  H  H10  1  0.425693  0.838673  0.077316  1
  H  H11  1  0.074307  0.661327  0.577316  1
  H  H12  1  0.574307  0.161327  0.922684  1
  H  H13  1  0.925693  0.338673  0.422684  1
  H  H14  1  0.846950  0.405042  0.890213  1
  H  H15  1  0.653050  0.094958  0.390213  1
  O  O16  1  0.919897  0.530733  0.861047  1
  O  O17  1  0.419897  0.030733  0.638953  1
  O  O18  1  0.030000  0.877572  0.330060  1
  O  O19  1  0.470000  0.622428  0.830060  1
  O  O20  1  0.970000  0.122428  0.669940  1
  O  O21  1  0.530000  0.377572  0.169940  1
  O  O22  1  0.761691  0.293006  0.463447  1
  O  O23  1  0.738309  0.206994  0.963447  1
  O  O24  1  0.238309  0.706994  0.536553  1
  O  O25  1  0.261691  0.793006  0.036553  1
  O  O26  1  0.232073  0.367617  0.368133  1
  O  O27  1  0.267927  0.132383  0.868133  1
  O  O28  1  0.767927  0.632383  0.631867  1
  O  O29  1  0.732073  0.867617  0.131867  1
  O  O30  1  0.162667  0.139503  0.172711  1
  O  O31  1  0.337333  0.360497  0.672711  1
  O  O32  1  0.837333  0.860497  0.827289  1
  O  O33  1  0.662667  0.639503  0.327289  1
  O  O34  1  0.080103  0.469267  0.138953  1
  O  O35  1  0.580103  0.969267  0.361047  1
  P  P36  1  0.248747  0.335675  0.216840  1
  P  P37  1  0.251253  0.164325  0.716840  1
  P  P38  1  0.751253  0.664325  0.783160  1
  P  P39  1  0.748747  0.835675  0.283160  1
  Co  Co40  1  0.000000  0.000000  0.000000  1
  Co  Co41  1  0.500000  0.500000  0.500000  1
