# generated using pymatgen
data_La3B2N5
_symmetry_space_group_name_H-M   'P 1'
_cell_length_a   7.65741031
_cell_length_b   9.70057776
_cell_length_c   14.83516731
_cell_angle_alpha   90.00000000
_cell_angle_beta   90.00000000
_cell_angle_gamma   90.00099345
_symmetry_Int_Tables_number   1
_chemical_formula_structural   La3B2N5
_chemical_formula_sum   'La24 B16 N40'
_cell_volume   1101.97557466
_cell_formula_units_Z   8
loop_
 _symmetry_equiv_pos_site_id
 _symmetry_equiv_pos_as_xyz
  1  'x, y, z'
loop_
 _atom_site_type_symbol
 _atom_site_label
 _atom_site_symmetry_multiplicity
 _atom_site_fract_x
 _atom_site_fract_y
 _atom_site_fract_z
 _atom_site_occupancy
  B  B0  1  0.033766  0.440733  0.141984  1
  B  B1  1  0.466234  0.559267  0.641984  1
  B  B2  1  0.966234  0.559267  0.858016  1
  B  B3  1  0.533766  0.440733  0.358016  1
  B  B4  1  0.123781  0.769816  0.894418  1
  B  B5  1  0.376219  0.230184  0.394418  1
  B  B6  1  0.876219  0.230184  0.105582  1
  B  B7  1  0.623781  0.769816  0.605582  1
  B  B8  1  0.220413  0.440778  0.353935  1
  B  B9  1  0.279587  0.559222  0.853935  1
  B  B10  1  0.779587  0.559222  0.646065  1
  B  B11  1  0.720413  0.440778  0.146065  1
  B  B12  1  0.624258  0.094170  0.751946  1
  B  B13  1  0.875742  0.905830  0.251946  1
  B  B14  1  0.375742  0.905830  0.248054  1
  B  B15  1  0.124258  0.094170  0.748054  1
  N  N16  1  0.161101  0.526964  0.100514  1
  N  N17  1  0.338899  0.473036  0.600514  1
  N  N18  1  0.838899  0.473036  0.899486  1
  N  N19  1  0.661101  0.526964  0.399486  1
  N  N20  1  0.291476  0.712248  0.859553  1
  N  N21  1  0.208524  0.287752  0.359553  1
  N  N22  1  0.708524  0.287752  0.140447  1
  N  N23  1  0.791476  0.712248  0.640447  1
  N  N24  1  0.953925  0.712419  0.861714  1
  N  N25  1  0.546075  0.287581  0.361714  1
  N  N26  1  0.046075  0.287581  0.138286  1
  N  N27  1  0.453925  0.712419  0.638286  1
  N  N28  1  0.622269  0.944335  0.764464  1
  N  N29  1  0.877731  0.055665  0.264464  1
  N  N30  1  0.377731  0.055665  0.235536  1
  N  N31  1  0.122269  0.944335  0.735536  1
  N  N32  1  0.588393  0.527350  0.109015  1
  N  N33  1  0.911607  0.472650  0.609015  1
  N  N34  1  0.411607  0.472650  0.890985  1
  N  N35  1  0.088393  0.527350  0.390985  1
  N  N36  1  0.878043  0.838748  0.161986  1
  N  N37  1  0.621957  0.161252  0.661986  1
  N  N38  1  0.121957  0.161252  0.838014  1
  N  N39  1  0.378043  0.838748  0.338014  1
  N  N40  1  0.368088  0.156022  0.020734  1
  N  N41  1  0.131912  0.843978  0.520734  1
  N  N42  1  0.631912  0.843978  0.979266  1
  N  N43  1  0.868088  0.156022  0.479266  1
  N  N44  1  0.372015  0.815244  0.167332  1
  N  N45  1  0.127985  0.184756  0.667332  1
  N  N46  1  0.627985  0.184756  0.832668  1
  N  N47  1  0.872015  0.815244  0.332668  1
  N  N48  1  0.876293  0.137392  0.029123  1
  N  N49  1  0.623707  0.862608  0.529123  1
  N  N50  1  0.123707  0.862608  0.970877  1
  N  N51  1  0.376293  0.137392  0.470877  1
  N  N52  1  0.878446  0.506683  0.186126  1
  N  N53  1  0.621554  0.493317  0.686126  1
  N  N54  1  0.121554  0.493317  0.813874  1
  N  N55  1  0.378446  0.506683  0.313874  1
  La  La56  1  0.621743  0.702156  0.806212  1
  La  La57  1  0.878257  0.297844  0.306212  1
  La  La58  1  0.378257  0.297844  0.193788  1
  La  La59  1  0.121743  0.702156  0.693788  1
  La  La60  1  0.870366  0.989073  0.888367  1
  La  La61  1  0.629634  0.010927  0.388367  1
  La  La62  1  0.129634  0.010927  0.111633  1
  La  La63  1  0.370366  0.989073  0.611633  1
  La  La64  1  0.861926  0.682176  0.034232  1
  La  La65  1  0.638074  0.317824  0.534232  1
  La  La66  1  0.138074  0.317824  0.965768  1
  La  La67  1  0.361926  0.682176  0.465768  1
  La  La68  1  0.376583  0.995499  0.890310  1
  La  La69  1  0.123417  0.004501  0.390310  1
  La  La70  1  0.623417  0.004501  0.109690  1
  La  La71  1  0.876583  0.995499  0.609690  1
  La  La72  1  0.122758  0.673366  0.246924  1
  La  La73  1  0.377242  0.326634  0.746924  1
  La  La74  1  0.877242  0.326634  0.753076  1
  La  La75  1  0.622758  0.673366  0.253076  1
  La  La76  1  0.382656  0.674595  0.030472  1
  La  La77  1  0.117344  0.325405  0.530472  1
  La  La78  1  0.617344  0.325405  0.969528  1
  La  La79  1  0.882656  0.674595  0.469528  1
