# generated using pymatgen
data_CaPH5O6
_symmetry_space_group_name_H-M   'P 1'
_cell_length_a   5.89979574
_cell_length_b   6.24275752
_cell_length_c   8.22536240
_cell_angle_alpha   102.82949189
_cell_angle_beta   101.07249654
_cell_angle_gamma   116.03854928
_symmetry_Int_Tables_number   1
_chemical_formula_structural   CaPH5O6
_chemical_formula_sum   'Ca2 P2 H10 O12'
_cell_volume   250.49080237
_cell_formula_units_Z   2
loop_
 _symmetry_equiv_pos_site_id
 _symmetry_equiv_pos_as_xyz
  1  'x, y, z'
loop_
 _atom_site_type_symbol
 _atom_site_label
 _atom_site_symmetry_multiplicity
 _atom_site_fract_x
 _atom_site_fract_y
 _atom_site_fract_z
 _atom_site_occupancy
  H  H0  1  0.180166  0.326572  0.866386  1
  H  H1  1  0.813780  0.460185  0.133614  1
  H  H2  1  0.243033  0.239948  0.025533  1
  H  H3  1  0.717500  0.214415  0.974467  1
  H  H4  1  0.348328  0.736542  0.983522  1
  H  H5  1  0.864806  0.753020  0.016478  1
  H  H6  1  0.672640  0.037936  0.655067  1
  H  H7  1  0.517573  0.382869  0.344933  1
  H  H8  1  0.451557  0.664316  0.825827  1
  H  H9  1  0.125729  0.838488  0.174173  1
  O  O10  1  0.696534  0.598300  0.788015  1
  O  O11  1  0.712637  0.365194  0.503865  1
  O  O12  1  0.945941  0.824393  0.147484  1
  O  O13  1  0.298456  0.676908  0.852516  1
  O  O14  1  0.770177  0.281878  0.104197  1
  O  O15  1  0.165980  0.177682  0.895803  1
  O  O16  1  0.265829  0.199327  0.563156  1
  O  O17  1  0.202674  0.636171  0.436844  1
  O  O18  1  0.630178  0.153212  0.736631  1
  O  O19  1  0.393547  0.416582  0.263369  1
  O  O20  1  0.708772  0.861329  0.496135  1
  O  O21  1  0.408519  0.810285  0.211985  1
  P  P22  1  0.570275  0.336220  0.645072  1
  P  P23  1  0.425203  0.691148  0.354928  1
  Ca  Ca24  1  0.071839  0.822395  0.656910  1
  Ca  Ca25  1  0.914929  0.165485  0.343090  1
