# generated using pymatgen
data_Te6Cl2O11
_symmetry_space_group_name_H-M   'P 1'
_cell_length_a   6.89744429
_cell_length_b   6.89744426
_cell_length_c   15.65072685
_cell_angle_alpha   90.00000000
_cell_angle_beta   90.00000000
_cell_angle_gamma   119.50028821
_symmetry_Int_Tables_number   1
_chemical_formula_structural   Te6Cl2O11
_chemical_formula_sum   'Te12 Cl4 O22'
_cell_volume   648.04692303
_cell_formula_units_Z   2
loop_
 _symmetry_equiv_pos_site_id
 _symmetry_equiv_pos_as_xyz
  1  'x, y, z'
loop_
 _atom_site_type_symbol
 _atom_site_label
 _atom_site_symmetry_multiplicity
 _atom_site_fract_x
 _atom_site_fract_y
 _atom_site_fract_z
 _atom_site_occupancy
  Te  Te0  1  0.789324  0.477049  0.586223  1
  Te  Te1  1  0.077059  0.077059  0.641545  1
  Te  Te2  1  0.522951  0.210676  0.086223  1
  Te  Te3  1  0.922941  0.922941  0.141545  1
  Te  Te4  1  0.210676  0.522951  0.413777  1
  Te  Te5  1  0.077059  0.077059  0.858455  1
  Te  Te6  1  0.522951  0.210676  0.413777  1
  Te  Te7  1  0.477049  0.789324  0.586223  1
  Te  Te8  1  0.477049  0.789324  0.913777  1
  Te  Te9  1  0.922941  0.922941  0.358455  1
  Te  Te10  1  0.210676  0.522951  0.086223  1
  Te  Te11  1  0.789324  0.477049  0.913777  1
  Cl  Cl12  1  0.134699  0.456815  0.750000  1
  Cl  Cl13  1  0.543185  0.865301  0.250000  1
  Cl  Cl14  1  0.456815  0.134699  0.750000  1
  Cl  Cl15  1  0.865301  0.543185  0.250000  1
  O  O16  1  0.043716  0.801861  0.904514  1
  O  O17  1  0.816556  0.514710  0.036330  1
  O  O18  1  0.485290  0.183444  0.536330  1
  O  O19  1  0.422658  0.422658  0.115177  1
  O  O20  1  0.801861  0.043716  0.904514  1
  O  O21  1  0.816556  0.514710  0.463670  1
  O  O22  1  0.067979  0.067979  0.250000  1
  O  O23  1  0.198139  0.956284  0.404514  1
  O  O24  1  0.514710  0.816556  0.463670  1
  O  O25  1  0.577342  0.577342  0.615177  1
  O  O26  1  0.183444  0.485290  0.536330  1
  O  O27  1  0.956284  0.198139  0.095486  1
  O  O28  1  0.183444  0.485290  0.963670  1
  O  O29  1  0.932021  0.932021  0.750000  1
  O  O30  1  0.577342  0.577342  0.884823  1
  O  O31  1  0.198139  0.956284  0.095486  1
  O  O32  1  0.956284  0.198139  0.404514  1
  O  O33  1  0.422658  0.422658  0.384823  1
  O  O34  1  0.485290  0.183444  0.963670  1
  O  O35  1  0.043716  0.801861  0.595486  1
  O  O36  1  0.514710  0.816556  0.036330  1
  O  O37  1  0.801861  0.043716  0.595486  1
