# generated using pymatgen
data_Li4H4Rh
_symmetry_space_group_name_H-M   'P 1'
_cell_length_a   4.08399615
_cell_length_b   4.89547366
_cell_length_c   4.89547366
_cell_angle_alpha   79.98018388
_cell_angle_beta   65.34713037
_cell_angle_gamma   65.34713034
_symmetry_Int_Tables_number   1
_chemical_formula_structural   Li4H4Rh
_chemical_formula_sum   'Li4 H4 Rh1'
_cell_volume   80.84640468
_cell_formula_units_Z   1
loop_
 _symmetry_equiv_pos_site_id
 _symmetry_equiv_pos_as_xyz
  1  'x, y, z'
loop_
 _atom_site_type_symbol
 _atom_site_label
 _atom_site_symmetry_multiplicity
 _atom_site_fract_x
 _atom_site_fract_y
 _atom_site_fract_z
 _atom_site_occupancy
  H  H0  1  0.932526  0.802211  0.332738  1
  H  H1  1  0.067474  0.197789  0.667262  1
  H  H2  1  0.265264  0.667262  0.802211  1
  H  H3  1  0.734736  0.332738  0.197789  1
  Li  Li4  1  0.613002  0.168955  0.605041  1
  Li  Li5  1  0.386998  0.831045  0.394959  1
  Li  Li6  1  0.218043  0.394959  0.168955  1
  Li  Li7  1  0.781957  0.605041  0.831045  1
  Rh  Rh8  1  0.000000  0.000000  0.000000  1
