# generated using pymatgen
data_EuBO3
_symmetry_space_group_name_H-M   'P 1'
_cell_length_a   6.37996565
_cell_length_b   6.59220835
_cell_length_c   6.58313362
_cell_angle_alpha   93.22435667
_cell_angle_beta   106.13731467
_cell_angle_gamma   106.80095991
_symmetry_Int_Tables_number   1
_chemical_formula_structural   EuBO3
_chemical_formula_sum   'Eu4 B4 O12'
_cell_volume   251.78773519
_cell_formula_units_Z   4
loop_
 _symmetry_equiv_pos_site_id
 _symmetry_equiv_pos_as_xyz
  1  'x, y, z'
loop_
 _atom_site_type_symbol
 _atom_site_label
 _atom_site_symmetry_multiplicity
 _atom_site_fract_x
 _atom_site_fract_y
 _atom_site_fract_z
 _atom_site_occupancy
  B  B0  1  0.511600  0.733764  0.723302  1
  B  B1  1  0.488400  0.266236  0.276698  1
  B  B2  1  0.020042  0.779236  0.241378  1
  B  B3  1  0.979958  0.220764  0.758622  1
  O  O4  1  0.619096  0.162167  0.202760  1
  O  O5  1  0.380904  0.837833  0.797240  1
  O  O6  1  0.963257  0.963278  0.226391  1
  O  O7  1  0.036743  0.036722  0.773609  1
  O  O8  1  0.380849  0.383955  0.136163  1
  O  O9  1  0.619151  0.616045  0.863837  1
  O  O10  1  0.083742  0.364742  0.640609  1
  O  O11  1  0.916258  0.635258  0.359391  1
  O  O12  1  0.446154  0.252636  0.467336  1
  O  O13  1  0.553846  0.747364  0.532664  1
  O  O14  1  0.851941  0.286449  0.871214  1
  O  O15  1  0.148059  0.713551  0.128786  1
  Eu  Eu16  1  0.554287  0.776272  0.187320  1
  Eu  Eu17  1  0.445713  0.223728  0.812680  1
  Eu  Eu18  1  0.960675  0.669888  0.735963  1
  Eu  Eu19  1  0.039325  0.330112  0.264037  1
