# generated using pymatgen
data_MnSeO4
_symmetry_space_group_name_H-M   'P 1'
_cell_length_a   5.10183634
_cell_length_b   7.14750471
_cell_length_c   9.38747116
_cell_angle_alpha   90.00000000
_cell_angle_beta   90.00000000
_cell_angle_gamma   90.00000000
_symmetry_Int_Tables_number   1
_chemical_formula_structural   MnSeO4
_chemical_formula_sum   'Mn4 Se4 O16'
_cell_volume   342.31788398
_cell_formula_units_Z   4
loop_
 _symmetry_equiv_pos_site_id
 _symmetry_equiv_pos_as_xyz
  1  'x, y, z'
loop_
 _atom_site_type_symbol
 _atom_site_label
 _atom_site_symmetry_multiplicity
 _atom_site_fract_x
 _atom_site_fract_y
 _atom_site_fract_z
 _atom_site_occupancy
  O  O0  1  0.168912  0.445682  0.627047  1
  O  O1  1  0.668910  0.554319  0.872953  1
  O  O2  1  0.831090  0.945681  0.372952  1
  O  O3  1  0.331089  0.054319  0.127047  1
  O  O4  1  0.831090  0.554319  0.372952  1
  O  O5  1  0.331089  0.445682  0.127047  1
  O  O6  1  0.168912  0.054319  0.627047  1
  O  O7  1  0.668910  0.945681  0.872953  1
  O  O8  1  0.211132  0.750001  0.877935  1
  O  O9  1  0.711132  0.250000  0.622064  1
  O  O10  1  0.788868  0.250000  0.122064  1
  O  O11  1  0.288869  0.750001  0.377936  1
  O  O12  1  0.954048  0.750001  0.138128  1
  O  O13  1  0.045952  0.250000  0.861871  1
  O  O14  1  0.454047  0.250000  0.361871  1
  O  O15  1  0.545952  0.750001  0.638128  1
  Mn  Mn16  1  0.000000  0.000000  0.000000  1
  Mn  Mn17  1  0.500001  0.000000  0.500000  1
  Mn  Mn18  1  0.000000  0.500000  0.000000  1
  Mn  Mn19  1  0.500001  0.500000  0.500000  1
  Se  Se20  1  0.523399  0.750001  0.819153  1
  Se  Se21  1  0.023400  0.250000  0.680847  1
  Se  Se22  1  0.476601  0.250000  0.180847  1
  Se  Se23  1  0.976601  0.750001  0.319152  1
