# generated using pymatgen
data_U2Mn3Si5
_symmetry_space_group_name_H-M   'P 1'
_cell_length_a   5.39938491
_cell_length_b   10.42736751
_cell_length_c   10.42736751
_cell_angle_alpha   90.00000000
_cell_angle_beta   90.00000000
_cell_angle_gamma   90.00000000
_symmetry_Int_Tables_number   1
_chemical_formula_structural   U2Mn3Si5
_chemical_formula_sum   'U8 Mn12 Si20'
_cell_volume   587.07508449
_cell_formula_units_Z   4
loop_
 _symmetry_equiv_pos_site_id
 _symmetry_equiv_pos_as_xyz
  1  'x, y, z'
loop_
 _atom_site_type_symbol
 _atom_site_label
 _atom_site_symmetry_multiplicity
 _atom_site_fract_x
 _atom_site_fract_y
 _atom_site_fract_z
 _atom_site_occupancy
  Si  Si0  1  0.500000  0.019480  0.317116  1
  Si  Si1  1  0.500000  0.980520  0.682884  1
  Si  Si2  1  0.500000  0.317116  0.980520  1
  Si  Si3  1  0.500000  0.682884  0.019480  1
  Si  Si4  1  0.000000  0.817116  0.519480  1
  Si  Si5  1  0.000000  0.480520  0.817116  1
  Si  Si6  1  0.000000  0.519480  0.182884  1
  Si  Si7  1  0.000000  0.182884  0.480520  1
  Si  Si8  1  0.750493  0.500000  0.500000  1
  Si  Si9  1  0.749507  0.000000  0.000000  1
  Si  Si10  1  0.249507  0.500000  0.500000  1
  Si  Si11  1  0.250493  0.000000  0.000000  1
  Si  Si12  1  0.750000  0.180520  0.680520  1
  Si  Si13  1  0.750000  0.319480  0.180520  1
  Si  Si14  1  0.750000  0.680520  0.819480  1
  Si  Si15  1  0.250000  0.180520  0.680520  1
  Si  Si16  1  0.250000  0.819480  0.319480  1
  Si  Si17  1  0.250000  0.680520  0.819480  1
  Si  Si18  1  0.250000  0.319480  0.180520  1
  Si  Si19  1  0.750000  0.819480  0.319480  1
  Mn  Mn20  1  0.000000  0.639792  0.374004  1
  Mn  Mn21  1  0.750000  0.000000  0.500000  1
  Mn  Mn22  1  0.250000  0.500000  0.000000  1
  Mn  Mn23  1  0.250000  0.000000  0.500000  1
  Mn  Mn24  1  0.500000  0.139792  0.125996  1
  Mn  Mn25  1  0.500000  0.860208  0.874004  1
  Mn  Mn26  1  0.500000  0.125996  0.860208  1
  Mn  Mn27  1  0.500000  0.874004  0.139792  1
  Mn  Mn28  1  0.000000  0.625996  0.639792  1
  Mn  Mn29  1  0.000000  0.360208  0.625996  1
  Mn  Mn30  1  0.000000  0.374004  0.360208  1
  Mn  Mn31  1  0.750000  0.500000  0.000000  1
  U  U32  1  0.500000  0.261577  0.432871  1
  U  U33  1  0.500000  0.738423  0.567129  1
  U  U34  1  0.500000  0.432871  0.738423  1
  U  U35  1  0.500000  0.567129  0.261577  1
  U  U36  1  0.000000  0.932871  0.761577  1
  U  U37  1  0.000000  0.238423  0.932871  1
  U  U38  1  0.000000  0.761577  0.067129  1
  U  U39  1  0.000000  0.067129  0.238423  1
