# generated using pymatgen
data_VBP2H5NO9
_symmetry_space_group_name_H-M   'P 1'
_cell_length_a   8.42314546
_cell_length_b   9.58216117
_cell_length_c   9.87863075
_cell_angle_alpha   103.60706353
_cell_angle_beta   90.00000000
_cell_angle_gamma   90.00000000
_symmetry_Int_Tables_number   1
_chemical_formula_structural   VBP2H5NO9
_chemical_formula_sum   'V4 B4 P8 H20 N4 O36'
_cell_volume   774.94415604
_cell_formula_units_Z   4
loop_
 _symmetry_equiv_pos_site_id
 _symmetry_equiv_pos_as_xyz
  1  'x, y, z'
loop_
 _atom_site_type_symbol
 _atom_site_label
 _atom_site_symmetry_multiplicity
 _atom_site_fract_x
 _atom_site_fract_y
 _atom_site_fract_z
 _atom_site_occupancy
  H  H0  1  0.867196  0.276966  0.105787  1
  H  H1  1  0.367196  0.723035  0.394213  1
  H  H2  1  0.132803  0.723035  0.894212  1
  H  H3  1  0.632804  0.276966  0.605788  1
  H  H4  1  0.045109  0.861401  0.847476  1
  H  H5  1  0.545108  0.138599  0.652524  1
  H  H6  1  0.954891  0.138599  0.152523  1
  H  H7  1  0.454892  0.861401  0.347477  1
  H  H8  1  0.004252  0.829164  0.006937  1
  H  H9  1  0.504253  0.170836  0.493063  1
  H  H10  1  0.995748  0.170836  0.993063  1
  H  H11  1  0.586769  0.392116  0.001792  1
  H  H12  1  0.185012  0.891966  0.973627  1
  H  H13  1  0.685013  0.108034  0.526373  1
  H  H14  1  0.814988  0.108034  0.026373  1
  H  H15  1  0.314987  0.891966  0.473628  1
  H  H16  1  0.413231  0.607884  0.998208  1
  H  H17  1  0.086769  0.607884  0.498208  1
  H  H18  1  0.913231  0.392116  0.501793  1
  H  H19  1  0.495747  0.829164  0.506936  1
  B  B20  1  0.062823  0.665820  0.307986  1
  B  B21  1  0.937177  0.334181  0.692014  1
  B  B22  1  0.437178  0.665819  0.807986  1
  B  B23  1  0.562822  0.334181  0.192015  1
  N  N24  1  0.408352  0.826144  0.431833  1
  N  N25  1  0.091647  0.826143  0.931833  1
  N  N26  1  0.591648  0.173857  0.568167  1
  N  N27  1  0.908353  0.173856  0.068166  1
  O  O28  1  0.080954  0.808882  0.280006  1
  O  O29  1  0.220496  0.364699  0.067083  1
  O  O30  1  0.279503  0.364699  0.567083  1
  O  O31  1  0.779504  0.635301  0.932917  1
  O  O32  1  0.048528  0.688728  0.463090  1
  O  O33  1  0.548529  0.311273  0.036910  1
  O  O34  1  0.951472  0.311272  0.536910  1
  O  O35  1  0.451471  0.688728  0.963090  1
  O  O36  1  0.517765  0.930191  0.198308  1
  O  O37  1  0.017765  0.069809  0.301692  1
  O  O38  1  0.482235  0.069809  0.801693  1
  O  O39  1  0.982235  0.930191  0.698307  1
  O  O40  1  0.419045  0.808882  0.780005  1
  O  O41  1  0.919046  0.191119  0.719995  1
  O  O42  1  0.580955  0.191119  0.219994  1
  O  O43  1  0.720497  0.635302  0.432917  1
  O  O44  1  0.575708  0.586970  0.735460  1
  O  O45  1  0.075708  0.413030  0.764540  1
  O  O46  1  0.424292  0.413030  0.264540  1
  O  O47  1  0.924292  0.586971  0.235460  1
  O  O48  1  0.788265  0.411714  0.737027  1
  O  O49  1  0.288265  0.588285  0.762974  1
  O  O50  1  0.647550  0.885578  0.650847  1
  O  O51  1  0.711735  0.411714  0.237027  1
  O  O52  1  0.864153  0.650674  0.689705  1
  O  O53  1  0.635846  0.650674  0.189704  1
  O  O54  1  0.135847  0.349325  0.310296  1
  O  O55  1  0.364154  0.349325  0.810295  1
  O  O56  1  0.663659  0.916244  0.918271  1
  O  O57  1  0.163660  0.083756  0.581729  1
  O  O58  1  0.336341  0.083756  0.081729  1
  O  O59  1  0.836340  0.916244  0.418270  1
  O  O60  1  0.852449  0.885578  0.150846  1
  O  O61  1  0.352450  0.114422  0.349154  1
  O  O62  1  0.147551  0.114422  0.849153  1
  O  O63  1  0.211735  0.588286  0.262974  1
  P  P64  1  0.744977  0.578618  0.275904  1
  P  P65  1  0.244977  0.421381  0.224097  1
  P  P66  1  0.255023  0.421381  0.724096  1
  P  P67  1  0.755023  0.578619  0.775904  1
  P  P68  1  0.941141  0.921898  0.292106  1
  P  P69  1  0.441140  0.078103  0.207894  1
  P  P70  1  0.558860  0.921897  0.792106  1
  P  P71  1  0.058859  0.078103  0.707893  1
  V  V72  1  0.654039  0.789365  0.062769  1
  V  V73  1  0.154039  0.210635  0.437231  1
  V  V74  1  0.345961  0.210635  0.937230  1
  V  V75  1  0.845961  0.789365  0.562769  1
