# generated using pymatgen
data_Bi4B2O9
_symmetry_space_group_name_H-M   'P 1'
_cell_length_a   6.65770561
_cell_length_b   11.21584173
_cell_length_c   11.27562359
_cell_angle_alpha   90.30647870
_cell_angle_beta   90.00000000
_cell_angle_gamma   90.00000000
_symmetry_Int_Tables_number   1
_chemical_formula_structural   Bi4B2O9
_chemical_formula_sum   'Bi16 B8 O36'
_cell_volume   841.95875288
_cell_formula_units_Z   4
loop_
 _symmetry_equiv_pos_site_id
 _symmetry_equiv_pos_as_xyz
  1  'x, y, z'
loop_
 _atom_site_type_symbol
 _atom_site_label
 _atom_site_symmetry_multiplicity
 _atom_site_fract_x
 _atom_site_fract_y
 _atom_site_fract_z
 _atom_site_occupancy
  B  B0  1  0.245243  0.755416  0.223951  1
  B  B1  1  0.745243  0.744584  0.776049  1
  B  B2  1  0.754757  0.244584  0.776049  1
  B  B3  1  0.254757  0.255416  0.223951  1
  B  B4  1  0.263618  0.766141  0.751661  1
  B  B5  1  0.763618  0.733859  0.248339  1
  B  B6  1  0.736382  0.233859  0.248339  1
  B  B7  1  0.236382  0.266141  0.751661  1
  O  O8  1  0.186070  0.659167  0.710876  1
  O  O9  1  0.686070  0.840833  0.289124  1
  O  O10  1  0.813930  0.340833  0.289124  1
  O  O11  1  0.313930  0.159167  0.710876  1
  O  O12  1  0.178191  0.779537  0.338366  1
  O  O13  1  0.678191  0.720463  0.661634  1
  O  O14  1  0.261857  0.852058  0.146348  1
  O  O15  1  0.821809  0.220463  0.661634  1
  O  O16  1  0.097374  0.108936  0.498734  1
  O  O17  1  0.597374  0.391064  0.501266  1
  O  O18  1  0.902626  0.891064  0.501266  1
  O  O19  1  0.402626  0.608936  0.498734  1
  O  O20  1  0.101119  0.494549  0.385526  1
  O  O21  1  0.601119  0.005451  0.614474  1
  O  O22  1  0.898881  0.505451  0.614474  1
  O  O23  1  0.398881  0.994549  0.385526  1
  O  O24  1  0.164916  0.282911  0.865570  1
  O  O25  1  0.664916  0.217089  0.134430  1
  O  O26  1  0.835084  0.717089  0.134430  1
  O  O27  1  0.335084  0.782911  0.865570  1
  O  O28  1  0.158593  0.013318  0.920884  1
  O  O29  1  0.658593  0.486682  0.079116  1
  O  O30  1  0.841407  0.986682  0.079116  1
  O  O31  1  0.341407  0.513318  0.920884  1
  O  O32  1  0.209699  0.140468  0.187249  1
  O  O33  1  0.709699  0.359532  0.812751  1
  O  O34  1  0.790301  0.859532  0.812751  1
  O  O35  1  0.290301  0.640468  0.187249  1
  O  O36  1  0.228890  0.366121  0.677443  1
  O  O37  1  0.728890  0.133879  0.322557  1
  O  O38  1  0.771110  0.633879  0.322557  1
  O  O39  1  0.271110  0.866121  0.677443  1
  O  O40  1  0.238143  0.352058  0.146348  1
  O  O41  1  0.738143  0.147942  0.853652  1
  O  O42  1  0.761857  0.647942  0.853652  1
  O  O43  1  0.321809  0.279537  0.338366  1
  Bi  Bi44  1  0.062466  0.980170  0.344169  1
  Bi  Bi45  1  0.562466  0.519830  0.655831  1
  Bi  Bi46  1  0.937534  0.019830  0.655831  1
  Bi  Bi47  1  0.437534  0.480170  0.344169  1
  Bi  Bi48  1  0.075951  0.659116  0.502819  1
  Bi  Bi49  1  0.575951  0.840884  0.497181  1
  Bi  Bi50  1  0.924049  0.340884  0.497181  1
  Bi  Bi51  1  0.424049  0.159116  0.502819  1
  Bi  Bi52  1  0.451933  0.990262  0.803975  1
  Bi  Bi53  1  0.951933  0.509738  0.196025  1
  Bi  Bi54  1  0.548067  0.009738  0.196025  1
  Bi  Bi55  1  0.048067  0.490262  0.803975  1
  Bi  Bi56  1  0.017566  0.847297  0.991534  1
  Bi  Bi57  1  0.517566  0.652703  0.008466  1
  Bi  Bi58  1  0.982434  0.152703  0.008466  1
  Bi  Bi59  1  0.482434  0.347297  0.991534  1
