# generated using pymatgen
data_Dy3(AgSn)4
_symmetry_space_group_name_H-M   'P 1'
_cell_length_a   4.57989502
_cell_length_b   7.40597590
_cell_length_c   8.82226054
_cell_angle_alpha   114.82212661
_cell_angle_beta   105.04423520
_cell_angle_gamma   90.00000001
_symmetry_Int_Tables_number   1
_chemical_formula_structural   Dy3(AgSn)4
_chemical_formula_sum   'Dy3 Ag4 Sn4'
_cell_volume   260.25023953
_cell_formula_units_Z   1
loop_
 _symmetry_equiv_pos_site_id
 _symmetry_equiv_pos_as_xyz
  1  'x, y, z'
loop_
 _atom_site_type_symbol
 _atom_site_label
 _atom_site_symmetry_multiplicity
 _atom_site_fract_x
 _atom_site_fract_y
 _atom_site_fract_z
 _atom_site_occupancy
  Ag  Ag0  1  0.328659  0.026320  0.657318  1
  Ag  Ag1  1  0.671341  0.973680  0.342682  1
  Ag  Ag2  1  0.328734  0.631210  0.657467  1
  Ag  Ag3  1  0.671266  0.368790  0.342533  1
  Sn  Sn4  1  0.215773  0.215848  0.431545  1
  Sn  Sn5  1  0.500025  0.696292  0.000050  1
  Sn  Sn6  1  0.499975  0.303708  0.999950  1
  Sn  Sn7  1  0.784227  0.784152  0.568455  1
  Dy  Dy8  1  0.000000  0.000000  0.000000  1
  Dy  Dy9  1  0.872528  0.372537  0.745056  1
  Dy  Dy10  1  0.127472  0.627463  0.254944  1
