# generated using pymatgen
data_Rb2Zn3O4
_symmetry_space_group_name_H-M   'P 1'
_cell_length_a   5.87011782
_cell_length_b   6.60865383
_cell_length_c   8.41706762
_cell_angle_alpha   113.11479343
_cell_angle_beta   101.03840801
_cell_angle_gamma   90.00000001
_symmetry_Int_Tables_number   1
_chemical_formula_structural   Rb2Zn3O4
_chemical_formula_sum   'Rb4 Zn6 O8'
_cell_volume   293.73482512
_cell_formula_units_Z   2
loop_
 _symmetry_equiv_pos_site_id
 _symmetry_equiv_pos_as_xyz
  1  'x, y, z'
loop_
 _atom_site_type_symbol
 _atom_site_label
 _atom_site_symmetry_multiplicity
 _atom_site_fract_x
 _atom_site_fract_y
 _atom_site_fract_z
 _atom_site_occupancy
  O  O0  1  0.792447  0.621399  0.479956  1
  O  O1  1  0.707553  0.141443  0.520044  1
  O  O2  1  0.207553  0.378601  0.520044  1
  O  O3  1  0.292447  0.858557  0.479956  1
  O  O4  1  0.542896  0.721382  0.127585  1
  O  O5  1  0.957104  0.593797  0.872415  1
  O  O6  1  0.042896  0.406203  0.127585  1
  O  O7  1  0.457104  0.278618  0.872415  1
  Zn  Zn8  1  0.912373  0.420873  0.611545  1
  Zn  Zn9  1  0.587627  0.809328  0.388455  1
  Zn  Zn10  1  0.750000  0.481803  0.000000  1
  Zn  Zn11  1  0.250000  0.518197  0.000000  1
  Zn  Zn12  1  0.087627  0.579127  0.388455  1
  Zn  Zn13  1  0.412373  0.190672  0.611545  1
  Rb  Rb14  1  0.004340  0.017230  0.765720  1
  Rb  Rb15  1  0.495660  0.251509  0.234280  1
  Rb  Rb16  1  0.995660  0.982770  0.234280  1
  Rb  Rb17  1  0.504340  0.748491  0.765720  1
