# generated using pymatgen
data_Cs3CoBr5
_symmetry_space_group_name_H-M   'P 1'
_cell_length_a   9.92731880
_cell_length_b   9.92731879
_cell_length_c   10.38093310
_cell_angle_alpha   118.56474714
_cell_angle_beta   118.56474715
_cell_angle_gamma   90.00000001
_symmetry_Int_Tables_number   1
_chemical_formula_structural   Cs3CoBr5
_chemical_formula_sum   'Cs6 Co2 Br10'
_cell_volume   753.69756233
_cell_formula_units_Z   2
loop_
 _symmetry_equiv_pos_site_id
 _symmetry_equiv_pos_as_xyz
  1  'x, y, z'
loop_
 _atom_site_type_symbol
 _atom_site_label
 _atom_site_symmetry_multiplicity
 _atom_site_fract_x
 _atom_site_fract_y
 _atom_site_fract_z
 _atom_site_occupancy
  Co  Co0  1  0.250000  0.750000  0.500000  1
  Co  Co1  1  0.750000  0.250000  0.500000  1
  Br  Br2  1  0.980769  0.480769  0.687336  1
  Br  Br3  1  0.019231  0.519231  0.312664  1
  Br  Br4  1  0.706567  0.206567  0.687336  1
  Br  Br5  1  0.500000  0.500000  0.000000  1
  Br  Br6  1  0.206567  0.980769  0.687336  1
  Br  Br7  1  0.480769  0.706567  0.687336  1
  Br  Br8  1  0.000000  0.000000  0.000000  1
  Br  Br9  1  0.293433  0.793433  0.312664  1
  Br  Br10  1  0.519231  0.293433  0.312664  1
  Br  Br11  1  0.793433  0.019231  0.312664  1
  Cs  Cs12  1  0.250000  0.250000  0.500000  1
  Cs  Cs13  1  0.333342  0.833342  0.000000  1
  Cs  Cs14  1  0.166658  0.333342  0.000000  1
  Cs  Cs15  1  0.833342  0.666658  0.000000  1
  Cs  Cs16  1  0.666658  0.166658  0.000000  1
  Cs  Cs17  1  0.750000  0.750000  0.500000  1
