# generated using pymatgen
data_Nb(PS4)2
_symmetry_space_group_name_H-M   'P 1'
_cell_length_a   7.71761279
_cell_length_b   12.27950210
_cell_length_c   12.27950210
_cell_angle_alpha   90.00000000
_cell_angle_beta   90.00000000
_cell_angle_gamma   90.00000000
_symmetry_Int_Tables_number   1
_chemical_formula_structural   Nb(PS4)2
_chemical_formula_sum   'Nb4 P8 S32'
_cell_volume   1163.70928822
_cell_formula_units_Z   4
loop_
 _symmetry_equiv_pos_site_id
 _symmetry_equiv_pos_as_xyz
  1  'x, y, z'
loop_
 _atom_site_type_symbol
 _atom_site_label
 _atom_site_symmetry_multiplicity
 _atom_site_fract_x
 _atom_site_fract_y
 _atom_site_fract_z
 _atom_site_occupancy
  P  P0  1  0.075827  0.073966  0.174200  1
  P  P1  1  0.575827  0.573966  0.325800  1
  P  P2  1  0.575827  0.426034  0.674200  1
  P  P3  1  0.424173  0.325800  0.426034  1
  P  P4  1  0.424173  0.674200  0.573966  1
  P  P5  1  0.075827  0.926034  0.825800  1
  P  P6  1  0.924173  0.825800  0.073966  1
  P  P7  1  0.924173  0.174200  0.926034  1
  S  S8  1  0.483116  0.057813  0.558560  1
  S  S9  1  0.483116  0.942187  0.441440  1
  S  S10  1  0.516884  0.441440  0.057813  1
  S  S11  1  0.516884  0.558560  0.942187  1
  S  S12  1  0.010260  0.181281  0.288639  1
  S  S13  1  0.989740  0.288639  0.818719  1
  S  S14  1  0.989740  0.711361  0.181281  1
  S  S15  1  0.010260  0.818719  0.711361  1
  S  S16  1  0.489740  0.788639  0.681281  1
  S  S17  1  0.489740  0.211361  0.318719  1
  S  S18  1  0.510260  0.318719  0.788639  1
  S  S19  1  0.510260  0.681281  0.211361  1
  S  S20  1  0.150158  0.146881  0.022607  1
  S  S21  1  0.849842  0.022607  0.853119  1
  S  S22  1  0.849842  0.977393  0.146881  1
  S  S23  1  0.150158  0.853119  0.977393  1
  S  S24  1  0.349842  0.522607  0.646881  1
  S  S25  1  0.349842  0.477393  0.353119  1
  S  S26  1  0.650158  0.353119  0.522607  1
  S  S27  1  0.650158  0.646881  0.477393  1
  S  S28  1  0.712357  0.775789  0.992591  1
  S  S29  1  0.016884  0.941440  0.442187  1
  S  S30  1  0.983116  0.442187  0.058560  1
  S  S31  1  0.983116  0.557813  0.941440  1
  S  S32  1  0.016884  0.058560  0.557813  1
  S  S33  1  0.287643  0.007409  0.775789  1
  S  S34  1  0.287643  0.992591  0.224211  1
  S  S35  1  0.712357  0.224211  0.007409  1
  S  S36  1  0.212357  0.275789  0.507409  1
  S  S37  1  0.787643  0.507409  0.724211  1
  S  S38  1  0.787643  0.492591  0.275789  1
  S  S39  1  0.212357  0.724211  0.492591  1
  Nb  Nb40  1  0.250000  0.916400  0.583600  1
  Nb  Nb41  1  0.750000  0.583600  0.083600  1
  Nb  Nb42  1  0.750000  0.416400  0.916400  1
  Nb  Nb43  1  0.250000  0.083600  0.416400  1
