# generated using pymatgen
data_Na4Ga3Si3ClO12
_symmetry_space_group_name_H-M   'P 1'
_cell_length_a   9.05474151
_cell_length_b   9.05474151
_cell_length_c   9.05474151
_cell_angle_alpha   90.00000000
_cell_angle_beta   90.00000000
_cell_angle_gamma   90.00000000
_symmetry_Int_Tables_number   1
_chemical_formula_structural   Na4Ga3Si3ClO12
_chemical_formula_sum   'Na8 Ga6 Si6 Cl2 O24'
_cell_volume   742.38326006
_cell_formula_units_Z   2
loop_
 _symmetry_equiv_pos_site_id
 _symmetry_equiv_pos_as_xyz
  1  'x, y, z'
loop_
 _atom_site_type_symbol
 _atom_site_label
 _atom_site_symmetry_multiplicity
 _atom_site_fract_x
 _atom_site_fract_y
 _atom_site_fract_z
 _atom_site_occupancy
  O  O0  1  0.848508  0.427399  0.865638  1
  O  O1  1  0.634362  0.927399  0.651492  1
  O  O2  1  0.634362  0.072601  0.348508  1
  O  O3  1  0.927399  0.651492  0.634362  1
  O  O4  1  0.072601  0.651492  0.365638  1
  O  O5  1  0.651492  0.634362  0.927399  1
  O  O6  1  0.348508  0.365638  0.927399  1
  O  O7  1  0.865638  0.848508  0.427399  1
  O  O8  1  0.865638  0.151492  0.572601  1
  O  O9  1  0.134362  0.848508  0.572601  1
  O  O10  1  0.151492  0.572601  0.865638  1
  O  O11  1  0.572601  0.134362  0.848508  1
  O  O12  1  0.134362  0.151492  0.427399  1
  O  O13  1  0.365638  0.927399  0.348508  1
  O  O14  1  0.365638  0.072601  0.651492  1
  O  O15  1  0.072601  0.348508  0.634362  1
  O  O16  1  0.927399  0.348508  0.365638  1
  O  O17  1  0.651492  0.365638  0.072601  1
  O  O18  1  0.348508  0.634362  0.072601  1
  O  O19  1  0.572601  0.865638  0.151492  1
  O  O20  1  0.151492  0.427399  0.134362  1
  O  O21  1  0.848508  0.572601  0.134362  1
  O  O22  1  0.427399  0.865638  0.848508  1
  O  O23  1  0.427399  0.134362  0.151492  1
  Na  Na24  1  0.673266  0.326734  0.326734  1
  Na  Na25  1  0.326734  0.326734  0.673266  1
  Na  Na26  1  0.326734  0.673266  0.326734  1
  Na  Na27  1  0.173266  0.173266  0.173266  1
  Na  Na28  1  0.673266  0.673266  0.673266  1
  Na  Na29  1  0.826734  0.173266  0.826734  1
  Na  Na30  1  0.826734  0.826734  0.173266  1
  Na  Na31  1  0.173266  0.826734  0.826734  1
  Si  Si32  1  0.250000  0.500000  0.000000  1
  Si  Si33  1  0.500000  0.000000  0.750000  1
  Si  Si34  1  0.500000  0.000000  0.250000  1
  Si  Si35  1  0.750000  0.500000  0.000000  1
  Si  Si36  1  0.000000  0.250000  0.500000  1
  Si  Si37  1  0.000000  0.750000  0.500000  1
  Cl  Cl38  1  0.000000  0.000000  0.000000  1
  Cl  Cl39  1  0.500000  0.500000  0.500000  1
  Ga  Ga40  1  0.500000  0.250000  0.000000  1
  Ga  Ga41  1  0.500000  0.750000  0.000000  1
  Ga  Ga42  1  0.750000  0.000000  0.500000  1
  Ga  Ga43  1  0.000000  0.500000  0.250000  1
  Ga  Ga44  1  0.000000  0.500000  0.750000  1
  Ga  Ga45  1  0.250000  0.000000  0.500000  1
