# generated using pymatgen
data_K2Sb4S7
_symmetry_space_group_name_H-M   'P 1'
_cell_length_a   6.62282667
_cell_length_b   6.62282653
_cell_length_c   17.81257403
_cell_angle_alpha   86.69838874
_cell_angle_beta   86.69838882
_cell_angle_gamma   75.11185257
_symmetry_Int_Tables_number   1
_chemical_formula_structural   K2Sb4S7
_chemical_formula_sum   'K4 Sb8 S14'
_cell_volume   753.06843968
_cell_formula_units_Z   2
loop_
 _symmetry_equiv_pos_site_id
 _symmetry_equiv_pos_as_xyz
  1  'x, y, z'
loop_
 _atom_site_type_symbol
 _atom_site_label
 _atom_site_symmetry_multiplicity
 _atom_site_fract_x
 _atom_site_fract_y
 _atom_site_fract_z
 _atom_site_occupancy
  Sb  Sb0  1  0.139177  0.881443  0.881066  1
  Sb  Sb1  1  0.118557  0.860823  0.618934  1
  Sb  Sb2  1  0.860823  0.118557  0.118934  1
  Sb  Sb3  1  0.881443  0.139177  0.381066  1
  Sb  Sb4  1  0.693893  0.637502  0.533142  1
  Sb  Sb5  1  0.362498  0.306107  0.966858  1
  Sb  Sb6  1  0.306107  0.362498  0.466858  1
  Sb  Sb7  1  0.637502  0.693893  0.033142  1
  S  S8  1  0.729035  0.318651  0.961054  1
  S  S9  1  0.681349  0.270965  0.538946  1
  S  S10  1  0.270965  0.681349  0.038946  1
  S  S11  1  0.318651  0.729035  0.461054  1
  S  S12  1  0.263745  0.512293  0.844002  1
  S  S13  1  0.487707  0.736255  0.655998  1
  S  S14  1  0.736255  0.487707  0.155998  1
  S  S15  1  0.512293  0.263745  0.344002  1
  S  S16  1  0.476106  0.975092  0.872475  1
  S  S17  1  0.024908  0.523894  0.627525  1
  S  S18  1  0.523894  0.024908  0.127525  1
  S  S19  1  0.975092  0.476106  0.372475  1
  S  S20  1  0.997674  0.002326  0.750000  1
  S  S21  1  0.002326  0.997674  0.250000  1
  K  K22  1  0.784576  0.550789  0.795546  1
  K  K23  1  0.449211  0.215424  0.704454  1
  K  K24  1  0.215424  0.449211  0.204454  1
  K  K25  1  0.550789  0.784576  0.295546  1
