# generated using pymatgen
data_ThBr4
_symmetry_space_group_name_H-M   'P 1'
_cell_length_a   7.60244469
_cell_length_b   7.60244468
_cell_length_c   7.60244468
_cell_angle_alpha   107.14418959
_cell_angle_beta   107.14418961
_cell_angle_gamma   114.23280507
_symmetry_Int_Tables_number   1
_chemical_formula_structural   ThBr4
_chemical_formula_sum   'Th2 Br8'
_cell_volume   336.48299050
_cell_formula_units_Z   2
loop_
 _symmetry_equiv_pos_site_id
 _symmetry_equiv_pos_as_xyz
  1  'x, y, z'
loop_
 _atom_site_type_symbol
 _atom_site_label
 _atom_site_symmetry_multiplicity
 _atom_site_fract_x
 _atom_site_fract_y
 _atom_site_fract_z
 _atom_site_occupancy
  Br  Br0  1  0.194802  0.258563  0.563760  1
  Br  Br1  1  0.631042  0.194802  0.436240  1
  Br  Br2  1  0.368958  0.805198  0.563760  1
  Br  Br3  1  0.805198  0.741437  0.436240  1
  Br  Br4  1  0.805198  0.368958  0.063760  1
  Br  Br5  1  0.741437  0.805198  0.936240  1
  Br  Br6  1  0.194802  0.631042  0.936240  1
  Br  Br7  1  0.258563  0.194802  0.063760  1
  Th  Th8  1  0.875000  0.125000  0.750000  1
  Th  Th9  1  0.125000  0.875000  0.250000  1
