# generated using pymatgen
data_CdH20C4S4(NO6)2
_symmetry_space_group_name_H-M   'P 1'
_cell_length_a   7.69405177
_cell_length_b   8.16279043
_cell_length_c   8.56449356
_cell_angle_alpha   70.60981935
_cell_angle_beta   75.21332752
_cell_angle_gamma   64.08141599
_symmetry_Int_Tables_number   1
_chemical_formula_structural   CdH20C4S4(NO6)2
_chemical_formula_sum   'Cd1 H20 C4 S4 N2 O12'
_cell_volume   452.48890440
_cell_formula_units_Z   1
loop_
 _symmetry_equiv_pos_site_id
 _symmetry_equiv_pos_as_xyz
  1  'x, y, z'
loop_
 _atom_site_type_symbol
 _atom_site_label
 _atom_site_symmetry_multiplicity
 _atom_site_fract_x
 _atom_site_fract_y
 _atom_site_fract_z
 _atom_site_occupancy
  H  H0  1  0.816163  0.163185  0.947752  1
  H  H1  1  0.995383  0.479018  0.811819  1
  H  H2  1  0.004617  0.520982  0.188181  1
  H  H3  1  0.183837  0.836815  0.052248  1
  H  H4  1  0.854955  0.942696  0.909654  1
  H  H5  1  0.145045  0.057304  0.090346  1
  H  H6  1  0.629171  0.069149  0.021541  1
  H  H7  1  0.195671  0.287985  0.738122  1
  H  H8  1  0.804329  0.712015  0.261878  1
  H  H9  1  0.142683  0.528480  0.615087  1
  H  H10  1  0.857317  0.471520  0.384913  1
  H  H11  1  0.209404  0.877169  0.716513  1
  H  H12  1  0.598321  0.602437  0.678134  1
  H  H13  1  0.336630  0.302147  0.227219  1
  H  H14  1  0.663370  0.697853  0.772781  1
  H  H15  1  0.370829  0.930851  0.978459  1
  H  H16  1  0.078878  0.081574  0.620049  1
  H  H17  1  0.790596  0.122831  0.283487  1
  H  H18  1  0.921122  0.918426  0.379951  1
  H  H19  1  0.401679  0.397563  0.321866  1
  C  C20  1  0.748779  0.082112  0.923160  1
  C  C21  1  0.141378  0.435386  0.741192  1
  C  C22  1  0.858622  0.564614  0.258808  1
  C  C23  1  0.251221  0.917888  0.076840  1
  N  N24  1  0.507583  0.415323  0.740682  1
  N  N25  1  0.492417  0.584677  0.259318  1
  O  O26  1  0.185739  0.778597  0.398799  1
  O  O27  1  0.550838  0.098437  0.709913  1
  O  O28  1  0.348862  0.299447  0.340162  1
  O  O29  1  0.295986  0.328757  0.014833  1
  O  O30  1  0.704014  0.671243  0.985167  1
  O  O31  1  0.219088  0.658014  0.849084  1
  O  O32  1  0.780912  0.341986  0.150916  1
  O  O33  1  0.651138  0.700553  0.659838  1
  O  O34  1  0.814261  0.221403  0.601201  1
  O  O35  1  0.793261  0.994302  0.339055  1
  O  O36  1  0.206739  0.005698  0.660945  1
  O  O37  1  0.449162  0.901563  0.290087  1
  S  S38  1  0.652990  0.204989  0.730691  1
  S  S39  1  0.347010  0.795011  0.269309  1
  S  S40  1  0.293822  0.459659  0.849007  1
  S  S41  1  0.706178  0.540341  0.150993  1
  Cd  Cd42  1  0.500000  0.000000  0.500000  1
