# generated using pymatgen
data_CaH20C4S4(NO6)2
_symmetry_space_group_name_H-M   'P 1'
_cell_length_a   7.72022570
_cell_length_b   8.27177237
_cell_length_c   8.60471221
_cell_angle_alpha   71.12345566
_cell_angle_beta   76.75635641
_cell_angle_gamma   64.39871618
_symmetry_Int_Tables_number   1
_chemical_formula_structural   CaH20C4S4(NO6)2
_chemical_formula_sum   'Ca1 H20 C4 S4 N2 O12'
_cell_volume   466.32258051
_cell_formula_units_Z   1
loop_
 _symmetry_equiv_pos_site_id
 _symmetry_equiv_pos_as_xyz
  1  'x, y, z'
loop_
 _atom_site_type_symbol
 _atom_site_label
 _atom_site_symmetry_multiplicity
 _atom_site_fract_x
 _atom_site_fract_y
 _atom_site_fract_z
 _atom_site_occupancy
  H  H0  1  0.796587  0.164935  0.966417  1
  H  H1  1  0.990796  0.486117  0.793167  1
  H  H2  1  0.009204  0.513883  0.206833  1
  H  H3  1  0.203413  0.835065  0.033583  1
  H  H4  1  0.835107  0.950541  0.921720  1
  H  H5  1  0.164893  0.049459  0.078280  1
  H  H6  1  0.608515  0.077112  0.024265  1
  H  H7  1  0.192271  0.295743  0.729030  1
  H  H8  1  0.807729  0.704257  0.270970  1
  H  H9  1  0.144200  0.531118  0.605169  1
  H  H10  1  0.855800  0.468882  0.394831  1
  H  H11  1  0.200344  0.878481  0.711244  1
  H  H12  1  0.588549  0.600532  0.693902  1
  H  H13  1  0.338644  0.310158  0.212273  1
  H  H14  1  0.661356  0.689842  0.787727  1
  H  H15  1  0.391485  0.922888  0.975735  1
  H  H16  1  0.063263  0.083308  0.630925  1
  H  H17  1  0.799656  0.121519  0.288757  1
  H  H18  1  0.936737  0.916692  0.369075  1
  H  H19  1  0.411451  0.399468  0.306098  1
  C  C20  1  0.730659  0.088349  0.933558  1
  C  C21  1  0.137575  0.441559  0.730226  1
  C  C22  1  0.862425  0.558441  0.269774  1
  C  C23  1  0.269341  0.911651  0.066442  1
  N  N24  1  0.497431  0.420368  0.748588  1
  N  N25  1  0.502569  0.579632  0.251412  1
  O  O26  1  0.191594  0.764335  0.378591  1
  O  O27  1  0.549567  0.113317  0.699990  1
  O  O28  1  0.367679  0.297216  0.322664  1
  O  O29  1  0.281232  0.335694  0.009798  1
  O  O30  1  0.718768  0.664306  0.990202  1
  O  O31  1  0.208583  0.660292  0.847117  1
  O  O32  1  0.791417  0.339708  0.152883  1
  O  O33  1  0.632321  0.702784  0.677336  1
  O  O34  1  0.808406  0.235665  0.621409  1
  O  O35  1  0.800673  0.997848  0.351951  1
  O  O36  1  0.199327  0.002152  0.648049  1
  O  O37  1  0.450433  0.886683  0.300010  1
  S  S38  1  0.644464  0.215295  0.737883  1
  S  S39  1  0.355536  0.784705  0.262117  1
  S  S40  1  0.283293  0.465195  0.846748  1
  S  S41  1  0.716707  0.534805  0.153252  1
  Ca  Ca42  1  0.500000  0.000000  0.500000  1
