# generated using pymatgen
data_RbMgH3
_symmetry_space_group_name_H-M   'P 1'
_cell_length_a   5.92870619
_cell_length_b   5.92870619
_cell_length_c   14.37280791
_cell_angle_alpha   90.00000000
_cell_angle_beta   90.00000000
_cell_angle_gamma   120.00000005
_symmetry_Int_Tables_number   1
_chemical_formula_structural   RbMgH3
_chemical_formula_sum   'Rb6 Mg6 H18'
_cell_volume   437.51415639
_cell_formula_units_Z   6
loop_
 _symmetry_equiv_pos_site_id
 _symmetry_equiv_pos_as_xyz
  1  'x, y, z'
loop_
 _atom_site_type_symbol
 _atom_site_label
 _atom_site_symmetry_multiplicity
 _atom_site_fract_x
 _atom_site_fract_y
 _atom_site_fract_z
 _atom_site_occupancy
  H  H0  1  0.476297  0.952595  0.750000  1
  H  H1  1  0.523703  0.476297  0.250000  1
  H  H2  1  0.952595  0.476297  0.250000  1
  H  H3  1  0.047405  0.523703  0.750000  1
  H  H4  1  0.476297  0.523703  0.750000  1
  H  H5  1  0.523703  0.047405  0.250000  1
  H  H6  1  0.165848  0.834152  0.920142  1
  H  H7  1  0.165848  0.331697  0.920142  1
  H  H8  1  0.668303  0.834152  0.920142  1
  H  H9  1  0.331697  0.165848  0.420142  1
  H  H10  1  0.834152  0.668303  0.079858  1
  H  H11  1  0.834152  0.165848  0.420142  1
  H  H12  1  0.165848  0.331697  0.579858  1
  H  H13  1  0.834152  0.165848  0.079858  1
  H  H14  1  0.331697  0.165848  0.079858  1
  H  H15  1  0.668303  0.834152  0.579858  1
  H  H16  1  0.165848  0.834152  0.579858  1
  H  H17  1  0.834152  0.668303  0.420142  1
  Mg  Mg18  1  0.333333  0.666667  0.845799  1
  Mg  Mg19  1  0.666667  0.333333  0.345799  1
  Mg  Mg20  1  0.666667  0.333333  0.154201  1
  Mg  Mg21  1  0.333333  0.666667  0.654201  1
  Mg  Mg22  1  0.000000  0.000000  0.500000  1
  Mg  Mg23  1  0.000000  0.000000  0.000000  1
  Rb  Rb24  1  0.000000  0.000000  0.750000  1
  Rb  Rb25  1  0.000000  0.000000  0.250000  1
  Rb  Rb26  1  0.333333  0.666667  0.404817  1
  Rb  Rb27  1  0.666667  0.333333  0.904817  1
  Rb  Rb28  1  0.666667  0.333333  0.595183  1
  Rb  Rb29  1  0.333333  0.666667  0.095183  1
