# generated using pymatgen
data_Na2Mn2S3
_symmetry_space_group_name_H-M   'P 1'
_cell_length_a   6.91929753
_cell_length_b   10.05048470
_cell_length_c   10.05048387
_cell_angle_alpha   83.54037804
_cell_angle_beta   70.29967037
_cell_angle_gamma   70.29967068
_symmetry_Int_Tables_number   1
_chemical_formula_structural   Na2Mn2S3
_chemical_formula_sum   'Na8 Mn8 S12'
_cell_volume   619.50856313
_cell_formula_units_Z   4
loop_
 _symmetry_equiv_pos_site_id
 _symmetry_equiv_pos_as_xyz
  1  'x, y, z'
loop_
 _atom_site_type_symbol
 _atom_site_label
 _atom_site_symmetry_multiplicity
 _atom_site_fract_x
 _atom_site_fract_y
 _atom_site_fract_z
 _atom_site_occupancy
  Na  Na0  1  0.250000  0.281224  0.718776  1
  Na  Na1  1  0.121720  0.988602  0.815573  1
  Na  Na2  1  0.378280  0.184427  0.011398  1
  Na  Na3  1  0.878280  0.011398  0.184427  1
  Na  Na4  1  0.621720  0.815573  0.988602  1
  Na  Na5  1  0.750000  0.718776  0.281224  1
  Na  Na6  1  0.750000  0.428719  0.571281  1
  Na  Na7  1  0.250000  0.571281  0.428719  1
  Mn  Mn8  1  0.297735  0.215727  0.363593  1
  Mn  Mn9  1  0.202265  0.636407  0.784273  1
  Mn  Mn10  1  0.754724  0.082383  0.553948  1
  Mn  Mn11  1  0.245276  0.917617  0.446052  1
  Mn  Mn12  1  0.702265  0.784273  0.636407  1
  Mn  Mn13  1  0.254724  0.553948  0.082383  1
  Mn  Mn14  1  0.797735  0.363593  0.215727  1
  Mn  Mn15  1  0.745276  0.446052  0.917617  1
  S  S16  1  0.554642  0.579402  0.144212  1
  S  S17  1  0.933476  0.570305  0.720923  1
  S  S18  1  0.433476  0.720923  0.570305  1
  S  S19  1  0.566524  0.279077  0.429695  1
  S  S20  1  0.445358  0.420598  0.855788  1
  S  S21  1  0.066524  0.429695  0.279077  1
  S  S22  1  0.548719  0.999574  0.770240  1
  S  S23  1  0.451281  0.000426  0.229760  1
  S  S24  1  0.048719  0.770240  0.999574  1
  S  S25  1  0.945358  0.855788  0.420598  1
  S  S26  1  0.951281  0.229760  0.000426  1
  S  S27  1  0.054642  0.144212  0.579402  1
