# generated using pymatgen
data_Ag3SnP7
_symmetry_space_group_name_H-M   'P 1'
_cell_length_a   6.43888743
_cell_length_b   6.60252787
_cell_length_c   11.21189909
_cell_angle_alpha   90.00000000
_cell_angle_beta   90.00000000
_cell_angle_gamma   108.33959708
_symmetry_Int_Tables_number   1
_chemical_formula_structural   Ag3SnP7
_chemical_formula_sum   'Ag6 Sn2 P14'
_cell_volume   452.44079836
_cell_formula_units_Z   2
loop_
 _symmetry_equiv_pos_site_id
 _symmetry_equiv_pos_as_xyz
  1  'x, y, z'
loop_
 _atom_site_type_symbol
 _atom_site_label
 _atom_site_symmetry_multiplicity
 _atom_site_fract_x
 _atom_site_fract_y
 _atom_site_fract_z
 _atom_site_occupancy
  P  P0  1  0.731829  0.272673  0.250000  1
  P  P1  1  0.268171  0.727327  0.750000  1
  P  P2  1  0.805089  0.717717  0.590159  1
  P  P3  1  0.194911  0.282283  0.090159  1
  P  P4  1  0.194911  0.282283  0.409841  1
  P  P5  1  0.805089  0.717717  0.909841  1
  P  P6  1  0.277720  0.194738  0.588724  1
  P  P7  1  0.722280  0.805262  0.088724  1
  P  P8  1  0.166440  0.842196  0.919331  1
  P  P9  1  0.833560  0.157804  0.419331  1
  P  P10  1  0.833560  0.157804  0.080669  1
  P  P11  1  0.166440  0.842196  0.580669  1
  P  P12  1  0.277720  0.194738  0.911276  1
  P  P13  1  0.722280  0.805262  0.411276  1
  Ag  Ag14  1  0.690141  0.317410  0.602105  1
  Ag  Ag15  1  0.309859  0.682590  0.102105  1
  Ag  Ag16  1  0.309859  0.682590  0.397895  1
  Ag  Ag17  1  0.690141  0.317410  0.897895  1
  Ag  Ag18  1  0.922366  0.672320  0.250000  1
  Ag  Ag19  1  0.077634  0.327680  0.750000  1
  Sn  Sn20  1  0.307834  0.041503  0.250000  1
  Sn  Sn21  1  0.692166  0.958497  0.750000  1
