# generated using pymatgen
data_CaTi4(CuO4)3
_symmetry_space_group_name_H-M   'P 1'
_cell_length_a   6.45657096
_cell_length_b   6.45663115
_cell_length_c   6.45658807
_cell_angle_alpha   109.44358704
_cell_angle_beta   109.48150012
_cell_angle_gamma   109.48873966
_symmetry_Int_Tables_number   1
_chemical_formula_structural   CaTi4(CuO4)3
_chemical_formula_sum   'Ca1 Ti4 Cu3 O12'
_cell_volume   207.19923711
_cell_formula_units_Z   1
loop_
 _symmetry_equiv_pos_site_id
 _symmetry_equiv_pos_as_xyz
  1  'x, y, z'
loop_
 _atom_site_type_symbol
 _atom_site_label
 _atom_site_symmetry_multiplicity
 _atom_site_fract_x
 _atom_site_fract_y
 _atom_site_fract_z
 _atom_site_occupancy
  Ca  Ca0  1  0.000003  0.999999  0.000004  1
  Ti  Ti1  1  0.000002  0.000003  0.500001  1
  Ti  Ti2  1  0.999998  0.499998  -0.000000  1
  Ti  Ti3  1  0.499998  0.500000  0.499999  1
  Ti  Ti4  1  0.500001  0.000002  -0.000000  1
  Cu  Cu5  1  0.499999  0.499998  -0.000002  1
  Cu  Cu6  1  0.000001  0.500001  0.499998  1
  Cu  Cu7  1  0.499999  -0.000000  0.500000  1
  O  O8  1  0.520170  0.822917  0.697268  1
  O  O9  1  0.125651  0.822915  0.302741  1
  O  O10  1  0.874348  0.177085  0.697260  1
  O  O11  1  0.176984  0.302927  0.479915  1
  O  O12  1  0.302812  0.479858  0.177043  1
  O  O13  1  0.697190  0.520144  0.822959  1
  O  O14  1  0.823008  0.302925  0.125942  1
  O  O15  1  0.697188  0.874240  0.177040  1
  O  O16  1  0.479831  0.177084  0.302734  1
  O  O17  1  0.176992  0.697076  0.874059  1
  O  O18  1  0.823015  0.697073  0.520085  1
  O  O19  1  0.302810  0.125760  0.822960  1
