# generated using pymatgen
data_Li3Sb3(PO4)4
_symmetry_space_group_name_H-M   'P 1'
_cell_length_a   13.11638466
_cell_length_b   9.20336778
_cell_length_c   9.25781591
_cell_angle_alpha   90.73271308
_cell_angle_beta   85.58569919
_cell_angle_gamma   89.33310895
_symmetry_Int_Tables_number   1
_chemical_formula_structural   Li3Sb3(PO4)4
_chemical_formula_sum   'Li9 Sb9 P12 O48'
_cell_volume   1114.06085397
_cell_formula_units_Z   3
loop_
 _symmetry_equiv_pos_site_id
 _symmetry_equiv_pos_as_xyz
  1  'x, y, z'
loop_
 _atom_site_type_symbol
 _atom_site_label
 _atom_site_symmetry_multiplicity
 _atom_site_fract_x
 _atom_site_fract_y
 _atom_site_fract_z
 _atom_site_occupancy
  Li  Li0  1  0.154928  0.885397  0.225635  1
  Li  Li1  1  0.518709  0.119148  0.107543  1
  Li  Li2  1  0.147047  0.616179  0.749433  1
  Li  Li3  1  0.481145  0.617052  0.403239  1
  Li  Li4  1  0.820925  0.613221  0.049115  1
  Li  Li5  1  0.182954  0.378587  0.923704  1
  Li  Li6  1  0.521284  0.387231  0.581710  1
  Li  Li7  1  0.813289  0.878293  0.585228  1
  Li  Li8  1  0.851900  0.112977  0.755180  1
  O  O9  1  0.073087  0.084319  0.008990  1
  O  O10  1  0.104081  0.338348  0.116606  1
  O  O11  1  0.234522  0.840218  0.036004  1
  O  O12  1  0.054182  0.732167  0.281620  1
  O  O13  1  0.130356  0.100912  0.258457  1
  O  O14  1  0.388575  0.672463  -0.003678  1
  O  O15  1  0.255428  0.624251  0.194338  1
  O  O16  1  0.080634  0.292708  0.498234  1
  O  O17  1  0.413254  0.373853  0.134648  1
  O  O18  1  0.276846  0.328665  0.330935  1
  O  O19  1  0.217217  0.897309  0.409749  1
  O  O20  1  0.539876  0.897070  0.067564  1
  O  O21  1  0.621307  0.289837  0.049916  1
  O  O22  1  0.208491  0.636316  0.499717  1
  O  O23  1  0.431407  0.158092  0.293673  1
  O  O24  1  0.092136  0.122400  0.696416  1
  O  O25  1  0.557363  0.662286  0.214685  1
  O  O26  1  0.104309  0.401526  0.748816  1
  O  O27  1  0.382192  0.766396  0.460126  1
  O  O28  1  0.059670  0.811207  0.824894  1
  O  O29  1  0.717198  0.787749  0.106795  1
  O  O30  1  0.450524  0.413431  0.401768  1
  O  O31  1  0.252319  0.829921  0.670021  1
  O  O32  1  0.795064  0.393393  0.106899  1
  O  O33  1  0.612559  0.917704  0.305814  1
  O  O34  1  0.921576  0.860478  0.023849  1
  O  O35  1  0.410785  0.138361  0.666915  1
  O  O36  1  0.754463  0.200405  0.340056  1
  O  O37  1  0.215068  0.582964  0.929393  1
  O  O38  1  0.597746  0.181022  0.517088  1
  O  O39  1  0.286502  0.231325  0.871261  1
  O  O40  1  0.557717  0.597307  0.578000  1
  O  O41  1  0.892760  0.602258  0.223053  1
  O  O42  1  0.951572  0.182551  0.202607  1
  O  O43  1  0.584187  0.873553  0.624078  1
  O  O44  1  0.878375  0.857399  0.333074  1
  O  O45  1  0.461953  0.353121  0.818932  1
  O  O46  1  0.732854  0.360831  0.559025  1
  O  O47  1  0.451939  0.102844  0.929129  1
  O  O48  1  0.771400  0.085292  0.586306  1
  O  O49  1  0.730059  0.694589  0.643942  1
  O  O50  1  0.577298  0.705667  0.829371  1
  O  O51  1  0.931927  0.646041  0.486012  1
  O  O52  1  0.733381  0.425177  0.866126  1
  O  O53  1  0.934243  0.286485  0.697504  1
  O  O54  1  0.886751  0.908988  0.758873  1
  O  O55  1  0.784900  0.164085  0.946005  1
  O  O56  1  0.901842  0.650723  0.857917  1
  P  P57  1  0.068530  0.184736  0.142556  1
  P  P58  1  0.267802  0.678164  0.033350  1
  P  P59  1  0.051602  0.281970  0.669922  1
  P  P60  1  0.397801  0.320081  0.295870  1
  P  P61  1  0.269349  0.786898  0.507735  1
  P  P62  1  0.603601  0.807912  0.178688  1
  P  P63  1  0.398478  0.204418  0.823086  1
  P  P64  1  0.716583  0.201485  0.507756  1
  P  P65  1  0.611324  0.711810  0.660785  1
  P  P66  1  0.938032  0.706665  0.332642  1
  P  P67  1  0.735455  0.308776  0.988196  1
  P  P68  1  0.940049  0.810550  0.859190  1
  Sb  Sb69  1  0.145058  0.539481  0.329392  1
  Sb  Sb70  1  0.204225  0.148975  0.442255  1
  Sb  Sb71  1  0.170234  0.982322  0.839998  1
  Sb  Sb72  1  0.497916  1.007467  0.486959  1
  Sb  Sb73  1  0.815361  0.961600  0.158587  1
  Sb  Sb74  1  0.865301  0.357071  0.292356  1
  Sb  Sb75  1  0.459277  0.855436  0.890062  1
  Sb  Sb76  1  0.517849  0.466402  0.994865  1
  Sb  Sb77  1  0.832096  0.505686  0.683438  1
