# generated using pymatgen
data_UCoGe
_symmetry_space_group_name_H-M   'P 1'
_cell_length_a   4.26254491
_cell_length_b   6.68759358
_cell_length_c   7.05550399
_cell_angle_alpha   90.00000000
_cell_angle_beta   90.00000000
_cell_angle_gamma   90.00000000
_symmetry_Int_Tables_number   1
_chemical_formula_structural   UCoGe
_chemical_formula_sum   'U4 Co4 Ge4'
_cell_volume   201.12538188
_cell_formula_units_Z   4
loop_
 _symmetry_equiv_pos_site_id
 _symmetry_equiv_pos_as_xyz
  1  'x, y, z'
loop_
 _atom_site_type_symbol
 _atom_site_label
 _atom_site_symmetry_multiplicity
 _atom_site_fract_x
 _atom_site_fract_y
 _atom_site_fract_z
 _atom_site_occupancy
  Co  Co0  1  0.750000  0.218324  0.928747  1
  Co  Co1  1  0.250000  0.281676  0.428747  1
  Co  Co2  1  0.750000  0.718324  0.571253  1
  Co  Co3  1  0.250000  0.781676  0.071253  1
  Ge  Ge4  1  0.250000  0.185398  0.091919  1
  Ge  Ge5  1  0.750000  0.314602  0.591919  1
  Ge  Ge6  1  0.250000  0.685398  0.408081  1
  Ge  Ge7  1  0.750000  0.814602  0.908081  1
  U  U8  1  0.250000  0.518196  0.801099  1
  U  U9  1  0.750000  0.481804  0.198901  1
  U  U10  1  0.250000  0.018196  0.698901  1
  U  U11  1  0.750000  0.981804  0.301099  1
