# generated using pymatgen
data_MnH4(CO3)2
_symmetry_space_group_name_H-M   'P 1'
_cell_length_a   5.75645203
_cell_length_b   6.85292422
_cell_length_c   8.26194033
_cell_angle_alpha   80.31249194
_cell_angle_beta   69.57165093
_cell_angle_gamma   65.16527373
_symmetry_Int_Tables_number   1
_chemical_formula_structural   MnH4(CO3)2
_chemical_formula_sum   'Mn2 H8 C4 O12'
_cell_volume   277.08926949
_cell_formula_units_Z   2
loop_
 _symmetry_equiv_pos_site_id
 _symmetry_equiv_pos_as_xyz
  1  'x, y, z'
loop_
 _atom_site_type_symbol
 _atom_site_label
 _atom_site_symmetry_multiplicity
 _atom_site_fract_x
 _atom_site_fract_y
 _atom_site_fract_z
 _atom_site_occupancy
  H  H0  1  0.321297  0.321109  0.353918  1
  H  H1  1  0.995956  0.178934  0.146055  1
  H  H2  1  0.373344  0.322756  0.148597  1
  H  H3  1  0.844815  0.177144  0.351509  1
  H  H4  1  0.626657  0.677245  0.851403  1
  H  H5  1  0.155186  0.822856  0.648491  1
  H  H6  1  0.678703  0.678893  0.646083  1
  H  H7  1  0.004044  0.821067  0.853945  1
  C  C8  1  0.524177  0.751297  0.350901  1
  C  C9  1  0.373262  0.251314  0.851089  1
  C  C10  1  0.475822  0.248702  0.649099  1
  C  C11  1  0.626738  0.748686  0.148911  1
  O  O12  1  0.753335  0.605656  0.741433  1
  O  O13  1  0.530930  0.252326  0.926367  1
  O  O14  1  0.100717  0.894308  0.758412  1
  O  O15  1  0.860508  0.747525  0.074851  1
  O  O16  1  0.899285  0.105692  0.241588  1
  O  O17  1  0.246667  0.394346  0.258567  1
  O  O18  1  0.469070  0.747674  0.073632  1
  O  O19  1  0.710040  0.247438  0.573867  1
  O  O20  1  0.139491  0.252474  0.925149  1
  O  O21  1  0.289959  0.752562  0.426133  1
  O  O22  1  0.317429  0.247640  0.574979  1
  O  O23  1  0.682571  0.752359  0.425021  1
  Mn  Mn24  1  0.074585  0.750073  0.249933  1
  Mn  Mn25  1  0.925414  0.249928  0.750066  1
