# generated using pymatgen
data_In7Pt3
_symmetry_space_group_name_H-M   'P 1'
_cell_length_a   8.32020980
_cell_length_b   8.32020980
_cell_length_c   8.32020980
_cell_angle_alpha   109.47122067
_cell_angle_beta   109.47122065
_cell_angle_gamma   109.47122060
_symmetry_Int_Tables_number   1
_chemical_formula_structural   In7Pt3
_chemical_formula_sum   'In14 Pt6'
_cell_volume   443.38494382
_cell_formula_units_Z   2
loop_
 _symmetry_equiv_pos_site_id
 _symmetry_equiv_pos_as_xyz
  1  'x, y, z'
loop_
 _atom_site_type_symbol
 _atom_site_label
 _atom_site_symmetry_multiplicity
 _atom_site_fract_x
 _atom_site_fract_y
 _atom_site_fract_z
 _atom_site_occupancy
  In  In0  1  0.500000  0.750000  0.250000  1
  In  In1  1  0.750000  0.500000  0.250000  1
  In  In2  1  0.250000  0.500000  0.750000  1
  In  In3  1  0.750000  0.250000  0.500000  1
  In  In4  1  0.250000  0.750000  0.500000  1
  In  In5  1  0.500000  0.250000  0.750000  1
  In  In6  1  0.673275  0.000000  0.000000  1
  In  In7  1  0.000000  0.000000  0.673275  1
  In  In8  1  0.000000  0.673275  0.000000  1
  In  In9  1  0.000000  0.000000  0.326725  1
  In  In10  1  0.673275  0.673275  0.673275  1
  In  In11  1  0.000000  0.326725  0.000000  1
  In  In12  1  0.326725  0.326725  0.326725  1
  In  In13  1  0.326725  0.000000  0.000000  1
  Pt  Pt14  1  0.000000  0.655449  0.655449  1
  Pt  Pt15  1  0.655449  0.655449  0.000000  1
  Pt  Pt16  1  0.655449  0.000000  0.655449  1
  Pt  Pt17  1  0.344551  0.000000  0.344551  1
  Pt  Pt18  1  0.000000  0.344551  0.344551  1
  Pt  Pt19  1  0.344551  0.344551  0.000000  1
