# generated using pymatgen
data_Hg3TeBr4
_symmetry_space_group_name_H-M   'P 1'
_cell_length_a   13.03067403
_cell_length_b   13.25382620
_cell_length_c   13.38468700
_cell_angle_alpha   90.00000000
_cell_angle_beta   90.00000000
_cell_angle_gamma   90.00000000
_symmetry_Int_Tables_number   1
_chemical_formula_structural   Hg3TeBr4
_chemical_formula_sum   'Hg24 Te8 Br32'
_cell_volume   2311.61961936
_cell_formula_units_Z   8
loop_
 _symmetry_equiv_pos_site_id
 _symmetry_equiv_pos_as_xyz
  1  'x, y, z'
loop_
 _atom_site_type_symbol
 _atom_site_label
 _atom_site_symmetry_multiplicity
 _atom_site_fract_x
 _atom_site_fract_y
 _atom_site_fract_z
 _atom_site_occupancy
  Br  Br0  1  0.331866  0.098145  0.228602  1
  Br  Br1  1  0.831866  0.401855  0.771398  1
  Br  Br2  1  0.668134  0.598145  0.271398  1
  Br  Br3  1  0.168134  0.901855  0.728602  1
  Br  Br4  1  0.668134  0.901855  0.771398  1
  Br  Br5  1  0.168134  0.598145  0.228602  1
  Br  Br6  1  0.331866  0.401855  0.728602  1
  Br  Br7  1  0.831866  0.098145  0.271398  1
  Br  Br8  1  0.057914  0.084941  0.100208  1
  Br  Br9  1  0.557914  0.415059  0.899792  1
  Br  Br10  1  0.942086  0.584941  0.399792  1
  Br  Br11  1  0.442086  0.915059  0.600208  1
  Br  Br12  1  0.942086  0.915059  0.899792  1
  Br  Br13  1  0.442086  0.584941  0.100208  1
  Br  Br14  1  0.057914  0.415059  0.600208  1
  Br  Br15  1  0.595565  0.216522  0.676315  1
  Br  Br16  1  0.761917  0.165026  0.948299  1
  Br  Br17  1  0.261917  0.334974  0.051701  1
  Br  Br18  1  0.238083  0.665026  0.551701  1
  Br  Br19  1  0.738083  0.834974  0.448299  1
  Br  Br20  1  0.238083  0.834974  0.051701  1
  Br  Br21  1  0.738083  0.665026  0.948299  1
  Br  Br22  1  0.761917  0.334974  0.448299  1
  Br  Br23  1  0.261917  0.165026  0.551701  1
  Br  Br24  1  0.095565  0.216522  0.823685  1
  Br  Br25  1  0.595565  0.283478  0.176315  1
  Br  Br26  1  0.904435  0.716522  0.676315  1
  Br  Br27  1  0.404435  0.783478  0.323685  1
  Br  Br28  1  0.904435  0.783478  0.176315  1
  Br  Br29  1  0.404435  0.716522  0.823685  1
  Br  Br30  1  0.095565  0.283478  0.323685  1
  Br  Br31  1  0.557914  0.084941  0.399792  1
  Te  Te32  1  0.402705  0.096076  0.897401  1
  Te  Te33  1  0.902705  0.403924  0.102599  1
  Te  Te34  1  0.597295  0.596076  0.602599  1
  Te  Te35  1  0.097295  0.903924  0.397401  1
  Te  Te36  1  0.597295  0.903924  0.102599  1
  Te  Te37  1  0.097295  0.596076  0.897401  1
  Te  Te38  1  0.402705  0.403924  0.397401  1
  Te  Te39  1  0.902705  0.096076  0.602599  1
  Hg  Hg40  1  0.619525  0.089347  0.188576  1
  Hg  Hg41  1  0.319798  0.309060  0.234850  1
  Hg  Hg42  1  0.180202  0.690940  0.734850  1
  Hg  Hg43  1  0.680202  0.809060  0.265150  1
  Hg  Hg44  1  0.180202  0.809060  0.234850  1
  Hg  Hg45  1  0.680202  0.690940  0.765150  1
  Hg  Hg46  1  0.819798  0.309060  0.265150  1
  Hg  Hg47  1  0.319798  0.190940  0.734850  1
  Hg  Hg48  1  0.819798  0.190940  0.765150  1
  Hg  Hg49  1  0.119525  0.410653  0.811424  1
  Hg  Hg50  1  0.380475  0.589347  0.311424  1
  Hg  Hg51  1  0.880475  0.910653  0.688576  1
  Hg  Hg52  1  0.380475  0.910653  0.811424  1
  Hg  Hg53  1  0.880475  0.589347  0.188576  1
  Hg  Hg54  1  0.619525  0.410653  0.688576  1
  Hg  Hg55  1  0.119525  0.089347  0.311424  1
  Hg  Hg56  1  0.230939  0.096891  0.012901  1
  Hg  Hg57  1  0.730939  0.403109  0.987099  1
  Hg  Hg58  1  0.769061  0.596891  0.487099  1
  Hg  Hg59  1  0.269061  0.903109  0.512901  1
  Hg  Hg60  1  0.769061  0.903109  0.987099  1
  Hg  Hg61  1  0.269061  0.596891  0.012901  1
  Hg  Hg62  1  0.230939  0.403109  0.512901  1
  Hg  Hg63  1  0.730939  0.096891  0.487099  1
