# generated using pymatgen
data_Ca2AlF7
_symmetry_space_group_name_H-M   'P 1'
_cell_length_a   7.08560885
_cell_length_b   7.80113035
_cell_length_c   9.66667188
_cell_angle_alpha   90.00000000
_cell_angle_beta   90.00000000
_cell_angle_gamma   90.00000000
_symmetry_Int_Tables_number   1
_chemical_formula_structural   Ca2AlF7
_chemical_formula_sum   'Ca8 Al4 F28'
_cell_volume   534.33261790
_cell_formula_units_Z   4
loop_
 _symmetry_equiv_pos_site_id
 _symmetry_equiv_pos_as_xyz
  1  'x, y, z'
loop_
 _atom_site_type_symbol
 _atom_site_label
 _atom_site_symmetry_multiplicity
 _atom_site_fract_x
 _atom_site_fract_y
 _atom_site_fract_z
 _atom_site_occupancy
  F  F0  1  0.928171  0.132470  0.686002  1
  F  F1  1  0.428171  0.867530  0.313998  1
  F  F2  1  0.571829  0.632470  0.813998  1
  F  F3  1  0.071829  0.367530  0.186002  1
  F  F4  1  0.071829  0.867530  0.313998  1
  F  F5  1  0.571829  0.132470  0.686002  1
  F  F6  1  0.428171  0.367530  0.186002  1
  F  F7  1  0.928171  0.632470  0.813998  1
  F  F8  1  0.926379  0.250504  0.425339  1
  F  F9  1  0.426379  0.749496  0.574661  1
  F  F10  1  0.573621  0.750504  0.074661  1
  F  F11  1  0.073621  0.249496  0.925339  1
  F  F12  1  0.750000  0.625950  0.369598  1
  F  F13  1  0.250000  0.374050  0.630402  1
  F  F14  1  0.750000  0.125950  0.130402  1
  F  F15  1  0.250000  0.874050  0.869598  1
  F  F16  1  0.750000  0.969092  0.491120  1
  F  F17  1  0.250000  0.030908  0.508880  1
  F  F18  1  0.750000  0.469092  0.008880  1
  F  F19  1  0.250000  0.530908  0.991120  1
  F  F20  1  0.750000  0.905240  0.875579  1
  F  F21  1  0.250000  0.094760  0.124421  1
  F  F22  1  0.750000  0.405240  0.624421  1
  F  F23  1  0.250000  0.594760  0.375579  1
  F  F24  1  0.926379  0.750504  0.074661  1
  F  F25  1  0.426379  0.249496  0.925339  1
  F  F26  1  0.573621  0.250504  0.425339  1
  F  F27  1  0.073621  0.749496  0.574661  1
  Al  Al28  1  0.250000  0.810047  0.443133  1
  Al  Al29  1  0.750000  0.189953  0.556867  1
  Al  Al30  1  0.250000  0.310047  0.056867  1
  Al  Al31  1  0.750000  0.689953  0.943133  1
  Ca  Ca32  1  0.250000  0.306151  0.396470  1
  Ca  Ca33  1  0.750000  0.693849  0.603530  1
  Ca  Ca34  1  0.250000  0.806151  0.103530  1
  Ca  Ca35  1  0.750000  0.193849  0.896470  1
  Ca  Ca36  1  0.250000  0.616452  0.758732  1
  Ca  Ca37  1  0.750000  0.383548  0.241268  1
  Ca  Ca38  1  0.250000  0.116452  0.741268  1
  Ca  Ca39  1  0.750000  0.883548  0.258732  1
