# generated using pymatgen
data_Na2Mo2O7
_symmetry_space_group_name_H-M   'P 1'
_cell_length_a   7.03989349
_cell_length_b   7.03989348
_cell_length_c   15.09785709
_cell_angle_alpha   90.00000000
_cell_angle_beta   90.00000000
_cell_angle_gamma   117.35712132
_symmetry_Int_Tables_number   1
_chemical_formula_structural   Na2Mo2O7
_chemical_formula_sum   'Na8 Mo8 O28'
_cell_volume   664.56653899
_cell_formula_units_Z   4
loop_
 _symmetry_equiv_pos_site_id
 _symmetry_equiv_pos_as_xyz
  1  'x, y, z'
loop_
 _atom_site_type_symbol
 _atom_site_label
 _atom_site_symmetry_multiplicity
 _atom_site_fract_x
 _atom_site_fract_y
 _atom_site_fract_z
 _atom_site_occupancy
  O  O0  1  0.861534  0.138466  0.002725  1
  O  O1  1  0.638466  0.361534  0.502725  1
  O  O2  1  0.138466  0.861534  0.997275  1
  O  O3  1  0.361534  0.638466  0.497275  1
  O  O4  1  0.874970  0.125030  0.532952  1
  O  O5  1  0.625029  0.374970  0.032952  1
  O  O6  1  0.125029  0.874970  0.467048  1
  O  O7  1  0.374970  0.625029  0.967048  1
  O  O8  1  0.616866  0.383133  0.782013  1
  O  O9  1  0.883134  0.116867  0.282012  1
  O  O10  1  0.383134  0.616866  0.217988  1
  O  O11  1  0.116867  0.883133  0.717988  1
  O  O12  1  0.213158  0.187962  0.162554  1
  O  O13  1  0.286843  0.312038  0.662554  1
  O  O14  1  0.187963  0.213158  0.837446  1
  O  O15  1  0.312038  0.286842  0.337446  1
  O  O16  1  0.428886  0.974501  0.844442  1
  O  O17  1  0.071114  0.525498  0.344443  1
  O  O18  1  0.974500  0.428886  0.155557  1
  O  O19  1  0.525499  0.071114  0.655558  1
  O  O20  1  0.571115  0.025500  0.155557  1
  O  O21  1  0.928886  0.474500  0.655558  1
  O  O22  1  0.786843  0.812039  0.837446  1
  O  O23  1  0.474500  0.928886  0.344443  1
  O  O24  1  0.687962  0.713157  0.662554  1
  O  O25  1  0.812038  0.786842  0.162554  1
  O  O26  1  0.713158  0.687962  0.337446  1
  O  O27  1  0.025499  0.571114  0.844442  1
  Na  Na28  1  0.816356  0.183642  0.848380  1
  Na  Na29  1  0.683643  0.316357  0.348381  1
  Na  Na30  1  0.183643  0.816356  0.151619  1
  Na  Na31  1  0.316356  0.683643  0.651619  1
  Na  Na32  1  0.750112  0.750112  0.500000  1
  Na  Na33  1  0.749889  0.749889  0.000000  1
  Na  Na34  1  0.249889  0.249888  0.500000  1
  Na  Na35  1  0.250112  0.250112  0.000000  1
  Mo  Mo36  1  0.743980  0.256020  0.586308  1
  Mo  Mo37  1  0.756021  0.243980  0.086308  1
  Mo  Mo38  1  0.256020  0.743979  0.413692  1
  Mo  Mo39  1  0.243980  0.756020  0.913692  1
  Mo  Mo40  1  0.828658  0.671343  0.750000  1
  Mo  Mo41  1  0.671342  0.828657  0.250000  1
  Mo  Mo42  1  0.171342  0.328657  0.250000  1
  Mo  Mo43  1  0.328657  0.171343  0.750000  1
