# generated using pymatgen
data_CrS2
_symmetry_space_group_name_H-M   'P 1'
_cell_length_a   3.31264714
_cell_length_b   3.31264655
_cell_length_c   21.44146765
_cell_angle_alpha   94.73582740
_cell_angle_beta   90.28542478
_cell_angle_gamma   60.14187039
_symmetry_Int_Tables_number   1
_chemical_formula_structural   CrS2
_chemical_formula_sum   'Cr2 S4'
_cell_volume   203.18406483
_cell_formula_units_Z   2
loop_
 _symmetry_equiv_pos_site_id
 _symmetry_equiv_pos_as_xyz
  1  'x, y, z'
loop_
 _atom_site_type_symbol
 _atom_site_label
 _atom_site_symmetry_multiplicity
 _atom_site_fract_x
 _atom_site_fract_y
 _atom_site_fract_z
 _atom_site_occupancy
  Cr  Cr0  1  0.000000  0.000000  0.000000  1
  Cr  Cr1  1  0.000000  0.500000  0.500000  1
  S  S2  1  0.313462  0.377397  0.063935  1
  S  S3  1  0.313443  0.877450  0.564007  1
  S  S4  1  0.686557  0.122550  0.435993  1
  S  S5  1  0.686538  0.622603  0.936065  1
