# generated using pymatgen
data_LaNi5H7
_symmetry_space_group_name_H-M   'P 1'
_cell_length_a   5.34904557
_cell_length_b   5.34904557
_cell_length_c   8.67935991
_cell_angle_alpha   90.00000000
_cell_angle_beta   90.00000000
_cell_angle_gamma   120.00000004
_symmetry_Int_Tables_number   1
_chemical_formula_structural   LaNi5H7
_chemical_formula_sum   'La2 Ni10 H14'
_cell_volume   215.06558765
_cell_formula_units_Z   2
loop_
 _symmetry_equiv_pos_site_id
 _symmetry_equiv_pos_as_xyz
  1  'x, y, z'
loop_
 _atom_site_type_symbol
 _atom_site_label
 _atom_site_symmetry_multiplicity
 _atom_site_fract_x
 _atom_site_fract_y
 _atom_site_fract_z
 _atom_site_occupancy
  H  H0  1  0.847256  0.152744  0.782728  1
  H  H1  1  0.494397  0.505603  0.560038  1
  H  H2  1  0.333333  0.666667  0.819320  1
  H  H3  1  0.666667  0.333333  0.319320  1
  H  H4  1  0.988794  0.494397  0.060038  1
  H  H5  1  0.505603  0.011206  0.060038  1
  H  H6  1  0.494397  0.988794  0.560038  1
  H  H7  1  0.011206  0.505603  0.560038  1
  H  H8  1  0.152744  0.847256  0.282728  1
  H  H9  1  0.305489  0.152744  0.782728  1
  H  H10  1  0.847256  0.694511  0.782728  1
  H  H11  1  0.505603  0.494397  0.060038  1
  H  H12  1  0.694511  0.847256  0.282728  1
  H  H13  1  0.152744  0.305489  0.282728  1
  Ni  Ni14  1  0.499852  0.999704  0.251572  1
  Ni  Ni15  1  0.666667  0.333333  0.982437  1
  Ni  Ni16  1  0.333333  0.666667  0.482437  1
  Ni  Ni17  1  0.666667  0.333333  0.505263  1
  Ni  Ni18  1  0.333333  0.666667  0.005263  1
  Ni  Ni19  1  0.000296  0.500148  0.251572  1
  Ni  Ni20  1  0.500148  0.499852  0.751572  1
  Ni  Ni21  1  0.999704  0.499852  0.751572  1
  Ni  Ni22  1  0.500148  0.000296  0.751572  1
  Ni  Ni23  1  0.499852  0.500148  0.251572  1
  La  La24  1  0.000000  0.000000  0.528064  1
  La  La25  1  0.000000  0.000000  0.028064  1
