# generated using pymatgen
data_TlMoPO6
_symmetry_space_group_name_H-M   'P 1'
_cell_length_a   8.48052973
_cell_length_b   8.48052972
_cell_length_c   9.74391858
_cell_angle_alpha   111.98890254
_cell_angle_beta   111.98890249
_cell_angle_gamma   98.02385008
_symmetry_Int_Tables_number   1
_chemical_formula_structural   TlMoPO6
_chemical_formula_sum   'Tl4 Mo4 P4 O24'
_cell_volume   569.73885266
_cell_formula_units_Z   4
loop_
 _symmetry_equiv_pos_site_id
 _symmetry_equiv_pos_as_xyz
  1  'x, y, z'
loop_
 _atom_site_type_symbol
 _atom_site_label
 _atom_site_symmetry_multiplicity
 _atom_site_fract_x
 _atom_site_fract_y
 _atom_site_fract_z
 _atom_site_occupancy
  O  O0  1  0.601949  0.684337  0.408980  1
  O  O1  1  0.275357  0.692970  0.091020  1
  O  O2  1  0.315663  0.398050  0.091020  1
  O  O3  1  0.307030  0.724643  0.408980  1
  O  O4  1  0.398050  0.315663  0.591020  1
  O  O5  1  0.724643  0.307030  0.908980  1
  O  O6  1  0.684337  0.601950  0.908980  1
  O  O7  1  0.692970  0.275357  0.591020  1
  O  O8  1  0.668466  0.531333  0.132889  1
  O  O9  1  0.398443  0.035577  0.367111  1
  O  O10  1  0.468669  0.331535  0.367112  1
  O  O11  1  0.964424  0.601557  0.132889  1
  O  O12  1  0.910425  0.052835  0.601944  1
  O  O13  1  0.450891  0.808480  0.898056  1
  O  O14  1  0.947164  0.089576  0.898056  1
  O  O15  1  0.191520  0.549108  0.601944  1
  O  O16  1  0.089576  0.947165  0.398056  1
  O  O17  1  0.549108  0.191520  0.101944  1
  O  O18  1  0.331535  0.468669  0.867112  1
  O  O19  1  0.808480  0.450892  0.398056  1
  O  O20  1  0.035576  0.398443  0.867111  1
  O  O21  1  0.531332  0.668465  0.632889  1
  O  O22  1  0.601557  0.964423  0.632889  1
  O  O23  1  0.052835  0.910424  0.101944  1
  P  P24  1  0.506727  0.756727  0.513455  1
  P  P25  1  0.243273  0.493273  0.986546  1
  P  P26  1  0.493273  0.243273  0.486546  1
  P  P27  1  0.756727  0.506727  0.013455  1
  Mo  Mo28  1  0.592538  0.407462  0.250000  1
  Mo  Mo29  1  0.157462  0.842538  0.250000  1
  Mo  Mo30  1  0.842537  0.157462  0.750000  1
  Mo  Mo31  1  0.407461  0.592538  0.750000  1
  Tl  Tl32  1  0.080827  0.330827  0.250000  1
  Tl  Tl33  1  0.669173  0.919173  0.250000  1
  Tl  Tl34  1  0.919174  0.669173  0.750000  1
  Tl  Tl35  1  0.330826  0.080826  0.750000  1
