# generated using pymatgen
data_BiSbO4
_symmetry_space_group_name_H-M   'P 1'
_cell_length_a   4.98757218
_cell_length_b   5.60701712
_cell_length_c   6.55981638
_cell_angle_alpha   103.38101825
_cell_angle_beta   112.34365322
_cell_angle_gamma   90.00000000
_symmetry_Int_Tables_number   1
_chemical_formula_structural   BiSbO4
_chemical_formula_sum   'Bi2 Sb2 O8'
_cell_volume   164.27755696
_cell_formula_units_Z   2
loop_
 _symmetry_equiv_pos_site_id
 _symmetry_equiv_pos_as_xyz
  1  'x, y, z'
loop_
 _atom_site_type_symbol
 _atom_site_label
 _atom_site_symmetry_multiplicity
 _atom_site_fract_x
 _atom_site_fract_y
 _atom_site_fract_z
 _atom_site_occupancy
  O  O0  1  0.812704  0.536616  0.307236  1
  O  O1  1  0.005468  0.963384  0.692764  1
  O  O2  1  0.187296  0.463384  0.692764  1
  O  O3  1  0.994532  0.036616  0.307236  1
  O  O4  1  0.348116  0.811630  0.130179  1
  O  O5  1  0.717937  0.688370  0.869821  1
  O  O6  1  0.651884  0.188370  0.869821  1
  O  O7  1  0.282063  0.311630  0.130179  1
  Sb  Sb8  1  0.000000  0.000000  0.000000  1
  Sb  Sb9  1  0.500000  0.500000  0.000000  1
  Bi  Bi10  1  0.760597  0.250000  0.500000  1
  Bi  Bi11  1  0.239403  0.750000  0.500000  1
