# generated using pymatgen
data_BaGdCl5
_symmetry_space_group_name_H-M   'P 1'
_cell_length_a   5.57540653
_cell_length_b   6.93225321
_cell_length_c   10.12929800
_cell_angle_alpha   89.10018276
_cell_angle_beta   74.02535806
_cell_angle_gamma   86.72881402
_symmetry_Int_Tables_number   1
_chemical_formula_structural   BaGdCl5
_chemical_formula_sum   'Ba2 Gd2 Cl10'
_cell_volume   375.76715156
_cell_formula_units_Z   2
loop_
 _symmetry_equiv_pos_site_id
 _symmetry_equiv_pos_as_xyz
  1  'x, y, z'
loop_
 _atom_site_type_symbol
 _atom_site_label
 _atom_site_symmetry_multiplicity
 _atom_site_fract_x
 _atom_site_fract_y
 _atom_site_fract_z
 _atom_site_occupancy
  Cl  Cl0  1  0.626759  0.250000  0.746482  1
  Cl  Cl1  1  0.373241  0.750000  0.253518  1
  Cl  Cl2  1  0.274027  0.903286  0.935319  1
  Cl  Cl3  1  0.790654  0.596714  0.935319  1
  Cl  Cl4  1  0.819192  0.001116  0.376026  1
  Cl  Cl5  1  0.804782  0.498884  0.376026  1
  Cl  Cl6  1  0.180808  0.998884  0.623974  1
  Cl  Cl7  1  0.195218  0.501116  0.623974  1
  Cl  Cl8  1  0.209346  0.403286  0.064681  1
  Cl  Cl9  1  0.725973  0.096714  0.064681  1
  Ba  Ba10  1  0.327768  0.250000  0.344463  1
  Ba  Ba11  1  0.672232  0.750000  0.655537  1
  Gd  Gd12  1  0.076569  0.250000  0.846863  1
  Gd  Gd13  1  0.923431  0.750000  0.153137  1
