# generated using pymatgen
data_LaYbS3
_symmetry_space_group_name_H-M   'P 1'
_cell_length_a   7.16249225
_cell_length_b   7.77861513
_cell_length_c   9.00728665
_cell_angle_alpha   90.00000000
_cell_angle_beta   90.00000000
_cell_angle_gamma   90.00000000
_symmetry_Int_Tables_number   1
_chemical_formula_structural   LaYbS3
_chemical_formula_sum   'Yb4 La4 S12'
_cell_volume   501.83440565
_cell_formula_units_Z   4
loop_
 _symmetry_equiv_pos_site_id
 _symmetry_equiv_pos_as_xyz
  1  'x, y, z'
loop_
 _atom_site_type_symbol
 _atom_site_label
 _atom_site_symmetry_multiplicity
 _atom_site_fract_x
 _atom_site_fract_y
 _atom_site_fract_z
 _atom_site_occupancy
  Yb  Yb0  1  0.000000  0.500000  0.000000  1
  Yb  Yb1  1  0.500000  0.000000  0.000000  1
  Yb  Yb2  1  0.500000  0.000000  0.500000  1
  Yb  Yb3  1  0.000000  0.500000  0.500000  1
  La  La4  1  0.522942  0.596691  0.750000  1
  La  La5  1  0.022942  0.903309  0.250000  1
  La  La6  1  0.477058  0.403309  0.250000  1
  La  La7  1  0.977058  0.096691  0.750000  1
  S  S8  1  0.185779  0.192316  0.416881  1
  S  S9  1  0.188679  0.404745  0.750000  1
  S  S10  1  0.185779  0.192316  0.083119  1
  S  S11  1  0.685779  0.307684  0.916881  1
  S  S12  1  0.814221  0.807684  0.583119  1
  S  S13  1  0.814221  0.807684  0.916881  1
  S  S14  1  0.685779  0.307684  0.583119  1
  S  S15  1  0.314221  0.692316  0.416881  1
  S  S16  1  0.314221  0.692316  0.083119  1
  S  S17  1  0.811321  0.595255  0.250000  1
  S  S18  1  0.311321  0.904745  0.750000  1
  S  S19  1  0.688679  0.095255  0.250000  1
