# generated using pymatgen
data_HS7N
_symmetry_space_group_name_H-M   'P 1'
_cell_length_a   8.27265041
_cell_length_b   13.81409306
_cell_length_c   7.86511165
_cell_angle_alpha   90.00000000
_cell_angle_beta   90.00000000
_cell_angle_gamma   90.00000000
_symmetry_Int_Tables_number   1
_chemical_formula_structural   HS7N
_chemical_formula_sum   'H4 S28 N4'
_cell_volume   898.81837325
_cell_formula_units_Z   4
loop_
 _symmetry_equiv_pos_site_id
 _symmetry_equiv_pos_as_xyz
  1  'x, y, z'
loop_
 _atom_site_type_symbol
 _atom_site_label
 _atom_site_symmetry_multiplicity
 _atom_site_fract_x
 _atom_site_fract_y
 _atom_site_fract_z
 _atom_site_occupancy
  H  H0  1  0.463362  0.250000  0.295754  1
  H  H1  1  0.036639  0.750000  0.795753  1
  H  H2  1  0.963360  0.250000  0.204246  1
  H  H3  1  0.536639  0.750000  0.704246  1
  S  S4  1  0.061183  0.374479  0.848738  1
  S  S5  1  0.438816  0.625522  0.348740  1
  S  S6  1  0.561184  0.125521  0.651262  1
  S  S7  1  0.938817  0.874479  0.151260  1
  S  S8  1  0.938817  0.625522  0.151260  1
  S  S9  1  0.561184  0.374479  0.651262  1
  S  S10  1  0.438816  0.874479  0.348740  1
  S  S11  1  0.061183  0.125521  0.848738  1
  S  S12  1  0.251789  0.400167  0.010771  1
  S  S13  1  0.248212  0.599833  0.510771  1
  S  S14  1  0.751788  0.099834  0.489230  1
  S  S15  1  0.748211  0.900167  0.989229  1
  S  S16  1  0.748211  0.599833  0.989229  1
  S  S17  1  0.751788  0.400167  0.489230  1
  S  S18  1  0.248212  0.900167  0.510771  1
  S  S19  1  0.251789  0.099834  0.010771  1
  S  S20  1  0.166457  0.359776  0.255760  1
  S  S21  1  0.333543  0.640224  0.755759  1
  S  S22  1  0.666456  0.140224  0.244240  1
  S  S23  1  0.833544  0.859777  0.744240  1
  S  S24  1  0.833544  0.640224  0.744240  1
  S  S25  1  0.666456  0.359776  0.244240  1
  S  S26  1  0.333543  0.859777  0.755759  1
  S  S27  1  0.166457  0.140224  0.255760  1
  S  S28  1  0.126293  0.250000  0.719624  1
  S  S29  1  0.373707  0.750000  0.219624  1
  S  S30  1  0.626292  0.250000  0.780374  1
  S  S31  1  0.873708  0.750000  0.280376  1
  N  N32  1  0.082032  0.250000  0.243549  1
  N  N33  1  0.417967  0.750000  0.743548  1
  N  N34  1  0.582033  0.250000  0.256452  1
  N  N35  1  0.917968  0.750000  0.756452  1
