# generated using pymatgen
data_RbVP2O7
_symmetry_space_group_name_H-M   'P 1'
_cell_length_a   7.65449043
_cell_length_b   8.40523438
_cell_length_c   10.23194012
_cell_angle_alpha   90.00000000
_cell_angle_beta   90.00000000
_cell_angle_gamma   105.94166533
_symmetry_Int_Tables_number   1
_chemical_formula_structural   RbVP2O7
_chemical_formula_sum   'Rb4 V4 P8 O28'
_cell_volume   632.98334978
_cell_formula_units_Z   4
loop_
 _symmetry_equiv_pos_site_id
 _symmetry_equiv_pos_as_xyz
  1  'x, y, z'
loop_
 _atom_site_type_symbol
 _atom_site_label
 _atom_site_symmetry_multiplicity
 _atom_site_fract_x
 _atom_site_fract_y
 _atom_site_fract_z
 _atom_site_occupancy
  O  O0  1  0.827405  0.303693  0.944100  1
  O  O1  1  0.172595  0.196307  0.444100  1
  O  O2  1  0.172595  0.696307  0.055900  1
  O  O3  1  0.827405  0.803693  0.555900  1
  O  O4  1  0.874071  0.266319  0.427000  1
  O  O5  1  0.125929  0.233681  0.927000  1
  O  O6  1  0.125929  0.733681  0.573000  1
  O  O7  1  0.874071  0.766319  0.073000  1
  O  O8  1  0.506434  0.274567  0.498174  1
  O  O9  1  0.493566  0.225433  0.998174  1
  O  O10  1  0.493566  0.725433  0.501826  1
  O  O11  1  0.506434  0.774567  0.001826  1
  O  O12  1  0.586957  0.261306  0.762999  1
  O  O13  1  0.413043  0.238694  0.262999  1
  O  O14  1  0.413043  0.738694  0.237001  1
  O  O15  1  0.586957  0.761306  0.737001  1
  O  O16  1  0.946993  0.737871  0.776701  1
  O  O17  1  0.053007  0.762129  0.276701  1
  O  O18  1  0.053007  0.262129  0.223299  1
  O  O19  1  0.946993  0.237871  0.723299  1
  O  O20  1  0.651728  0.013421  0.588550  1
  O  O21  1  0.348272  0.486579  0.088550  1
  O  O22  1  0.348272  0.986579  0.411450  1
  O  O23  1  0.651728  0.513421  0.911450  1
  O  O24  1  0.825516  0.010088  0.896587  1
  O  O25  1  0.174484  0.489912  0.396587  1
  O  O26  1  0.174484  0.989912  0.103413  1
  O  O27  1  0.825516  0.510088  0.603413  1
  P  P28  1  0.935117  0.187534  0.867741  1
  P  P29  1  0.064883  0.312466  0.367741  1
  P  P30  1  0.064883  0.812466  0.132259  1
  P  P31  1  0.935117  0.687534  0.632259  1
  P  P32  1  0.631921  0.329830  0.902844  1
  P  P33  1  0.368079  0.170170  0.402844  1
  P  P34  1  0.368079  0.670170  0.097156  1
  P  P35  1  0.631921  0.829830  0.597156  1
  V  V36  1  0.738521  0.259252  0.601484  1
  V  V37  1  0.261479  0.240748  0.101484  1
  V  V38  1  0.261479  0.740748  0.398516  1
  V  V39  1  0.738521  0.759252  0.898516  1
  Rb  Rb40  1  0.312528  0.447657  0.684571  1
  Rb  Rb41  1  0.687472  0.052343  0.184571  1
  Rb  Rb42  1  0.687472  0.552343  0.315429  1
  Rb  Rb43  1  0.312528  0.947657  0.815429  1
