# generated using pymatgen
data_Fe2PO5
_symmetry_space_group_name_H-M   'P 1'
_cell_length_a   6.54124831
_cell_length_b   7.46548494
_cell_length_c   7.58117724
_cell_angle_alpha   90.00000000
_cell_angle_beta   90.00000000
_cell_angle_gamma   90.00000000
_symmetry_Int_Tables_number   1
_chemical_formula_structural   Fe2PO5
_chemical_formula_sum   'Fe8 P4 O20'
_cell_volume   370.21610672
_cell_formula_units_Z   4
loop_
 _symmetry_equiv_pos_site_id
 _symmetry_equiv_pos_as_xyz
  1  'x, y, z'
loop_
 _atom_site_type_symbol
 _atom_site_label
 _atom_site_symmetry_multiplicity
 _atom_site_fract_x
 _atom_site_fract_y
 _atom_site_fract_z
 _atom_site_occupancy
  O  O0  1  0.559721  0.631278  0.748767  1
  O  O1  1  0.059721  0.368723  0.251233  1
  O  O2  1  0.940278  0.131277  0.751232  1
  O  O3  1  0.440279  0.868723  0.248767  1
  O  O4  1  0.440279  0.368723  0.251233  1
  O  O5  1  0.940278  0.631278  0.748767  1
  O  O6  1  0.059721  0.868723  0.248767  1
  O  O7  1  0.559721  0.131277  0.751232  1
  O  O8  1  0.250001  0.549086  0.019399  1
  O  O9  1  0.750001  0.450913  0.980600  1
  O  O10  1  0.250001  0.049087  0.480600  1
  O  O11  1  0.750001  0.950913  0.519400  1
  O  O12  1  0.250001  0.900277  0.857188  1
  O  O13  1  0.750001  0.099723  0.142813  1
  O  O14  1  0.250001  0.400277  0.642813  1
  O  O15  1  0.750001  0.599724  0.357188  1
  O  O16  1  0.750001  0.291487  0.506020  1
  O  O17  1  0.750001  0.791487  0.993980  1
  O  O18  1  0.250001  0.708513  0.493979  1
  O  O19  1  0.250001  0.208513  0.006020  1
  P  P20  1  0.250001  0.877201  0.371190  1
  P  P21  1  0.750001  0.122799  0.628811  1
  P  P22  1  0.250001  0.377201  0.128810  1
  P  P23  1  0.750001  0.622800  0.871189  1
  Fe  Fe24  1  0.750001  0.350559  0.215791  1
  Fe  Fe25  1  0.250001  0.149440  0.715791  1
  Fe  Fe26  1  0.750001  0.850560  0.284209  1
  Fe  Fe27  1  0.250001  0.649440  0.784208  1
  Fe  Fe28  1  0.000000  0.500000  0.500000  1
  Fe  Fe29  1  0.500000  0.500000  0.500000  1
  Fe  Fe30  1  0.500000  0.000000  0.000000  1
  Fe  Fe31  1  0.000000  0.000000  0.000000  1
