# generated using pymatgen
data_YH12(ClO2)3
_symmetry_space_group_name_H-M   'P 1'
_cell_length_a   6.53958134
_cell_length_b   7.87638272
_cell_length_c   9.64953472
_cell_angle_alpha   93.59569702
_cell_angle_beta   90.00000000
_cell_angle_gamma   90.00000000
_symmetry_Int_Tables_number   1
_chemical_formula_structural   YH12(ClO2)3
_chemical_formula_sum   'Y2 H24 Cl6 O12'
_cell_volume   496.05216923
_cell_formula_units_Z   2
loop_
 _symmetry_equiv_pos_site_id
 _symmetry_equiv_pos_as_xyz
  1  'x, y, z'
loop_
 _atom_site_type_symbol
 _atom_site_label
 _atom_site_symmetry_multiplicity
 _atom_site_fract_x
 _atom_site_fract_y
 _atom_site_fract_z
 _atom_site_occupancy
  H  H0  1  0.091610  0.608620  0.368793  1
  H  H1  1  0.091610  0.891380  0.131207  1
  H  H2  1  0.908390  0.391380  0.631207  1
  H  H3  1  0.908390  0.108620  0.868793  1
  H  H4  1  0.912898  0.583552  0.260718  1
  H  H5  1  0.912898  0.916448  0.239282  1
  H  H6  1  0.087102  0.416448  0.739282  1
  H  H7  1  0.087102  0.083552  0.760718  1
  H  H8  1  0.472001  0.518613  0.317375  1
  H  H9  1  0.472001  0.981387  0.182625  1
  H  H10  1  0.527999  0.481387  0.682625  1
  H  H11  1  0.527999  0.018613  0.817375  1
  H  H12  1  0.552324  0.354382  0.384971  1
  H  H13  1  0.552324  0.145618  0.115029  1
  H  H14  1  0.447676  0.645618  0.615029  1
  H  H15  1  0.447676  0.854382  0.884971  1
  H  H16  1  0.246315  0.507599  0.040765  1
  H  H17  1  0.246315  0.992401  0.459235  1
  H  H18  1  0.753685  0.492401  0.959235  1
  H  H19  1  0.753685  0.007599  0.540765  1
  H  H20  1  0.668287  0.838352  0.469059  1
  H  H21  1  0.668287  0.661648  0.030941  1
  H  H22  1  0.331713  0.161648  0.530941  1
  H  H23  1  0.331713  0.338352  0.969059  1
  O  O24  1  0.049937  0.540681  0.283259  1
  O  O25  1  0.049937  0.959319  0.216741  1
  O  O26  1  0.950063  0.459319  0.716741  1
  O  O27  1  0.950063  0.040681  0.783259  1
  O  O28  1  0.425737  0.411030  0.354467  1
  O  O29  1  0.425737  0.088970  0.145533  1
  O  O30  1  0.574263  0.588970  0.645533  1
  O  O31  1  0.574263  0.911030  0.854467  1
  O  O32  1  0.295740  0.393022  0.060799  1
  O  O33  1  0.295740  0.106978  0.439201  1
  O  O34  1  0.704260  0.606978  0.939201  1
  O  O35  1  0.704260  0.893022  0.560799  1
  Cl  Cl36  1  0.633134  0.750000  0.250000  1
  Cl  Cl37  1  0.366866  0.250000  0.750000  1
  Cl  Cl38  1  0.833869  0.242319  0.443012  1
  Cl  Cl39  1  0.833869  0.257681  0.056988  1
  Cl  Cl40  1  0.166131  0.757681  0.556988  1
  Cl  Cl41  1  0.166131  0.742319  0.943012  1
  Y  Y42  1  0.155146  0.250000  0.250000  1
  Y  Y43  1  0.844854  0.750000  0.750000  1
