# generated using pymatgen
data_K4Au6S5
_symmetry_space_group_name_H-M   'P 1'
_cell_length_a   9.83708300
_cell_length_b   9.83708300
_cell_length_c   10.13607066
_cell_angle_alpha   90.00000000
_cell_angle_beta   90.00000000
_cell_angle_gamma   119.99999999
_symmetry_Int_Tables_number   1
_chemical_formula_structural   K4Au6S5
_chemical_formula_sum   'K8 Au12 S10'
_cell_volume   849.44043960
_cell_formula_units_Z   2
loop_
 _symmetry_equiv_pos_site_id
 _symmetry_equiv_pos_as_xyz
  1  'x, y, z'
loop_
 _atom_site_type_symbol
 _atom_site_label
 _atom_site_symmetry_multiplicity
 _atom_site_fract_x
 _atom_site_fract_y
 _atom_site_fract_z
 _atom_site_occupancy
  S  S0  1  0.259864  0.034415  0.750000  1
  S  S1  1  0.333333  0.666667  0.545570  1
  S  S2  1  0.333333  0.666667  0.954430  1
  S  S3  1  0.666667  0.333333  0.045570  1
  S  S4  1  0.666667  0.333333  0.454430  1
  S  S5  1  0.034415  0.259864  0.250000  1
  S  S6  1  0.225449  0.965585  0.250000  1
  S  S7  1  0.740136  0.774551  0.250000  1
  S  S8  1  0.965585  0.225449  0.750000  1
  S  S9  1  0.774551  0.740136  0.750000  1
  K  K10  1  0.582640  0.927830  0.750000  1
  K  K11  1  0.072170  0.654810  0.750000  1
  K  K12  1  0.345190  0.417360  0.750000  1
  K  K13  1  0.417360  0.345190  0.250000  1
  K  K14  1  0.654810  0.072170  0.250000  1
  K  K15  1  0.000000  0.000000  0.000000  1
  K  K16  1  0.000000  0.000000  0.500000  1
  K  K17  1  0.927830  0.582640  0.250000  1
  Au  Au18  1  0.167344  0.450086  0.411532  1
  Au  Au19  1  0.282742  0.832656  0.411532  1
  Au  Au20  1  0.549914  0.717258  0.411532  1
  Au  Au21  1  0.717258  0.549914  0.588468  1
  Au  Au22  1  0.282742  0.832656  0.088468  1
  Au  Au23  1  0.167344  0.450086  0.088468  1
  Au  Au24  1  0.832656  0.282742  0.911532  1
  Au  Au25  1  0.450086  0.167344  0.911532  1
  Au  Au26  1  0.450086  0.167344  0.588468  1
  Au  Au27  1  0.832656  0.282742  0.588468  1
  Au  Au28  1  0.717258  0.549914  0.911532  1
  Au  Au29  1  0.549914  0.717258  0.088468  1
