# generated using pymatgen
data_PbS2O3
_symmetry_space_group_name_H-M   'P 1'
_cell_length_a   7.07700167
_cell_length_b   7.32207013
_cell_length_c   16.43508488
_cell_angle_alpha   90.00000000
_cell_angle_beta   90.00000000
_cell_angle_gamma   90.00000000
_symmetry_Int_Tables_number   1
_chemical_formula_structural   PbS2O3
_chemical_formula_sum   'Pb8 S16 O24'
_cell_volume   851.63820055
_cell_formula_units_Z   8
loop_
 _symmetry_equiv_pos_site_id
 _symmetry_equiv_pos_as_xyz
  1  'x, y, z'
loop_
 _atom_site_type_symbol
 _atom_site_label
 _atom_site_symmetry_multiplicity
 _atom_site_fract_x
 _atom_site_fract_y
 _atom_site_fract_z
 _atom_site_occupancy
  O  O0  1  0.565745  0.167136  0.870743  1
  O  O1  1  0.065745  0.832864  0.629257  1
  O  O2  1  0.934255  0.667136  0.129257  1
  O  O3  1  0.434255  0.332864  0.370743  1
  O  O4  1  0.434255  0.832864  0.129257  1
  O  O5  1  0.934255  0.167136  0.370743  1
  O  O6  1  0.065745  0.332864  0.870743  1
  O  O7  1  0.565745  0.667136  0.629257  1
  O  O8  1  0.539586  0.857637  0.923387  1
  O  O9  1  0.039586  0.142363  0.576613  1
  O  O10  1  0.960414  0.357637  0.076613  1
  O  O11  1  0.460414  0.642363  0.423387  1
  O  O12  1  0.460414  0.142363  0.076613  1
  O  O13  1  0.960414  0.857637  0.423387  1
  O  O14  1  0.039586  0.642363  0.923387  1
  O  O15  1  0.539586  0.357637  0.576613  1
  O  O16  1  0.825924  0.036363  0.952245  1
  O  O17  1  0.325924  0.963637  0.547755  1
  O  O18  1  0.674076  0.536363  0.047755  1
  O  O19  1  0.825924  0.536363  0.547755  1
  O  O20  1  0.174076  0.963637  0.047755  1
  O  O21  1  0.674076  0.036363  0.452245  1
  O  O22  1  0.325924  0.463637  0.952245  1
  O  O23  1  0.174076  0.463637  0.452245  1
  S  S24  1  0.329004  0.999178  0.106849  1
  S  S25  1  0.303972  0.107725  0.708300  1
  S  S26  1  0.696028  0.392275  0.208300  1
  S  S27  1  0.196028  0.607725  0.291700  1
  S  S28  1  0.196028  0.107725  0.208300  1
  S  S29  1  0.696028  0.892275  0.291700  1
  S  S30  1  0.303972  0.607725  0.791700  1
  S  S31  1  0.803972  0.392275  0.708300  1
  S  S32  1  0.670996  0.000822  0.893151  1
  S  S33  1  0.170996  0.999178  0.606849  1
  S  S34  1  0.829004  0.500822  0.106849  1
  S  S35  1  0.329004  0.499178  0.393151  1
  S  S36  1  0.670996  0.500822  0.606849  1
  S  S37  1  0.829004  0.000822  0.393151  1
  S  S38  1  0.170996  0.499178  0.893151  1
  S  S39  1  0.803972  0.892275  0.791700  1
  Pb  Pb40  1  0.654466  0.528456  0.876969  1
  Pb  Pb41  1  0.154466  0.471544  0.623031  1
  Pb  Pb42  1  0.845534  0.028456  0.123031  1
  Pb  Pb43  1  0.345534  0.971544  0.376969  1
  Pb  Pb44  1  0.345534  0.471544  0.123031  1
  Pb  Pb45  1  0.845534  0.528456  0.376969  1
  Pb  Pb46  1  0.154466  0.971544  0.876969  1
  Pb  Pb47  1  0.654466  0.028456  0.623031  1
