# generated using pymatgen
data_CsI3F16
_symmetry_space_group_name_H-M   'P 1'
_cell_length_a   14.23964605
_cell_length_b   14.23964605
_cell_length_c   14.23964605
_cell_angle_alpha   90.00000000
_cell_angle_beta   90.00000000
_cell_angle_gamma   90.00000000
_symmetry_Int_Tables_number   1
_chemical_formula_structural   CsI3F16
_chemical_formula_sum   'Cs8 I24 F128'
_cell_volume   2887.33770996
_cell_formula_units_Z   8
loop_
 _symmetry_equiv_pos_site_id
 _symmetry_equiv_pos_as_xyz
  1  'x, y, z'
loop_
 _atom_site_type_symbol
 _atom_site_label
 _atom_site_symmetry_multiplicity
 _atom_site_fract_x
 _atom_site_fract_y
 _atom_site_fract_z
 _atom_site_occupancy
  F  F0  1  0.268140  0.596387  0.228754  1
  F  F1  1  0.231860  0.728754  0.903613  1
  F  F2  1  0.231860  0.271246  0.096387  1
  F  F3  1  0.271246  0.903613  0.768140  1
  F  F4  1  0.728754  0.903613  0.231860  1
  F  F5  1  0.096387  0.231860  0.271246  1
  F  F6  1  0.903613  0.768140  0.271246  1
  F  F7  1  0.228754  0.268140  0.596387  1
  F  F8  1  0.596387  0.228754  0.268140  1
  F  F9  1  0.403613  0.771246  0.268140  1
  F  F10  1  0.228754  0.731860  0.403613  1
  F  F11  1  0.403613  0.228754  0.731860  1
  F  F12  1  0.771246  0.731860  0.596387  1
  F  F13  1  0.771246  0.268140  0.403613  1
  F  F14  1  0.596387  0.771246  0.731860  1
  F  F15  1  0.268140  0.403613  0.771246  1
  F  F16  1  0.731860  0.596387  0.771246  1
  F  F17  1  0.731860  0.403613  0.228754  1
  F  F18  1  0.903613  0.231860  0.728754  1
  F  F19  1  0.096387  0.768140  0.728754  1
  F  F20  1  0.271246  0.096387  0.231860  1
  F  F21  1  0.728754  0.096387  0.768140  1
  F  F22  1  0.768140  0.271246  0.903613  1
  F  F23  1  0.768140  0.728754  0.096387  1
  F  F24  1  0.365479  0.456501  0.183756  1
  F  F25  1  0.134521  0.683756  0.043499  1
  F  F26  1  0.134521  0.316244  0.956501  1
  F  F27  1  0.316244  0.043499  0.865479  1
  F  F28  1  0.683756  0.043499  0.134521  1
  F  F29  1  0.956501  0.134521  0.316244  1
  F  F30  1  0.043499  0.865479  0.316244  1
  F  F31  1  0.183756  0.365479  0.456501  1
  F  F32  1  0.456501  0.183756  0.365479  1
  F  F33  1  0.543499  0.816244  0.365479  1
  F  F34  1  0.183756  0.634521  0.543499  1
  F  F35  1  0.543499  0.183756  0.634521  1
  F  F36  1  0.816244  0.634521  0.456501  1
  F  F37  1  0.816244  0.365479  0.543499  1
  F  F38  1  0.456501  0.816244  0.634521  1
  F  F39  1  0.365479  0.543499  0.816244  1
  F  F40  1  0.634521  0.456501  0.816244  1
  F  F41  1  0.634521  0.543499  0.183756  1
  F  F42  1  0.043499  0.134521  0.683756  1
  F  F43  1  0.956501  0.865479  0.683756  1
  F  F44  1  0.316244  0.956501  0.134521  1
  F  F45  1  0.683756  0.956501  0.865479  1
  F  F46  1  0.865479  0.316244  0.043499  1
  F  F47  1  0.865479  0.683756  0.956501  1
  F  F48  1  0.136558  0.517700  0.315472  1
  F  F49  1  0.363442  0.815472  0.982300  1
  F  F50  1  0.363442  0.184528  0.017700  1
  F  F51  1  0.184528  0.982300  0.636558  1
  F  F52  1  0.815472  0.982300  0.363442  1
  F  F53  1  0.017700  0.363442  0.184528  1
  F  F54  1  0.982300  0.636558  0.184528  1
  F  F55  1  0.315472  0.136558  0.517700  1
  F  F56  1  0.517700  0.315472  0.136558  1
  F  F57  1  0.482300  0.684528  0.136558  1
  F  F58  1  0.315472  0.863442  0.482300  1
  F  F59  1  0.482300  0.315472  0.863442  1
  F  F60  1  0.684528  0.863442  0.517700  1
  F  F61  1  0.684528  0.136558  0.482300  1
  F  F62  1  0.517700  0.684528  0.863442  1
  F  F63  1  0.136558  0.482300  0.684528  1
  F  F64  1  0.863442  0.517700  0.684528  1
  F  F65  1  0.863442  0.482300  0.315472  1
  F  F66  1  0.982300  0.363442  0.815472  1
  F  F67  1  0.017700  0.636558  0.815472  1
  F  F68  1  0.184528  0.017700  0.363442  1
  F  F69  1  0.815472  0.017700  0.636558  1
  F  F70  1  0.636558  0.184528  0.982300  1
  F  F71  1  0.636558  0.815472  0.017700  1
  F  F72  1  0.320345  0.500931  0.363667  1
  F  F73  1  0.179655  0.863667  0.999069  1
  F  F74  1  0.179655  0.136333  0.000931  1
  F  F75  1  0.136333  0.999069  0.820345  1
  F  F76  1  0.863667  0.999069  0.179655  1
  F  F77  1  0.000931  0.179655  0.136333  1
  F  F78  1  0.999069  0.820345  0.136333  1
  F  F79  1  0.363667  0.320345  0.500931  1
  F  F80  1  0.500931  0.363667  0.320345  1
  F  F81  1  0.499069  0.636333  0.320345  1
  F  F82  1  0.363667  0.679655  0.499069  1
  F  F83  1  0.499069  0.363667  0.679655  1
  F  F84  1  0.636333  0.679655  0.500931  1
  F  F85  1  0.636333  0.320345  0.499069  1
  F  F86  1  0.500931  0.636333  0.679655  1
  F  F87  1  0.320345  0.499069  0.636333  1
  F  F88  1  0.679655  0.500931  0.636333  1
  F  F89  1  0.679655  0.499069  0.363667  1
  F  F90  1  0.999069  0.179655  0.863667  1
  F  F91  1  0.000931  0.820345  0.863667  1
  F  F92  1  0.136333  0.000931  0.179655  1
  F  F93  1  0.863667  0.000931  0.820345  1
  F  F94  1  0.820345  0.136333  0.999069  1
  F  F95  1  0.820345  0.863667  0.000931  1
  F  F96  1  0.183569  0.477326  0.133000  1
  F  F97  1  0.316431  0.633000  0.022674  1
  F  F98  1  0.316431  0.367000  0.977326  1
  F  F99  1  0.367000  0.022674  0.683569  1
  F  F100  1  0.633000  0.022674  0.316431  1
  F  F101  1  0.977326  0.316431  0.367000  1
  F  F102  1  0.022674  0.683569  0.367000  1
  F  F103  1  0.133000  0.183569  0.477326  1
  F  F104  1  0.477326  0.133000  0.183569  1
  F  F105  1  0.522674  0.867000  0.183569  1
  F  F106  1  0.133000  0.816431  0.522674  1
  F  F107  1  0.522674  0.133000  0.816431  1
  F  F108  1  0.867000  0.816431  0.477326  1
  F  F109  1  0.867000  0.183569  0.522674  1
  F  F110  1  0.477326  0.867000  0.816431  1
  F  F111  1  0.183569  0.522674  0.867000  1
  F  F112  1  0.816431  0.477326  0.867000  1
  F  F113  1  0.816431  0.522674  0.133000  1
  F  F114  1  0.022674  0.316431  0.633000  1
  F  F115  1  0.977326  0.683569  0.633000  1
  F  F116  1  0.367000  0.977326  0.316431  1
  F  F117  1  0.633000  0.977326  0.683569  1
  F  F118  1  0.683569  0.367000  0.022674  1
  F  F119  1  0.683569  0.633000  0.977326  1
  F  F120  1  0.692518  0.307482  0.692518  1
  F  F121  1  0.807482  0.192518  0.192518  1
  F  F122  1  0.807482  0.807482  0.807482  1
  F  F123  1  0.192518  0.192518  0.807482  1
  F  F124  1  0.692518  0.692518  0.307482  1
  F  F125  1  0.307482  0.692518  0.692518  1
  F  F126  1  0.307482  0.307482  0.307482  1
  F  F127  1  0.192518  0.807482  0.192518  1
  I  I128  1  0.248736  0.468377  0.253320  1
  I  I129  1  0.251264  0.753320  0.031623  1
  I  I130  1  0.251264  0.246680  0.968377  1
  I  I131  1  0.246680  0.031623  0.748736  1
  I  I132  1  0.753320  0.031623  0.251264  1
  I  I133  1  0.968377  0.251264  0.246680  1
  I  I134  1  0.031623  0.748736  0.246680  1
  I  I135  1  0.253320  0.248736  0.468377  1
  I  I136  1  0.468377  0.253320  0.248736  1
  I  I137  1  0.531623  0.746680  0.248736  1
  I  I138  1  0.253320  0.751264  0.531623  1
  I  I139  1  0.531623  0.253320  0.751264  1
  I  I140  1  0.746680  0.751264  0.468377  1
  I  I141  1  0.746680  0.248736  0.531623  1
  I  I142  1  0.468377  0.746680  0.751264  1
  I  I143  1  0.248736  0.531623  0.746680  1
  I  I144  1  0.751264  0.468377  0.746680  1
  I  I145  1  0.751264  0.531623  0.253320  1
  I  I146  1  0.031623  0.251264  0.753320  1
  I  I147  1  0.968377  0.748736  0.753320  1
  I  I148  1  0.246680  0.968377  0.251264  1
  I  I149  1  0.753320  0.968377  0.748736  1
  I  I150  1  0.748736  0.246680  0.031623  1
  I  I151  1  0.748736  0.753320  0.968377  1
  Cs  Cs152  1  0.000000  0.000000  0.000000  1
  Cs  Cs153  1  0.500000  0.500000  0.500000  1
  Cs  Cs154  1  0.000000  0.500000  0.500000  1
  Cs  Cs155  1  0.500000  0.000000  0.000000  1
  Cs  Cs156  1  0.000000  0.000000  0.500000  1
  Cs  Cs157  1  0.000000  0.500000  0.000000  1
  Cs  Cs158  1  0.500000  0.000000  0.500000  1
  Cs  Cs159  1  0.500000  0.500000  0.000000  1
