# generated using pymatgen
data_TcH4NO4
_symmetry_space_group_name_H-M   'P 1'
_cell_length_a   6.25798309
_cell_length_b   6.25798310
_cell_length_c   7.63579456
_cell_angle_alpha   114.19097970
_cell_angle_beta   114.19097977
_cell_angle_gamma   89.99999995
_symmetry_Int_Tables_number   1
_chemical_formula_structural   TcH4NO4
_chemical_formula_sum   'Tc2 H8 N2 O8'
_cell_volume   243.70245239
_cell_formula_units_Z   2
loop_
 _symmetry_equiv_pos_site_id
 _symmetry_equiv_pos_as_xyz
  1  'x, y, z'
loop_
 _atom_site_type_symbol
 _atom_site_label
 _atom_site_symmetry_multiplicity
 _atom_site_fract_x
 _atom_site_fract_y
 _atom_site_fract_z
 _atom_site_occupancy
  H  H0  1  0.556000  0.198081  0.848633  1
  H  H1  1  0.650552  0.056000  0.348633  1
  H  H2  1  0.444000  0.801919  0.151367  1
  H  H3  1  0.349448  0.944000  0.651367  1
  H  H4  1  0.292633  0.150552  0.848633  1
  H  H5  1  0.707367  0.849448  0.151367  1
  H  H6  1  0.698081  0.792633  0.348633  1
  H  H7  1  0.301919  0.207367  0.651367  1
  N  N8  1  0.625000  0.875000  0.250000  1
  N  N9  1  0.375000  0.125000  0.750000  1
  O  O10  1  0.839826  0.394509  0.088973  1
  O  O11  1  0.894509  0.749147  0.588973  1
  O  O12  1  0.160174  0.605491  0.911027  1
  O  O13  1  0.305536  0.660174  0.411027  1
  O  O14  1  0.105491  0.250853  0.411027  1
  O  O15  1  0.249147  0.194464  0.088973  1
  O  O16  1  0.694464  0.339826  0.588973  1
  O  O17  1  0.750853  0.805536  0.911027  1
  Tc  Tc18  1  0.875000  0.625000  0.750000  1
  Tc  Tc19  1  0.125000  0.375000  0.250000  1
