# generated using pymatgen
data_K9Co2S7
_symmetry_space_group_name_H-M   'P 1'
_cell_length_a   12.82423124
_cell_length_b   12.82423124
_cell_length_c   12.82423124
_cell_angle_alpha   90.00000000
_cell_angle_beta   90.00000000
_cell_angle_gamma   90.00000000
_symmetry_Int_Tables_number   1
_chemical_formula_structural   K9Co2S7
_chemical_formula_sum   'K36 Co8 S28'
_cell_volume   2109.08469999
_cell_formula_units_Z   4
loop_
 _symmetry_equiv_pos_site_id
 _symmetry_equiv_pos_as_xyz
  1  'x, y, z'
loop_
 _atom_site_type_symbol
 _atom_site_label
 _atom_site_symmetry_multiplicity
 _atom_site_fract_x
 _atom_site_fract_y
 _atom_site_fract_z
 _atom_site_occupancy
  K  K0  1  0.806207  0.685675  0.969212  1
  K  K1  1  0.685675  0.969212  0.806207  1
  K  K2  1  0.579530  0.920470  0.079530  1
  K  K3  1  0.249452  0.749452  0.750548  1
  K  K4  1  0.469212  0.693793  0.314325  1
  K  K5  1  0.193794  0.185675  0.530788  1
  K  K6  1  0.749452  0.750548  0.249452  1
  K  K7  1  0.030217  0.806269  0.185547  1
  K  K8  1  0.306206  0.814325  0.030788  1
  K  K9  1  0.920088  0.579912  0.420088  1
  K  K10  1  0.530217  0.693731  0.814453  1
  K  K11  1  0.750548  0.249452  0.749452  1
  K  K12  1  0.185675  0.530788  0.193794  1
  K  K13  1  0.079530  0.579530  0.920470  1
  K  K14  1  0.579912  0.420088  0.920088  1
  K  K15  1  0.193731  0.685547  0.469783  1
  K  K16  1  0.530788  0.193794  0.185675  1
  K  K17  1  0.314453  0.969783  0.306269  1
  K  K18  1  0.469783  0.193731  0.685547  1
  K  K19  1  0.814325  0.030788  0.306206  1
  K  K20  1  0.969783  0.306269  0.314453  1
  K  K21  1  0.250548  0.250548  0.250548  1
  K  K22  1  0.969212  0.806207  0.685675  1
  K  K23  1  0.306269  0.314453  0.969783  1
  K  K24  1  0.806269  0.185547  0.030217  1
  K  K25  1  0.185547  0.030217  0.806269  1
  K  K26  1  0.693793  0.314325  0.469212  1
  K  K27  1  0.814453  0.530217  0.693731  1
  K  K28  1  0.314325  0.469212  0.693793  1
  K  K29  1  0.693731  0.814453  0.530217  1
  K  K30  1  0.079912  0.079912  0.079912  1
  K  K31  1  0.030788  0.306206  0.814325  1
  K  K32  1  0.420088  0.920088  0.579912  1
  K  K33  1  0.685547  0.469783  0.193731  1
  K  K34  1  0.920470  0.079530  0.579530  1
  K  K35  1  0.420470  0.420470  0.420470  1
  Co  Co36  1  0.435742  0.564258  0.064258  1
  Co  Co37  1  0.935742  0.935742  0.935742  1
  Co  Co38  1  0.564258  0.064258  0.435742  1
  Co  Co39  1  0.564283  0.564283  0.564283  1
  Co  Co40  1  0.064283  0.935717  0.435717  1
  Co  Co41  1  0.935717  0.435717  0.064283  1
  Co  Co42  1  0.064258  0.435742  0.564258  1
  Co  Co43  1  0.435717  0.064283  0.935717  1
  S  S44  1  0.075409  0.569812  0.668985  1
  S  S45  1  0.831015  0.924591  0.069812  1
  S  S46  1  0.570136  0.168593  0.924560  1
  S  S47  1  0.750334  0.250334  0.249666  1
  S  S48  1  0.668985  0.075409  0.569812  1
  S  S49  1  0.924560  0.570136  0.168593  1
  S  S50  1  0.575409  0.930188  0.331015  1
  S  S51  1  0.070136  0.331407  0.075440  1
  S  S52  1  0.924591  0.069812  0.831015  1
  S  S53  1  0.250334  0.249666  0.750334  1
  S  S54  1  0.331015  0.575409  0.930188  1
  S  S55  1  0.930188  0.331015  0.575409  1
  S  S56  1  0.424560  0.929864  0.831407  1
  S  S57  1  0.249666  0.750334  0.250334  1
  S  S58  1  0.168985  0.424591  0.430188  1
  S  S59  1  0.749666  0.749666  0.749666  1
  S  S60  1  0.168593  0.924560  0.570136  1
  S  S61  1  0.069812  0.831015  0.924591  1
  S  S62  1  0.331407  0.075440  0.070136  1
  S  S63  1  0.430188  0.168985  0.424591  1
  S  S64  1  0.569812  0.668985  0.075409  1
  S  S65  1  0.424591  0.430188  0.168985  1
  S  S66  1  0.929864  0.831407  0.424560  1
  S  S67  1  0.429864  0.668593  0.575440  1
  S  S68  1  0.668593  0.575440  0.429864  1
  S  S69  1  0.075440  0.070136  0.331407  1
  S  S70  1  0.575440  0.429864  0.668593  1
  S  S71  1  0.831407  0.424560  0.929864  1
