# generated using pymatgen
data_K3AuSe13
_symmetry_space_group_name_H-M   'P 1'
_cell_length_a   5.10224257
_cell_length_b   13.89958954
_cell_length_c   15.34597151
_cell_angle_alpha   94.42806422
_cell_angle_beta   90.00000000
_cell_angle_gamma   90.00000000
_symmetry_Int_Tables_number   1
_chemical_formula_structural   K3AuSe13
_chemical_formula_sum   'K6 Au2 Se26'
_cell_volume   1085.07356015
_cell_formula_units_Z   2
loop_
 _symmetry_equiv_pos_site_id
 _symmetry_equiv_pos_as_xyz
  1  'x, y, z'
loop_
 _atom_site_type_symbol
 _atom_site_label
 _atom_site_symmetry_multiplicity
 _atom_site_fract_x
 _atom_site_fract_y
 _atom_site_fract_z
 _atom_site_occupancy
  K  K0  1  0.798599  0.836071  0.721800  1
  K  K1  1  0.798599  0.663929  0.278200  1
  K  K2  1  0.837177  0.750000  0.000000  1
  K  K3  1  0.162823  0.250000  0.000000  1
  K  K4  1  0.201401  0.163930  0.278200  1
  K  K5  1  0.201401  0.336070  0.721800  1
  Se  Se6  1  0.702140  0.449421  0.619674  1
  Se  Se7  1  0.355046  0.423121  0.268721  1
  Se  Se8  1  0.644954  0.923121  0.268721  1
  Se  Se9  1  0.644954  0.576879  0.731279  1
  Se  Se10  1  0.076490  0.465054  0.150445  1
  Se  Se11  1  0.076490  0.034946  0.849555  1
  Se  Se12  1  0.923510  0.534946  0.849555  1
  Se  Se13  1  0.923510  0.965054  0.150445  1
  Se  Se14  1  0.318848  0.579190  0.073372  1
  Se  Se15  1  0.355046  0.076879  0.731279  1
  Se  Se16  1  0.681152  0.420810  0.926628  1
  Se  Se17  1  0.681152  0.079190  0.073372  1
  Se  Se18  1  0.307424  0.733280  0.151215  1
  Se  Se19  1  0.307424  0.766720  0.848785  1
  Se  Se20  1  0.692576  0.266720  0.848785  1
  Se  Se21  1  0.692576  0.233280  0.151215  1
  Se  Se22  1  0.902678  0.342168  0.412971  1
  Se  Se23  1  0.902678  0.157832  0.587029  1
  Se  Se24  1  0.097322  0.657832  0.587029  1
  Se  Se25  1  0.097322  0.842168  0.412971  1
  Se  Se26  1  0.371375  0.750000  0.500000  1
  Se  Se27  1  0.628625  0.250000  0.500000  1
  Se  Se28  1  0.297860  0.550579  0.380326  1
  Se  Se29  1  0.297860  0.949421  0.619674  1
  Se  Se30  1  0.318848  0.920810  0.926628  1
  Se  Se31  1  0.702140  0.050579  0.380326  1
  Au  Au32  1  0.000000  0.500000  0.500000  1
  Au  Au33  1  0.000000  0.000000  0.500000  1
