# generated using pymatgen
data_CuP2PbO7
_symmetry_space_group_name_H-M   'P 1'
_cell_length_a   5.51485091
_cell_length_b   8.29145400
_cell_length_c   12.71394251
_cell_angle_alpha   90.00000000
_cell_angle_beta   90.79903525
_cell_angle_gamma   90.00000000
_symmetry_Int_Tables_number   1
_chemical_formula_structural   CuP2PbO7
_chemical_formula_sum   'Cu4 P8 Pb4 O28'
_cell_volume   581.30288945
_cell_formula_units_Z   4
loop_
 _symmetry_equiv_pos_site_id
 _symmetry_equiv_pos_as_xyz
  1  'x, y, z'
loop_
 _atom_site_type_symbol
 _atom_site_label
 _atom_site_symmetry_multiplicity
 _atom_site_fract_x
 _atom_site_fract_y
 _atom_site_fract_z
 _atom_site_occupancy
  Cu  Cu0  1  0.789019  0.355728  0.112794  1
  Cu  Cu1  1  0.289019  0.144272  0.612794  1
  Cu  Cu2  1  0.210981  0.644272  0.887206  1
  Cu  Cu3  1  0.710981  0.855728  0.387206  1
  P  P4  1  0.755940  0.962829  0.161141  1
  P  P5  1  0.244060  0.037171  0.838859  1
  P  P6  1  0.320558  0.305429  0.987360  1
  P  P7  1  0.179442  0.805429  0.512640  1
  P  P8  1  0.255940  0.537171  0.661141  1
  P  P9  1  0.820558  0.194571  0.487360  1
  P  P10  1  0.744060  0.462829  0.338859  1
  P  P11  1  0.679442  0.694571  0.012640  1
  Pb  Pb12  1  0.710261  0.832365  0.722267  1
  Pb  Pb13  1  0.789739  0.332365  0.777733  1
  Pb  Pb14  1  0.289739  0.167634  0.277733  1
  Pb  Pb15  1  0.210261  0.667635  0.222267  1
  O  O16  1  0.176454  0.360831  0.651021  1
  O  O17  1  0.576996  0.878033  0.236640  1
  O  O18  1  0.785946  0.681744  0.903447  1
  O  O19  1  0.683328  0.094144  0.402411  1
  O  O20  1  0.183328  0.405856  0.902411  1
  O  O21  1  0.423004  0.121967  0.763360  1
  O  O22  1  0.923004  0.378033  0.263360  1
  O  O23  1  0.823546  0.639169  0.348979  1
  O  O24  1  0.323546  0.860831  0.848979  1
  O  O25  1  0.220378  0.617478  0.546804  1
  O  O26  1  0.316672  0.905856  0.597589  1
  O  O27  1  0.902621  0.835901  0.519524  1
  O  O28  1  0.020901  0.940390  0.194568  1
  O  O29  1  0.076996  0.621967  0.736640  1
  O  O30  1  0.597379  0.335901  0.980476  1
  O  O31  1  0.779622  0.382522  0.453196  1
  O  O32  1  0.816672  0.594144  0.097589  1
  O  O33  1  0.402621  0.664099  0.019524  1
  O  O34  1  0.714054  0.181744  0.596553  1
  O  O35  1  0.279622  0.117478  0.953196  1
  O  O36  1  0.097379  0.164099  0.480476  1
  O  O37  1  0.520901  0.559610  0.694568  1
  O  O38  1  0.720378  0.882522  0.046804  1
  O  O39  1  0.479099  0.440390  0.305432  1
  O  O40  1  0.979099  0.059610  0.805432  1
  O  O41  1  0.285946  0.818256  0.403447  1
  O  O42  1  0.676454  0.139169  0.151021  1
  O  O43  1  0.214054  0.318256  0.096553  1
