# generated using pymatgen
data_Na3InCl6
_symmetry_space_group_name_H-M   'P 1'
_cell_length_a   7.04704422
_cell_length_b   7.04704460
_cell_length_c   12.43549520
_cell_angle_alpha   90.00000000
_cell_angle_beta   90.00000000
_cell_angle_gamma   119.99999824
_symmetry_Int_Tables_number   1
_chemical_formula_structural   Na3InCl6
_chemical_formula_sum   'Na6 In2 Cl12'
_cell_volume   534.82012376
_cell_formula_units_Z   2
loop_
 _symmetry_equiv_pos_site_id
 _symmetry_equiv_pos_as_xyz
  1  'x, y, z'
loop_
 _atom_site_type_symbol
 _atom_site_label
 _atom_site_symmetry_multiplicity
 _atom_site_fract_x
 _atom_site_fract_y
 _atom_site_fract_z
 _atom_site_occupancy
  Na  Na0  1  0.333333  0.666667  0.449217  1
  Na  Na1  1  0.333333  0.666667  0.050783  1
  Na  Na2  1  0.666667  0.333333  0.550783  1
  Na  Na3  1  0.000000  0.000000  0.250000  1
  Na  Na4  1  0.666667  0.333333  0.949217  1
  Na  Na5  1  0.000000  0.000000  0.750000  1
  In  In6  1  0.333333  0.666667  0.750000  1
  In  In7  1  0.666667  0.333333  0.250000  1
  Cl  Cl8  1  0.051682  0.685864  0.872137  1
  Cl  Cl9  1  0.314136  0.948318  0.627863  1
  Cl  Cl10  1  0.051682  0.365819  0.627863  1
  Cl  Cl11  1  0.314136  0.365819  0.872137  1
  Cl  Cl12  1  0.634181  0.948318  0.872137  1
  Cl  Cl13  1  0.365819  0.314136  0.372137  1
  Cl  Cl14  1  0.634181  0.685864  0.627863  1
  Cl  Cl15  1  0.365819  0.051682  0.127863  1
  Cl  Cl16  1  0.685864  0.634181  0.127863  1
  Cl  Cl17  1  0.948318  0.634181  0.372137  1
  Cl  Cl18  1  0.685864  0.051682  0.372137  1
  Cl  Cl19  1  0.948318  0.314136  0.127863  1
