# generated using pymatgen
data_NaMgH3
_symmetry_space_group_name_H-M   'P 1'
_cell_length_a   5.39096595
_cell_length_b   5.44938849
_cell_length_c   7.65627936
_cell_angle_alpha   90.00000000
_cell_angle_beta   90.00000000
_cell_angle_gamma   90.00000000
_symmetry_Int_Tables_number   1
_chemical_formula_structural   NaMgH3
_chemical_formula_sum   'Na4 Mg4 H12'
_cell_volume   224.92210035
_cell_formula_units_Z   4
loop_
 _symmetry_equiv_pos_site_id
 _symmetry_equiv_pos_as_xyz
  1  'x, y, z'
loop_
 _atom_site_type_symbol
 _atom_site_label
 _atom_site_symmetry_multiplicity
 _atom_site_fract_x
 _atom_site_fract_y
 _atom_site_fract_z
 _atom_site_occupancy
  Na  Na0  1  0.008245  0.017657  0.250000  1
  Na  Na1  1  0.491755  0.517657  0.250000  1
  Na  Na2  1  0.508245  0.482343  0.750000  1
  Na  Na3  1  0.991755  0.982343  0.750000  1
  Mg  Mg4  1  0.000000  0.500000  0.500000  1
  Mg  Mg5  1  0.000000  0.500000  0.000000  1
  Mg  Mg6  1  0.500000  0.000000  0.000000  1
  Mg  Mg7  1  0.500000  0.000000  0.500000  1
  H  H8  1  0.222850  0.776385  0.045068  1
  H  H9  1  0.277150  0.276385  0.454932  1
  H  H10  1  0.777150  0.223615  0.954932  1
  H  H11  1  0.584241  0.984516  0.250000  1
  H  H12  1  0.915759  0.484516  0.250000  1
  H  H13  1  0.277150  0.276385  0.045068  1
  H  H14  1  0.722850  0.723615  0.545068  1
  H  H15  1  0.722850  0.723615  0.954932  1
  H  H16  1  0.415759  0.015484  0.750000  1
  H  H17  1  0.777150  0.223615  0.545068  1
  H  H18  1  0.084241  0.515484  0.750000  1
  H  H19  1  0.222850  0.776385  0.454932  1
