# generated using pymatgen
data_Bi2P4O13
_symmetry_space_group_name_H-M   'P 1'
_cell_length_a   6.98524863
_cell_length_b   7.01177914
_cell_length_c   13.39076242
_cell_angle_alpha   103.85414575
_cell_angle_beta   90.00000000
_cell_angle_gamma   119.87491472
_symmetry_Int_Tables_number   1
_chemical_formula_structural   Bi2P4O13
_chemical_formula_sum   'Bi4 P8 O26'
_cell_volume   546.59746325
_cell_formula_units_Z   2
loop_
 _symmetry_equiv_pos_site_id
 _symmetry_equiv_pos_as_xyz
  1  'x, y, z'
loop_
 _atom_site_type_symbol
 _atom_site_label
 _atom_site_symmetry_multiplicity
 _atom_site_fract_x
 _atom_site_fract_y
 _atom_site_fract_z
 _atom_site_occupancy
  O  O0  1  0.766840  0.000000  0.750000  1
  O  O1  1  0.233160  0.000000  0.250000  1
  O  O2  1  0.693468  0.004885  0.934192  1
  O  O3  1  0.688583  0.995115  0.565808  1
  O  O4  1  0.306532  0.995115  0.065808  1
  O  O5  1  0.311417  0.004885  0.434192  1
  O  O6  1  0.102662  0.220720  0.893559  1
  O  O7  1  0.881942  0.779280  0.606441  1
  O  O8  1  0.897338  0.779280  0.106441  1
  O  O9  1  0.118058  0.220720  0.393559  1
  O  O10  1  0.093331  0.193473  0.655265  1
  O  O11  1  0.899858  0.806527  0.844735  1
  O  O12  1  0.708085  0.402027  0.228385  1
  O  O13  1  0.306058  0.597973  0.271615  1
  O  O14  1  0.291915  0.597973  0.771615  1
  O  O15  1  0.693942  0.402027  0.728385  1
  O  O16  1  0.433294  0.507978  0.095860  1
  O  O17  1  0.925316  0.492022  0.404140  1
  O  O18  1  0.566706  0.492022  0.904140  1
  O  O19  1  0.074684  0.507978  0.595860  1
  O  O20  1  0.077922  0.497247  0.097305  1
  O  O21  1  0.580675  0.502753  0.402695  1
  O  O22  1  0.922078  0.502753  0.902695  1
  O  O23  1  0.419325  0.497247  0.597305  1
  O  O24  1  0.100142  0.193473  0.155265  1
  O  O25  1  0.906669  0.806527  0.344735  1
  P  P26  1  0.844887  0.979498  0.636450  1
  P  P27  1  0.865389  0.020502  0.863550  1
  P  P28  1  0.155113  0.020502  0.363550  1
  P  P29  1  0.134611  0.979498  0.136450  1
  P  P30  1  0.223395  0.460687  0.658424  1
  P  P31  1  0.762707  0.539313  0.841576  1
  P  P32  1  0.776605  0.539313  0.341576  1
  P  P33  1  0.237293  0.460687  0.158424  1
  Bi  Bi34  1  0.300955  0.604183  0.941099  1
  Bi  Bi35  1  0.696772  0.395817  0.558901  1
  Bi  Bi36  1  0.699045  0.395817  0.058901  1
  Bi  Bi37  1  0.303228  0.604183  0.441099  1
