# generated using pymatgen
data_MoPRu
_symmetry_space_group_name_H-M   'P 1'
_cell_length_a   3.89447193
_cell_length_b   6.04892270
_cell_length_c   6.98932528
_cell_angle_alpha   90.00000000
_cell_angle_beta   90.00000000
_cell_angle_gamma   90.00000000
_symmetry_Int_Tables_number   1
_chemical_formula_structural   MoPRu
_chemical_formula_sum   'Mo4 P4 Ru4'
_cell_volume   164.65004941
_cell_formula_units_Z   4
loop_
 _symmetry_equiv_pos_site_id
 _symmetry_equiv_pos_as_xyz
  1  'x, y, z'
loop_
 _atom_site_type_symbol
 _atom_site_label
 _atom_site_symmetry_multiplicity
 _atom_site_fract_x
 _atom_site_fract_y
 _atom_site_fract_z
 _atom_site_occupancy
  P  P0  1  0.250000  0.255614  0.116727  1
  P  P1  1  0.750000  0.744386  0.883273  1
  P  P2  1  0.250000  0.755614  0.383273  1
  P  P3  1  0.750000  0.244386  0.616727  1
  Mo  Mo4  1  0.750000  0.973891  0.169032  1
  Mo  Mo5  1  0.250000  0.026109  0.830968  1
  Mo  Mo6  1  0.750000  0.473891  0.330968  1
  Mo  Mo7  1  0.250000  0.526109  0.669032  1
  Ru  Ru8  1  0.250000  0.640901  0.068359  1
  Ru  Ru9  1  0.750000  0.359099  0.931641  1
  Ru  Ru10  1  0.250000  0.140901  0.431641  1
  Ru  Ru11  1  0.750000  0.859099  0.568359  1
