# generated using pymatgen
data_LaFeGe2O7
_symmetry_space_group_name_H-M   'P 1'
_cell_length_a   6.72827804
_cell_length_b   7.42080676
_cell_length_c   11.84792801
_cell_angle_alpha   96.52302851
_cell_angle_beta   90.00000000
_cell_angle_gamma   90.00000000
_symmetry_Int_Tables_number   1
_chemical_formula_structural   LaFeGe2O7
_chemical_formula_sum   'La4 Fe4 Ge8 O28'
_cell_volume   587.72858935
_cell_formula_units_Z   4
loop_
 _symmetry_equiv_pos_site_id
 _symmetry_equiv_pos_as_xyz
  1  'x, y, z'
loop_
 _atom_site_type_symbol
 _atom_site_label
 _atom_site_symmetry_multiplicity
 _atom_site_fract_x
 _atom_site_fract_y
 _atom_site_fract_z
 _atom_site_occupancy
  O  O0  1  0.313838  0.530736  0.686821  1
  O  O1  1  0.813838  0.969264  0.813179  1
  O  O2  1  0.686162  0.469264  0.313179  1
  O  O3  1  0.186162  0.030736  0.186821  1
  O  O4  1  0.046748  0.832782  0.626523  1
  O  O5  1  0.546748  0.667218  0.873477  1
  O  O6  1  0.953252  0.167218  0.373477  1
  O  O7  1  0.453252  0.332782  0.126523  1
  O  O8  1  0.504870  0.173942  0.921485  1
  O  O9  1  0.004870  0.326058  0.578515  1
  O  O10  1  0.495130  0.826058  0.078515  1
  O  O11  1  0.995130  0.673942  0.421485  1
  O  O12  1  0.167286  0.910896  0.921055  1
  O  O13  1  0.667286  0.589104  0.578945  1
  O  O14  1  0.832714  0.089104  0.078945  1
  O  O15  1  0.332714  0.410896  0.421055  1
  O  O16  1  0.822785  0.426033  0.016950  1
  O  O17  1  0.322785  0.073967  0.483050  1
  O  O18  1  0.177215  0.573967  0.983050  1
  O  O19  1  0.677215  0.926033  0.516950  1
  O  O20  1  0.106658  0.442172  0.221136  1
  O  O21  1  0.606658  0.057828  0.278864  1
  O  O22  1  0.893342  0.557828  0.778864  1
  O  O23  1  0.393342  0.942172  0.721136  1
  O  O24  1  0.373694  0.740040  0.303190  1
  O  O25  1  0.873694  0.759960  0.196810  1
  O  O26  1  0.626306  0.259960  0.696810  1
  O  O27  1  0.126306  0.240040  0.803190  1
  Fe  Fe28  1  0.102689  0.981089  0.768103  1
  Fe  Fe29  1  0.397311  0.481089  0.268103  1
  Fe  Fe30  1  0.897311  0.018911  0.231897  1
  Fe  Fe31  1  0.602689  0.518911  0.731897  1
  Ge  Ge32  1  0.342565  0.744229  0.958745  1
  Ge  Ge33  1  0.090973  0.421464  0.719198  1
  Ge  Ge34  1  0.157435  0.244229  0.458745  1
  Ge  Ge35  1  0.657435  0.255771  0.041255  1
  Ge  Ge36  1  0.909027  0.578536  0.280802  1
  Ge  Ge37  1  0.409027  0.921464  0.219198  1
  Ge  Ge38  1  0.590973  0.078536  0.780802  1
  Ge  Ge39  1  0.842565  0.755771  0.541255  1
  La  La40  1  0.353281  0.765618  0.524044  1
  La  La41  1  0.853281  0.734382  0.975956  1
  La  La42  1  0.646719  0.234382  0.475956  1
  La  La43  1  0.146719  0.265618  0.024044  1
