# generated using pymatgen
data_ZnI2
_symmetry_space_group_name_H-M   'P 1'
_cell_length_a   13.38650233
_cell_length_b   13.38650233
_cell_length_c   15.04499457
_cell_angle_alpha   116.41580598
_cell_angle_beta   116.41580595
_cell_angle_gamma   89.99999997
_symmetry_Int_Tables_number   1
_chemical_formula_structural   ZnI2
_chemical_formula_sum   'Zn16 I32'
_cell_volume   2095.56962213
_cell_formula_units_Z   16
loop_
 _symmetry_equiv_pos_site_id
 _symmetry_equiv_pos_as_xyz
  1  'x, y, z'
loop_
 _atom_site_type_symbol
 _atom_site_label
 _atom_site_symmetry_multiplicity
 _atom_site_fract_x
 _atom_site_fract_y
 _atom_site_fract_z
 _atom_site_occupancy
  Zn  Zn0  1  0.313262  0.782213  0.875779  1
  Zn  Zn1  1  0.906434  0.937483  0.624221  1
  Zn  Zn2  1  0.717787  0.186738  0.624221  1
  Zn  Zn3  1  0.937483  0.717787  0.124221  1
  Zn  Zn4  1  0.186738  0.906434  0.124221  1
  Zn  Zn5  1  0.593566  0.313262  0.375779  1
  Zn  Zn6  1  0.782213  0.562517  0.375779  1
  Zn  Zn7  1  0.562517  0.593566  0.875779  1
  Zn  Zn8  1  0.686738  0.217787  0.124221  1
  Zn  Zn9  1  0.093566  0.062517  0.375779  1
  Zn  Zn10  1  0.282213  0.813262  0.375779  1
  Zn  Zn11  1  0.062517  0.282213  0.875779  1
  Zn  Zn12  1  0.813262  0.093566  0.875779  1
  Zn  Zn13  1  0.406434  0.686738  0.624221  1
  Zn  Zn14  1  0.217787  0.437483  0.624221  1
  Zn  Zn15  1  0.437483  0.406434  0.124221  1
  I  I16  1  0.152089  0.104218  0.247405  1
  I  I17  1  0.643187  0.152089  0.747405  1
  I  I18  1  0.104218  0.095316  0.747405  1
  I  I19  1  0.404684  0.395782  0.752595  1
  I  I20  1  0.347911  0.856813  0.752595  1
  I  I21  1  0.856813  0.404684  0.252595  1
  I  I22  1  0.395782  0.347911  0.252595  1
  I  I23  1  0.095316  0.643187  0.247405  1
  I  I24  1  0.847911  0.895782  0.752595  1
  I  I25  1  0.356813  0.847911  0.252595  1
  I  I26  1  0.895782  0.904684  0.252595  1
  I  I27  1  0.595316  0.604218  0.247405  1
  I  I28  1  0.652089  0.143187  0.247405  1
  I  I29  1  0.143187  0.595316  0.747405  1
  I  I30  1  0.604218  0.652089  0.747405  1
  I  I31  1  0.904684  0.356813  0.752595  1
  I  I32  1  0.045447  0.250000  0.500000  1
  I  I33  1  0.750000  0.045447  0.000000  1
  I  I34  1  0.250000  0.454553  0.000000  1
  I  I35  1  0.454553  0.750000  0.500000  1
  I  I36  1  0.954553  0.750000  0.500000  1
  I  I37  1  0.250000  0.954553  0.000000  1
  I  I38  1  0.750000  0.545447  0.000000  1
  I  I39  1  0.545447  0.250000  0.500000  1
  I  I40  1  0.757264  0.507264  0.514527  1
  I  I41  1  0.507264  0.757264  0.014527  1
  I  I42  1  0.742736  0.992736  0.485473  1
  I  I43  1  0.992736  0.742736  0.985473  1
  I  I44  1  0.242736  0.492736  0.485473  1
  I  I45  1  0.492736  0.242736  0.985473  1
  I  I46  1  0.257264  0.007264  0.514527  1
  I  I47  1  0.007264  0.257264  0.014527  1
