# generated using pymatgen
data_MgP2(H8O5)2
_symmetry_space_group_name_H-M   'P 1'
_cell_length_a   10.44693540
_cell_length_b   10.44690826
_cell_length_c   12.62103005
_cell_angle_alpha   114.45442313
_cell_angle_beta   114.44818507
_cell_angle_gamma   89.99999999
_symmetry_Int_Tables_number   1
_chemical_formula_structural   MgP2(H8O5)2
_chemical_formula_sum   'Mg4 P8 H64 O40'
_cell_volume   1116.77795122
_cell_formula_units_Z   4
loop_
 _symmetry_equiv_pos_site_id
 _symmetry_equiv_pos_as_xyz
  1  'x, y, z'
loop_
 _atom_site_type_symbol
 _atom_site_label
 _atom_site_symmetry_multiplicity
 _atom_site_fract_x
 _atom_site_fract_y
 _atom_site_fract_z
 _atom_site_occupancy
  H  H0  1  0.031597  0.135634  0.423449  1
  H  H1  1  0.712205  0.108182  0.076575  1
  H  H2  1  0.364359  0.468389  0.076495  1
  H  H3  1  0.108148  0.364366  0.576551  1
  H  H4  1  0.468384  0.712155  0.576519  1
  H  H5  1  0.787864  0.031611  0.923505  1
  H  H6  1  0.135629  0.391818  0.923425  1
  H  H7  1  0.391864  0.787845  0.423481  1
  H  H8  1  0.968403  0.864366  0.576551  1
  H  H9  1  0.287795  0.891818  0.923425  1
  H  H10  1  0.635641  0.531611  0.923505  1
  H  H11  1  0.891852  0.635634  0.423449  1
  H  H12  1  0.531616  0.287845  0.423481  1
  H  H13  1  0.212136  0.968389  0.076495  1
  H  H14  1  0.864371  0.608182  0.076575  1
  H  H15  1  0.608136  0.212155  0.576519  1
  H  H16  1  0.145497  0.094677  0.801523  1
  H  H17  1  0.293126  0.843995  0.698484  1
  H  H18  1  0.405343  0.354529  0.698466  1
  H  H19  1  0.843975  0.405323  0.198477  1
  H  H20  1  0.354515  0.293092  0.198474  1
  H  H21  1  0.206877  0.145471  0.301534  1
  H  H22  1  0.094642  0.656005  0.301516  1
  H  H23  1  0.656041  0.206908  0.801526  1
  H  H24  1  0.854503  0.905323  0.198477  1
  H  H25  1  0.706874  0.156005  0.301516  1
  H  H26  1  0.594657  0.645471  0.301534  1
  H  H27  1  0.156025  0.594677  0.801523  1
  H  H28  1  0.689322  0.549450  0.489575  1
  H  H29  1  0.645485  0.706908  0.801526  1
  H  H30  1  0.905358  0.343995  0.698484  1
  H  H31  1  0.343959  0.793092  0.198474  1
  H  H32  1  0.092360  0.151939  0.691708  1
  H  H33  1  0.460205  0.900701  0.808304  1
  H  H34  1  0.348050  0.407659  0.808269  1
  H  H35  1  0.900652  0.348061  0.308292  1
  H  H36  1  0.407623  0.460192  0.308280  1
  H  H37  1  0.039780  0.092341  0.191731  1
  H  H38  1  0.151902  0.599299  0.191696  1
  H  H39  1  0.599343  0.039808  0.691720  1
  H  H40  1  0.907640  0.848061  0.308292  1
  H  H41  1  0.539795  0.099299  0.191696  1
  H  H42  1  0.651950  0.592341  0.191731  1
  H  H43  1  0.099348  0.651939  0.691708  1
  H  H44  1  0.592377  0.539808  0.691720  1
  H  H45  1  0.960220  0.907659  0.808269  1
  H  H46  1  0.848098  0.400701  0.808304  1
  H  H47  1  0.400657  0.960192  0.308280  1
  H  H48  1  0.810663  0.059915  0.510419  1
  H  H49  1  0.549461  0.800231  0.989583  1
  H  H50  1  0.440088  0.689306  0.989572  1
  H  H51  1  0.800243  0.440085  0.489581  1
  H  H52  1  0.300253  0.049450  0.489575  1
  H  H53  1  0.940123  0.300231  0.989583  1
  H  H54  1  0.049484  0.189306  0.989572  1
  H  H55  1  0.310678  0.450550  0.510425  1
  H  H56  1  0.199757  0.559915  0.510419  1
  H  H57  1  0.559912  0.310694  0.010428  1
  H  H58  1  0.450539  0.199769  0.010417  1
  H  H59  1  0.189337  0.940085  0.489581  1
  H  H60  1  0.699747  0.950550  0.510425  1
  H  H61  1  0.059877  0.699769  0.010417  1
  H  H62  1  0.950516  0.810694  0.010428  1
  H  H63  1  0.793123  0.854529  0.698466  1
  O  O64  1  0.954577  0.207992  0.590911  1
  O  O65  1  0.617063  0.863697  0.909092  1
  O  O66  1  0.291955  0.545435  0.909060  1
  O  O67  1  0.863666  0.292008  0.409089  1
  O  O68  1  0.545411  0.617086  0.409062  1
  O  O69  1  0.882896  0.954565  0.090940  1
  O  O70  1  0.207971  0.636303  0.090908  1
  O  O71  1  0.636349  0.882914  0.590938  1
  O  O72  1  0.045423  0.792008  0.409089  1
  O  O73  1  0.382937  0.136303  0.090908  1
  O  O74  1  0.708045  0.454565  0.090940  1
  O  O75  1  0.136334  0.707992  0.590911  1
  O  O76  1  0.454589  0.382914  0.590938  1
  O  O77  1  0.117104  0.045435  0.909060  1
  O  O78  1  0.792029  0.363697  0.909092  1
  O  O79  1  0.363651  0.117086  0.409062  1
  O  O80  1  0.327986  0.374680  0.256072  1
  O  O81  1  0.118583  0.571865  0.243892  1
  O  O82  1  0.125281  0.171981  0.243931  1
  O  O83  1  0.571914  0.125320  0.743928  1
  O  O84  1  0.171992  0.118622  0.743894  1
  O  O85  1  0.381350  0.328019  0.756069  1
  O  O86  1  0.374691  0.928135  0.756108  1
  O  O87  1  0.928099  0.381378  0.256106  1
  O  O88  1  0.672014  0.625320  0.743928  1
  O  O89  1  0.881417  0.428135  0.756108  1
  O  O90  1  0.874719  0.828019  0.756069  1
  O  O91  1  0.428086  0.874680  0.256072  1
  O  O92  1  0.828008  0.881378  0.256106  1
  O  O93  1  0.618650  0.671981  0.243931  1
  O  O94  1  0.625309  0.071865  0.243892  1
  O  O95  1  0.071901  0.618622  0.743894  1
  O  O96  1  0.022477  0.272436  0.045021  1
  O  O97  1  0.272550  0.022461  0.545021  1
  O  O98  1  0.477456  0.227564  0.954979  1
  O  O99  1  0.227530  0.477539  0.454979  1
  O  O100  1  0.977523  0.727564  0.954979  1
  O  O101  1  0.727450  0.977539  0.454979  1
  O  O102  1  0.522544  0.772436  0.045021  1
  O  O103  1  0.772470  0.522461  0.545021  1
  Mg  Mg104  1  0.875005  0.625028  0.750000  1
  Mg  Mg105  1  0.625006  0.874972  0.250000  1
  Mg  Mg106  1  0.124995  0.374972  0.250000  1
  Mg  Mg107  1  0.374994  0.125028  0.750000  1
  P  P108  1  0.013062  0.750000  0.500000  1
  P  P109  1  0.250008  0.013049  0.999982  1
  P  P110  1  0.750027  0.486951  0.000018  1
  P  P111  1  0.486940  0.250000  0.500000  1
  P  P112  1  0.513060  0.750000  0.500000  1
  P  P113  1  0.249973  0.513049  0.999982  1
  P  P114  1  0.749992  0.986951  0.000018  1
  P  P115  1  0.986938  0.250000  0.500000  1
