# generated using pymatgen
data_CrCuH18Br5N6
_symmetry_space_group_name_H-M   'P 1'
_cell_length_a   16.56158491
_cell_length_b   16.56158482
_cell_length_c   16.56158424
_cell_angle_alpha   60.00000115
_cell_angle_beta   60.00000133
_cell_angle_gamma   59.99999949
_symmetry_Int_Tables_number   1
_chemical_formula_structural   CrCuH18Br5N6
_chemical_formula_sum   'Cr8 Cu8 H144 Br40 N48'
_cell_volume   3212.11196521
_cell_formula_units_Z   8
loop_
 _symmetry_equiv_pos_site_id
 _symmetry_equiv_pos_as_xyz
  1  'x, y, z'
loop_
 _atom_site_type_symbol
 _atom_site_label
 _atom_site_symmetry_multiplicity
 _atom_site_fract_x
 _atom_site_fract_y
 _atom_site_fract_z
 _atom_site_occupancy
  H  H0  1  0.996503  0.930124  0.184344  1
  H  H1  1  0.569876  0.315656  0.110971  1
  H  H2  1  0.110971  0.503497  0.569876  1
  H  H3  1  0.569876  0.110971  0.503497  1
  H  H4  1  0.315656  0.503497  0.110971  1
  H  H5  1  0.315656  0.110971  0.569876  1
  H  H6  1  0.110971  0.315656  0.503497  1
  H  H7  1  0.184344  0.996503  0.930124  1
  H  H8  1  0.930124  0.184344  0.996503  1
  H  H9  1  0.389029  0.996503  0.184344  1
  H  H10  1  0.930124  0.389029  0.184344  1
  H  H11  1  0.389029  0.930124  0.996503  1
  H  H12  1  0.184344  0.930124  0.389029  1
  H  H13  1  0.996503  0.184344  0.389029  1
  H  H14  1  0.996503  0.389029  0.930124  1
  H  H15  1  0.110971  0.569876  0.315656  1
  H  H16  1  0.503497  0.110971  0.315656  1
  H  H17  1  0.503497  0.569876  0.110971  1
  H  H18  1  0.569876  0.503497  0.315656  1
  H  H19  1  0.315656  0.569876  0.503497  1
  H  H20  1  0.503497  0.315656  0.569876  1
  H  H21  1  0.184344  0.389029  0.996503  1
  H  H22  1  0.389029  0.184344  0.930124  1
  H  H23  1  0.930124  0.996503  0.389029  1
  H  H24  1  0.003497  0.069876  0.815656  1
  H  H25  1  0.430124  0.684344  0.889029  1
  H  H26  1  0.889029  0.496503  0.430124  1
  H  H27  1  0.430124  0.889029  0.496503  1
  H  H28  1  0.684344  0.496503  0.889029  1
  H  H29  1  0.684344  0.889029  0.430124  1
  H  H30  1  0.889029  0.684344  0.496503  1
  H  H31  1  0.815656  0.003497  0.069876  1
  H  H32  1  0.069876  0.815656  0.003497  1
  H  H33  1  0.610971  0.003497  0.815656  1
  H  H34  1  0.069876  0.610971  0.815656  1
  H  H35  1  0.610971  0.069876  0.003497  1
  H  H36  1  0.815656  0.069876  0.610971  1
  H  H37  1  0.003497  0.815656  0.610971  1
  H  H38  1  0.003497  0.610971  0.069876  1
  H  H39  1  0.889029  0.430124  0.684344  1
  H  H40  1  0.496503  0.889029  0.684344  1
  H  H41  1  0.496503  0.430124  0.889029  1
  H  H42  1  0.430124  0.496503  0.684344  1
  H  H43  1  0.684344  0.430124  0.496503  1
  H  H44  1  0.496503  0.684344  0.430124  1
  H  H45  1  0.815656  0.610971  0.003497  1
  H  H46  1  0.610971  0.815656  0.069876  1
  H  H47  1  0.069876  0.003497  0.610971  1
  H  H48  1  0.881582  0.982214  0.185721  1
  H  H49  1  0.517786  0.314279  0.049517  1
  H  H50  1  0.049517  0.618418  0.517786  1
  H  H51  1  0.517786  0.049517  0.618418  1
  H  H52  1  0.314279  0.618418  0.049517  1
  H  H53  1  0.314279  0.049517  0.517786  1
  H  H54  1  0.049517  0.314279  0.618418  1
  H  H55  1  0.185721  0.881582  0.982214  1
  H  H56  1  0.982214  0.185721  0.881582  1
  H  H57  1  0.450483  0.881582  0.185721  1
  H  H58  1  0.982214  0.450483  0.185721  1
  H  H59  1  0.450483  0.982214  0.881582  1
  H  H60  1  0.185721  0.982214  0.450483  1
  H  H61  1  0.881582  0.185721  0.450483  1
  H  H62  1  0.881582  0.450483  0.982214  1
  H  H63  1  0.049517  0.517786  0.314279  1
  H  H64  1  0.618418  0.049517  0.314279  1
  H  H65  1  0.618418  0.517786  0.049517  1
  H  H66  1  0.517786  0.618418  0.314279  1
  H  H67  1  0.314279  0.517786  0.618418  1
  H  H68  1  0.618418  0.314279  0.517786  1
  H  H69  1  0.185721  0.450483  0.881582  1
  H  H70  1  0.450483  0.185721  0.982214  1
  H  H71  1  0.982214  0.881582  0.450483  1
  H  H72  1  0.118418  0.017786  0.814279  1
  H  H73  1  0.482214  0.685721  0.950483  1
  H  H74  1  0.950483  0.381582  0.482214  1
  H  H75  1  0.482214  0.950483  0.381582  1
  H  H76  1  0.685721  0.381582  0.950483  1
  H  H77  1  0.685721  0.950483  0.482214  1
  H  H78  1  0.950483  0.685721  0.381582  1
  H  H79  1  0.814279  0.118418  0.017786  1
  H  H80  1  0.017786  0.814279  0.118418  1
  H  H81  1  0.549517  0.118418  0.814279  1
  H  H82  1  0.017786  0.549517  0.814279  1
  H  H83  1  0.549517  0.017786  0.118418  1
  H  H84  1  0.814279  0.017786  0.549517  1
  H  H85  1  0.118418  0.814279  0.549517  1
  H  H86  1  0.118418  0.549517  0.017786  1
  H  H87  1  0.950483  0.482214  0.685721  1
  H  H88  1  0.381582  0.950483  0.685721  1
  H  H89  1  0.381582  0.482214  0.950483  1
  H  H90  1  0.482214  0.381582  0.685721  1
  H  H91  1  0.685721  0.482214  0.381582  1
  H  H92  1  0.381582  0.685721  0.482214  1
  H  H93  1  0.814279  0.549517  0.118418  1
  H  H94  1  0.549517  0.814279  0.017786  1
  H  H95  1  0.017786  0.118418  0.549517  1
  H  H96  1  0.943875  0.052068  0.156005  1
  H  H97  1  0.447932  0.343995  0.151948  1
  H  H98  1  0.151948  0.556125  0.447932  1
  H  H99  1  0.447932  0.151948  0.556125  1
  H  H100  1  0.343995  0.556125  0.151948  1
  H  H101  1  0.343995  0.151948  0.447932  1
  H  H102  1  0.151948  0.343995  0.556125  1
  H  H103  1  0.156005  0.943875  0.052068  1
  H  H104  1  0.052068  0.156005  0.943875  1
  H  H105  1  0.348052  0.943875  0.156005  1
  H  H106  1  0.052068  0.348052  0.156005  1
  H  H107  1  0.348052  0.052068  0.943875  1
  H  H108  1  0.156005  0.052068  0.348052  1
  H  H109  1  0.943875  0.156005  0.348052  1
  H  H110  1  0.943875  0.348052  0.052068  1
  H  H111  1  0.151948  0.447932  0.343995  1
  H  H112  1  0.556125  0.151948  0.343995  1
  H  H113  1  0.556125  0.447932  0.151948  1
  H  H114  1  0.447932  0.556125  0.343995  1
  H  H115  1  0.343995  0.447932  0.556125  1
  H  H116  1  0.556125  0.343995  0.447932  1
  H  H117  1  0.156005  0.348052  0.943875  1
  H  H118  1  0.348052  0.156005  0.052068  1
  H  H119  1  0.052068  0.943875  0.348052  1
  H  H120  1  0.056125  0.947932  0.843995  1
  H  H121  1  0.552068  0.656005  0.848052  1
  H  H122  1  0.848052  0.443875  0.552068  1
  H  H123  1  0.552068  0.848052  0.443875  1
  H  H124  1  0.656005  0.443875  0.848052  1
  H  H125  1  0.656005  0.848052  0.552068  1
  H  H126  1  0.848052  0.656005  0.443875  1
  H  H127  1  0.843995  0.056125  0.947932  1
  H  H128  1  0.947932  0.843995  0.056125  1
  H  H129  1  0.651948  0.056125  0.843995  1
  H  H130  1  0.947932  0.651948  0.843995  1
  H  H131  1  0.651948  0.947932  0.056125  1
  H  H132  1  0.843995  0.947932  0.651948  1
  H  H133  1  0.056125  0.843995  0.651948  1
  H  H134  1  0.056125  0.651948  0.947932  1
  H  H135  1  0.848052  0.552068  0.656005  1
  H  H136  1  0.443875  0.848052  0.656005  1
  H  H137  1  0.443875  0.552068  0.848052  1
  H  H138  1  0.552068  0.443875  0.656005  1
  H  H139  1  0.656005  0.552068  0.443875  1
  H  H140  1  0.443875  0.656005  0.552068  1
  H  H141  1  0.843995  0.651948  0.056125  1
  H  H142  1  0.651948  0.843995  0.947932  1
  H  H143  1  0.947932  0.056125  0.651948  1
  N  N144  1  0.949902  0.991392  0.147411  1
  N  N145  1  0.508608  0.352589  0.088705  1
  N  N146  1  0.088705  0.550098  0.508608  1
  N  N147  1  0.508608  0.088705  0.550098  1
  N  N148  1  0.352589  0.550098  0.088705  1
  N  N149  1  0.352589  0.088705  0.508608  1
  N  N150  1  0.088705  0.352589  0.550098  1
  N  N151  1  0.147411  0.949902  0.991392  1
  N  N152  1  0.991392  0.147411  0.949902  1
  N  N153  1  0.411295  0.949902  0.147411  1
  N  N154  1  0.991392  0.411295  0.147411  1
  N  N155  1  0.411295  0.991392  0.949902  1
  N  N156  1  0.147411  0.991392  0.411295  1
  N  N157  1  0.949902  0.147411  0.411295  1
  N  N158  1  0.949902  0.411295  0.991392  1
  N  N159  1  0.088705  0.508608  0.352589  1
  N  N160  1  0.550098  0.088705  0.352589  1
  N  N161  1  0.550098  0.508608  0.088705  1
  N  N162  1  0.508608  0.550098  0.352589  1
  N  N163  1  0.352589  0.508608  0.550098  1
  N  N164  1  0.550098  0.352589  0.508608  1
  N  N165  1  0.147411  0.411295  0.949902  1
  N  N166  1  0.411295  0.147411  0.991392  1
  N  N167  1  0.991392  0.949902  0.411295  1
  N  N168  1  0.050098  0.008608  0.852589  1
  N  N169  1  0.491392  0.647411  0.911295  1
  N  N170  1  0.911295  0.449902  0.491392  1
  N  N171  1  0.491392  0.911295  0.449902  1
  N  N172  1  0.647411  0.449902  0.911295  1
  N  N173  1  0.647411  0.911295  0.491392  1
  N  N174  1  0.911295  0.647411  0.449902  1
  N  N175  1  0.852589  0.050098  0.008608  1
  N  N176  1  0.008608  0.852589  0.050098  1
  N  N177  1  0.588705  0.050098  0.852589  1
  N  N178  1  0.008608  0.588705  0.852589  1
  N  N179  1  0.588705  0.008608  0.050098  1
  N  N180  1  0.852589  0.008608  0.588705  1
  N  N181  1  0.050098  0.852589  0.588705  1
  N  N182  1  0.050098  0.588705  0.008608  1
  N  N183  1  0.911295  0.491392  0.647411  1
  N  N184  1  0.449902  0.911295  0.647411  1
  N  N185  1  0.449902  0.491392  0.911295  1
  N  N186  1  0.491392  0.449902  0.647411  1
  N  N187  1  0.647411  0.491392  0.449902  1
  N  N188  1  0.449902  0.647411  0.491392  1
  N  N189  1  0.852589  0.588705  0.050098  1
  N  N190  1  0.588705  0.852589  0.008608  1
  N  N191  1  0.008608  0.050098  0.588705  1
  Cr  Cr192  1  0.000000  0.000000  0.000000  1
  Cr  Cr193  1  0.500000  0.500000  0.000000  1
  Cr  Cr194  1  0.000000  0.500000  0.500000  1
  Cr  Cr195  1  0.500000  0.000000  0.500000  1
  Cr  Cr196  1  0.500000  0.000000  0.000000  1
  Cr  Cr197  1  0.000000  0.500000  0.000000  1
  Cr  Cr198  1  0.000000  0.000000  0.500000  1
  Cr  Cr199  1  0.500000  0.500000  0.500000  1
  Cu  Cu200  1  0.250000  0.250000  0.250000  1
  Cu  Cu201  1  0.250000  0.250000  0.750000  1
  Cu  Cu202  1  0.750000  0.250000  0.250000  1
  Cu  Cu203  1  0.250000  0.750000  0.250000  1
  Cu  Cu204  1  0.750000  0.750000  0.750000  1
  Cu  Cu205  1  0.750000  0.750000  0.250000  1
  Cu  Cu206  1  0.250000  0.750000  0.750000  1
  Cu  Cu207  1  0.750000  0.250000  0.750000  1
  Br  Br208  1  0.189206  0.189206  0.189206  1
  Br  Br209  1  0.310794  0.310794  0.567619  1
  Br  Br210  1  0.567619  0.310794  0.310794  1
  Br  Br211  1  0.310794  0.567619  0.310794  1
  Br  Br212  1  0.932381  0.189206  0.189206  1
  Br  Br213  1  0.189206  0.932381  0.189206  1
  Br  Br214  1  0.189206  0.189206  0.932381  1
  Br  Br215  1  0.310794  0.310794  0.310794  1
  Br  Br216  1  0.810794  0.810794  0.810794  1
  Br  Br217  1  0.689206  0.689206  0.432381  1
  Br  Br218  1  0.432381  0.689206  0.689206  1
  Br  Br219  1  0.689206  0.432381  0.689206  1
  Br  Br220  1  0.067619  0.810794  0.810794  1
  Br  Br221  1  0.810794  0.067619  0.810794  1
  Br  Br222  1  0.810794  0.810794  0.067619  1
  Br  Br223  1  0.689206  0.689206  0.689206  1
  Br  Br224  1  0.750000  0.093918  0.406082  1
  Br  Br225  1  0.406082  0.093918  0.250000  1
  Br  Br226  1  0.250000  0.750000  0.406082  1
  Br  Br227  1  0.406082  0.250000  0.750000  1
  Br  Br228  1  0.093918  0.750000  0.250000  1
  Br  Br229  1  0.093918  0.250000  0.406082  1
  Br  Br230  1  0.250000  0.093918  0.750000  1
  Br  Br231  1  0.406082  0.750000  0.093918  1
  Br  Br232  1  0.093918  0.406082  0.750000  1
  Br  Br233  1  0.750000  0.406082  0.250000  1
  Br  Br234  1  0.750000  0.250000  0.093918  1
  Br  Br235  1  0.250000  0.406082  0.093918  1
  Br  Br236  1  0.250000  0.906082  0.593918  1
  Br  Br237  1  0.593918  0.906082  0.750000  1
  Br  Br238  1  0.750000  0.250000  0.593918  1
  Br  Br239  1  0.593918  0.750000  0.250000  1
  Br  Br240  1  0.906082  0.250000  0.750000  1
  Br  Br241  1  0.906082  0.750000  0.593918  1
  Br  Br242  1  0.750000  0.906082  0.250000  1
  Br  Br243  1  0.593918  0.250000  0.906082  1
  Br  Br244  1  0.906082  0.593918  0.250000  1
  Br  Br245  1  0.250000  0.593918  0.750000  1
  Br  Br246  1  0.250000  0.750000  0.906082  1
  Br  Br247  1  0.750000  0.593918  0.906082  1
