# generated using pymatgen
data_UWC2
_symmetry_space_group_name_H-M   'P 1'
_cell_length_a   4.00030434
_cell_length_b   5.37143490
_cell_length_c   10.45431114
_cell_angle_alpha   90.00000000
_cell_angle_beta   90.00000000
_cell_angle_gamma   90.00000000
_symmetry_Int_Tables_number   1
_chemical_formula_structural   UWC2
_chemical_formula_sum   'U4 W4 C8'
_cell_volume   224.63569696
_cell_formula_units_Z   4
loop_
 _symmetry_equiv_pos_site_id
 _symmetry_equiv_pos_as_xyz
  1  'x, y, z'
loop_
 _atom_site_type_symbol
 _atom_site_label
 _atom_site_symmetry_multiplicity
 _atom_site_fract_x
 _atom_site_fract_y
 _atom_site_fract_z
 _atom_site_occupancy
  U  U0  1  0.750000  0.901181  0.858345  1
  U  U1  1  0.250000  0.598819  0.358345  1
  U  U2  1  0.750000  0.401182  0.641655  1
  U  U3  1  0.250000  0.098819  0.141655  1
  W  W4  1  0.750000  0.603676  0.082821  1
  W  W5  1  0.750000  0.103676  0.417179  1
  W  W6  1  0.250000  0.396324  0.917179  1
  W  W7  1  0.250000  0.896324  0.582821  1
  C  C8  1  0.250000  0.757492  0.998327  1
  C  C9  1  0.750000  0.397850  0.871506  1
  C  C10  1  0.250000  0.257492  0.501673  1
  C  C11  1  0.750000  0.742508  0.498327  1
  C  C12  1  0.250000  0.602150  0.128494  1
  C  C13  1  0.750000  0.242508  0.001673  1
  C  C14  1  0.750000  0.897850  0.628494  1
  C  C15  1  0.250000  0.102150  0.371506  1
