# generated using pymatgen
data_Ca12Be17O29
_symmetry_space_group_name_H-M   'P 1'
_cell_length_a   9.96141969
_cell_length_b   9.96141969
_cell_length_c   9.96141969
_cell_angle_alpha   60.00000003
_cell_angle_beta   60.00000003
_cell_angle_gamma   60.00000002
_symmetry_Int_Tables_number   1
_chemical_formula_structural   Ca12Be17O29
_chemical_formula_sum   'Ca12 Be17 O29'
_cell_volume   698.95419574
_cell_formula_units_Z   1
loop_
 _symmetry_equiv_pos_site_id
 _symmetry_equiv_pos_as_xyz
  1  'x, y, z'
loop_
 _atom_site_type_symbol
 _atom_site_label
 _atom_site_symmetry_multiplicity
 _atom_site_fract_x
 _atom_site_fract_y
 _atom_site_fract_z
 _atom_site_occupancy
  Be  Be0  1  0.157429  0.157429  0.527713  1
  Be  Be1  1  0.841259  0.476223  0.841259  1
  Be  Be2  1  0.476223  0.841259  0.841259  1
  Be  Be3  1  0.841259  0.841259  0.476223  1
  Be  Be4  1  0.841259  0.841259  0.841259  1
  Be  Be5  1  0.157429  0.527713  0.157429  1
  Be  Be6  1  0.527713  0.157429  0.157429  1
  Be  Be7  1  0.157429  0.157429  0.157429  1
  Be  Be8  1  0.325892  0.022325  0.325892  1
  Be  Be9  1  0.022325  0.325892  0.325892  1
  Be  Be10  1  0.325892  0.325892  0.022325  1
  Be  Be11  1  0.325892  0.325892  0.325892  1
  Be  Be12  1  0.500000  0.500000  0.500000  1
  Be  Be13  1  0.637804  0.637804  0.637804  1
  Be  Be14  1  0.637804  0.637804  0.086587  1
  Be  Be15  1  0.086587  0.637804  0.637804  1
  Be  Be16  1  0.637804  0.086587  0.637804  1
  O  O17  1  0.020491  0.477957  0.750776  1
  O  O18  1  0.477957  0.020491  0.750776  1
  O  O19  1  0.020491  0.750776  0.750776  1
  O  O20  1  0.750776  0.020491  0.750776  1
  O  O21  1  0.477957  0.750776  0.020491  1
  O  O22  1  0.569113  0.292662  0.569113  1
  O  O23  1  0.750776  0.477957  0.020491  1
  O  O24  1  0.750776  0.750776  0.477957  1
  O  O25  1  0.250000  0.250000  0.250000  1
  O  O26  1  0.569113  0.569113  0.569113  1
  O  O27  1  0.569113  0.569113  0.292662  1
  O  O28  1  0.292662  0.569113  0.569113  1
  O  O29  1  0.249218  0.249218  0.977941  1
  O  O30  1  0.249218  0.977941  0.523624  1
  O  O31  1  0.523624  0.249218  0.249218  1
  O  O32  1  0.249218  0.523624  0.249218  1
  O  O33  1  0.977941  0.249218  0.523624  1
  O  O34  1  0.977941  0.523624  0.249218  1
  O  O35  1  0.523624  0.977941  0.249218  1
  O  O36  1  0.977941  0.249218  0.249218  1
  O  O37  1  0.249218  0.977941  0.249218  1
  O  O38  1  0.523624  0.249218  0.977941  1
  O  O39  1  0.249218  0.523624  0.977941  1
  O  O40  1  0.249218  0.249218  0.523624  1
  O  O41  1  0.750776  0.750776  0.020491  1
  O  O42  1  0.750776  0.020491  0.477957  1
  O  O43  1  0.477957  0.750776  0.750776  1
  O  O44  1  0.750776  0.477957  0.750776  1
  O  O45  1  0.020491  0.750776  0.477957  1
  Ca  Ca46  1  0.706634  0.293366  0.706634  1
  Ca  Ca47  1  0.293366  0.706634  0.293366  1
  Ca  Ca48  1  0.293366  0.706634  0.706634  1
  Ca  Ca49  1  0.706634  0.706634  0.293366  1
  Ca  Ca50  1  0.293366  0.293366  0.706634  1
  Ca  Ca51  1  0.706634  0.293366  0.293366  1
  Ca  Ca52  1  0.504107  0.995893  0.504107  1
  Ca  Ca53  1  0.995893  0.504107  0.995893  1
  Ca  Ca54  1  0.995893  0.504107  0.504107  1
  Ca  Ca55  1  0.504107  0.504107  0.995893  1
  Ca  Ca56  1  0.995893  0.995893  0.504107  1
  Ca  Ca57  1  0.504107  0.995893  0.995893  1
