# generated using pymatgen
data_KTh2V3O12
_symmetry_space_group_name_H-M   'P 1'
_cell_length_a   7.21063939
_cell_length_b   8.23425202
_cell_length_c   10.05775363
_cell_angle_alpha   100.24810952
_cell_angle_beta   111.00575512
_cell_angle_gamma   89.99999997
_symmetry_Int_Tables_number   1
_chemical_formula_structural   KTh2V3O12
_chemical_formula_sum   'K2 Th4 V6 O24'
_cell_volume   547.26859011
_cell_formula_units_Z   2
loop_
 _symmetry_equiv_pos_site_id
 _symmetry_equiv_pos_as_xyz
  1  'x, y, z'
loop_
 _atom_site_type_symbol
 _atom_site_label
 _atom_site_symmetry_multiplicity
 _atom_site_fract_x
 _atom_site_fract_y
 _atom_site_fract_z
 _atom_site_occupancy
  O  O0  1  0.731415  0.074911  0.932425  1
  O  O1  1  0.798990  0.425088  0.067576  1
  O  O2  1  0.268585  0.925088  0.067576  1
  O  O3  1  0.201009  0.574911  0.932424  1
  O  O4  1  0.955165  0.258926  0.848288  1
  O  O5  1  0.106876  0.241074  0.151711  1
  O  O6  1  0.044834  0.741074  0.151711  1
  O  O7  1  0.893123  0.758926  0.848289  1
  O  O8  1  0.245193  0.336807  0.721019  1
  O  O9  1  0.524174  0.163192  0.278981  1
  O  O10  1  0.754807  0.663194  0.278981  1
  O  O11  1  0.475826  0.836807  0.721019  1
  O  O12  1  0.080770  0.936839  0.698783  1
  O  O13  1  0.381988  0.563161  0.301218  1
  O  O14  1  0.919231  0.063161  0.301218  1
  O  O15  1  0.618014  0.436839  0.698782  1
  O  O16  1  0.178402  0.824294  0.436202  1
  O  O17  1  0.742200  0.675706  0.563798  1
  O  O18  1  0.446040  0.109299  0.589580  1
  O  O19  1  0.257801  0.324294  0.436202  1
  O  O20  1  0.143540  0.609298  0.589580  1
  O  O21  1  0.553961  0.890703  0.410420  1
  O  O22  1  0.856459  0.390703  0.410420  1
  O  O23  1  0.821598  0.175706  0.563797  1
  K  K24  1  0.384555  0.250000  0.000000  1
  K  K25  1  0.615445  0.750000  1.000000  1
  V  V26  1  0.106525  0.750000  0.000000  1
  V  V27  1  0.893475  0.250000  1.000000  1
  V  V28  1  0.394785  0.317259  0.619329  1
  V  V29  1  0.775455  0.182741  0.380671  1
  V  V30  1  0.224544  0.817259  0.619329  1
  V  V31  1  0.605215  0.682741  0.380671  1
  Th  Th32  1  0.941339  0.463222  0.692107  1
  Th  Th33  1  0.249232  0.036778  0.307893  1
  Th  Th34  1  0.058662  0.536778  0.307893  1
  Th  Th35  1  0.750769  0.963222  0.692107  1
