# generated using pymatgen
data_DyGe3
_symmetry_space_group_name_H-M   'P 1'
_cell_length_a   3.95023762
_cell_length_b   4.03363929
_cell_length_c   10.65620368
_cell_angle_alpha   100.90975057
_cell_angle_beta   90.00000000
_cell_angle_gamma   90.00000000
_symmetry_Int_Tables_number   1
_chemical_formula_structural   DyGe3
_chemical_formula_sum   'Dy2 Ge6'
_cell_volume   166.72540524
_cell_formula_units_Z   2
loop_
 _symmetry_equiv_pos_site_id
 _symmetry_equiv_pos_as_xyz
  1  'x, y, z'
loop_
 _atom_site_type_symbol
 _atom_site_label
 _atom_site_symmetry_multiplicity
 _atom_site_fract_x
 _atom_site_fract_y
 _atom_site_fract_z
 _atom_site_occupancy
  Dy  Dy0  1  0.750000  0.417232  0.834466  1
  Dy  Dy1  1  0.250000  0.582768  0.165534  1
  Ge  Ge2  1  0.750000  0.691458  0.382916  1
  Ge  Ge3  1  0.250000  0.960951  0.921901  1
  Ge  Ge4  1  0.750000  0.810468  0.620937  1
  Ge  Ge5  1  0.750000  0.039049  0.078099  1
  Ge  Ge6  1  0.250000  0.308542  0.617085  1
  Ge  Ge7  1  0.250000  0.189532  0.379063  1
