# generated using pymatgen
data_IO2
_symmetry_space_group_name_H-M   'P 1'
_cell_length_a   8.48127035
_cell_length_b   7.05739610
_cell_length_c   8.34280566
_cell_angle_alpha   90.00000000
_cell_angle_beta   121.54477722
_cell_angle_gamma   90.00000000
_symmetry_Int_Tables_number   1
_chemical_formula_structural   IO2
_chemical_formula_sum   'I8 O16'
_cell_volume   425.57405495
_cell_formula_units_Z   8
loop_
 _symmetry_equiv_pos_site_id
 _symmetry_equiv_pos_as_xyz
  1  'x, y, z'
loop_
 _atom_site_type_symbol
 _atom_site_label
 _atom_site_symmetry_multiplicity
 _atom_site_fract_x
 _atom_site_fract_y
 _atom_site_fract_z
 _atom_site_occupancy
  I  I0  1  0.692239  0.255338  0.841159  1
  I  I1  1  0.858954  0.618929  0.674860  1
  I  I2  1  0.307761  0.755338  0.658841  1
  I  I3  1  0.141046  0.381071  0.325140  1
  I  I4  1  0.692239  0.244662  0.341159  1
  I  I5  1  0.307761  0.744662  0.158841  1
  I  I6  1  0.858954  0.881071  0.174860  1
  I  I7  1  0.141046  0.118929  0.825140  1
  O  O8  1  0.318508  0.844065  0.460908  1
  O  O9  1  0.305283  0.039381  0.739936  1
  O  O10  1  0.053615  0.745582  0.544951  1
  O  O11  1  0.697372  0.958731  0.916691  1
  O  O12  1  0.694717  0.960619  0.260064  1
  O  O13  1  0.946385  0.245582  0.955049  1
  O  O14  1  0.681492  0.155935  0.539092  1
  O  O15  1  0.946385  0.254418  0.455049  1
  O  O16  1  0.697372  0.541269  0.416691  1
  O  O17  1  0.053615  0.754418  0.044951  1
  O  O18  1  0.305283  0.460619  0.239936  1
  O  O19  1  0.694717  0.539381  0.760064  1
  O  O20  1  0.302628  0.458731  0.583309  1
  O  O21  1  0.681492  0.344065  0.039092  1
  O  O22  1  0.302628  0.041269  0.083309  1
  O  O23  1  0.318508  0.655935  0.960908  1
