# generated using pymatgen
data_K2TiS3
_symmetry_space_group_name_H-M   'P 1'
_cell_length_a   6.53845577
_cell_length_b   7.27657225
_cell_length_c   7.27657224
_cell_angle_alpha   70.60556297
_cell_angle_beta   88.56356205
_cell_angle_gamma   88.56356208
_symmetry_Int_Tables_number   1
_chemical_formula_structural   K2TiS3
_chemical_formula_sum   'K4 Ti2 S6'
_cell_volume   326.40212547
_cell_formula_units_Z   2
loop_
 _symmetry_equiv_pos_site_id
 _symmetry_equiv_pos_as_xyz
  1  'x, y, z'
loop_
 _atom_site_type_symbol
 _atom_site_label
 _atom_site_symmetry_multiplicity
 _atom_site_fract_x
 _atom_site_fract_y
 _atom_site_fract_z
 _atom_site_occupancy
  S  S0  1  0.250000  0.348610  0.651390  1
  S  S1  1  0.750000  0.651390  0.348610  1
  S  S2  1  1.000325  0.869789  0.856162  1
  S  S3  1  0.499675  0.143838  0.130211  1
  S  S4  1  0.500325  0.856162  0.869789  1
  S  S5  1  -0.000325  0.130211  0.143838  1
  K  K6  1  0.736819  0.175710  0.505483  1
  K  K7  1  0.236819  0.505483  0.175710  1
  K  K8  1  0.763181  0.494517  0.824290  1
  K  K9  1  0.263181  0.824290  0.494517  1
  Ti  Ti10  1  0.750000  0.915195  0.084805  1
  Ti  Ti11  1  0.250000  0.084805  0.915195  1
