# generated using pymatgen
data_Tl8Ge5O14
_symmetry_space_group_name_H-M   'P 1'
_cell_length_a   9.75424469
_cell_length_b   9.75424470
_cell_length_c   14.84805463
_cell_angle_alpha   70.86990854
_cell_angle_beta   70.86990852
_cell_angle_gamma   60.02926657
_symmetry_Int_Tables_number   1
_chemical_formula_structural   Tl8Ge5O14
_chemical_formula_sum   'Tl16 Ge10 O28'
_cell_volume   1132.78024864
_cell_formula_units_Z   2
loop_
 _symmetry_equiv_pos_site_id
 _symmetry_equiv_pos_as_xyz
  1  'x, y, z'
loop_
 _atom_site_type_symbol
 _atom_site_label
 _atom_site_symmetry_multiplicity
 _atom_site_fract_x
 _atom_site_fract_y
 _atom_site_fract_z
 _atom_site_occupancy
  O  O0  1  0.979940  0.213021  0.151691  1
  O  O1  1  0.786979  0.020060  0.348309  1
  O  O2  1  0.020060  0.786979  0.848309  1
  O  O3  1  0.213021  0.979940  0.651691  1
  O  O4  1  0.311619  0.552536  0.211617  1
  O  O5  1  0.447464  0.688381  0.288383  1
  O  O6  1  0.688381  0.447464  0.788383  1
  O  O7  1  0.552536  0.311619  0.711617  1
  O  O8  1  0.053008  0.423996  0.211453  1
  O  O9  1  0.576004  0.946992  0.288547  1
  O  O10  1  0.946992  0.576004  0.788547  1
  O  O11  1  0.423996  0.053008  0.711453  1
  O  O12  1  0.924166  0.811506  0.211783  1
  O  O13  1  0.188494  0.075834  0.288217  1
  O  O14  1  0.075834  0.188494  0.788217  1
  O  O15  1  0.811506  0.924166  0.711783  1
  O  O16  1  0.655168  0.479852  0.151939  1
  O  O17  1  0.520148  0.344832  0.348061  1
  O  O18  1  0.344832  0.520148  0.848061  1
  O  O19  1  0.479852  0.655168  0.651939  1
  O  O20  1  0.161491  0.661042  0.017151  1
  O  O21  1  0.338958  0.838509  0.482849  1
  O  O22  1  0.838509  0.338958  0.982849  1
  O  O23  1  0.661042  0.161491  0.517151  1
  O  O24  1  0.845006  0.287311  0.347886  1
  O  O25  1  0.712689  0.154994  0.152114  1
  O  O26  1  0.287311  0.845006  0.847886  1
  O  O27  1  0.154994  0.712689  0.652114  1
  Ge  Ge28  1  0.479772  0.520228  0.250000  1
  Ge  Ge29  1  0.520228  0.479772  0.750000  1
  Ge  Ge30  1  0.796550  0.296610  0.109626  1
  Ge  Ge31  1  0.703390  0.203450  0.390374  1
  Ge  Ge32  1  0.203450  0.703390  0.890374  1
  Ge  Ge33  1  0.296610  0.796550  0.609626  1
  Ge  Ge34  1  0.020408  0.249984  0.249821  1
  Ge  Ge35  1  0.750016  0.979592  0.250179  1
  Ge  Ge36  1  0.979592  0.750016  0.750179  1
  Ge  Ge37  1  0.249984  0.020408  0.749821  1
  Tl  Tl38  1  0.159213  0.822993  0.396564  1
  Tl  Tl39  1  0.177007  0.840787  0.103436  1
  Tl  Tl40  1  0.840787  0.177007  0.603436  1
  Tl  Tl41  1  0.822993  0.159213  0.896564  1
  Tl  Tl42  1  0.340945  0.378968  0.102875  1
  Tl  Tl43  1  0.621032  0.659055  0.397125  1
  Tl  Tl44  1  0.659055  0.621032  0.897125  1
  Tl  Tl45  1  0.378968  0.340945  0.602875  1
  Tl  Tl46  1  0.054446  0.553962  0.337434  1
  Tl  Tl47  1  0.446038  0.945554  0.162566  1
  Tl  Tl48  1  0.945554  0.446038  0.662566  1
  Tl  Tl49  1  0.553962  0.054446  0.837434  1
  Tl  Tl50  1  0.879659  0.676666  0.102896  1
  Tl  Tl51  1  0.323334  0.120341  0.397104  1
  Tl  Tl52  1  0.120341  0.323334  0.897104  1
  Tl  Tl53  1  0.676666  0.879659  0.602896  1
