# generated using pymatgen
data_Nb7(B2C)3
_symmetry_space_group_name_H-M   'P 1'
_cell_length_a   3.14884481
_cell_length_b   3.26336617
_cell_length_c   16.76258706
_cell_angle_alpha   90.00000000
_cell_angle_beta   95.38943788
_cell_angle_gamma   90.00000000
_symmetry_Int_Tables_number   1
_chemical_formula_structural   Nb7(B2C)3
_chemical_formula_sum   'Nb7 B6 C3'
_cell_volume   171.48809121
_cell_formula_units_Z   1
loop_
 _symmetry_equiv_pos_site_id
 _symmetry_equiv_pos_as_xyz
  1  'x, y, z'
loop_
 _atom_site_type_symbol
 _atom_site_label
 _atom_site_symmetry_multiplicity
 _atom_site_fract_x
 _atom_site_fract_y
 _atom_site_fract_z
 _atom_site_occupancy
  B  B0  1  0.652476  0.500000  0.304952  1
  B  B1  1  0.347524  0.500000  0.695048  1
  B  B2  1  0.763451  0.500000  0.526902  1
  B  B3  1  0.236549  0.500000  0.473098  1
  B  B4  1  0.181595  0.500000  0.363190  1
  B  B5  1  0.818405  0.500000  0.636810  1
  C  C6  1  0.066122  0.000000  0.132244  1
  C  C7  1  0.500000  0.500000  0.000000  1
  C  C8  1  0.933878  0.000000  0.867756  1
  Nb  Nb9  1  0.709504  0.000000  0.419007  1
  Nb  Nb10  1  0.290496  0.000000  0.580993  1
  Nb  Nb11  1  0.567152  0.500000  0.134304  1
  Nb  Nb12  1  0.432848  0.500000  0.865696  1
  Nb  Nb13  1  0.130591  0.000000  0.261182  1
  Nb  Nb14  1  0.869409  0.000000  0.738818  1
  Nb  Nb15  1  0.000000  0.000000  0.000000  1
