# generated using pymatgen
data_ZnH4(CO3)2
_symmetry_space_group_name_H-M   'P 1'
_cell_length_a   5.51344012
_cell_length_b   6.70826926
_cell_length_c   8.24026925
_cell_angle_alpha   81.02787978
_cell_angle_beta   70.45528153
_cell_angle_gamma   65.73587835
_symmetry_Int_Tables_number   1
_chemical_formula_structural   ZnH4(CO3)2
_chemical_formula_sum   'Zn2 H8 C4 O12'
_cell_volume   261.77836386
_cell_formula_units_Z   2
loop_
 _symmetry_equiv_pos_site_id
 _symmetry_equiv_pos_as_xyz
  1  'x, y, z'
loop_
 _atom_site_type_symbol
 _atom_site_label
 _atom_site_symmetry_multiplicity
 _atom_site_fract_x
 _atom_site_fract_y
 _atom_site_fract_z
 _atom_site_occupancy
  H  H0  1  0.355415  0.668857  0.349093  1
  H  H1  1  0.873365  0.831143  0.150907  1
  H  H2  1  0.492617  0.669762  0.143038  1
  H  H3  1  0.805418  0.830238  0.356962  1
  H  H4  1  0.507383  0.330238  0.856962  1
  H  H5  1  0.126635  0.168857  0.849093  1
  H  H6  1  0.644585  0.331143  0.650907  1
  H  H7  1  0.194582  0.169762  0.643038  1
  C  C8  1  0.125477  0.248251  0.149527  1
  C  C9  1  0.976746  0.748251  0.649527  1
  C  C10  1  0.874523  0.751749  0.850473  1
  C  C11  1  0.023254  0.251749  0.350473  1
  O  O12  1  0.607979  0.400578  0.758844  1
  O  O13  1  0.960562  0.244630  0.074308  1
  O  O14  1  0.267401  0.099422  0.741156  1
  O  O15  1  0.779500  0.255370  0.425692  1
  O  O16  1  0.732599  0.900578  0.258844  1
  O  O17  1  0.392021  0.599422  0.241156  1
  O  O18  1  0.190665  0.250955  0.424950  1
  O  O19  1  0.633430  0.750955  0.924950  1
  O  O20  1  0.220500  0.744630  0.574308  1
  O  O21  1  0.366570  0.249045  0.075050  1
  O  O22  1  0.039438  0.755370  0.925692  1
  O  O23  1  0.809335  0.749045  0.575050  1
  Zn  Zn24  1  0.573342  0.250000  0.250000  1
  Zn  Zn25  1  0.426658  0.750000  0.750000  1
