# generated using pymatgen
data_CuGe5Pb3O14
_symmetry_space_group_name_H-M   'P 1'
_cell_length_a   8.26832520
_cell_length_b   10.00597208
_cell_length_c   10.15854425
_cell_angle_alpha   63.09255379
_cell_angle_beta   65.98573488
_cell_angle_gamma   65.59590530
_symmetry_Int_Tables_number   1
_chemical_formula_structural   CuGe5Pb3O14
_chemical_formula_sum   'Cu2 Ge10 Pb6 O28'
_cell_volume   656.97578200
_cell_formula_units_Z   2
loop_
 _symmetry_equiv_pos_site_id
 _symmetry_equiv_pos_as_xyz
  1  'x, y, z'
loop_
 _atom_site_type_symbol
 _atom_site_label
 _atom_site_symmetry_multiplicity
 _atom_site_fract_x
 _atom_site_fract_y
 _atom_site_fract_z
 _atom_site_occupancy
  O  O0  1  0.377730  0.980310  0.214231  1
  O  O1  1  0.072272  0.519690  0.285769  1
  O  O2  1  0.622270  0.019690  0.785769  1
  O  O3  1  0.927728  0.480310  0.714231  1
  O  O4  1  0.497830  0.634443  0.319666  1
  O  O5  1  0.951939  0.865557  0.180334  1
  O  O6  1  0.502170  0.365557  0.680334  1
  O  O7  1  0.048061  0.134443  0.819666  1
  O  O8  1  0.172785  0.596693  0.792697  1
  O  O9  1  0.062175  0.903307  0.707303  1
  O  O10  1  0.827215  0.403307  0.207303  1
  O  O11  1  0.937825  0.096693  0.292697  1
  O  O12  1  0.632431  0.084286  0.287294  1
  O  O13  1  0.504011  0.415714  0.212706  1
  O  O14  1  0.367569  0.915714  0.712706  1
  O  O15  1  0.495989  0.584286  0.787294  1
  O  O16  1  0.124391  0.780388  0.413737  1
  O  O17  1  0.818516  0.719612  0.086263  1
  O  O18  1  0.404006  0.333475  0.013288  1
  O  O19  1  0.250769  0.166525  0.486712  1
  O  O20  1  0.595994  0.666525  0.986712  1
  O  O21  1  0.749231  0.833475  0.513288  1
  O  O22  1  0.792569  0.274522  0.029788  1
  O  O23  1  0.596880  0.225478  0.470212  1
  O  O24  1  0.207431  0.725478  0.970212  1
  O  O25  1  0.403120  0.774522  0.529788  1
  O  O26  1  0.181484  0.280388  0.913737  1
  O  O27  1  0.875609  0.219612  0.586263  1
  Cu  Cu28  1  0.500000  0.000000  0.500000  1
  Cu  Cu29  1  0.500000  0.500000  0.000000  1
  Ge  Ge30  1  0.980036  0.309409  0.865626  1
  Ge  Ge31  1  0.655071  0.190591  0.634374  1
  Ge  Ge32  1  0.328487  0.407346  0.845415  1
  Ge  Ge33  1  0.081248  0.092654  0.654585  1
  Ge  Ge34  1  0.671513  0.592654  0.154585  1
  Ge  Ge35  1  0.918752  0.907346  0.345415  1
  Ge  Ge36  1  0.284309  0.750000  0.750000  1
  Ge  Ge37  1  0.715691  0.250000  0.250000  1
  Ge  Ge38  1  0.019964  0.690591  0.134374  1
  Ge  Ge39  1  0.344929  0.809409  0.365626  1
  Pb  Pb40  1  0.717107  0.565819  0.561078  1
  Pb  Pb41  1  0.344005  0.934181  0.938922  1
  Pb  Pb42  1  0.282893  0.434181  0.438922  1
  Pb  Pb43  1  0.655995  0.065819  0.061078  1
  Pb  Pb44  1  0.852089  0.750000  0.750000  1
  Pb  Pb45  1  0.147911  0.250000  0.250000  1
