# generated using pymatgen
data_CoH8(BrO2)2
_symmetry_space_group_name_H-M   'P 1'
_cell_length_a   6.13643431
_cell_length_b   7.53552479
_cell_length_c   8.65868200
_cell_angle_alpha   90.00000000
_cell_angle_beta   110.32767238
_cell_angle_gamma   90.00000000
_symmetry_Int_Tables_number   1
_chemical_formula_structural   CoH8(BrO2)2
_chemical_formula_sum   'Co2 H16 Br4 O8'
_cell_volume   375.45262677
_cell_formula_units_Z   2
loop_
 _symmetry_equiv_pos_site_id
 _symmetry_equiv_pos_as_xyz
  1  'x, y, z'
loop_
 _atom_site_type_symbol
 _atom_site_label
 _atom_site_symmetry_multiplicity
 _atom_site_fract_x
 _atom_site_fract_y
 _atom_site_fract_z
 _atom_site_occupancy
  H  H0  1  0.366409  0.295474  0.495724  1
  H  H1  1  0.633592  0.795474  0.004276  1
  H  H2  1  0.633591  0.704526  0.504275  1
  H  H3  1  0.366408  0.204526  0.995725  1
  H  H4  1  0.382537  0.315799  0.678699  1
  H  H5  1  0.617464  0.815799  0.821301  1
  H  H6  1  0.617463  0.684201  0.321301  1
  H  H7  1  0.382536  0.184201  0.178699  1
  H  H8  1  0.890663  0.429921  0.167342  1
  H  H9  1  0.109337  0.929921  0.332659  1
  H  H10  1  0.109337  0.570079  0.832658  1
  H  H11  1  0.890663  0.070079  0.667341  1
  H  H12  1  0.097637  0.568975  0.216454  1
  H  H13  1  0.902361  0.068976  0.283546  1
  H  H14  1  0.097639  0.931024  0.716454  1
  H  H15  1  0.902362  0.431024  0.783546  1
  O  O16  1  0.270188  0.314163  0.564877  1
  O  O17  1  0.729811  0.814163  0.935122  1
  O  O18  1  0.729812  0.685837  0.435122  1
  O  O19  1  0.270189  0.185837  0.064878  1
  O  O20  1  0.992136  0.502565  0.259334  1
  O  O21  1  0.007864  0.002565  0.240665  1
  O  O22  1  0.007864  0.497435  0.740666  1
  O  O23  1  0.992136  0.997435  0.759334  1
  Co  Co24  1  0.000000  0.000000  0.000000  1
  Co  Co25  1  1.000000  0.500000  0.500000  1
  Br  Br26  1  0.697223  0.272001  0.923626  1
  Br  Br27  1  0.302779  0.772001  0.576374  1
  Br  Br28  1  0.302777  0.727998  0.076374  1
  Br  Br29  1  0.697221  0.227998  0.423626  1
