# generated using pymatgen
data_B5H8
_symmetry_space_group_name_H-M   'P 1'
_cell_length_a   6.06112658
_cell_length_b   11.41239209
_cell_length_c   15.18370510
_cell_angle_alpha   90.00000000
_cell_angle_beta   90.00000000
_cell_angle_gamma   90.00000000
_symmetry_Int_Tables_number   1
_chemical_formula_structural   B5H8
_chemical_formula_sum   'B40 H64'
_cell_volume   1050.28653612
_cell_formula_units_Z   8
loop_
 _symmetry_equiv_pos_site_id
 _symmetry_equiv_pos_as_xyz
  1  'x, y, z'
loop_
 _atom_site_type_symbol
 _atom_site_label
 _atom_site_symmetry_multiplicity
 _atom_site_fract_x
 _atom_site_fract_y
 _atom_site_fract_z
 _atom_site_occupancy
  H  H0  1  0.985655  0.045185  0.914963  1
  H  H1  1  0.014345  0.954815  0.414963  1
  H  H2  1  0.514345  0.545185  0.914963  1
  H  H3  1  0.485655  0.454815  0.414963  1
  H  H4  1  0.072023  0.116166  0.805909  1
  H  H5  1  0.927977  0.883834  0.305909  1
  H  H6  1  0.427977  0.616166  0.805909  1
  H  H7  1  0.572023  0.383834  0.305909  1
  H  H8  1  0.134980  0.007290  0.032617  1
  H  H9  1  0.865020  0.992710  0.532617  1
  H  H10  1  0.365020  0.507290  0.032617  1
  H  H11  1  0.634980  0.492710  0.532617  1
  H  H12  1  0.912100  0.218747  0.896102  1
  H  H13  1  0.087900  0.781253  0.396102  1
  H  H14  1  0.587900  0.718747  0.896102  1
  H  H15  1  0.412100  0.281253  0.396102  1
  H  H16  1  0.574731  0.974529  0.890475  1
  H  H17  1  0.425269  0.025471  0.390475  1
  H  H18  1  0.925269  0.474529  0.890475  1
  H  H19  1  0.074731  0.525471  0.390475  1
  H  H20  1  0.424212  0.231623  0.965880  1
  H  H21  1  0.575788  0.768377  0.465880  1
  H  H22  1  0.075788  0.731623  0.965880  1
  H  H23  1  0.924212  0.268377  0.465880  1
  H  H24  1  0.617168  0.397035  0.771968  1
  H  H25  1  0.331650  0.020562  0.803806  1
  H  H26  1  0.382832  0.602965  0.271968  1
  H  H27  1  0.117168  0.102965  0.271968  1
  H  H28  1  0.107062  0.374332  0.671353  1
  H  H29  1  0.892938  0.625668  0.171353  1
  H  H30  1  0.392938  0.874332  0.671353  1
  H  H31  1  0.607062  0.125668  0.171353  1
  H  H32  1  0.269862  0.113919  0.573648  1
  H  H33  1  0.730138  0.886081  0.073648  1
  H  H34  1  0.230138  0.613919  0.573648  1
  H  H35  1  0.769862  0.386081  0.073648  1
  H  H36  1  0.779148  0.137536  0.674147  1
  H  H37  1  0.220852  0.862464  0.174147  1
  H  H38  1  0.720852  0.637536  0.674147  1
  H  H39  1  0.279148  0.362464  0.174147  1
  H  H40  1  0.065302  0.299334  0.080977  1
  H  H41  1  0.934698  0.700666  0.580977  1
  H  H42  1  0.434698  0.799334  0.080977  1
  H  H43  1  0.565302  0.200666  0.580977  1
  H  H44  1  0.938639  0.096823  0.157043  1
  H  H45  1  0.061361  0.903177  0.657043  1
  H  H46  1  0.561361  0.596823  0.157043  1
  H  H47  1  0.438639  0.403177  0.657043  1
  H  H48  1  0.744426  0.550350  0.412695  1
  H  H49  1  0.255574  0.449650  0.912695  1
  H  H50  1  0.755574  0.050350  0.412695  1
  H  H51  1  0.244426  0.949650  0.912695  1
  H  H52  1  0.801482  0.207598  0.079773  1
  H  H53  1  0.198518  0.792402  0.579773  1
  H  H54  1  0.698518  0.707598  0.079773  1
  H  H55  1  0.301482  0.292402  0.579773  1
  H  H56  1  0.201164  0.188894  0.158286  1
  H  H57  1  0.798836  0.811106  0.658286  1
  H  H58  1  0.298836  0.688894  0.158286  1
  H  H59  1  0.701164  0.311106  0.658286  1
  H  H60  1  0.831650  0.479438  0.303806  1
  H  H61  1  0.168350  0.520562  0.803806  1
  H  H62  1  0.668350  0.979438  0.303806  1
  H  H63  1  0.882832  0.897035  0.771968  1
  B  B64  1  0.062241  0.151830  0.889575  1
  B  B65  1  0.937759  0.848170  0.389575  1
  B  B66  1  0.437759  0.651830  0.889575  1
  B  B67  1  0.562241  0.348170  0.389575  1
  B  B68  1  0.176069  0.042086  0.960418  1
  B  B69  1  0.823931  0.957914  0.460418  1
  B  B70  1  0.323931  0.542086  0.960418  1
  B  B71  1  0.676069  0.457914  0.460418  1
  B  B72  1  0.403779  0.025875  0.886764  1
  B  B73  1  0.596221  0.974125  0.386764  1
  B  B74  1  0.096221  0.525875  0.886764  1
  B  B75  1  0.903779  0.474125  0.386764  1
  B  B76  1  0.293426  0.138014  0.815090  1
  B  B77  1  0.706574  0.861986  0.315090  1
  B  B78  1  0.206574  0.638014  0.815090  1
  B  B79  1  0.793426  0.361986  0.315090  1
  B  B80  1  0.326219  0.158635  0.925639  1
  B  B81  1  0.673781  0.841365  0.425639  1
  B  B82  1  0.173781  0.658635  0.925639  1
  B  B83  1  0.826219  0.341365  0.425639  1
  B  B84  1  0.540423  0.334671  0.717006  1
  B  B85  1  0.459577  0.665329  0.217006  1
  B  B86  1  0.959577  0.834671  0.717006  1
  B  B87  1  0.040423  0.165329  0.217006  1
  B  B88  1  0.276701  0.322226  0.665377  1
  B  B89  1  0.723299  0.677774  0.165377  1
  B  B90  1  0.223299  0.822226  0.665377  1
  B  B91  1  0.776701  0.177774  0.165377  1
  B  B92  1  0.360908  0.188333  0.614889  1
  B  B93  1  0.639092  0.811667  0.114889  1
  B  B94  1  0.139092  0.688333  0.614889  1
  B  B95  1  0.860908  0.311667  0.114889  1
  B  B96  1  0.623397  0.200457  0.667019  1
  B  B97  1  0.376603  0.799543  0.167019  1
  B  B98  1  0.876603  0.700457  0.667019  1
  B  B99  1  0.123397  0.299543  0.167019  1
  B  B100  1  0.385022  0.210579  0.725684  1
  B  B101  1  0.614978  0.789421  0.225684  1
  B  B102  1  0.114978  0.710579  0.725684  1
  B  B103  1  0.885022  0.289421  0.225684  1
