# generated using pymatgen
data_Na3Li3N2
_symmetry_space_group_name_H-M   'P 1'
_cell_length_a   4.28839113
_cell_length_b   3.86850379
_cell_length_c   7.30510581
_cell_angle_alpha   90.51577518
_cell_angle_beta   90.00000000
_cell_angle_gamma   90.00000000
_symmetry_Int_Tables_number   1
_chemical_formula_structural   Na3Li3N2
_chemical_formula_sum   'Na3 Li3 N2'
_cell_volume   121.18429197
_cell_formula_units_Z   1
loop_
 _symmetry_equiv_pos_site_id
 _symmetry_equiv_pos_as_xyz
  1  'x, y, z'
loop_
 _atom_site_type_symbol
 _atom_site_label
 _atom_site_symmetry_multiplicity
 _atom_site_fract_x
 _atom_site_fract_y
 _atom_site_fract_z
 _atom_site_occupancy
  Li  Li0  1  0.000000  -0.007076  0.281735  1
  Li  Li1  1  0.000000  0.437720  0.981732  1
  Li  Li2  1  0.500000  0.013494  0.824424  1
  N  N3  1  0.000000  0.490314  0.283749  1
  N  N4  1  0.500000  0.509946  0.814204  1
  Na  Na5  1  0.500000  0.351628  0.472517  1
  Na  Na6  1  0.000000  0.634424  0.642261  1
  Na  Na7  1  0.500000  0.611550  0.138378  1
