# generated using pymatgen
data_Ta2Te5Pd3
_symmetry_space_group_name_H-M   'P 1'
_cell_length_a   3.74368250
_cell_length_b   15.13721186
_cell_length_c   18.84224196
_cell_angle_alpha   90.00000000
_cell_angle_beta   90.00000000
_cell_angle_gamma   90.00000000
_symmetry_Int_Tables_number   1
_chemical_formula_structural   Ta2Te5Pd3
_chemical_formula_sum   'Ta8 Te20 Pd12'
_cell_volume   1067.76941066
_cell_formula_units_Z   4
loop_
 _symmetry_equiv_pos_site_id
 _symmetry_equiv_pos_as_xyz
  1  'x, y, z'
loop_
 _atom_site_type_symbol
 _atom_site_label
 _atom_site_symmetry_multiplicity
 _atom_site_fract_x
 _atom_site_fract_y
 _atom_site_fract_z
 _atom_site_occupancy
  Pd  Pd0  1  0.250000  0.816095  0.310243  1
  Pd  Pd1  1  0.250000  0.805257  0.773198  1
  Pd  Pd2  1  0.750000  0.194743  0.226802  1
  Pd  Pd3  1  0.250000  0.305257  0.726802  1
  Pd  Pd4  1  0.750000  0.694743  0.273198  1
  Pd  Pd5  1  0.750000  0.183905  0.689757  1
  Pd  Pd6  1  0.250000  0.316095  0.189757  1
  Pd  Pd7  1  0.750000  0.683905  0.810243  1
  Pd  Pd8  1  0.250000  0.770324  0.541497  1
  Pd  Pd9  1  0.750000  0.229676  0.458503  1
  Pd  Pd10  1  0.250000  0.270324  0.958503  1
  Pd  Pd11  1  0.750000  0.729676  0.041497  1
  Te  Te12  1  0.250000  0.614921  0.718712  1
  Te  Te13  1  0.750000  0.385079  0.281288  1
  Te  Te14  1  0.250000  0.114921  0.781288  1
  Te  Te15  1  0.750000  0.877851  0.862207  1
  Te  Te16  1  0.750000  0.885079  0.218712  1
  Te  Te17  1  0.250000  0.622149  0.362207  1
  Te  Te18  1  0.750000  0.377851  0.637793  1
  Te  Te19  1  0.250000  0.122149  0.137793  1
  Te  Te20  1  0.250000  0.886284  0.646963  1
  Te  Te21  1  0.750000  0.113716  0.353037  1
  Te  Te22  1  0.250000  0.386284  0.853037  1
  Te  Te23  1  0.750000  0.613716  0.146963  1
  Te  Te24  1  0.750000  0.644455  0.540314  1
  Te  Te25  1  0.250000  0.355545  0.459686  1
  Te  Te26  1  0.750000  0.144455  0.959686  1
  Te  Te27  1  0.250000  0.855545  0.040314  1
  Te  Te28  1  0.250000  0.891111  0.439077  1
  Te  Te29  1  0.750000  0.108889  0.560923  1
  Te  Te30  1  0.250000  0.391111  0.060923  1
  Te  Te31  1  0.750000  0.608889  0.939077  1
  Ta  Ta32  1  0.250000  0.749365  0.915788  1
  Ta  Ta33  1  0.750000  0.250635  0.084212  1
  Ta  Ta34  1  0.250000  0.249365  0.584212  1
  Ta  Ta35  1  0.750000  0.750635  0.415788  1
  Ta  Ta36  1  0.250000  0.755099  0.167597  1
  Ta  Ta37  1  0.750000  0.244901  0.832403  1
  Ta  Ta38  1  0.250000  0.255099  0.332403  1
  Ta  Ta39  1  0.750000  0.744901  0.667597  1
