# generated using pymatgen
data_Li2CrPO4F
_symmetry_space_group_name_H-M   'P 1'
_cell_length_a   5.31068415
_cell_length_b   5.56846984
_cell_length_c   7.62224588
_cell_angle_alpha   72.26366325
_cell_angle_beta   72.82957667
_cell_angle_gamma   93.90911059
_symmetry_Int_Tables_number   1
_chemical_formula_structural   Li2CrPO4F
_chemical_formula_sum   'Li4 Cr2 P2 O8 F2'
_cell_volume   202.00560745
_cell_formula_units_Z   2
loop_
 _symmetry_equiv_pos_site_id
 _symmetry_equiv_pos_as_xyz
  1  'x, y, z'
loop_
 _atom_site_type_symbol
 _atom_site_label
 _atom_site_symmetry_multiplicity
 _atom_site_fract_x
 _atom_site_fract_y
 _atom_site_fract_z
 _atom_site_occupancy
  Li  Li0  1  0.831780  0.453602  0.125894  1
  Li  Li1  1  0.479867  0.819482  0.855874  1
  Li  Li2  1  0.509013  0.087094  0.476449  1
  Li  Li3  1  0.239204  0.558615  0.675399  1
  Cr  Cr4  1  0.991882  0.000060  0.020213  1
  Cr  Cr5  1  0.005712  0.003814  0.508372  1
  P  P6  1  0.349431  0.651313  0.248861  1
  P  P7  1  0.643213  0.336463  0.787523  1
  O  O8  1  0.287919  0.804190  0.392046  1
  O  O9  1  0.710545  0.168416  0.653767  1
  O  O10  1  0.633162  0.617266  0.675445  1
  O  O11  1  0.866927  0.337423  0.883852  1
  O  O12  1  0.144163  0.672666  0.136478  1
  O  O13  1  0.363456  0.216287  0.937735  1
  O  O14  1  0.351084  0.372851  0.365227  1
  O  O15  1  0.631306  0.759944  0.085609  1
  F  F16  1  0.187674  0.889650  0.720062  1
  F  F17  1  0.845779  0.119237  0.292606  1
