# generated using pymatgen
data_Sb3ClO4
_symmetry_space_group_name_H-M   'P 1'
_cell_length_a   5.52647447
_cell_length_b   5.73414157
_cell_length_c   9.67615997
_cell_angle_alpha   95.08765943
_cell_angle_beta   90.00000000
_cell_angle_gamma   90.00000000
_symmetry_Int_Tables_number   1
_chemical_formula_structural   Sb3ClO4
_chemical_formula_sum   'Sb6 Cl2 O8'
_cell_volume   305.42543498
_cell_formula_units_Z   2
loop_
 _symmetry_equiv_pos_site_id
 _symmetry_equiv_pos_as_xyz
  1  'x, y, z'
loop_
 _atom_site_type_symbol
 _atom_site_label
 _atom_site_symmetry_multiplicity
 _atom_site_fract_x
 _atom_site_fract_y
 _atom_site_fract_z
 _atom_site_occupancy
  O  O0  1  0.915625  0.101233  0.619973  1
  O  O1  1  0.915625  0.398767  0.380027  1
  O  O2  1  0.084375  0.898767  0.380027  1
  O  O3  1  0.084375  0.601233  0.619973  1
  O  O4  1  0.525633  0.452222  0.701935  1
  O  O5  1  0.474367  0.547778  0.298065  1
  O  O6  1  0.525633  0.047778  0.298065  1
  O  O7  1  0.474367  0.952222  0.701935  1
  Cl  Cl8  1  0.289909  0.250000  0.000000  1
  Cl  Cl9  1  0.710091  0.750000  0.000000  1
  Sb  Sb10  1  0.304537  0.698341  0.792888  1
  Sb  Sb11  1  0.173178  0.250000  0.500000  1
  Sb  Sb12  1  0.826822  0.750000  0.500000  1
  Sb  Sb13  1  0.304537  0.801659  0.207112  1
  Sb  Sb14  1  0.695463  0.301658  0.207112  1
  Sb  Sb15  1  0.695463  0.198342  0.792888  1
