# generated using pymatgen
data_Ti(ClO4)4
_symmetry_space_group_name_H-M   'P 1'
_cell_length_a   7.64919246
_cell_length_b   7.64919247
_cell_length_c   13.40036057
_cell_angle_alpha   73.89684380
_cell_angle_beta   73.89684378
_cell_angle_gamma   63.75527963
_symmetry_Int_Tables_number   1
_chemical_formula_structural   Ti(ClO4)4
_chemical_formula_sum   'Ti2 Cl8 O32'
_cell_volume   664.66053442
_cell_formula_units_Z   2
loop_
 _symmetry_equiv_pos_site_id
 _symmetry_equiv_pos_as_xyz
  1  'x, y, z'
loop_
 _atom_site_type_symbol
 _atom_site_label
 _atom_site_symmetry_multiplicity
 _atom_site_fract_x
 _atom_site_fract_y
 _atom_site_fract_z
 _atom_site_occupancy
  O  O0  1  0.673137  0.104980  0.328977  1
  O  O1  1  0.895020  0.326863  0.171023  1
  O  O2  1  0.326863  0.895020  0.671023  1
  O  O3  1  0.104980  0.673137  0.828977  1
  O  O4  1  0.548560  0.411594  0.395611  1
  O  O5  1  0.588406  0.451440  0.104389  1
  O  O6  1  0.451440  0.588406  0.604389  1
  O  O7  1  0.411594  0.548560  0.895611  1
  O  O8  1  0.892517  0.179600  0.380349  1
  O  O9  1  0.820400  0.107483  0.119651  1
  O  O10  1  0.788967  0.070804  0.865996  1
  O  O11  1  0.929196  0.211033  0.634004  1
  O  O12  1  0.211033  0.929196  0.134004  1
  O  O13  1  0.070804  0.788967  0.365996  1
  O  O14  1  0.477015  0.179235  0.807145  1
  O  O15  1  0.820765  0.522985  0.692855  1
  O  O16  1  0.522985  0.820765  0.192855  1
  O  O17  1  0.179235  0.477015  0.307145  1
  O  O18  1  0.783742  0.926556  0.737460  1
  O  O19  1  0.073444  0.216258  0.762540  1
  O  O20  1  0.216258  0.073444  0.262540  1
  O  O21  1  0.926556  0.783742  0.237460  1
  O  O22  1  0.605915  0.859375  0.914156  1
  O  O23  1  0.140625  0.394085  0.585844  1
  O  O24  1  0.394085  0.140625  0.085844  1
  O  O25  1  0.859375  0.605915  0.414156  1
  O  O26  1  0.102122  0.637937  0.015534  1
  O  O27  1  0.362063  0.897878  0.484466  1
  O  O28  1  0.897878  0.362063  0.984466  1
  O  O29  1  0.637937  0.102122  0.515534  1
  O  O30  1  0.179600  0.892517  0.880349  1
  O  O31  1  0.107483  0.820400  0.619651  1
  Cl  Cl32  1  0.675824  0.207886  0.412466  1
  Cl  Cl33  1  0.792114  0.324176  0.087534  1
  Cl  Cl34  1  0.324176  0.792114  0.587534  1
  Cl  Cl35  1  0.207886  0.675824  0.912466  1
  Cl  Cl36  1  0.010307  0.646782  0.334653  1
  Cl  Cl37  1  0.353218  0.989693  0.165347  1
  Cl  Cl38  1  0.989693  0.353218  0.665347  1
  Cl  Cl39  1  0.646782  0.010307  0.834653  1
  Ti  Ti40  1  0.964426  0.035574  0.250000  1
  Ti  Ti41  1  0.035574  0.964426  0.750000  1
