# generated using pymatgen
data_GdMgPd
_symmetry_space_group_name_H-M   'P 1'
_cell_length_a   7.53384842
_cell_length_b   7.53384842
_cell_length_c   4.09600327
_cell_angle_alpha   90.00000000
_cell_angle_beta   90.00000000
_cell_angle_gamma   120.00000000
_symmetry_Int_Tables_number   1
_chemical_formula_structural   GdMgPd
_chemical_formula_sum   'Gd3 Mg3 Pd3'
_cell_volume   201.33750496
_cell_formula_units_Z   3
loop_
 _symmetry_equiv_pos_site_id
 _symmetry_equiv_pos_as_xyz
  1  'x, y, z'
loop_
 _atom_site_type_symbol
 _atom_site_label
 _atom_site_symmetry_multiplicity
 _atom_site_fract_x
 _atom_site_fract_y
 _atom_site_fract_z
 _atom_site_occupancy
  Mg  Mg0  1  0.000000  0.757178  0.500000  1
  Mg  Mg1  1  0.242822  0.242822  0.500000  1
  Mg  Mg2  1  0.757178  0.000000  0.500000  1
  Pd  Pd3  1  0.333333  0.666667  0.500000  1
  Pd  Pd4  1  0.666667  0.333333  0.500000  1
  Pd  Pd5  1  0.000000  0.000000  0.000000  1
  Gd  Gd6  1  0.000000  0.413074  0.000000  1
  Gd  Gd7  1  0.586926  0.586926  0.000000  1
  Gd  Gd8  1  0.413074  0.000000  0.000000  1
