# generated using pymatgen
data_Ga9Ni13
_symmetry_space_group_name_H-M   'P 1'
_cell_length_a   6.35373661
_cell_length_b   6.35373661
_cell_length_c   7.93568706
_cell_angle_alpha   107.87768835
_cell_angle_beta   108.19494525
_cell_angle_gamma   103.09612737
_symmetry_Int_Tables_number   1
_chemical_formula_structural   Ga9Ni13
_chemical_formula_sum   'Ga9 Ni13'
_cell_volume   270.60346297
_cell_formula_units_Z   1
loop_
 _symmetry_equiv_pos_site_id
 _symmetry_equiv_pos_as_xyz
  1  'x, y, z'
loop_
 _atom_site_type_symbol
 _atom_site_label
 _atom_site_symmetry_multiplicity
 _atom_site_fract_x
 _atom_site_fract_y
 _atom_site_fract_z
 _atom_site_occupancy
  Ni  Ni0  1  0.726089  0.457741  0.660919  1
  Ni  Ni1  1  0.796822  0.065170  0.339081  1
  Ni  Ni2  1  0.273911  0.542259  0.339081  1
  Ni  Ni3  1  0.203178  0.934830  0.660919  1
  Ni  Ni4  1  0.729624  0.449130  0.178754  1
  Ni  Ni5  1  0.270376  0.550870  0.821246  1
  Ni  Ni6  1  0.254163  0.258202  0.512365  1
  Ni  Ni7  1  0.745837  0.741798  0.487635  1
  Ni  Ni8  1  0.259901  0.259901  0.000000  1
  Ni  Ni9  1  0.500000  0.000000  0.500000  1
  Ni  Ni10  1  0.000000  0.500000  0.000000  1
  Ni  Ni11  1  0.500000  0.000000  0.000000  1
  Ni  Ni12  1  0.740099  0.740099  0.000000  1
  Ga  Ga13  1  0.480390  0.249332  0.308953  1
  Ga  Ga14  1  0.940379  0.171437  0.691047  1
  Ga  Ga15  1  0.519610  0.750668  0.691047  1
  Ga  Ga16  1  0.059621  0.828563  0.308953  1
  Ga  Ga17  1  0.942330  0.170428  0.112759  1
  Ga  Ga18  1  0.057670  0.829572  0.887241  1
  Ga  Ga19  1  0.459256  0.708085  0.167341  1
  Ga  Ga20  1  0.540744  0.291915  0.832659  1
  Ga  Ga21  1  0.000000  0.500000  0.500000  1
