# generated using pymatgen
data_SiAg2O3
_symmetry_space_group_name_H-M   'P 1'
_cell_length_a   4.61100568
_cell_length_b   7.12786520
_cell_length_c   10.24978144
_cell_angle_alpha   90.00000000
_cell_angle_beta   90.00000000
_cell_angle_gamma   90.00000000
_symmetry_Int_Tables_number   1
_chemical_formula_structural   SiAg2O3
_chemical_formula_sum   'Si4 Ag8 O12'
_cell_volume   336.87574264
_cell_formula_units_Z   4
loop_
 _symmetry_equiv_pos_site_id
 _symmetry_equiv_pos_as_xyz
  1  'x, y, z'
loop_
 _atom_site_type_symbol
 _atom_site_label
 _atom_site_symmetry_multiplicity
 _atom_site_fract_x
 _atom_site_fract_y
 _atom_site_fract_z
 _atom_site_occupancy
  O  O0  1  0.303781  0.345435  0.708791  1
  O  O1  1  0.803781  0.154565  0.291209  1
  O  O2  1  0.696219  0.845435  0.791209  1
  O  O3  1  0.196219  0.654565  0.208791  1
  O  O4  1  0.903405  0.437600  0.036969  1
  O  O5  1  0.403405  0.062400  0.963031  1
  O  O6  1  0.096595  0.937600  0.463031  1
  O  O7  1  0.198594  0.312673  0.451481  1
  O  O8  1  0.301406  0.687327  0.951481  1
  O  O9  1  0.801406  0.812673  0.048519  1
  O  O10  1  0.698594  0.187327  0.548519  1
  O  O11  1  0.596595  0.562400  0.536969  1
  Si  Si12  1  0.953013  0.141977  0.437126  1
  Si  Si13  1  0.046987  0.641976  0.062874  1
  Si  Si14  1  0.453013  0.358023  0.562874  1
  Si  Si15  1  0.546987  0.858024  0.937126  1
  Ag  Ag16  1  0.399674  0.863912  0.618021  1
  Ag  Ag17  1  0.100326  0.136088  0.118021  1
  Ag  Ag18  1  0.600326  0.363912  0.881979  1
  Ag  Ag19  1  0.899674  0.636088  0.381979  1
  Ag  Ag20  1  0.976478  0.592169  0.723688  1
  Ag  Ag21  1  0.476478  0.907831  0.276312  1
  Ag  Ag22  1  0.023522  0.092169  0.776312  1
  Ag  Ag23  1  0.523522  0.407831  0.223688  1
