# generated using pymatgen
data_Rb2CoH8(CO5)2
_symmetry_space_group_name_H-M   'P 1'
_cell_length_a   6.48362613
_cell_length_b   7.17916354
_cell_length_c   11.40647353
_cell_angle_alpha   99.45204022
_cell_angle_beta   90.00000000
_cell_angle_gamma   90.00000000
_symmetry_Int_Tables_number   1
_chemical_formula_structural   Rb2CoH8(CO5)2
_chemical_formula_sum   'Rb4 Co2 H16 C4 O20'
_cell_volume   523.72894603
_cell_formula_units_Z   2
loop_
 _symmetry_equiv_pos_site_id
 _symmetry_equiv_pos_as_xyz
  1  'x, y, z'
loop_
 _atom_site_type_symbol
 _atom_site_label
 _atom_site_symmetry_multiplicity
 _atom_site_fract_x
 _atom_site_fract_y
 _atom_site_fract_z
 _atom_site_occupancy
  H  H0  1  0.338083  0.829591  0.629936  1
  H  H1  1  0.838082  0.670410  0.870064  1
  H  H2  1  0.661917  0.170409  0.370065  1
  H  H3  1  0.161918  0.329590  0.129935  1
  H  H4  1  0.201627  0.716291  0.517005  1
  H  H5  1  0.701627  0.783710  0.982995  1
  H  H6  1  0.798373  0.283709  0.482995  1
  H  H7  1  0.298373  0.216290  0.017005  1
  H  H8  1  0.175242  0.294628  0.584150  1
  H  H9  1  0.119664  0.693886  0.118623  1
  H  H10  1  0.824758  0.705372  0.415850  1
  H  H11  1  0.324759  0.794627  0.084150  1
  H  H12  1  0.380335  0.193885  0.618624  1
  H  H13  1  0.880336  0.306114  0.881377  1
  H  H14  1  0.619664  0.806115  0.381377  1
  H  H15  1  0.675241  0.205373  0.915850  1
  C  C16  1  0.341828  0.069067  0.820154  1
  C  C17  1  0.841828  0.430934  0.679846  1
  C  C18  1  0.158172  0.569066  0.320154  1
  C  C19  1  0.658172  0.930933  0.179847  1
  O  O20  1  0.173954  0.778324  0.064297  1
  O  O21  1  0.673954  0.721676  0.435704  1
  O  O22  1  0.826046  0.221676  0.935704  1
  O  O23  1  0.326046  0.278324  0.564297  1
  O  O24  1  0.211330  0.201743  0.089640  1
  O  O25  1  0.711330  0.298257  0.410359  1
  O  O26  1  0.310135  0.468153  0.349327  1
  O  O27  1  0.810136  0.031848  0.150673  1
  O  O28  1  0.689865  0.531847  0.650673  1
  O  O29  1  0.189866  0.968152  0.849327  1
  O  O30  1  0.081901  0.532115  0.213340  1
  O  O31  1  0.581900  0.967885  0.286660  1
  O  O32  1  0.918099  0.467885  0.786660  1
  O  O33  1  0.788670  0.798257  0.910360  1
  O  O34  1  0.080677  0.706672  0.396830  1
  O  O35  1  0.580677  0.793328  0.103170  1
  O  O36  1  0.919323  0.293328  0.603170  1
  O  O37  1  0.419323  0.206672  0.896829  1
  O  O38  1  0.288669  0.701744  0.589640  1
  O  O39  1  0.418100  0.032115  0.713340  1
  Co  Co40  1  0.500001  0.500001  0.500000  1
  Co  Co41  1  0.000000  0.000000  0.000000  1
  Rb  Rb42  1  0.345959  0.576922  0.823260  1
  Rb  Rb43  1  0.845958  0.923077  0.676740  1
  Rb  Rb44  1  0.654041  0.423078  0.176739  1
  Rb  Rb45  1  0.154042  0.076923  0.323261  1
