# generated using pymatgen
data_Mg3Si2H4O9
_symmetry_space_group_name_H-M   'P 1'
_cell_length_a   5.37138766
_cell_length_b   5.37138766
_cell_length_c   7.37757473
_cell_angle_alpha   90.00000000
_cell_angle_beta   90.00000000
_cell_angle_gamma   119.99999998
_symmetry_Int_Tables_number   1
_chemical_formula_structural   Mg3Si2H4O9
_chemical_formula_sum   'Mg3 Si2 H4 O9'
_cell_volume   184.33900691
_cell_formula_units_Z   1
loop_
 _symmetry_equiv_pos_site_id
 _symmetry_equiv_pos_as_xyz
  1  'x, y, z'
loop_
 _atom_site_type_symbol
 _atom_site_label
 _atom_site_symmetry_multiplicity
 _atom_site_fract_x
 _atom_site_fract_y
 _atom_site_fract_z
 _atom_site_occupancy
  H  H0  1  0.000000  0.000000  0.176963  1
  H  H1  1  0.349481  0.349481  0.722802  1
  H  H2  1  0.000000  0.650519  0.722802  1
  H  H3  1  0.650519  0.000000  0.722802  1
  O  O4  1  0.000000  0.000000  0.308063  1
  O  O5  1  0.333333  0.666667  0.295373  1
  O  O6  1  0.666667  0.333333  0.295373  1
  O  O7  1  0.511409  0.000000  0.994115  1
  O  O8  1  0.000000  0.511409  0.994115  1
  O  O9  1  0.488591  0.488591  0.994115  1
  O  O10  1  0.664647  0.000000  0.591488  1
  O  O11  1  0.000000  0.664647  0.591488  1
  O  O12  1  0.335353  0.335353  0.591488  1
  Mg  Mg13  1  0.331419  0.000000  0.458842  1
  Mg  Mg14  1  0.000000  0.331419  0.458842  1
  Mg  Mg15  1  0.668581  0.668581  0.458842  1
  Si  Si16  1  0.333333  0.666667  0.077194  1
  Si  Si17  1  0.666667  0.333333  0.077194  1
