# generated using pymatgen
data_YBO3
_symmetry_space_group_name_H-M   'P 1'
_cell_length_a   6.60469848
_cell_length_b   6.59647341
_cell_length_c   8.90402254
_cell_angle_alpha   90.00000000
_cell_angle_beta   90.00000000
_cell_angle_gamma   119.95858576
_symmetry_Int_Tables_number   1
_chemical_formula_structural   YBO3
_chemical_formula_sum   'Y6 B6 O18'
_cell_volume   336.09556474
_cell_formula_units_Z   6
loop_
 _symmetry_equiv_pos_site_id
 _symmetry_equiv_pos_as_xyz
  1  'x, y, z'
loop_
 _atom_site_type_symbol
 _atom_site_label
 _atom_site_symmetry_multiplicity
 _atom_site_fract_x
 _atom_site_fract_y
 _atom_site_fract_z
 _atom_site_occupancy
  B  B0  1  0.093082  0.760510  0.500000  1
  B  B1  1  0.573682  0.000798  0.500000  1
  B  B2  1  0.333360  0.242244  0.500000  1
  B  B3  1  0.333360  0.090982  0.000000  1
  B  B4  1  0.573683  0.572748  0.000000  1
  B  B5  1  0.093079  0.332439  0.000000  1
  O  O6  1  0.550500  0.332097  0.000000  1
  O  O7  1  0.116210  0.114927  0.000000  1
  O  O8  1  0.333378  0.548616  0.000000  1
  O  O9  1  0.333371  0.784621  0.500000  1
  O  O10  1  0.116211  0.001149  0.500000  1
  O  O11  1  0.550495  0.218267  0.500000  1
  O  O12  1  0.983966  0.333090  0.858490  1
  O  O13  1  0.983966  0.333090  0.141510  1
  O  O14  1  0.682810  0.682524  0.858498  1
  O  O15  1  0.682810  0.682524  0.141502  1
  O  O16  1  0.333372  0.982687  0.856876  1
  O  O17  1  0.333372  0.982687  0.143124  1
  O  O18  1  0.333372  0.350551  0.356878  1
  O  O19  1  0.333372  0.350551  0.643122  1
  O  O20  1  0.682807  1.000147  0.358496  1
  O  O21  1  0.682807  1.000147  0.641504  1
  O  O22  1  0.983967  0.650741  0.358490  1
  O  O23  1  0.983967  0.650741  0.641510  1
  Y  Y24  1  0.674787  0.337329  0.249999  1
  Y  Y25  1  0.674787  0.337329  0.750001  1
  Y  Y26  1  0.333371  0.666621  0.249999  1
  Y  Y27  1  0.333371  0.666621  0.750001  1
  Y  Y28  1  0.991944  0.995909  0.250001  1
  Y  Y29  1  0.991944  0.995909  0.749999  1
