# generated using pymatgen
data_MgH2(SeO4)2
_symmetry_space_group_name_H-M   'P 1'
_cell_length_a   5.21220251
_cell_length_b   7.61958530
_cell_length_c   8.69061880
_cell_angle_alpha   90.00000000
_cell_angle_beta   90.00000000
_cell_angle_gamma   98.49464276
_symmetry_Int_Tables_number   1
_chemical_formula_structural   MgH2(SeO4)2
_chemical_formula_sum   'Mg2 H4 Se4 O16'
_cell_volume   341.36000916
_cell_formula_units_Z   2
loop_
 _symmetry_equiv_pos_site_id
 _symmetry_equiv_pos_as_xyz
  1  'x, y, z'
loop_
 _atom_site_type_symbol
 _atom_site_label
 _atom_site_symmetry_multiplicity
 _atom_site_fract_x
 _atom_site_fract_y
 _atom_site_fract_z
 _atom_site_occupancy
  H  H0  1  0.210832  0.652608  0.013182  1
  H  H1  1  0.289168  0.847392  0.513182  1
  H  H2  1  0.789168  0.347392  0.986818  1
  H  H3  1  0.710832  0.152608  0.486818  1
  O  O4  1  0.288977  0.601907  0.918596  1
  O  O5  1  0.211023  0.898093  0.418596  1
  O  O6  1  0.800064  0.458146  0.648891  1
  O  O7  1  0.699936  0.041854  0.148891  1
  O  O8  1  0.199936  0.541854  0.351109  1
  O  O9  1  0.300064  0.958146  0.851109  1
  O  O10  1  0.256830  0.315101  0.631761  1
  O  O11  1  0.243170  0.184899  0.131761  1
  O  O12  1  0.743170  0.684899  0.368239  1
  O  O13  1  0.756830  0.815101  0.868239  1
  O  O14  1  0.915071  0.220292  0.864802  1
  O  O15  1  0.584929  0.279708  0.364802  1
  O  O16  1  0.084929  0.779708  0.135198  1
  O  O17  1  0.415071  0.720292  0.635198  1
  O  O18  1  0.788977  0.101907  0.581404  1
  O  O19  1  0.711023  0.398093  0.081404  1
  Mg  Mg20  1  0.000000  0.000000  0.000000  1
  Mg  Mg21  1  0.500000  0.500000  0.500000  1
  Se  Se22  1  0.550639  0.215029  0.181757  1
  Se  Se23  1  0.949361  0.284971  0.681758  1
  Se  Se24  1  0.050639  0.715029  0.318242  1
  Se  Se25  1  0.449361  0.784971  0.818242  1
