# generated using pymatgen
data_U2Co3Si5
_symmetry_space_group_name_H-M   'P 1'
_cell_length_a   5.57548692
_cell_length_b   7.82942983
_cell_length_c   7.82942983
_cell_angle_alpha   75.62745209
_cell_angle_beta   69.14160268
_cell_angle_gamma   69.14160273
_symmetry_Int_Tables_number   1
_chemical_formula_structural   U2Co3Si5
_chemical_formula_sum   'U4 Co6 Si10'
_cell_volume   295.54666661
_cell_formula_units_Z   2
loop_
 _symmetry_equiv_pos_site_id
 _symmetry_equiv_pos_as_xyz
  1  'x, y, z'
loop_
 _atom_site_type_symbol
 _atom_site_label
 _atom_site_symmetry_multiplicity
 _atom_site_fract_x
 _atom_site_fract_y
 _atom_site_fract_z
 _atom_site_occupancy
  Si  Si0  1  0.102526  0.744123  0.050825  1
  Si  Si1  1  0.897474  0.255877  0.949175  1
  Si  Si2  1  0.397474  0.949175  0.255877  1
  Si  Si3  1  0.602526  0.050825  0.744123  1
  Si  Si4  1  0.021064  0.228936  0.228936  1
  Si  Si5  1  0.478936  0.771064  0.771064  1
  Si  Si6  1  0.978936  0.771064  0.771064  1
  Si  Si7  1  0.750000  0.500000  0.500000  1
  Si  Si8  1  0.250000  0.500000  0.500000  1
  Si  Si9  1  0.521064  0.228936  0.228936  1
  Co  Co10  1  0.750000  0.000000  0.000000  1
  Co  Co11  1  0.861328  0.523961  0.753382  1
  Co  Co12  1  0.361328  0.753382  0.523961  1
  Co  Co13  1  0.638672  0.246618  0.476039  1
  Co  Co14  1  0.250000  0.000000  0.000000  1
  Co  Co15  1  0.138672  0.476039  0.246618  1
  U  U16  1  0.365546  0.400902  0.868006  1
  U  U17  1  0.634454  0.599098  0.131994  1
  U  U18  1  0.134454  0.131994  0.599098  1
  U  U19  1  0.865546  0.868006  0.400902  1
