# generated using pymatgen
data_Si(PH2)4
_symmetry_space_group_name_H-M   'P 1'
_cell_length_a   7.62017871
_cell_length_b   11.30259595
_cell_length_c   11.40164755
_cell_angle_alpha   100.39863380
_cell_angle_beta   90.00000000
_cell_angle_gamma   90.00000000
_symmetry_Int_Tables_number   1
_chemical_formula_structural   Si(PH2)4
_chemical_formula_sum   'Si4 P16 H32'
_cell_volume   965.87026207
_cell_formula_units_Z   4
loop_
 _symmetry_equiv_pos_site_id
 _symmetry_equiv_pos_as_xyz
  1  'x, y, z'
loop_
 _atom_site_type_symbol
 _atom_site_label
 _atom_site_symmetry_multiplicity
 _atom_site_fract_x
 _atom_site_fract_y
 _atom_site_fract_z
 _atom_site_occupancy
  H  H0  1  0.257250  0.200091  0.973766  1
  H  H1  1  0.757250  0.799909  0.526234  1
  H  H2  1  0.742750  0.799909  0.026234  1
  H  H3  1  0.242750  0.200091  0.473766  1
  H  H4  1  0.427136  0.315968  0.081554  1
  H  H5  1  0.927136  0.684032  0.418446  1
  H  H6  1  0.572864  0.684032  0.918446  1
  H  H7  1  0.072864  0.315968  0.581554  1
  H  H8  1  0.837204  0.015146  0.257560  1
  H  H9  1  0.337204  0.984854  0.242440  1
  H  H10  1  0.162796  0.984854  0.742440  1
  H  H11  1  0.662796  0.015146  0.757560  1
  H  H12  1  0.830180  0.129917  0.133710  1
  H  H13  1  0.330180  0.870083  0.366290  1
  H  H14  1  0.169820  0.870083  0.866290  1
  H  H15  1  0.669820  0.129917  0.633710  1
  H  H16  1  0.500934  0.394132  0.687456  1
  H  H17  1  0.000934  0.605868  0.812544  1
  H  H18  1  0.499066  0.605868  0.312544  1
  H  H19  1  0.999066  0.394132  0.187456  1
  H  H20  1  0.697922  0.408150  0.476786  1
  H  H21  1  0.197922  0.591850  0.023214  1
  H  H22  1  0.302078  0.591850  0.523214  1
  H  H23  1  0.802078  0.408150  0.976786  1
  H  H24  1  0.623173  0.343085  0.302090  1
  H  H25  1  0.123173  0.656915  0.197910  1
  H  H26  1  0.376827  0.656915  0.697910  1
  H  H27  1  0.876827  0.343085  0.802090  1
  H  H28  1  0.268360  0.348649  0.763241  1
  H  H29  1  0.768360  0.651351  0.736759  1
  H  H30  1  0.731640  0.651351  0.236759  1
  H  H31  1  0.231640  0.348649  0.263241  1
  Si  Si32  1  0.939945  0.247707  0.355352  1
  Si  Si33  1  0.439945  0.752293  0.144648  1
  Si  Si34  1  0.060055  0.752293  0.644648  1
  Si  Si35  1  0.560055  0.247707  0.855352  1
  P  P36  1  0.844443  0.293253  0.906884  1
  P  P37  1  0.344443  0.706747  0.593116  1
  P  P38  1  0.155557  0.706747  0.093116  1
  P  P39  1  0.655557  0.293253  0.406884  1
  P  P40  1  0.068073  0.194407  0.518528  1
  P  P41  1  0.568073  0.805593  0.981472  1
  P  P42  1  0.931927  0.805593  0.481472  1
  P  P43  1  0.431927  0.194407  0.018528  1
  P  P44  1  0.539499  0.085760  0.705170  1
  P  P45  1  0.039499  0.914240  0.794830  1
  P  P46  1  0.460501  0.914240  0.294830  1
  P  P47  1  0.960501  0.085760  0.205170  1
  P  P48  1  0.074067  0.411421  0.304387  1
  P  P49  1  0.574067  0.588579  0.195613  1
  P  P50  1  0.925933  0.588579  0.695613  1
  P  P51  1  0.425933  0.411421  0.804387  1
