# generated using pymatgen
data_Se2Br3N
_symmetry_space_group_name_H-M   'P 1'
_cell_length_a   8.73741649
_cell_length_b   12.76651727
_cell_length_c   14.83716070
_cell_angle_alpha   90.00000000
_cell_angle_beta   90.00000000
_cell_angle_gamma   90.00000000
_symmetry_Int_Tables_number   1
_chemical_formula_structural   Se2Br3N
_chemical_formula_sum   'Se16 Br24 N8'
_cell_volume   1655.03154353
_cell_formula_units_Z   8
loop_
 _symmetry_equiv_pos_site_id
 _symmetry_equiv_pos_as_xyz
  1  'x, y, z'
loop_
 _atom_site_type_symbol
 _atom_site_label
 _atom_site_symmetry_multiplicity
 _atom_site_fract_x
 _atom_site_fract_y
 _atom_site_fract_z
 _atom_site_occupancy
  N  N0  1  0.987510  0.002599  0.382948  1
  N  N1  1  0.012490  0.502599  0.617052  1
  N  N2  1  0.012490  0.002599  0.882948  1
  N  N3  1  0.987510  0.502599  0.117052  1
  N  N4  1  0.493071  0.099097  0.520746  1
  N  N5  1  0.493071  0.599097  0.979254  1
  N  N6  1  0.506929  0.099097  0.020746  1
  N  N7  1  0.506929  0.599097  0.479254  1
  Se  Se8  1  0.151626  0.581834  0.134219  1
  Se  Se9  1  0.989210  0.365168  0.609926  1
  Se  Se10  1  0.989210  0.865168  0.890074  1
  Se  Se11  1  0.010790  0.365168  0.109926  1
  Se  Se12  1  0.010790  0.865168  0.390074  1
  Se  Se13  1  0.518151  0.538848  0.873011  1
  Se  Se14  1  0.518151  0.038848  0.626989  1
  Se  Se15  1  0.481849  0.538848  0.373011  1
  Se  Se16  1  0.343986  0.147554  0.962955  1
  Se  Se17  1  0.656014  0.647554  0.037045  1
  Se  Se18  1  0.656014  0.147554  0.462955  1
  Se  Se19  1  0.343986  0.647554  0.537045  1
  Se  Se20  1  0.848374  0.081834  0.865781  1
  Se  Se21  1  0.848374  0.581834  0.634219  1
  Se  Se22  1  0.151626  0.081834  0.365781  1
  Se  Se23  1  0.481849  0.038848  0.126989  1
  Br  Br24  1  0.743028  0.330391  0.087373  1
  Br  Br25  1  0.256972  0.830391  0.912627  1
  Br  Br26  1  0.256972  0.330391  0.587373  1
  Br  Br27  1  0.743028  0.830391  0.412627  1
  Br  Br28  1  0.321280  0.404645  0.138371  1
  Br  Br29  1  0.678720  0.904645  0.861629  1
  Br  Br30  1  0.678720  0.404645  0.638371  1
  Br  Br31  1  0.321280  0.904645  0.361629  1
  Br  Br32  1  -0.001105  0.744601  0.137982  1
  Br  Br33  1  1.001105  0.244601  0.862018  1
  Br  Br34  1  1.001105  0.744601  0.637982  1
  Br  Br35  1  -0.001105  0.244601  0.362018  1
  Br  Br36  1  0.170640  0.585411  0.395185  1
  Br  Br37  1  0.829360  0.085411  0.604815  1
  Br  Br38  1  0.829360  0.585411  0.895185  1
  Br  Br39  1  0.170640  0.085411  0.104815  1
  Br  Br40  1  0.497313  0.713781  0.664452  1
  Br  Br41  1  0.502687  0.213781  0.335548  1
  Br  Br42  1  0.502687  0.713781  0.164452  1
  Br  Br43  1  0.497313  0.213781  0.835548  1
  Br  Br44  1  0.749016  0.502470  0.350805  1
  Br  Br45  1  0.250984  0.002470  0.649195  1
  Br  Br46  1  0.250984  0.502470  0.850805  1
  Br  Br47  1  0.749016  0.002470  0.149195  1
