# generated using pymatgen
data_MnH8SO8
_symmetry_space_group_name_H-M   'P 1'
_cell_length_a   6.08631467
_cell_length_b   8.08074197
_cell_length_c   13.89501780
_cell_angle_alpha   90.00000000
_cell_angle_beta   90.00000000
_cell_angle_gamma   90.18583247
_symmetry_Int_Tables_number   1
_chemical_formula_structural   MnH8SO8
_chemical_formula_sum   'Mn4 H32 S4 O32'
_cell_volume   683.38031484
_cell_formula_units_Z   4
loop_
 _symmetry_equiv_pos_site_id
 _symmetry_equiv_pos_as_xyz
  1  'x, y, z'
loop_
 _atom_site_type_symbol
 _atom_site_label
 _atom_site_symmetry_multiplicity
 _atom_site_fract_x
 _atom_site_fract_y
 _atom_site_fract_z
 _atom_site_occupancy
  H  H0  1  0.413723  0.277196  0.808855  1
  H  H1  1  0.086276  0.222804  0.308855  1
  H  H2  1  0.586277  0.722804  0.191145  1
  H  H3  1  0.913724  0.777196  0.691145  1
  H  H4  1  0.180261  0.219883  0.767828  1
  H  H5  1  0.319740  0.280118  0.267828  1
  H  H6  1  0.819739  0.780117  0.232172  1
  H  H7  1  0.680260  0.719883  0.732171  1
  H  H8  1  0.579390  0.945722  0.601729  1
  H  H9  1  0.920611  0.554278  0.101729  1
  H  H10  1  0.420610  0.054278  0.398271  1
  H  H11  1  0.079389  0.445721  0.898271  1
  H  H12  1  0.702025  0.043819  0.685990  1
  H  H13  1  0.797975  0.456181  0.185991  1
  H  H14  1  0.297975  0.956181  0.314009  1
  H  H15  1  0.202025  0.543818  0.814010  1
  H  H16  1  0.843973  0.447783  0.597963  1
  H  H17  1  0.656027  0.052217  0.097963  1
  H  H18  1  0.156027  0.552216  0.402037  1
  H  H19  1  0.343973  0.947784  0.902037  1
  H  H20  1  0.814364  0.347011  0.694865  1
  H  H21  1  0.685636  0.152989  0.194864  1
  H  H22  1  0.185636  0.652990  0.305136  1
  H  H23  1  0.314364  0.847010  0.805135  1
  H  H24  1  0.038203  0.169028  0.515526  1
  H  H25  1  0.461796  0.330971  0.015526  1
  H  H26  1  0.961797  0.830972  0.484474  1
  H  H27  1  0.538204  0.669028  0.984475  1
  H  H28  1  0.123474  0.023976  0.583845  1
  H  H29  1  0.376527  0.476025  0.083845  1
  H  H30  1  0.876526  0.976024  0.416154  1
  H  H31  1  0.623473  0.523976  0.916155  1
  O  O32  1  0.313076  0.284825  0.752802  1
  O  O33  1  0.186923  0.215175  0.252802  1
  O  O34  1  0.686924  0.715174  0.247198  1
  O  O35  1  0.813077  0.784825  0.747199  1
  O  O36  1  0.616980  0.056992  0.626533  1
  O  O37  1  0.883021  0.443008  0.126533  1
  O  O38  1  0.383020  0.943008  0.373467  1
  O  O39  1  0.116980  0.556991  0.873467  1
  O  O40  1  0.736612  0.415694  0.646889  1
  O  O41  1  0.763387  0.084306  0.146890  1
  O  O42  1  0.263388  0.584307  0.353110  1
  O  O43  1  0.236612  0.915694  0.853111  1
  O  O44  1  0.128818  0.144600  0.572933  1
  O  O45  1  0.371183  0.355400  0.072933  1
  O  O46  1  0.871182  0.855399  0.427067  1
  O  O47  1  0.628817  0.644601  0.927067  1
  O  O48  1  0.362694  0.685075  0.713170  1
  O  O49  1  0.137306  0.814925  0.213170  1
  O  O50  1  0.637306  0.314925  0.286830  1
  O  O51  1  0.862694  0.185074  0.786830  1
  O  O52  1  0.102332  0.794846  0.595953  1
  O  O53  1  0.397668  0.705154  0.095953  1
  O  O54  1  0.897666  0.205153  0.404048  1
  O  O55  1  0.602332  0.294847  0.904048  1
  O  O56  1  0.243728  0.515988  0.575280  1
  O  O57  1  0.256272  0.984013  0.075281  1
  O  O58  1  0.756272  0.484013  0.424719  1
  O  O59  1  0.743728  0.015987  0.924720  1
  O  O60  1  0.488259  0.752890  0.552116  1
  O  O61  1  0.011741  0.747111  0.052116  1
  O  O62  1  0.511741  0.247111  0.447884  1
  O  O63  1  0.988259  0.252890  0.947884  1
  S  S64  1  0.299849  0.685722  0.609967  1
  S  S65  1  0.200151  0.814278  0.109967  1
  S  S66  1  0.700150  0.314279  0.390033  1
  S  S67  1  0.799849  0.185722  0.890033  1
  Mn  Mn68  1  0.428962  0.284161  0.602357  1
  Mn  Mn69  1  0.071037  0.215840  0.102358  1
  Mn  Mn70  1  0.571038  0.715840  0.397643  1
  Mn  Mn71  1  0.928962  0.784160  0.897643  1
