# generated using pymatgen
data_Ca3(AlN2)2
_symmetry_space_group_name_H-M   'P 1'
_cell_length_a   5.85633578
_cell_length_b   10.75185615
_cell_length_c   15.91666785
_cell_angle_alpha   90.00000000
_cell_angle_beta   90.00000000
_cell_angle_gamma   90.00000000
_symmetry_Int_Tables_number   1
_chemical_formula_structural   Ca3(AlN2)2
_chemical_formula_sum   'Ca24 Al16 N32'
_cell_volume   1002.21654582
_cell_formula_units_Z   8
loop_
 _symmetry_equiv_pos_site_id
 _symmetry_equiv_pos_as_xyz
  1  'x, y, z'
loop_
 _atom_site_type_symbol
 _atom_site_label
 _atom_site_symmetry_multiplicity
 _atom_site_fract_x
 _atom_site_fract_y
 _atom_site_fract_z
 _atom_site_occupancy
  N  N0  1  0.881245  0.864872  0.827872  1
  N  N1  1  0.381245  0.635128  0.172128  1
  N  N2  1  0.118755  0.364872  0.672128  1
  N  N3  1  0.618755  0.135128  0.327872  1
  N  N4  1  0.976942  0.707553  0.671889  1
  N  N5  1  0.476942  0.792447  0.328111  1
  N  N6  1  0.023058  0.207553  0.828111  1
  N  N7  1  0.523058  0.292447  0.171889  1
  N  N8  1  0.128936  0.887453  0.190915  1
  N  N9  1  0.628936  0.612547  0.809085  1
  N  N10  1  0.871064  0.387453  0.309085  1
  N  N11  1  0.371064  0.112547  0.690915  1
  N  N12  1  0.218461  0.526402  0.911143  1
  N  N13  1  0.718461  0.973598  0.088857  1
  N  N14  1  0.781539  0.026402  0.588857  1
  N  N15  1  0.281539  0.473598  0.411143  1
  N  N16  1  0.274088  0.904411  0.555389  1
  N  N17  1  0.774088  0.595589  0.444611  1
  N  N18  1  0.725912  0.404411  0.944611  1
  N  N19  1  0.225912  0.095589  0.055389  1
  N  N20  1  0.370402  0.873299  0.942251  1
  N  N21  1  0.870402  0.626701  0.057749  1
  N  N22  1  0.629598  0.373299  0.557749  1
  N  N23  1  0.129598  0.126701  0.442251  1
  N  N24  1  0.380060  0.627067  0.565663  1
  N  N25  1  0.880060  0.872933  0.434337  1
  N  N26  1  0.619940  0.127067  0.934337  1
  N  N27  1  0.119940  0.372933  0.065663  1
  N  N28  1  0.480321  0.833410  0.703683  1
  N  N29  1  0.980321  0.666590  0.296317  1
  N  N30  1  0.519679  0.333410  0.796317  1
  N  N31  1  0.019679  0.166590  0.203683  1
  Al  Al32  1  0.013532  0.991163  0.507041  1
  Al  Al33  1  0.513532  0.508837  0.492959  1
  Al  Al34  1  0.986468  0.491163  0.992959  1
  Al  Al35  1  0.486468  0.008837  0.007041  1
  Al  Al36  1  0.255411  0.249535  0.748588  1
  Al  Al37  1  0.755411  0.250465  0.251412  1
  Al  Al38  1  0.744589  0.749535  0.751412  1
  Al  Al39  1  0.244589  0.750465  0.248588  1
  Al  Al40  1  0.262752  0.756161  0.628495  1
  Al  Al41  1  0.762752  0.743839  0.371505  1
  Al  Al42  1  0.737248  0.256161  0.871505  1
  Al  Al43  1  0.237248  0.243839  0.128495  1
  Al  Al44  1  0.492584  0.981588  0.631016  1
  Al  Al45  1  0.992584  0.518412  0.368984  1
  Al  Al46  1  0.507416  0.481588  0.868984  1
  Al  Al47  1  0.007416  0.018412  0.131016  1
  Ca  Ca48  1  0.722547  0.766779  0.558861  1
  Ca  Ca49  1  0.222547  0.733221  0.441139  1
  Ca  Ca50  1  0.277453  0.266779  0.941139  1
  Ca  Ca51  1  0.777453  0.233221  0.058861  1
  Ca  Ca52  1  0.998465  0.509810  0.573255  1
  Ca  Ca53  1  0.498465  0.990190  0.426745  1
  Ca  Ca54  1  0.001535  0.009810  0.926745  1
  Ca  Ca55  1  0.501535  0.490190  0.073255  1
  Ca  Ca56  1  0.036064  0.972176  0.703779  1
  Ca  Ca57  1  0.536064  0.527824  0.296221  1
  Ca  Ca58  1  0.963936  0.472176  0.796221  1
  Ca  Ca59  1  0.463936  0.027824  0.203779  1
  Ca  Ca60  1  0.206714  0.758622  0.061812  1
  Ca  Ca61  1  0.706714  0.741378  0.938188  1
  Ca  Ca62  1  0.793286  0.258622  0.438188  1
  Ca  Ca63  1  0.293286  0.241378  0.561812  1
  Ca  Ca64  1  0.238930  0.736292  0.833436  1
  Ca  Ca65  1  0.738930  0.763708  0.166564  1
  Ca  Ca66  1  0.761070  0.236292  0.666564  1
  Ca  Ca67  1  0.261070  0.263708  0.333436  1
  Ca  Ca68  1  0.467404  0.490507  0.679694  1
  Ca  Ca69  1  0.967404  0.009493  0.320306  1
  Ca  Ca70  1  0.532596  0.990507  0.820306  1
  Ca  Ca71  1  0.032596  0.509493  0.179694  1
