# generated using pymatgen
data_Tl2Te3
_symmetry_space_group_name_H-M   'P 1'
_cell_length_a   6.66002404
_cell_length_b   7.47172242
_cell_length_c   8.18005658
_cell_angle_alpha   103.84741472
_cell_angle_beta   90.00000000
_cell_angle_gamma   116.46697973
_symmetry_Int_Tables_number   1
_chemical_formula_structural   Tl2Te3
_chemical_formula_sum   'Tl4 Te6'
_cell_volume   351.12699012
_cell_formula_units_Z   2
loop_
 _symmetry_equiv_pos_site_id
 _symmetry_equiv_pos_as_xyz
  1  'x, y, z'
loop_
 _atom_site_type_symbol
 _atom_site_label
 _atom_site_symmetry_multiplicity
 _atom_site_fract_x
 _atom_site_fract_y
 _atom_site_fract_z
 _atom_site_occupancy
  Te  Te0  1  0.322931  0.356729  0.073002  1
  Te  Te1  1  0.966202  0.643271  0.426998  1
  Te  Te2  1  0.677069  0.643271  0.926998  1
  Te  Te3  1  0.033798  0.356729  0.573002  1
  Te  Te4  1  0.863532  0.000000  0.250000  1
  Te  Te5  1  0.136468  0.000000  0.750000  1
  Tl  Tl6  1  0.548386  0.783772  0.550720  1
  Tl  Tl7  1  0.764615  0.216228  0.949280  1
  Tl  Tl8  1  0.451614  0.216228  0.449280  1
  Tl  Tl9  1  0.235385  0.783772  0.050720  1
