# generated using pymatgen
data_Sr11(ReO6)4
_symmetry_space_group_name_H-M   'P 1'
_cell_length_a   11.70476161
_cell_length_b   11.70476162
_cell_length_c   11.70476162
_cell_angle_alpha   90.63511190
_cell_angle_beta   119.63399789
_cell_angle_gamma   119.63399794
_symmetry_Int_Tables_number   1
_chemical_formula_structural   Sr11(ReO6)4
_chemical_formula_sum   'Sr22 Re8 O48'
_cell_volume   1140.09168999
_cell_formula_units_Z   2
loop_
 _symmetry_equiv_pos_site_id
 _symmetry_equiv_pos_as_xyz
  1  'x, y, z'
loop_
 _atom_site_type_symbol
 _atom_site_label
 _atom_site_symmetry_multiplicity
 _atom_site_fract_x
 _atom_site_fract_y
 _atom_site_fract_z
 _atom_site_occupancy
  O  O0  1  0.954772  0.971403  0.636779  1
  O  O1  1  0.665375  0.136779  0.682007  1
  O  O2  1  0.834625  0.516631  0.471403  1
  O  O3  1  0.545228  0.182007  0.016631  1
  O  O4  1  0.045228  0.028597  0.363221  1
  O  O5  1  0.334625  0.863221  0.317993  1
  O  O6  1  0.165375  0.483369  0.528597  1
  O  O7  1  0.454772  0.817993  0.983369  1
  O  O8  1  0.532764  0.151981  0.428696  1
  O  O9  1  0.276715  0.928696  0.895932  1
  O  O10  1  0.223285  0.119217  0.651981  1
  O  O11  1  0.967236  0.395932  0.619217  1
  O  O12  1  0.467236  0.848019  0.571304  1
  O  O13  1  0.723285  0.071304  0.104068  1
  O  O14  1  0.776715  0.880783  0.348019  1
  O  O15  1  0.032764  0.604068  0.380783  1
  O  O16  1  0.498684  0.005089  0.162245  1
  O  O17  1  0.157156  0.662245  0.663561  1
  O  O18  1  0.342844  0.006405  0.505089  1
  O  O19  1  1.001316  0.163561  0.506405  1
  O  O20  1  0.501316  0.994911  0.837755  1
  O  O21  1  0.842844  0.337755  0.336439  1
  O  O22  1  0.657156  0.993595  0.494911  1
  O  O23  1  -0.001316  0.836439  0.493595  1
  O  O24  1  0.016305  0.371301  0.912986  1
  O  O25  1  0.541685  0.412986  0.896681  1
  O  O26  1  0.958315  0.854996  0.871301  1
  O  O27  1  0.483695  0.396681  0.354996  1
  O  O28  1  0.983695  0.628699  0.087014  1
  O  O29  1  0.458315  0.587014  0.103319  1
  O  O30  1  0.988952  0.397970  0.132896  1
  O  O31  1  0.734926  0.632896  0.143944  1
  O  O32  1  0.765074  0.909018  0.897970  1
  O  O33  1  0.511048  0.643944  0.409018  1
  O  O34  1  0.011048  0.602030  0.867104  1
  O  O35  1  0.265074  0.367104  0.856056  1
  O  O36  1  0.234926  0.090982  0.102030  1
  O  O37  1  0.488952  0.356056  0.590982  1
  O  O38  1  0.771064  0.383261  0.876266  1
  O  O39  1  0.493005  0.376266  0.105203  1
  O  O40  1  0.006995  0.112197  0.883261  1
  O  O41  1  0.728936  0.605203  0.612197  1
  O  O42  1  0.228936  0.616739  0.123734  1
  O  O43  1  0.506995  0.623734  0.894797  1
  O  O44  1  0.993005  0.887803  0.116739  1
  O  O45  1  0.271064  0.394797  0.387803  1
  O  O46  1  0.516305  0.603319  0.645004  1
  O  O47  1  0.041685  0.145004  0.128699  1
  Sr  Sr48  1  0.250000  0.375000  0.125000  1
  Sr  Sr49  1  0.750000  0.625000  0.875000  1
  Sr  Sr50  1  0.750000  0.863672  0.113672  1
  Sr  Sr51  1  0.250000  0.613672  0.363672  1
  Sr  Sr52  1  0.250000  0.136328  0.886328  1
  Sr  Sr53  1  0.750000  0.386328  0.636328  1
  Sr  Sr54  1  0.191188  0.848979  0.067097  1
  Sr  Sr55  1  0.218119  0.567097  0.875909  1
  Sr  Sr56  1  0.939548  0.192678  0.677157  1
  Sr  Sr57  1  0.484479  0.177157  0.737609  1
  Sr  Sr58  1  0.015521  0.753130  0.692678  1
  Sr  Sr59  1  0.560452  0.237609  0.253130  1
  Sr  Sr60  1  0.060452  0.807322  0.322843  1
  Sr  Sr61  1  0.515521  0.822843  0.262391  1
  Sr  Sr62  1  0.984479  0.246870  0.307322  1
  Sr  Sr63  1  0.439548  0.762391  0.746870  1
  Sr  Sr64  1  0.691188  0.624091  0.342210  1
  Sr  Sr65  1  0.718119  0.842210  0.651021  1
  Sr  Sr66  1  0.781881  0.432903  0.124091  1
  Sr  Sr67  1  0.808812  0.151021  0.932903  1
  Sr  Sr68  1  0.308812  0.375909  0.657790  1
  Sr  Sr69  1  0.281881  0.157790  0.348979  1
  Re  Re70  1  0.000000  0.000000  0.000000  1
  Re  Re71  1  0.000000  0.500000  0.000000  1
  Re  Re72  1  0.500000  0.500000  0.500000  1
  Re  Re73  1  0.500000  0.500000  0.000000  1
  Re  Re74  1  0.000000  0.500000  0.500000  1
  Re  Re75  1  0.000000  0.000000  0.500000  1
  Re  Re76  1  0.500000  0.000000  0.000000  1
  Re  Re77  1  0.500000  0.000000  0.500000  1
