# generated using pymatgen
data_HS7N
_symmetry_space_group_name_H-M   'P 1'
_cell_length_a   8.06139998
_cell_length_b   8.56557116
_cell_length_c   13.85305369
_cell_angle_alpha   90.00000000
_cell_angle_beta   90.00000000
_cell_angle_gamma   90.00000000
_symmetry_Int_Tables_number   1
_chemical_formula_structural   HS7N
_chemical_formula_sum   'H4 S28 N4'
_cell_volume   956.56021702
_cell_formula_units_Z   4
loop_
 _symmetry_equiv_pos_site_id
 _symmetry_equiv_pos_as_xyz
  1  'x, y, z'
loop_
 _atom_site_type_symbol
 _atom_site_label
 _atom_site_symmetry_multiplicity
 _atom_site_fract_x
 _atom_site_fract_y
 _atom_site_fract_z
 _atom_site_occupancy
  H  H0  1  0.208443  0.373124  0.250000  1
  H  H1  1  0.708442  0.126876  0.750000  1
  H  H2  1  0.291558  0.873124  0.250000  1
  H  H3  1  0.791558  0.626876  0.750000  1
  N  N4  1  0.225471  0.254436  0.250000  1
  N  N5  1  0.725471  0.245564  0.750000  1
  N  N6  1  0.274529  0.754436  0.250000  1
  N  N7  1  0.774529  0.745564  0.750000  1
  S  S8  1  0.779940  0.119905  0.250000  1
  S  S9  1  0.279940  0.380095  0.750000  1
  S  S10  1  0.720060  0.619905  0.250000  1
  S  S11  1  0.220060  0.880095  0.750000  1
  S  S12  1  0.256224  0.167440  0.142597  1
  S  S13  1  0.756224  0.332560  0.857403  1
  S  S14  1  0.243776  0.667440  0.357403  1
  S  S15  1  0.743776  0.832560  0.642597  1
  S  S16  1  0.743776  0.832560  0.857403  1
  S  S17  1  0.243776  0.667440  0.142597  1
  S  S18  1  0.756224  0.332560  0.642597  1
  S  S19  1  0.256224  0.167440  0.357403  1
  S  S20  1  0.488912  0.215297  0.087850  1
  S  S21  1  0.988912  0.284703  0.912150  1
  S  S22  1  0.011088  0.715297  0.412150  1
  S  S23  1  0.511088  0.784703  0.587850  1
  S  S24  1  0.511088  0.784703  0.912150  1
  S  S25  1  0.011088  0.715297  0.087850  1
  S  S26  1  0.988912  0.284703  0.587850  1
  S  S27  1  0.488912  0.215297  0.412150  1
  S  S28  1  0.655265  0.042718  0.129463  1
  S  S29  1  0.155265  0.457282  0.870537  1
  S  S30  1  0.844735  0.542718  0.370537  1
  S  S31  1  0.344735  0.957282  0.629463  1
  S  S32  1  0.344735  0.957282  0.870537  1
  S  S33  1  0.844735  0.542718  0.129463  1
  S  S34  1  0.155265  0.457282  0.629463  1
  S  S35  1  0.655265  0.042718  0.370537  1
