# generated using pymatgen
data_SrCoAs2O7
_symmetry_space_group_name_H-M   'P 1'
_cell_length_a   5.61013779
_cell_length_b   8.50276371
_cell_length_c   13.33905189
_cell_angle_alpha   90.00000000
_cell_angle_beta   91.15109555
_cell_angle_gamma   90.00000000
_symmetry_Int_Tables_number   1
_chemical_formula_structural   SrCoAs2O7
_chemical_formula_sum   'Sr4 Co4 As8 O28'
_cell_volume   636.16672331
_cell_formula_units_Z   4
loop_
 _symmetry_equiv_pos_site_id
 _symmetry_equiv_pos_as_xyz
  1  'x, y, z'
loop_
 _atom_site_type_symbol
 _atom_site_label
 _atom_site_symmetry_multiplicity
 _atom_site_fract_x
 _atom_site_fract_y
 _atom_site_fract_z
 _atom_site_occupancy
  O  O0  1  0.693755  0.322882  0.598926  1
  O  O1  1  0.806245  0.822882  0.901075  1
  O  O2  1  0.306244  0.677117  0.401074  1
  O  O3  1  0.193755  0.177117  0.098926  1
  O  O4  1  0.622244  0.156412  0.974673  1
  O  O5  1  0.877756  0.656412  0.525327  1
  O  O6  1  0.377757  0.843588  0.025326  1
  O  O7  1  0.122243  0.343588  0.474673  1
  O  O8  1  0.969558  0.454346  0.793866  1
  O  O9  1  0.530441  0.954347  0.706134  1
  O  O10  1  0.030441  0.545654  0.206134  1
  O  O11  1  0.469558  0.045654  0.293866  1
  O  O12  1  0.276312  0.401100  0.960021  1
  O  O13  1  0.223688  0.901100  0.539979  1
  O  O14  1  0.723687  0.598899  0.039979  1
  O  O15  1  0.776313  0.098900  0.460021  1
  O  O16  1  0.653382  0.331998  0.154796  1
  O  O17  1  0.846618  0.831998  0.345204  1
  O  O18  1  0.346619  0.668001  0.845204  1
  O  O19  1  0.153381  0.168001  0.654796  1
  O  O20  1  0.665145  0.402550  0.392671  1
  O  O21  1  0.834855  0.902550  0.107329  1
  O  O22  1  0.460631  0.384483  0.763174  1
  O  O23  1  0.165144  0.097450  0.892671  1
  O  O24  1  0.960630  0.115517  0.263174  1
  O  O25  1  0.539370  0.615517  0.236826  1
  O  O26  1  0.039371  0.884483  0.736826  1
  O  O27  1  0.334856  0.597450  0.607328  1
  Co  Co28  1  0.331808  0.358009  0.607170  1
  Co  Co29  1  0.168192  0.858009  0.892830  1
  Co  Co30  1  0.668193  0.641992  0.392830  1
  Co  Co31  1  0.831808  0.141991  0.107170  1
  As  As32  1  0.676069  0.803890  0.015015  1
  As  As33  1  0.823932  0.303890  0.484985  1
  As  As34  1  0.176069  0.696110  0.515015  1
  As  As35  1  0.323930  0.196110  0.984985  1
  As  As36  1  0.745731  0.522579  0.164948  1
  As  As37  1  0.254270  0.477420  0.835051  1
  As  As38  1  0.754270  0.022580  0.335052  1
  As  As39  1  0.245731  0.977420  0.664948  1
  Sr  Sr40  1  0.791264  0.173669  0.779759  1
  Sr  Sr41  1  0.708736  0.673669  0.720241  1
  Sr  Sr42  1  0.208735  0.826331  0.220241  1
  Sr  Sr43  1  0.291265  0.326331  0.279759  1
