# generated using pymatgen
data_NdSBr
_symmetry_space_group_name_H-M   'P 1'
_cell_length_a   7.00377885
_cell_length_b   7.10286394
_cell_length_c   7.10602445
_cell_angle_alpha   90.00000000
_cell_angle_beta   90.00000000
_cell_angle_gamma   100.12044076
_symmetry_Int_Tables_number   1
_chemical_formula_structural   NdSBr
_chemical_formula_sum   'Nd4 S4 Br4'
_cell_volume   348.00229940
_cell_formula_units_Z   4
loop_
 _symmetry_equiv_pos_site_id
 _symmetry_equiv_pos_as_xyz
  1  'x, y, z'
loop_
 _atom_site_type_symbol
 _atom_site_label
 _atom_site_symmetry_multiplicity
 _atom_site_fract_x
 _atom_site_fract_y
 _atom_site_fract_z
 _atom_site_occupancy
  S  S0  1  0.991700  0.450660  0.241534  1
  S  S1  1  0.491700  0.450660  0.258466  1
  S  S2  1  0.008300  0.549340  0.758466  1
  S  S3  1  0.508300  0.549340  0.741534  1
  Br  Br4  1  0.206124  0.918789  0.379586  1
  Br  Br5  1  0.706124  0.918789  0.120414  1
  Br  Br6  1  0.793876  0.081211  0.620414  1
  Br  Br7  1  0.293876  0.081211  0.879586  1
  Nd  Nd8  1  0.708952  0.318659  0.966127  1
  Nd  Nd9  1  0.791048  0.681341  0.466127  1
  Nd  Nd10  1  0.291048  0.681341  0.033873  1
  Nd  Nd11  1  0.208952  0.318659  0.533873  1
