# generated using pymatgen
data_Al3Si2H3O10
_symmetry_space_group_name_H-M   'P 1'
_cell_length_a   6.18862423
_cell_length_b   7.33893212
_cell_length_c   7.81306670
_cell_angle_alpha   64.60296513
_cell_angle_beta   88.01590288
_cell_angle_gamma   86.63710617
_symmetry_Int_Tables_number   1
_chemical_formula_structural   Al3Si2H3O10
_chemical_formula_sum   'Al6 Si4 H6 O20'
_cell_volume   319.98952596
_cell_formula_units_Z   2
loop_
 _symmetry_equiv_pos_site_id
 _symmetry_equiv_pos_as_xyz
  1  'x, y, z'
loop_
 _atom_site_type_symbol
 _atom_site_label
 _atom_site_symmetry_multiplicity
 _atom_site_fract_x
 _atom_site_fract_y
 _atom_site_fract_z
 _atom_site_occupancy
  H  H0  1  0.797652  0.235688  0.983957  1
  H  H1  1  0.216273  0.760332  0.016907  1
  H  H2  1  0.120524  0.499274  0.131917  1
  H  H3  1  0.894053  0.496487  0.869137  1
  H  H4  1  0.630079  0.999782  0.133379  1
  H  H5  1  0.384327  0.995946  0.867668  1
  O  O6  1  0.848768  0.111017  0.399377  1
  O  O7  1  0.165576  0.884805  0.601558  1
  O  O8  1  0.349869  0.609195  0.403406  1
  O  O9  1  0.664450  0.386629  0.597569  1
  O  O10  1  0.308333  0.488234  0.776145  1
  O  O11  1  0.705971  0.507590  0.224773  1
  O  O12  1  0.796655  0.986964  0.769590  1
  O  O13  1  0.217803  0.008852  0.231332  1
  O  O14  1  0.366011  0.138721  0.847338  1
  O  O15  1  0.648207  0.857045  0.153601  1
  O  O16  1  0.865771  0.638181  0.846393  1
  O  O17  1  0.148563  0.357596  0.154537  1
  O  O18  1  0.576907  0.238208  0.104611  1
  O  O19  1  0.437458  0.757654  0.896247  1
  O  O20  1  0.087113  0.745451  0.104229  1
  O  O21  1  0.927084  0.250352  0.896791  1
  O  O22  1  0.431815  0.214813  0.440596  1
  O  O23  1  0.582521  0.781018  0.560269  1
  O  O24  1  0.934558  0.716585  0.435915  1
  O  O25  1  0.079757  0.279378  0.564959  1
  Al  Al26  1  0.154356  0.149075  0.396362  1
  Al  Al27  1  0.860023  0.846723  0.604566  1
  Al  Al28  1  0.655989  0.648727  0.394160  1
  Al  Al29  1  0.358355  0.347038  0.606767  1
  Al  Al30  1  0.716098  0.745239  0.989918  1
  Al  Al31  1  0.298233  0.250619  0.010985  1
  Si  Si32  1  0.864296  0.221004  0.704350  1
  Si  Si33  1  0.150057  0.774857  0.296640  1
  Si  Si34  1  0.372624  0.725434  0.708723  1
  Si  Si35  1  0.641771  0.270387  0.292128  1
