# generated using pymatgen
data_Hg2P3Br
_symmetry_space_group_name_H-M   'P 1'
_cell_length_a   7.94373100
_cell_length_b   8.17182387
_cell_length_c   9.13922162
_cell_angle_alpha   90.00000000
_cell_angle_beta   90.00000000
_cell_angle_gamma   90.00000000
_symmetry_Int_Tables_number   1
_chemical_formula_structural   Hg2P3Br
_chemical_formula_sum   'Hg8 P12 Br4'
_cell_volume   593.27047495
_cell_formula_units_Z   4
loop_
 _symmetry_equiv_pos_site_id
 _symmetry_equiv_pos_as_xyz
  1  'x, y, z'
loop_
 _atom_site_type_symbol
 _atom_site_label
 _atom_site_symmetry_multiplicity
 _atom_site_fract_x
 _atom_site_fract_y
 _atom_site_fract_z
 _atom_site_occupancy
  P  P0  1  0.077722  0.111683  0.015929  1
  P  P1  1  0.577722  0.388317  0.484071  1
  P  P2  1  0.922278  0.611683  0.484071  1
  P  P3  1  0.422278  0.888317  0.015929  1
  P  P4  1  0.922278  0.888317  0.984071  1
  P  P5  1  0.422278  0.611683  0.515929  1
  P  P6  1  0.077722  0.388317  0.515929  1
  P  P7  1  0.250000  0.000000  0.178589  1
  P  P8  1  0.250000  0.500000  0.678589  1
  P  P9  1  0.750000  0.000000  0.821411  1
  P  P10  1  0.750000  0.500000  0.321411  1
  P  P11  1  0.577722  0.111683  0.984071  1
  Br  Br12  1  0.250000  0.500000  0.113570  1
  Br  Br13  1  0.750000  0.500000  0.886430  1
  Br  Br14  1  0.750000  0.000000  0.386430  1
  Br  Br15  1  0.250000  0.000000  0.613570  1
  Hg  Hg16  1  0.892927  0.216916  0.671927  1
  Hg  Hg17  1  0.607073  0.783084  0.671927  1
  Hg  Hg18  1  0.107073  0.716916  0.828073  1
  Hg  Hg19  1  0.392927  0.283084  0.828073  1
  Hg  Hg20  1  0.892927  0.283084  0.171927  1
  Hg  Hg21  1  0.392927  0.216916  0.328073  1
  Hg  Hg22  1  0.107073  0.783084  0.328073  1
  Hg  Hg23  1  0.607073  0.716916  0.171927  1
