# generated using pymatgen
data_CuH2(SeO3)2
_symmetry_space_group_name_H-M   'P 1'
_cell_length_a   5.84363262
_cell_length_b   6.51271594
_cell_length_c   7.42330571
_cell_angle_alpha   90.00000000
_cell_angle_beta   90.00000000
_cell_angle_gamma   93.17050198
_symmetry_Int_Tables_number   1
_chemical_formula_structural   CuH2(SeO3)2
_chemical_formula_sum   'Cu2 H4 Se4 O12'
_cell_volume   282.08314309
_cell_formula_units_Z   2
loop_
 _symmetry_equiv_pos_site_id
 _symmetry_equiv_pos_as_xyz
  1  'x, y, z'
loop_
 _atom_site_type_symbol
 _atom_site_label
 _atom_site_symmetry_multiplicity
 _atom_site_fract_x
 _atom_site_fract_y
 _atom_site_fract_z
 _atom_site_occupancy
  Cu  Cu0  1  0.000000  -0.000000  0.000000  1
  Cu  Cu1  1  0.500000  0.500000  0.500000  1
  H  H2  1  0.901514  0.837662  0.598129  1
  H  H3  1  0.598486  0.662338  0.098129  1
  H  H4  1  0.401514  0.337662  0.901871  1
  H  H5  1  0.098486  0.162338  0.401871  1
  Se  Se6  1  0.922634  0.284094  0.664863  1
  Se  Se7  1  0.577366  0.215906  0.164863  1
  Se  Se8  1  0.422634  0.784094  0.835137  1
  Se  Se9  1  0.077366  0.715906  0.335137  1
  O  O10  1  0.550683  0.466061  0.236996  1
  O  O11  1  0.449317  0.533939  0.763004  1
  O  O12  1  0.949317  0.033939  0.736996  1
  O  O13  1  0.327566  0.744770  0.453443  1
  O  O14  1  0.050683  0.966061  0.263004  1
  O  O15  1  0.172434  0.755230  0.953443  1
  O  O16  1  0.672434  0.255230  0.546557  1
  O  O17  1  0.827566  0.244770  0.046557  1
  O  O18  1  0.870631  0.713083  0.517287  1
  O  O19  1  0.629369  0.786917  0.017287  1
  O  O20  1  0.129369  0.286917  0.482713  1
  O  O21  1  0.370631  0.213083  0.982713  1
