# generated using pymatgen
data_K(SnSe2)2
_symmetry_space_group_name_H-M   'P 1'
_cell_length_a   6.63515264
_cell_length_b   7.61575193
_cell_length_c   10.26388823
_cell_angle_alpha   88.21231261
_cell_angle_beta   71.14174505
_cell_angle_gamma   84.46154472
_symmetry_Int_Tables_number   1
_chemical_formula_structural   K(SnSe2)2
_chemical_formula_sum   'K2 Sn4 Se8'
_cell_volume   488.51956510
_cell_formula_units_Z   2
loop_
 _symmetry_equiv_pos_site_id
 _symmetry_equiv_pos_as_xyz
  1  'x, y, z'
loop_
 _atom_site_type_symbol
 _atom_site_label
 _atom_site_symmetry_multiplicity
 _atom_site_fract_x
 _atom_site_fract_y
 _atom_site_fract_z
 _atom_site_occupancy
  K  K0  1  0.969260  0.034344  0.685933  1
  K  K1  1  0.655194  0.034344  0.314067  1
  Se  Se2  1  0.886246  0.540303  0.618772  1
  Se  Se3  1  0.505018  0.540303  0.381228  1
  Se  Se4  1  0.632680  0.878464  0.000000  1
  Se  Se5  1  0.043939  0.648121  0.195120  1
  Se  Se6  1  0.627680  0.331231  0.000000  1
  Se  Se7  1  0.469822  0.122761  0.673399  1
  Se  Se8  1  0.143221  0.122761  0.326601  1
  Se  Se9  1  0.239059  0.648121  0.804880  1
  Sn  Sn10  1  0.411240  0.623758  0.000000  1
  Sn  Sn11  1  0.140357  0.443516  0.376800  1
  Sn  Sn12  1  0.517157  0.443516  0.623200  1
  Sn  Sn13  1  0.312128  0.131857  0.000000  1
