# generated using pymatgen
data_KVBP2HO9
_symmetry_space_group_name_H-M   'P 1'
_cell_length_a   5.24768535
_cell_length_b   8.20493558
_cell_length_c   8.50541244
_cell_angle_alpha   87.05812880
_cell_angle_beta   80.38819169
_cell_angle_gamma   86.26480272
_symmetry_Int_Tables_number   1
_chemical_formula_structural   KVBP2HO9
_chemical_formula_sum   'K2 V2 B2 P4 H2 O18'
_cell_volume   360.00420743
_cell_formula_units_Z   2
loop_
 _symmetry_equiv_pos_site_id
 _symmetry_equiv_pos_as_xyz
  1  'x, y, z'
loop_
 _atom_site_type_symbol
 _atom_site_label
 _atom_site_symmetry_multiplicity
 _atom_site_fract_x
 _atom_site_fract_y
 _atom_site_fract_z
 _atom_site_occupancy
  H  H0  1  0.529375  0.831424  0.494000  1
  H  H1  1  0.470625  0.168576  0.506000  1
  B  B2  1  0.875893  0.734175  0.554193  1
  B  B3  1  0.124107  0.265825  0.445807  1
  O  O4  1  0.292661  0.192806  0.557282  1
  O  O5  1  0.707339  0.807194  0.442718  1
  O  O6  1  0.941632  0.852711  0.661697  1
  O  O7  1  0.058368  0.147289  0.338303  1
  O  O8  1  0.756248  0.803564  0.950498  1
  O  O9  1  0.243752  0.196436  0.049502  1
  O  O10  1  0.446435  0.643154  0.206736  1
  O  O11  1  0.553565  0.356846  0.793264  1
  O  O12  1  0.026779  0.407066  0.792198  1
  O  O13  1  0.973221  0.592934  0.207802  1
  O  O14  1  0.267970  0.398448  0.349600  1
  O  O15  1  0.732030  0.601552  0.650400  1
  O  O16  1  0.125037  0.675969  0.462645  1
  O  O17  1  0.874963  0.324031  0.537355  1
  O  O18  1  0.056714  0.924395  0.152030  1
  O  O19  1  0.943286  0.075605  0.847970  1
  O  O20  1  0.486850  0.002888  0.220459  1
  O  O21  1  0.513150  0.997112  0.779541  1
  P  P22  1  0.783956  0.936268  0.813930  1
  P  P23  1  0.216044  0.063732  0.186070  1
  P  P24  1  0.801905  0.418716  0.695788  1
  P  P25  1  0.198095  0.581284  0.304212  1
  K  K26  1  0.721058  0.326129  0.111303  1
  K  K27  1  0.278942  0.673871  0.888697  1
  V  V28  1  0.266814  0.196535  0.806004  1
  V  V29  1  0.733186  0.803465  0.193996  1
