# generated using pymatgen
data_K2TeS3
_symmetry_space_group_name_H-M   'P 1'
_cell_length_a   6.49158744
_cell_length_b   9.24547926
_cell_length_c   13.44615184
_cell_angle_alpha   90.00000000
_cell_angle_beta   90.68799203
_cell_angle_gamma   90.00000000
_symmetry_Int_Tables_number   1
_chemical_formula_structural   K2TeS3
_chemical_formula_sum   'K8 Te4 S12'
_cell_volume   806.95077176
_cell_formula_units_Z   4
loop_
 _symmetry_equiv_pos_site_id
 _symmetry_equiv_pos_as_xyz
  1  'x, y, z'
loop_
 _atom_site_type_symbol
 _atom_site_label
 _atom_site_symmetry_multiplicity
 _atom_site_fract_x
 _atom_site_fract_y
 _atom_site_fract_z
 _atom_site_occupancy
  Te  Te0  1  0.699416  0.819219  0.418828  1
  Te  Te1  1  0.800584  0.319219  0.081172  1
  Te  Te2  1  0.300584  0.180781  0.581172  1
  Te  Te3  1  0.199416  0.680781  0.918828  1
  S  S4  1  0.746162  0.664881  0.559244  1
  S  S5  1  0.753838  0.164881  0.940756  1
  S  S6  1  0.253838  0.335119  0.440756  1
  S  S7  1  0.246162  0.835119  0.059244  1
  S  S8  1  0.756336  0.659624  0.282518  1
  S  S9  1  0.743664  0.159624  0.217482  1
  S  S10  1  0.243664  0.340376  0.717482  1
  S  S11  1  0.256336  0.840376  0.782518  1
  S  S12  1  0.339787  0.858508  0.410810  1
  S  S13  1  0.160213  0.358508  0.089190  1
  S  S14  1  0.660213  0.141492  0.589190  1
  S  S15  1  0.839787  0.641492  0.910810  1
  K  K16  1  0.752251  0.367941  0.416025  1
  K  K17  1  0.747749  0.867941  0.083975  1
  K  K18  1  0.247749  0.632059  0.583975  1
  K  K19  1  0.252251  0.132059  0.916025  1
  K  K20  1  0.742212  0.390035  0.751107  1
  K  K21  1  0.757788  0.890035  0.748893  1
  K  K22  1  0.257788  0.609965  0.248893  1
  K  K23  1  0.242212  0.109965  0.251107  1
