# generated using pymatgen
data_Pb2O3
_symmetry_space_group_name_H-M   'P 1'
_cell_length_a   5.76238904
_cell_length_b   7.69950495
_cell_length_c   7.97431025
_cell_angle_alpha   112.91127771
_cell_angle_beta   90.00000000
_cell_angle_gamma   90.00000000
_symmetry_Int_Tables_number   1
_chemical_formula_structural   Pb2O3
_chemical_formula_sum   'Pb8 O12'
_cell_volume   325.88880061
_cell_formula_units_Z   4
loop_
 _symmetry_equiv_pos_site_id
 _symmetry_equiv_pos_as_xyz
  1  'x, y, z'
loop_
 _atom_site_type_symbol
 _atom_site_label
 _atom_site_symmetry_multiplicity
 _atom_site_fract_x
 _atom_site_fract_y
 _atom_site_fract_z
 _atom_site_occupancy
  O  O0  1  0.630357  0.630558  0.735684  1
  O  O1  1  0.130357  0.369442  0.764316  1
  O  O2  1  0.369643  0.369442  0.264316  1
  O  O3  1  0.869643  0.630558  0.235684  1
  O  O4  1  0.908903  0.190905  0.051229  1
  O  O5  1  0.408903  0.809095  0.448771  1
  O  O6  1  0.091097  0.809095  0.948771  1
  O  O7  1  0.591097  0.190905  0.551229  1
  O  O8  1  0.433123  0.067164  0.860311  1
  O  O9  1  0.933123  0.932836  0.639689  1
  O  O10  1  0.566877  0.932836  0.139689  1
  O  O11  1  0.066877  0.067164  0.360311  1
  Pb  Pb12  1  0.754463  0.912328  0.883623  1
  Pb  Pb13  1  0.254463  0.087672  0.616377  1
  Pb  Pb14  1  0.245537  0.087672  0.116377  1
  Pb  Pb15  1  0.745537  0.912328  0.383623  1
  Pb  Pb16  1  0.744320  0.387529  0.849817  1
  Pb  Pb17  1  0.244320  0.612471  0.650183  1
  Pb  Pb18  1  0.255680  0.612471  0.150183  1
  Pb  Pb19  1  0.755680  0.387529  0.349817  1
