# generated using pymatgen
data_Rb4Mg3H10
_symmetry_space_group_name_H-M   'P 1'
_cell_length_a   6.04650670
_cell_length_b   7.69862587
_cell_length_c   13.56827317
_cell_angle_alpha   90.00000000
_cell_angle_beta   90.00000000
_cell_angle_gamma   113.12262999
_symmetry_Int_Tables_number   1
_chemical_formula_structural   Rb4Mg3H10
_chemical_formula_sum   'Rb8 Mg6 H20'
_cell_volume   580.86162089
_cell_formula_units_Z   2
loop_
 _symmetry_equiv_pos_site_id
 _symmetry_equiv_pos_as_xyz
  1  'x, y, z'
loop_
 _atom_site_type_symbol
 _atom_site_label
 _atom_site_symmetry_multiplicity
 _atom_site_fract_x
 _atom_site_fract_y
 _atom_site_fract_z
 _atom_site_occupancy
  H  H0  1  0.756103  0.512205  0.648084  1
  H  H1  1  0.243897  0.487795  0.351916  1
  H  H2  1  0.743897  0.487795  0.148084  1
  H  H3  1  0.256103  0.512205  0.851916  1
  H  H4  1  0.972629  0.945258  0.856256  1
  H  H5  1  0.027371  0.054742  0.143744  1
  H  H6  1  0.527371  0.054742  0.356256  1
  H  H7  1  0.472629  0.945258  0.643744  1
  H  H8  1  0.360787  0.221573  0.750000  1
  H  H9  1  0.139213  0.778427  0.250000  1
  H  H10  1  0.639213  0.778427  0.250000  1
  H  H11  1  0.860787  0.221573  0.750000  1
  H  H12  1  0.187502  0.802711  0.460452  1
  H  H13  1  0.384791  0.197289  0.539548  1
  H  H14  1  0.884791  0.197289  0.960452  1
  H  H15  1  0.687502  0.802711  0.039548  1
  H  H16  1  0.615209  0.802711  0.460452  1
  H  H17  1  0.812498  0.197289  0.539548  1
  H  H18  1  0.115209  0.802711  0.039548  1
  H  H19  1  0.312498  0.197289  0.960452  1
  Mg  Mg20  1  0.500000  0.000000  0.500000  1
  Mg  Mg21  1  0.000000  0.000000  0.000000  1
  Mg  Mg22  1  0.622268  0.244535  0.656637  1
  Mg  Mg23  1  0.377732  0.755465  0.343363  1
  Mg  Mg24  1  0.877732  0.755465  0.156637  1
  Mg  Mg25  1  0.122268  0.244535  0.843363  1
  Rb  Rb26  1  0.959073  0.918147  0.639408  1
  Rb  Rb27  1  0.040927  0.081853  0.360592  1
  Rb  Rb28  1  0.540927  0.081853  0.139408  1
  Rb  Rb29  1  0.459073  0.918147  0.860592  1
  Rb  Rb30  1  0.757151  0.514302  0.894745  1
  Rb  Rb31  1  0.242849  0.485698  0.105255  1
  Rb  Rb32  1  0.742849  0.485698  0.394745  1
  Rb  Rb33  1  0.257151  0.514302  0.605255  1
