# generated using pymatgen
data_Nb4Te12I
_symmetry_space_group_name_H-M   'P 1'
_cell_length_a   6.18321447
_cell_length_b   11.32069930
_cell_length_c   17.24934778
_cell_angle_alpha   85.74172302
_cell_angle_beta   79.67506490
_cell_angle_gamma   74.15158001
_symmetry_Int_Tables_number   1
_chemical_formula_structural   Nb4Te12I
_chemical_formula_sum   'Nb8 Te24 I2'
_cell_volume   1142.31098302
_cell_formula_units_Z   2
loop_
 _symmetry_equiv_pos_site_id
 _symmetry_equiv_pos_as_xyz
  1  'x, y, z'
loop_
 _atom_site_type_symbol
 _atom_site_label
 _atom_site_symmetry_multiplicity
 _atom_site_fract_x
 _atom_site_fract_y
 _atom_site_fract_z
 _atom_site_occupancy
  Nb  Nb0  1  0.602201  0.431872  0.734065  1
  Nb  Nb1  1  0.110569  0.732553  0.134148  1
  Nb  Nb2  1  0.977270  0.767447  0.365852  1
  Nb  Nb3  1  0.768138  0.068128  0.765935  1
  Nb  Nb4  1  0.397799  0.568128  0.265935  1
  Nb  Nb5  1  0.231862  0.931872  0.234065  1
  Nb  Nb6  1  0.022730  0.232553  0.634148  1
  Nb  Nb7  1  0.889431  0.267447  0.865852  1
  Te  Te8  1  0.932343  1.002197  0.124504  1
  Te  Te9  1  0.059043  0.497803  0.375496  1
  Te  Te10  1  0.359038  0.215183  0.513029  1
  Te  Te11  1  0.087250  0.284817  0.986971  1
  Te  Te12  1  0.640962  0.784817  0.486971  1
  Te  Te13  1  0.912750  0.715183  0.013029  1
  Te  Te14  1  0.658854  0.381517  0.566816  1
  Te  Te15  1  0.607187  0.118483  0.933184  1
  Te  Te16  1  0.341146  0.618483  0.433184  1
  Te  Te17  1  0.392813  0.881517  0.066816  1
  Te  Te18  1  0.826752  0.531326  0.829765  1
  Te  Te19  1  0.187843  0.968674  0.670235  1
  Te  Te20  1  0.173248  0.468674  0.170235  1
  Te  Te21  1  0.812157  0.031326  0.329765  1
  Te  Te22  1  0.462319  0.436402  0.905443  1
  Te  Te23  1  0.804164  0.063598  0.594557  1
  Te  Te24  1  0.537681  0.563598  0.094557  1
  Te  Te25  1  0.195836  0.936402  0.405443  1
  Te  Te26  1  0.239804  0.616184  0.718149  1
  Te  Te27  1  0.574137  0.883816  0.781851  1
  Te  Te28  1  0.760196  0.383816  0.281851  1
  Te  Te29  1  0.425863  0.116184  0.218149  1
  Te  Te30  1  0.940957  0.502197  0.624504  1
  Te  Te31  1  0.067657  -0.002197  0.875496  1
  I  I32  1  0.680513  0.750000  0.250000  1
  I  I33  1  0.319487  0.250000  0.750000  1
