# generated using pymatgen
data_Cr2Se3
_symmetry_space_group_name_H-M   'P 1'
_cell_length_a   6.93620205
_cell_length_b   6.93620205
_cell_length_c   6.93620205
_cell_angle_alpha   54.52827149
_cell_angle_beta   54.52827150
_cell_angle_gamma   54.52827144
_symmetry_Int_Tables_number   1
_chemical_formula_structural   Cr2Se3
_chemical_formula_sum   'Cr4 Se6'
_cell_volume   205.86872832
_cell_formula_units_Z   2
loop_
 _symmetry_equiv_pos_site_id
 _symmetry_equiv_pos_as_xyz
  1  'x, y, z'
loop_
 _atom_site_type_symbol
 _atom_site_label
 _atom_site_symmetry_multiplicity
 _atom_site_fract_x
 _atom_site_fract_y
 _atom_site_fract_z
 _atom_site_occupancy
  Cr  Cr0  1  0.000000  0.000000  0.000000  1
  Cr  Cr1  1  0.500000  0.500000  0.500000  1
  Cr  Cr2  1  0.324285  0.324285  0.324285  1
  Cr  Cr3  1  0.675715  0.675715  0.675715  1
  Se  Se4  1  0.595268  0.905066  0.261237  1
  Se  Se5  1  0.261237  0.595268  0.905066  1
  Se  Se6  1  0.905066  0.261237  0.595268  1
  Se  Se7  1  0.404732  0.094934  0.738763  1
  Se  Se8  1  0.738763  0.404732  0.094934  1
  Se  Se9  1  0.094934  0.738763  0.404732  1
