# generated using pymatgen
data_PHF4
_symmetry_space_group_name_H-M   'P 1'
_cell_length_a   4.70198274
_cell_length_b   8.20117776
_cell_length_c   8.85074680
_cell_angle_alpha   90.00000000
_cell_angle_beta   90.55702119
_cell_angle_gamma   90.00000000
_symmetry_Int_Tables_number   1
_chemical_formula_structural   PHF4
_chemical_formula_sum   'P4 H4 F16'
_cell_volume   341.28456665
_cell_formula_units_Z   4
loop_
 _symmetry_equiv_pos_site_id
 _symmetry_equiv_pos_as_xyz
  1  'x, y, z'
loop_
 _atom_site_type_symbol
 _atom_site_label
 _atom_site_symmetry_multiplicity
 _atom_site_fract_x
 _atom_site_fract_y
 _atom_site_fract_z
 _atom_site_occupancy
  H  H0  1  0.777981  0.383489  0.613982  1
  H  H1  1  0.722019  0.883490  0.886018  1
  H  H2  1  0.222019  0.616510  0.386018  1
  H  H3  1  0.277981  0.116511  0.113982  1
  F  F4  1  0.247495  0.344184  0.230897  1
  F  F5  1  0.252505  0.844184  0.269103  1
  F  F6  1  0.752505  0.655816  0.769103  1
  F  F7  1  0.747495  0.155816  0.730897  1
  F  F8  1  0.730862  0.087095  0.115307  1
  F  F9  1  0.769138  0.587095  0.384693  1
  F  F10  1  0.269138  0.912905  0.884693  1
  F  F11  1  0.230862  0.412905  0.615307  1
  F  F12  1  0.608901  0.201186  0.338805  1
  F  F13  1  0.891099  0.701186  0.161195  1
  F  F14  1  0.391099  0.798814  0.661195  1
  F  F15  1  0.108901  0.298814  0.838805  1
  F  F16  1  0.632295  0.355388  0.077876  1
  F  F17  1  0.867705  0.855388  0.422124  1
  F  F18  1  0.367705  0.644612  0.922124  1
  F  F19  1  0.132295  0.144612  0.577876  1
  P  P20  1  0.991246  0.282851  0.673074  1
  P  P21  1  0.508754  0.782851  0.826926  1
  P  P22  1  0.008754  0.717149  0.326926  1
  P  P23  1  0.491246  0.217149  0.173074  1
