# generated using pymatgen
data_Cd4P2Cl3
_symmetry_space_group_name_H-M   'P 1'
_cell_length_a   12.42100939
_cell_length_b   12.42100939
_cell_length_c   12.42100939
_cell_angle_alpha   90.00000000
_cell_angle_beta   90.00000000
_cell_angle_gamma   90.00000000
_symmetry_Int_Tables_number   1
_chemical_formula_structural   Cd4P2Cl3
_chemical_formula_sum   'Cd32 P16 Cl24'
_cell_volume   1916.33164057
_cell_formula_units_Z   8
loop_
 _symmetry_equiv_pos_site_id
 _symmetry_equiv_pos_as_xyz
  1  'x, y, z'
loop_
 _atom_site_type_symbol
 _atom_site_label
 _atom_site_symmetry_multiplicity
 _atom_site_fract_x
 _atom_site_fract_y
 _atom_site_fract_z
 _atom_site_occupancy
  P  P0  1  0.948984  0.051016  0.551016  1
  P  P1  1  0.551016  0.948984  0.051016  1
  P  P2  1  0.051016  0.551016  0.948984  1
  P  P3  1  0.448984  0.448984  0.448984  1
  P  P4  1  0.051016  0.948984  0.448984  1
  P  P5  1  0.448984  0.051016  0.948984  1
  P  P6  1  0.948984  0.448984  0.051016  1
  P  P7  1  0.551016  0.551016  0.551016  1
  P  P8  1  0.607310  0.107310  0.392690  1
  P  P9  1  0.392690  0.607310  0.107310  1
  P  P10  1  0.107310  0.392690  0.607310  1
  P  P11  1  0.892690  0.892690  0.892690  1
  P  P12  1  0.392690  0.892690  0.607310  1
  P  P13  1  0.607310  0.392690  0.892690  1
  P  P14  1  0.892690  0.607310  0.392690  1
  P  P15  1  0.107310  0.107310  0.107310  1
  Cl  Cl16  1  0.681311  0.073668  0.726700  1
  Cl  Cl17  1  0.726700  0.681311  0.073668  1
  Cl  Cl18  1  0.073668  0.726700  0.681311  1
  Cl  Cl19  1  0.426332  0.273300  0.181311  1
  Cl  Cl20  1  0.226700  0.818689  0.926332  1
  Cl  Cl21  1  0.926332  0.226700  0.818689  1
  Cl  Cl22  1  0.773300  0.318689  0.573668  1
  Cl  Cl23  1  0.273300  0.181311  0.426332  1
  Cl  Cl24  1  0.573668  0.773300  0.318689  1
  Cl  Cl25  1  0.181311  0.426332  0.273300  1
  Cl  Cl26  1  0.318689  0.573668  0.773300  1
  Cl  Cl27  1  0.818689  0.926332  0.226700  1
  Cl  Cl28  1  0.318689  0.926332  0.273300  1
  Cl  Cl29  1  0.273300  0.318689  0.926332  1
  Cl  Cl30  1  0.926332  0.273300  0.318689  1
  Cl  Cl31  1  0.573668  0.726700  0.818689  1
  Cl  Cl32  1  0.773300  0.181311  0.073668  1
  Cl  Cl33  1  0.073668  0.773300  0.181311  1
  Cl  Cl34  1  0.226700  0.681311  0.426332  1
  Cl  Cl35  1  0.726700  0.818689  0.573668  1
  Cl  Cl36  1  0.426332  0.226700  0.681311  1
  Cl  Cl37  1  0.818689  0.573668  0.726700  1
  Cl  Cl38  1  0.681311  0.426332  0.226700  1
  Cl  Cl39  1  0.181311  0.073668  0.773300  1
  Cd  Cd40  1  0.723381  0.223381  0.276619  1
  Cd  Cd41  1  0.276619  0.723381  0.223381  1
  Cd  Cd42  1  0.223381  0.276619  0.723381  1
  Cd  Cd43  1  0.776619  0.776619  0.776619  1
  Cd  Cd44  1  0.276619  0.776619  0.723381  1
  Cd  Cd45  1  0.723381  0.276619  0.776619  1
  Cd  Cd46  1  0.776619  0.723381  0.276619  1
  Cd  Cd47  1  0.223381  0.223381  0.223381  1
  Cd  Cd48  1  0.750127  0.030430  0.512105  1
  Cd  Cd49  1  0.512105  0.750127  0.030430  1
  Cd  Cd50  1  0.030430  0.512105  0.750127  1
  Cd  Cd51  1  0.469570  0.487895  0.250127  1
  Cd  Cd52  1  0.012105  0.749873  0.969570  1
  Cd  Cd53  1  0.969570  0.012105  0.749873  1
  Cd  Cd54  1  0.987895  0.249873  0.530430  1
  Cd  Cd55  1  0.487895  0.250127  0.469570  1
  Cd  Cd56  1  0.530430  0.987895  0.249873  1
  Cd  Cd57  1  0.250127  0.469570  0.487895  1
  Cd  Cd58  1  0.249873  0.530430  0.987895  1
  Cd  Cd59  1  0.749873  0.969570  0.012105  1
  Cd  Cd60  1  0.249873  0.969570  0.487895  1
  Cd  Cd61  1  0.487895  0.249873  0.969570  1
  Cd  Cd62  1  0.969570  0.487895  0.249873  1
  Cd  Cd63  1  0.530430  0.512105  0.749873  1
  Cd  Cd64  1  0.987895  0.250127  0.030430  1
  Cd  Cd65  1  0.030430  0.987895  0.250127  1
  Cd  Cd66  1  0.012105  0.750127  0.469570  1
  Cd  Cd67  1  0.512105  0.749873  0.530430  1
  Cd  Cd68  1  0.469570  0.012105  0.750127  1
  Cd  Cd69  1  0.749873  0.530430  0.512105  1
  Cd  Cd70  1  0.750127  0.469570  0.012105  1
  Cd  Cd71  1  0.250127  0.030430  0.987895  1
