# generated using pymatgen
data_H2CO
_symmetry_space_group_name_H-M   'P 1'
_cell_length_a   6.16761594
_cell_length_b   6.16761594
_cell_length_c   6.16761593
_cell_angle_alpha   100.99131714
_cell_angle_beta   100.99131715
_cell_angle_gamma   100.99131716
_symmetry_Int_Tables_number   1
_chemical_formula_structural   H2CO
_chemical_formula_sum   'H12 C6 O6'
_cell_volume   219.72156783
_cell_formula_units_Z   6
loop_
 _symmetry_equiv_pos_site_id
 _symmetry_equiv_pos_as_xyz
  1  'x, y, z'
loop_
 _atom_site_type_symbol
 _atom_site_label
 _atom_site_symmetry_multiplicity
 _atom_site_fract_x
 _atom_site_fract_y
 _atom_site_fract_z
 _atom_site_occupancy
  H  H0  1  0.758016  0.265809  0.550504  1
  H  H1  1  0.265809  0.550504  0.758016  1
  H  H2  1  0.550504  0.758016  0.265809  1
  H  H3  1  0.050504  0.765809  0.258016  1
  H  H4  1  0.765809  0.258016  0.050504  1
  H  H5  1  0.258016  0.050504  0.765809  1
  H  H6  1  0.477485  0.193821  0.357498  1
  H  H7  1  0.193821  0.357498  0.477485  1
  H  H8  1  0.977485  0.857498  0.693821  1
  H  H9  1  0.857498  0.693821  0.977485  1
  H  H10  1  0.693821  0.977485  0.857498  1
  H  H11  1  0.357498  0.477485  0.193821  1
  C  C12  1  0.107781  0.989438  0.827090  1
  C  C13  1  0.327090  0.489438  0.607781  1
  C  C14  1  0.489438  0.607781  0.327090  1
  C  C15  1  0.989438  0.827090  0.107781  1
  C  C16  1  0.827090  0.107781  0.989438  1
  C  C17  1  0.607781  0.327090  0.489438  1
  O  O18  1  0.679855  0.515689  0.396013  1
  O  O19  1  0.515689  0.396013  0.679855  1
  O  O20  1  0.396013  0.679855  0.515689  1
  O  O21  1  0.896013  0.015689  0.179855  1
  O  O22  1  0.015689  0.179855  0.896013  1
  O  O23  1  0.179855  0.896013  0.015689  1
