# generated using pymatgen
data_NiH12C2(SN3)2
_symmetry_space_group_name_H-M   'P 1'
_cell_length_a   5.72157696
_cell_length_b   7.10526636
_cell_length_c   7.10526636
_cell_angle_alpha   71.15735504
_cell_angle_beta   77.32670587
_cell_angle_gamma   77.32670580
_symmetry_Int_Tables_number   1
_chemical_formula_structural   NiH12C2(SN3)2
_chemical_formula_sum   'Ni1 H12 C2 S2 N6'
_cell_volume   263.23911629
_cell_formula_units_Z   1
loop_
 _symmetry_equiv_pos_site_id
 _symmetry_equiv_pos_as_xyz
  1  'x, y, z'
loop_
 _atom_site_type_symbol
 _atom_site_label
 _atom_site_symmetry_multiplicity
 _atom_site_fract_x
 _atom_site_fract_y
 _atom_site_fract_z
 _atom_site_occupancy
  H  H0  1  0.749468  0.003394  0.714642  1
  H  H1  1  0.250532  0.285358  0.996606  1
  H  H2  1  0.250532  0.996606  0.285358  1
  H  H3  1  0.749468  0.714642  0.003394  1
  H  H4  1  0.724477  0.237889  0.721054  1
  H  H5  1  0.275523  0.278946  0.762111  1
  H  H6  1  0.275523  0.762111  0.278946  1
  H  H7  1  0.724477  0.721054  0.237889  1
  H  H8  1  0.976688  0.130874  0.608443  1
  H  H9  1  0.023312  0.391557  0.869126  1
  H  H10  1  0.023312  0.869126  0.391557  1
  H  H11  1  0.976688  0.608443  0.130874  1
  C  C12  1  0.547027  0.236100  0.236100  1
  C  C13  1  0.452973  0.763900  0.763900  1
  N  N14  1  0.158718  0.895550  0.269452  1
  N  N15  1  0.841282  0.730548  0.104450  1
  N  N16  1  0.708522  0.146818  0.146818  1
  N  N17  1  0.291478  0.853182  0.853182  1
  N  N18  1  0.841282  0.104450  0.730548  1
  N  N19  1  0.158718  0.269452  0.895550  1
  S  S20  1  0.317187  0.356220  0.356220  1
  S  S21  1  0.682813  0.643780  0.643780  1
  Ni  Ni22  1  0.000000  0.000000  0.000000  1
