# generated using pymatgen
data_CaVO3
_symmetry_space_group_name_H-M   'P 1'
_cell_length_a   5.44049011
_cell_length_b   5.37754225
_cell_length_c   7.68285760
_cell_angle_alpha   90.00000000
_cell_angle_beta   90.00000000
_cell_angle_gamma   90.00000000
_symmetry_Int_Tables_number   1
_chemical_formula_structural   CaVO3
_chemical_formula_sum   'Ca4 V4 O12'
_cell_volume   224.77325776
_cell_formula_units_Z   4
loop_
 _symmetry_equiv_pos_site_id
 _symmetry_equiv_pos_as_xyz
  1  'x, y, z'
loop_
 _atom_site_type_symbol
 _atom_site_label
 _atom_site_symmetry_multiplicity
 _atom_site_fract_x
 _atom_site_fract_y
 _atom_site_fract_z
 _atom_site_occupancy
  O  O0  1  0.785571  0.797581  0.462753  1
  O  O1  1  0.285571  0.702419  0.037247  1
  O  O2  1  0.714429  0.297581  0.537247  1
  O  O3  1  0.214429  0.202419  0.962753  1
  O  O4  1  0.214429  0.202419  0.537247  1
  O  O5  1  0.714429  0.297581  0.962753  1
  O  O6  1  0.285571  0.702419  0.462753  1
  O  O7  1  0.785571  0.797581  0.037247  1
  O  O8  1  0.523075  0.923735  0.750000  1
  O  O9  1  0.023075  0.576265  0.750000  1
  O  O10  1  0.976925  0.423735  0.250000  1
  O  O11  1  0.476925  0.076265  0.250000  1
  Ca  Ca12  1  0.961948  0.006742  0.750000  1
  Ca  Ca13  1  0.461948  0.493258  0.750000  1
  Ca  Ca14  1  0.538052  0.506742  0.250000  1
  Ca  Ca15  1  0.038052  0.993258  0.250000  1
  V  V16  1  0.500000  0.000000  0.000000  1
  V  V17  1  0.000000  0.500000  0.500000  1
  V  V18  1  0.000000  0.500000  0.000000  1
  V  V19  1  0.500000  0.000000  0.500000  1
