# generated using pymatgen
data_Cr2TeO6
_symmetry_space_group_name_H-M   'P 1'
_cell_length_a   4.63131618
_cell_length_b   4.63129669
_cell_length_c   9.17252125
_cell_angle_alpha   90.00006340
_cell_angle_beta   89.99993144
_cell_angle_gamma   90.00003736
_symmetry_Int_Tables_number   1
_chemical_formula_structural   Cr2TeO6
_chemical_formula_sum   'Cr4 Te2 O12'
_cell_volume   196.74140182
_cell_formula_units_Z   2
loop_
 _symmetry_equiv_pos_site_id
 _symmetry_equiv_pos_as_xyz
  1  'x, y, z'
loop_
 _atom_site_type_symbol
 _atom_site_label
 _atom_site_symmetry_multiplicity
 _atom_site_fract_x
 _atom_site_fract_y
 _atom_site_fract_z
 _atom_site_occupancy
  Cr  Cr0  1  0.000005  0.999985  0.334792  1
  Cr  Cr1  1  0.500008  0.500011  0.165211  1
  Cr  Cr2  1  0.500004  0.499994  0.834770  1
  Cr  Cr3  1  0.999993  0.999996  0.665230  1
  Te  Te4  1  -0.000001  0.000006  -0.000013  1
  Te  Te5  1  0.499998  0.499995  0.500013  1
  O  O6  1  0.299493  0.299501  -0.000016  1
  O  O7  1  0.200513  0.799491  0.500018  1
  O  O8  1  0.799494  0.200506  0.500018  1
  O  O9  1  0.700504  0.700506  -0.000018  1
  O  O10  1  0.691479  0.691478  0.662929  1
  O  O11  1  0.308516  0.308515  0.662930  1
  O  O12  1  0.691479  0.691484  0.337067  1
  O  O13  1  0.191479  0.808527  0.162945  1
  O  O14  1  0.808522  0.191479  0.162948  1
  O  O15  1  0.808518  0.191477  0.837055  1
  O  O16  1  0.308519  0.308521  0.337065  1
  O  O17  1  0.191477  0.808528  0.837057  1
