# generated using pymatgen
data_La2InCuSe5
_symmetry_space_group_name_H-M   'P 1'
_cell_length_a   4.13940865
_cell_length_b   12.25927266
_cell_length_c   17.59535398
_cell_angle_alpha   90.00000000
_cell_angle_beta   90.00000000
_cell_angle_gamma   90.00000000
_symmetry_Int_Tables_number   1
_chemical_formula_structural   La2InCuSe5
_chemical_formula_sum   'La8 In4 Cu4 Se20'
_cell_volume   892.89628395
_cell_formula_units_Z   4
loop_
 _symmetry_equiv_pos_site_id
 _symmetry_equiv_pos_as_xyz
  1  'x, y, z'
loop_
 _atom_site_type_symbol
 _atom_site_label
 _atom_site_symmetry_multiplicity
 _atom_site_fract_x
 _atom_site_fract_y
 _atom_site_fract_z
 _atom_site_occupancy
  Cu  Cu0  1  0.750000  0.424050  0.497907  1
  Cu  Cu1  1  0.250000  0.075951  0.997907  1
  Cu  Cu2  1  0.750000  0.924049  0.002093  1
  Cu  Cu3  1  0.250000  0.575951  0.502093  1
  Se  Se4  1  0.250000  0.983905  0.305315  1
  Se  Se5  1  0.750000  0.016095  0.694685  1
  Se  Se6  1  0.250000  0.483905  0.194685  1
  Se  Se7  1  0.750000  0.516095  0.805315  1
  Se  Se8  1  0.250000  0.892544  0.536673  1
  Se  Se9  1  0.750000  0.107456  0.463327  1
  Se  Se10  1  0.250000  0.392544  0.963327  1
  Se  Se11  1  0.750000  0.607456  0.036673  1
  Se  Se12  1  0.250000  0.681889  0.386071  1
  Se  Se13  1  0.750000  0.818111  0.886071  1
  Se  Se14  1  0.250000  0.181889  0.113929  1
  Se  Se15  1  0.750000  0.318111  0.613929  1
  Se  Se16  1  0.750000  0.601059  0.576700  1
  Se  Se17  1  0.250000  0.398941  0.423300  1
  Se  Se18  1  0.750000  0.101059  0.923300  1
  Se  Se19  1  0.250000  0.898941  0.076700  1
  Se  Se20  1  0.750000  0.760017  0.228935  1
  Se  Se21  1  0.250000  0.239983  0.771065  1
  Se  Se22  1  0.750000  0.260017  0.271065  1
  Se  Se23  1  0.250000  0.739983  0.728935  1
  In  In24  1  0.250000  0.691074  0.138936  1
  In  In25  1  0.750000  0.308926  0.861064  1
  In  In26  1  0.250000  0.191074  0.361064  1
  In  In27  1  0.750000  0.808926  0.638936  1
  La  La28  1  0.250000  0.637264  0.906682  1
  La  La29  1  0.750000  0.362736  0.093318  1
  La  La30  1  0.250000  0.137264  0.593318  1
  La  La31  1  0.750000  0.862736  0.406682  1
  La  La32  1  0.250000  0.977933  0.821784  1
  La  La33  1  0.750000  0.022067  0.178216  1
  La  La34  1  0.250000  0.477933  0.678216  1
  La  La35  1  0.750000  0.522067  0.321784  1
