# generated using pymatgen
data_Fe12N5
_symmetry_space_group_name_H-M   'P 1'
_cell_length_a   9.41145365
_cell_length_b   9.41145364
_cell_length_c   4.30781660
_cell_angle_alpha   90.00000000
_cell_angle_beta   90.00000000
_cell_angle_gamma   120.00000000
_symmetry_Int_Tables_number   1
_chemical_formula_structural   Fe12N5
_chemical_formula_sum   'Fe24 N10'
_cell_volume   330.44657301
_cell_formula_units_Z   2
loop_
 _symmetry_equiv_pos_site_id
 _symmetry_equiv_pos_as_xyz
  1  'x, y, z'
loop_
 _atom_site_type_symbol
 _atom_site_label
 _atom_site_symmetry_multiplicity
 _atom_site_fract_x
 _atom_site_fract_y
 _atom_site_fract_z
 _atom_site_occupancy
  N  N0  1  0.676019  0.838010  0.000000  1
  N  N1  1  0.161990  0.323981  0.000000  1
  N  N2  1  0.161990  0.838010  0.000000  1
  N  N3  1  0.990629  0.495315  0.000000  1
  N  N4  1  0.504685  0.009371  0.000000  1
  N  N5  1  0.504685  0.495315  0.000000  1
  N  N6  1  0.333346  0.166673  0.500000  1
  N  N7  1  0.833327  0.666654  0.500000  1
  N  N8  1  0.833327  0.166673  0.500000  1
  N  N9  1  0.333333  0.666667  0.500000  1
  Fe  Fe10  1  0.826192  0.332290  0.747685  1
  Fe  Fe11  1  0.506099  0.173808  0.747685  1
  Fe  Fe12  1  0.998951  0.839456  0.252314  1
  Fe  Fe13  1  0.160544  0.159495  0.252314  1
  Fe  Fe14  1  0.840505  0.001049  0.252314  1
  Fe  Fe15  1  0.160544  0.001049  0.747686  1
  Fe  Fe16  1  0.840505  0.839456  0.747686  1
  Fe  Fe17  1  0.998951  0.159495  0.747686  1
  Fe  Fe18  1  0.499114  0.832449  0.246039  1
  Fe  Fe19  1  0.167551  0.666665  0.246039  1
  Fe  Fe20  1  0.333335  0.500886  0.246039  1
  Fe  Fe21  1  0.167551  0.500886  0.753961  1
  Fe  Fe22  1  0.333335  0.832449  0.753961  1
  Fe  Fe23  1  0.499114  0.666665  0.753961  1
  Fe  Fe24  1  0.667710  0.493901  0.747685  1
  Fe  Fe25  1  0.826192  0.493901  0.252315  1
  Fe  Fe26  1  0.667710  0.173808  0.252315  1
  Fe  Fe27  1  0.506099  0.332290  0.252315  1
  Fe  Fe28  1  0.997080  0.666690  0.754720  1
  Fe  Fe29  1  0.333310  0.330390  0.754720  1
  Fe  Fe30  1  0.669610  0.002920  0.754720  1
  Fe  Fe31  1  0.333310  0.002920  0.245280  1
  Fe  Fe32  1  0.669610  0.666690  0.245280  1
  Fe  Fe33  1  0.997080  0.330390  0.245280  1
