# generated using pymatgen
data_SrNb2Bi2O9
_symmetry_space_group_name_H-M   'P 1'
_cell_length_a   5.64268977
_cell_length_b   5.67313672
_cell_length_c   13.07814599
_cell_angle_alpha   90.00000000
_cell_angle_beta   102.45834237
_cell_angle_gamma   90.00000000
_symmetry_Int_Tables_number   1
_chemical_formula_structural   SrNb2Bi2O9
_chemical_formula_sum   'Sr2 Nb4 Bi4 O18'
_cell_volume   408.79634035
_cell_formula_units_Z   2
loop_
 _symmetry_equiv_pos_site_id
 _symmetry_equiv_pos_as_xyz
  1  'x, y, z'
loop_
 _atom_site_type_symbol
 _atom_site_label
 _atom_site_symmetry_multiplicity
 _atom_site_fract_x
 _atom_site_fract_y
 _atom_site_fract_z
 _atom_site_occupancy
  O  O0  1  0.411943  0.281729  0.869205  1
  O  O1  1  0.588058  0.781729  0.130795  1
  O  O2  1  0.457262  0.781729  0.869205  1
  O  O3  1  0.542737  0.281729  0.130795  1
  O  O4  1  0.884012  0.329472  0.827596  1
  O  O5  1  0.115987  0.829472  0.172403  1
  O  O6  1  0.943583  0.829472  0.827596  1
  O  O7  1  0.056416  0.329472  0.172403  1
  O  O8  1  0.730496  0.224609  0.501543  1
  O  O9  1  0.269505  0.724609  0.498457  1
  O  O10  1  0.193897  0.561947  1.000000  1
  O  O11  1  0.806103  0.061947  0.000000  1
  O  O12  1  0.175252  0.558838  0.688664  1
  O  O13  1  0.824749  0.058838  0.311336  1
  O  O14  1  0.771047  0.724609  0.501543  1
  O  O15  1  0.486587  0.558838  0.311336  1
  O  O16  1  0.228953  0.224609  0.498458  1
  O  O17  1  0.513414  0.058838  0.688664  1
  Sr  Sr18  1  0.251691  0.019565  0.000000  1
  Sr  Sr19  1  0.748311  0.519565  0.000000  1
  Nb  Nb20  1  0.667015  0.032122  0.834219  1
  Nb  Nb21  1  0.167203  0.532122  0.834219  1
  Nb  Nb22  1  0.832798  0.032122  0.165781  1
  Nb  Nb23  1  0.332984  0.532122  0.165781  1
  Bi  Bi24  1  0.085702  0.935475  0.598975  1
  Bi  Bi25  1  0.914297  0.435475  0.401025  1
  Bi  Bi26  1  0.513273  0.435475  0.598975  1
  Bi  Bi27  1  0.486726  0.935475  0.401025  1
