# generated using pymatgen
data_W2N
_symmetry_space_group_name_H-M   'P 1'
_cell_length_a   2.83520571
_cell_length_b   2.83520538
_cell_length_c   17.65665700
_cell_angle_alpha   90.00000000
_cell_angle_beta   90.00000000
_cell_angle_gamma   120.00000393
_symmetry_Int_Tables_number   1
_chemical_formula_structural   W2N
_chemical_formula_sum   'W6 N3'
_cell_volume   122.91593658
_cell_formula_units_Z   3
loop_
 _symmetry_equiv_pos_site_id
 _symmetry_equiv_pos_as_xyz
  1  'x, y, z'
loop_
 _atom_site_type_symbol
 _atom_site_label
 _atom_site_symmetry_multiplicity
 _atom_site_fract_x
 _atom_site_fract_y
 _atom_site_fract_z
 _atom_site_occupancy
  W  W0  1  0.000000  0.000000  0.075687  1
  W  W1  1  0.000000  0.000000  0.924313  1
  W  W2  1  0.333333  0.666667  0.262027  1
  W  W3  1  0.666667  0.333333  0.737973  1
  W  W4  1  0.333333  0.666667  0.417200  1
  W  W5  1  0.666667  0.333333  0.582800  1
  N  N6  1  0.000000  0.000000  0.500000  1
  N  N7  1  0.333333  0.666667  0.150333  1
  N  N8  1  0.666667  0.333333  0.849667  1
