# generated using pymatgen
data_Ca3SiO5
_symmetry_space_group_name_H-M   'P 1'
_cell_length_a   9.52731283
_cell_length_b   9.52731283
_cell_length_c   9.52731283
_cell_angle_alpha   43.68760601
_cell_angle_beta   43.68760602
_cell_angle_gamma   43.68760597
_symmetry_Int_Tables_number   1
_chemical_formula_structural   Ca3SiO5
_chemical_formula_sum   'Ca9 Si3 O15'
_cell_volume   374.50459818
_cell_formula_units_Z   3
loop_
 _symmetry_equiv_pos_site_id
 _symmetry_equiv_pos_as_xyz
  1  'x, y, z'
loop_
 _atom_site_type_symbol
 _atom_site_label
 _atom_site_symmetry_multiplicity
 _atom_site_fract_x
 _atom_site_fract_y
 _atom_site_fract_z
 _atom_site_occupancy
  O  O0  1  0.753809  0.135872  0.135872  1
  O  O1  1  0.135872  0.135872  0.753809  1
  O  O2  1  0.135872  0.753809  0.135872  1
  O  O3  1  0.784400  0.407037  0.407037  1
  O  O4  1  0.407037  0.407037  0.784400  1
  O  O5  1  0.407037  0.784400  0.407037  1
  O  O6  1  0.494340  0.869751  0.869751  1
  O  O7  1  0.869751  0.869751  0.494340  1
  O  O8  1  0.869751  0.494340  0.869751  1
  O  O9  1  0.620446  0.620446  0.620446  1
  O  O10  1  0.274763  0.274763  0.274763  1
  O  O11  1  0.925710  0.925710  0.925710  1
  O  O12  1  0.830844  0.830844  0.830844  1
  O  O13  1  0.401961  0.401961  0.401961  1
  O  O14  1  0.150396  0.150396  0.150396  1
  Si  Si15  1  0.767951  0.767951  0.767951  1
  Si  Si16  1  0.555262  0.555262  0.555262  1
  Si  Si17  1  0.989061  0.989061  0.989061  1
  Ca  Ca18  1  0.786822  0.262362  0.262362  1
  Ca  Ca19  1  0.262362  0.262362  0.786822  1
  Ca  Ca20  1  0.262362  0.786822  0.262362  1
  Ca  Ca21  1  0.532077  0.058054  0.058054  1
  Ca  Ca22  1  0.058054  0.058054  0.532077  1
  Ca  Ca23  1  0.058054  0.532077  0.058054  1
  Ca  Ca24  1  0.019502  0.495002  0.495002  1
  Ca  Ca25  1  0.495002  0.495002  0.019502  1
  Ca  Ca26  1  0.495002  0.019502  0.495002  1
