# generated using pymatgen
data_Ag2Hg7(As2I3)2
_symmetry_space_group_name_H-M   'P 1'
_cell_length_a   13.58181603
_cell_length_b   13.58181603
_cell_length_c   13.58181603
_cell_angle_alpha   90.00000000
_cell_angle_beta   90.00000000
_cell_angle_gamma   90.00000000
_symmetry_Int_Tables_number   1
_chemical_formula_structural   Ag2Hg7(As2I3)2
_chemical_formula_sum   'Ag8 Hg28 As16 I24'
_cell_volume   2505.37956351
_cell_formula_units_Z   4
loop_
 _symmetry_equiv_pos_site_id
 _symmetry_equiv_pos_as_xyz
  1  'x, y, z'
loop_
 _atom_site_type_symbol
 _atom_site_label
 _atom_site_symmetry_multiplicity
 _atom_site_fract_x
 _atom_site_fract_y
 _atom_site_fract_z
 _atom_site_occupancy
  As  As0  1  0.052350  0.052350  0.052350  1
  As  As1  1  0.447650  0.947650  0.552350  1
  As  As2  1  0.552350  0.447650  0.947650  1
  As  As3  1  0.947650  0.552350  0.447650  1
  As  As4  1  0.947650  0.947650  0.947650  1
  As  As5  1  0.552350  0.052350  0.447650  1
  As  As6  1  0.447650  0.552350  0.052350  1
  As  As7  1  0.052350  0.447650  0.552350  1
  As  As8  1  0.390372  0.390372  0.390372  1
  As  As9  1  0.109628  0.609628  0.890372  1
  As  As10  1  0.890372  0.109628  0.609628  1
  As  As11  1  0.609628  0.890372  0.109628  1
  As  As12  1  0.609628  0.609628  0.609628  1
  As  As13  1  0.890372  0.390372  0.109628  1
  As  As14  1  0.109628  0.890372  0.390372  1
  As  As15  1  0.390372  0.109628  0.890372  1
  Ag  Ag16  1  0.220630  0.220630  0.220630  1
  Ag  Ag17  1  0.279370  0.779370  0.720630  1
  Ag  Ag18  1  0.720630  0.279370  0.779370  1
  Ag  Ag19  1  0.779370  0.720630  0.279370  1
  Ag  Ag20  1  0.779370  0.779370  0.779370  1
  Ag  Ag21  1  0.720630  0.220630  0.279370  1
  Ag  Ag22  1  0.279370  0.720630  0.220630  1
  Ag  Ag23  1  0.220630  0.279370  0.720630  1
  I  I24  1  0.164009  0.557425  0.253827  1
  I  I25  1  0.253827  0.164009  0.557425  1
  I  I26  1  0.557425  0.253827  0.164009  1
  I  I27  1  0.942575  0.746173  0.664009  1
  I  I28  1  0.753827  0.335991  0.442575  1
  I  I29  1  0.442575  0.753827  0.335991  1
  I  I30  1  0.246173  0.835991  0.057425  1
  I  I31  1  0.746173  0.664009  0.942575  1
  I  I32  1  0.057425  0.246173  0.835991  1
  I  I33  1  0.664009  0.942575  0.746173  1
  I  I34  1  0.835991  0.057425  0.246173  1
  I  I35  1  0.335991  0.442575  0.753827  1
  I  I36  1  0.835991  0.442575  0.746173  1
  I  I37  1  0.746173  0.835991  0.442575  1
  I  I38  1  0.442575  0.746173  0.835991  1
  I  I39  1  0.057425  0.253827  0.335991  1
  I  I40  1  0.246173  0.664009  0.557425  1
  I  I41  1  0.557425  0.246173  0.664009  1
  I  I42  1  0.753827  0.164009  0.942575  1
  I  I43  1  0.253827  0.335991  0.057425  1
  I  I44  1  0.942575  0.753827  0.164009  1
  I  I45  1  0.335991  0.057425  0.253827  1
  I  I46  1  0.164009  0.942575  0.753827  1
  I  I47  1  0.664009  0.557425  0.246173  1
  Hg  Hg48  1  0.210542  0.419016  0.447392  1
  Hg  Hg49  1  0.447392  0.210542  0.419016  1
  Hg  Hg50  1  0.419016  0.447392  0.210542  1
  Hg  Hg51  1  0.080984  0.552608  0.710542  1
  Hg  Hg52  1  0.947392  0.289458  0.580984  1
  Hg  Hg53  1  0.580984  0.947392  0.289458  1
  Hg  Hg54  1  0.052608  0.789458  0.919016  1
  Hg  Hg55  1  0.552608  0.710542  0.080984  1
  Hg  Hg56  1  0.919016  0.052608  0.789458  1
  Hg  Hg57  1  0.710542  0.080984  0.552608  1
  Hg  Hg58  1  0.789458  0.919016  0.052608  1
  Hg  Hg59  1  0.289458  0.580984  0.947392  1
  Hg  Hg60  1  0.789458  0.580984  0.552608  1
  Hg  Hg61  1  0.552608  0.789458  0.580984  1
  Hg  Hg62  1  0.580984  0.552608  0.789458  1
  Hg  Hg63  1  0.919016  0.447392  0.289458  1
  Hg  Hg64  1  0.052608  0.710542  0.419016  1
  Hg  Hg65  1  0.419016  0.052608  0.710542  1
  Hg  Hg66  1  0.947392  0.210542  0.080984  1
  Hg  Hg67  1  0.447392  0.289458  0.919016  1
  Hg  Hg68  1  0.080984  0.947392  0.210542  1
  Hg  Hg69  1  0.289458  0.919016  0.447392  1
  Hg  Hg70  1  0.210542  0.080984  0.947392  1
  Hg  Hg71  1  0.710542  0.419016  0.052608  1
  Hg  Hg72  1  0.500000  0.500000  0.500000  1
  Hg  Hg73  1  0.000000  0.500000  0.000000  1
  Hg  Hg74  1  0.000000  0.000000  0.500000  1
  Hg  Hg75  1  0.500000  0.000000  0.000000  1
