# generated using pymatgen
data_BaNb8O14
_symmetry_space_group_name_H-M   'P 1'
_cell_length_a   6.05983296
_cell_length_b   9.55072158
_cell_length_c   10.45677809
_cell_angle_alpha   90.00000000
_cell_angle_beta   90.00000000
_cell_angle_gamma   90.00000000
_symmetry_Int_Tables_number   1
_chemical_formula_structural   BaNb8O14
_chemical_formula_sum   'Ba2 Nb16 O28'
_cell_volume   605.19416129
_cell_formula_units_Z   2
loop_
 _symmetry_equiv_pos_site_id
 _symmetry_equiv_pos_as_xyz
  1  'x, y, z'
loop_
 _atom_site_type_symbol
 _atom_site_label
 _atom_site_symmetry_multiplicity
 _atom_site_fract_x
 _atom_site_fract_y
 _atom_site_fract_z
 _atom_site_occupancy
  O  O0  1  0.747287  0.505912  0.753627  1
  O  O1  1  0.747287  0.494088  0.246373  1
  O  O2  1  0.252712  0.005912  0.746373  1
  O  O3  1  0.252712  0.994088  0.253627  1
  O  O4  1  0.252712  0.494088  0.246373  1
  O  O5  1  0.252712  0.505912  0.753627  1
  O  O6  1  0.747287  0.994088  0.253627  1
  O  O7  1  0.747287  0.005912  0.746373  1
  O  O8  1  0.249511  0.742826  0.913030  1
  O  O9  1  0.249511  0.257175  0.086970  1
  O  O10  1  0.750489  0.242826  0.586970  1
  O  O11  1  0.750489  0.757174  0.413030  1
  O  O12  1  0.750489  0.257175  0.086970  1
  O  O13  1  0.750489  0.742826  0.913030  1
  O  O14  1  0.249511  0.757174  0.413030  1
  O  O15  1  0.249511  0.242826  0.586970  1
  O  O16  1  0.000000  0.500000  0.000000  1
  O  O17  1  0.000000  0.000000  0.500000  1
  O  O18  1  0.000000  0.230930  0.821941  1
  O  O19  1  0.000000  0.769070  0.178059  1
  O  O20  1  0.000000  0.730931  0.678059  1
  O  O21  1  0.000000  0.269070  0.321941  1
  O  O22  1  0.500001  0.242580  0.344137  1
  O  O23  1  0.000000  0.500000  0.500000  1
  O  O24  1  0.500001  0.742580  0.155863  1
  O  O25  1  0.500001  0.257420  0.844137  1
  O  O26  1  0.000000  0.000000  0.000000  1
  O  O27  1  0.500001  0.757419  0.655863  1
  Nb  Nb28  1  0.000000  0.382058  0.163249  1
  Nb  Nb29  1  0.000000  0.617941  0.836751  1
  Nb  Nb30  1  0.000000  0.882058  0.336751  1
  Nb  Nb31  1  0.000000  0.117941  0.663249  1
  Nb  Nb32  1  0.500001  0.380449  0.664676  1
  Nb  Nb33  1  0.500001  0.619552  0.335324  1
  Nb  Nb34  1  0.500001  0.880449  0.835324  1
  Nb  Nb35  1  0.500001  0.119552  0.164677  1
  Nb  Nb36  1  0.731393  0.623771  0.576509  1
  Nb  Nb37  1  0.731393  0.123770  0.923491  1
  Nb  Nb38  1  0.268606  0.123770  0.923491  1
  Nb  Nb39  1  0.268606  0.876230  0.076509  1
  Nb  Nb40  1  0.268606  0.376230  0.423492  1
  Nb  Nb41  1  0.268606  0.623771  0.576509  1
  Nb  Nb42  1  0.731393  0.876230  0.076509  1
  Nb  Nb43  1  0.731393  0.376230  0.423492  1
  Ba  Ba44  1  0.500001  0.500000  0.000000  1
  Ba  Ba45  1  0.500001  0.000000  0.500000  1
