# generated using pymatgen
data_SbSI
_symmetry_space_group_name_H-M   'P 1'
_cell_length_a   3.67518246
_cell_length_b   12.23694444
_cell_length_c   16.13526300
_cell_angle_alpha   90.00000000
_cell_angle_beta   90.00000000
_cell_angle_gamma   90.00000000
_symmetry_Int_Tables_number   1
_chemical_formula_structural   SbSI
_chemical_formula_sum   'Sb4 S4 I4'
_cell_volume   725.65124050
_cell_formula_units_Z   4
loop_
 _symmetry_equiv_pos_site_id
 _symmetry_equiv_pos_as_xyz
  1  'x, y, z'
loop_
 _atom_site_type_symbol
 _atom_site_label
 _atom_site_symmetry_multiplicity
 _atom_site_fract_x
 _atom_site_fract_y
 _atom_site_fract_z
 _atom_site_occupancy
  S  S0  1  0.248457  0.178835  0.075815  1
  S  S1  1  0.748457  0.321165  0.924185  1
  S  S2  1  0.251543  0.821165  0.575815  1
  S  S3  1  0.751543  0.678835  0.424185  1
  Sb  Sb4  1  0.251664  0.562839  0.364010  1
  Sb  Sb5  1  0.748336  0.062839  0.135990  1
  Sb  Sb6  1  0.751664  0.937161  0.635990  1
  Sb  Sb7  1  0.248336  0.437161  0.864010  1
  I  I8  1  0.749938  0.567477  0.212078  1
  I  I9  1  0.249938  0.932523  0.787922  1
  I  I10  1  0.250062  0.067477  0.287922  1
  I  I11  1  0.750062  0.432523  0.712078  1
