# generated using pymatgen
data_PAuCl8
_symmetry_space_group_name_H-M   'P 1'
_cell_length_a   12.01445585
_cell_length_b   12.01445585
_cell_length_c   12.01445585
_cell_angle_alpha   96.00278118
_cell_angle_beta   114.03798941
_cell_angle_gamma   119.21452852
_symmetry_Int_Tables_number   1
_chemical_formula_structural   PAuCl8
_chemical_formula_sum   'P4 Au4 Cl32'
_cell_volume   1278.33331075
_cell_formula_units_Z   4
loop_
 _symmetry_equiv_pos_site_id
 _symmetry_equiv_pos_as_xyz
  1  'x, y, z'
loop_
 _atom_site_type_symbol
 _atom_site_label
 _atom_site_symmetry_multiplicity
 _atom_site_fract_x
 _atom_site_fract_y
 _atom_site_fract_z
 _atom_site_occupancy
  P  P0  1  0.000000  0.252438  0.252438  1
  P  P1  1  0.500000  0.747562  0.247562  1
  P  P2  1  0.000000  0.747562  0.747562  1
  P  P3  1  0.500000  0.252438  0.752438  1
  Cl  Cl4  1  0.677063  0.406285  0.917777  1
  Cl  Cl5  1  0.988508  0.759286  0.582223  1
  Cl  Cl6  1  0.011492  0.593715  0.770778  1
  Cl  Cl7  1  0.322937  0.240714  0.729222  1
  Cl  Cl8  1  0.322937  0.593715  0.082223  1
  Cl  Cl9  1  0.011492  0.240714  0.417777  1
  Cl  Cl10  1  0.988508  0.406285  0.229222  1
  Cl  Cl11  1  0.677063  0.759286  0.270778  1
  Cl  Cl12  1  0.525675  0.284213  0.605063  1
  Cl  Cl13  1  0.179150  0.920612  0.894937  1
  Cl  Cl14  1  0.820850  0.715787  0.741462  1
  Cl  Cl15  1  0.474325  0.079388  0.758538  1
  Cl  Cl16  1  0.474325  0.715787  0.394937  1
  Cl  Cl17  1  0.820850  0.079388  0.105063  1
  Cl  Cl18  1  0.179150  0.284213  0.258538  1
  Cl  Cl19  1  0.525675  0.920612  0.241462  1
  Cl  Cl20  1  0.558735  0.453037  0.394302  1
  Cl  Cl21  1  0.558735  0.164433  0.105698  1
  Cl  Cl22  1  0.441265  0.546963  0.605698  1
  Cl  Cl23  1  0.441265  0.835567  0.894302  1
  Cl  Cl24  1  0.382523  0.310012  0.072511  1
  Cl  Cl25  1  0.737502  0.310012  0.427489  1
  Cl  Cl26  1  0.262498  0.689988  0.572511  1
  Cl  Cl27  1  0.617477  0.689988  0.927489  1
  Cl  Cl28  1  0.074859  0.969098  0.394238  1
  Cl  Cl29  1  0.074859  0.680621  0.105762  1
  Cl  Cl30  1  0.925141  0.030902  0.605762  1
  Cl  Cl31  1  0.925141  0.319379  0.894238  1
  Cl  Cl32  1  0.884356  0.634356  0.250000  1
  Cl  Cl33  1  0.115644  0.365644  0.750000  1
  Cl  Cl34  1  0.266339  0.016339  0.250000  1
  Cl  Cl35  1  0.733661  0.983661  0.750000  1
  Au  Au36  1  0.924126  0.174126  0.750000  1
  Au  Au37  1  0.075874  0.825874  0.250000  1
  Au  Au38  1  0.440034  0.690034  0.750000  1
  Au  Au39  1  0.559966  0.309966  0.250000  1
