# generated using pymatgen
data_MgH10SO9
_symmetry_space_group_name_H-M   'P 1'
_cell_length_a   6.25933001
_cell_length_b   6.43293489
_cell_length_c   10.63347704
_cell_angle_alpha   71.36870191
_cell_angle_beta   85.62402043
_cell_angle_gamma   75.78310031
_symmetry_Int_Tables_number   1
_chemical_formula_structural   MgH10SO9
_chemical_formula_sum   'Mg2 H20 S2 O18'
_cell_volume   393.30033646
_cell_formula_units_Z   2
loop_
 _symmetry_equiv_pos_site_id
 _symmetry_equiv_pos_as_xyz
  1  'x, y, z'
loop_
 _atom_site_type_symbol
 _atom_site_label
 _atom_site_symmetry_multiplicity
 _atom_site_fract_x
 _atom_site_fract_y
 _atom_site_fract_z
 _atom_site_occupancy
  H  H0  1  0.682926  0.563428  0.215468  1
  H  H1  1  0.317074  0.436572  0.784532  1
  H  H2  1  0.695950  0.381310  0.142685  1
  H  H3  1  0.304050  0.618690  0.857315  1
  H  H4  1  0.999650  0.265342  0.341219  1
  H  H5  1  0.000350  0.734658  0.658781  1
  H  H6  1  0.304820  0.793116  0.395366  1
  H  H7  1  0.695180  0.206884  0.604634  1
  H  H8  1  0.047530  0.885529  0.398309  1
  H  H9  1  0.952470  0.114471  0.601691  1
  H  H10  1  0.348726  0.646916  0.120543  1
  H  H11  1  0.651274  0.353084  0.879457  1
  H  H12  1  0.137511  0.589553  0.201006  1
  H  H13  1  0.862489  0.410447  0.798994  1
  H  H14  1  0.230304  0.294210  0.001372  1
  H  H15  1  0.769696  0.705790  0.998628  1
  H  H16  1  0.272953  0.112729  0.143326  1
  H  H17  1  0.727047  0.887271  0.856674  1
  H  H18  1  0.743639  0.770990  0.654195  1
  H  H19  1  0.256361  0.229010  0.345805  1
  O  O20  1  0.360547  0.458398  0.865821  1
  O  O21  1  0.639453  0.541602  0.134179  1
  O  O22  1  0.167135  0.745583  0.425797  1
  O  O23  1  0.832865  0.254417  0.574203  1
  O  O24  1  0.186069  0.698620  0.122858  1
  O  O25  1  0.813931  0.301380  0.877142  1
  O  O26  1  0.162377  0.186537  0.071838  1
  O  O27  1  0.837623  0.813463  0.928162  1
  O  O28  1  0.441758  0.020657  0.297835  1
  O  O29  1  0.558242  0.979343  0.702165  1
  O  O30  1  0.794912  0.067181  0.355470  1
  O  O31  1  0.205088  0.932819  0.644530  1
  O  O32  1  0.757850  0.701703  0.346461  1
  O  O33  1  0.242150  0.298297  0.653539  1
  O  O34  1  0.743461  0.021133  0.141979  1
  O  O35  1  0.256539  0.978867  0.858021  1
  O  O36  1  0.884717  0.661922  0.647600  1
  O  O37  1  0.115283  0.338078  0.352400  1
  Mg  Mg38  1  0.000000  0.000000  0.000000  1
  Mg  Mg39  1  0.000000  0.500000  0.500000  1
  S  S40  1  0.312973  0.046231  0.714674  1
  S  S41  1  0.687027  0.953769  0.285326  1
