# generated using pymatgen
data_K2ZnH12(SO7)2
_symmetry_space_group_name_H-M   'P 1'
_cell_length_a   6.26402806
_cell_length_b   9.05737123
_cell_length_c   12.31145684
_cell_angle_alpha   90.00000000
_cell_angle_beta   90.00000000
_cell_angle_gamma   104.00984541
_symmetry_Int_Tables_number   1
_chemical_formula_structural   K2ZnH12(SO7)2
_chemical_formula_sum   'K4 Zn2 H24 S4 O28'
_cell_volume   677.72079945
_cell_formula_units_Z   2
loop_
 _symmetry_equiv_pos_site_id
 _symmetry_equiv_pos_as_xyz
  1  'x, y, z'
loop_
 _atom_site_type_symbol
 _atom_site_label
 _atom_site_symmetry_multiplicity
 _atom_site_fract_x
 _atom_site_fract_y
 _atom_site_fract_z
 _atom_site_occupancy
  K  K0  1  0.345254  0.636487  0.161604  1
  K  K1  1  0.654746  0.863513  0.661604  1
  K  K2  1  0.345254  0.136487  0.338396  1
  K  K3  1  0.654746  0.363513  0.838396  1
  Zn  Zn4  1  0.000000  0.000000  0.000000  1
  Zn  Zn5  1  0.000000  0.500000  0.500000  1
  H  H6  1  0.998164  0.356333  0.305348  1
  H  H7  1  0.927512  0.228731  0.395378  1
  H  H8  1  0.072488  0.271269  0.895378  1
  H  H9  1  0.072488  0.771269  0.604622  1
  H  H10  1  0.324280  0.524509  0.646399  1
  H  H11  1  0.001836  0.143667  0.805348  1
  H  H12  1  0.675720  0.975491  0.146399  1
  H  H13  1  0.331544  0.390455  0.562747  1
  H  H14  1  0.324280  0.024509  0.853601  1
  H  H15  1  0.668456  0.609545  0.437253  1
  H  H16  1  0.674957  0.774351  0.918379  1
  H  H17  1  0.927512  0.728731  0.104622  1
  H  H18  1  0.095685  0.258605  0.118872  1
  H  H19  1  0.325043  0.725649  0.418379  1
  H  H20  1  0.904315  0.741395  0.881128  1
  H  H21  1  0.095685  0.758605  0.381128  1
  H  H22  1  0.998164  0.856333  0.194652  1
  H  H23  1  0.675720  0.475491  0.353601  1
  H  H24  1  0.325043  0.225649  0.081621  1
  H  H25  1  0.674957  0.274351  0.581621  1
  H  H26  1  0.668456  0.109545  0.062747  1
  H  H27  1  0.331544  0.890455  0.937253  1
  H  H28  1  0.001836  0.643667  0.694652  1
  H  H29  1  0.904315  0.241395  0.618872  1
  S  S30  1  0.727886  0.413171  0.134626  1
  S  S31  1  0.272114  0.086829  0.634626  1
  S  S32  1  0.272114  0.586829  0.865374  1
  S  S33  1  0.727886  0.913171  0.365374  1
  O  O34  1  0.378790  0.712377  0.941414  1
  O  O35  1  0.705808  0.509196  0.430497  1
  O  O36  1  0.825368  0.322946  0.608024  1
  O  O37  1  0.050038  0.106020  0.668597  1
  O  O38  1  0.294191  0.990804  0.930497  1
  O  O39  1  0.965091  0.672172  0.620109  1
  O  O40  1  0.250357  0.938683  0.578742  1
  O  O41  1  0.705808  0.009196  0.069503  1
  O  O42  1  0.583809  0.405206  0.232609  1
  O  O43  1  0.825368  0.822946  0.891976  1
  O  O44  1  0.378790  0.212377  0.558586  1
  O  O45  1  0.174632  0.677054  0.391976  1
  O  O46  1  0.749643  0.561317  0.078742  1
  O  O47  1  0.050038  0.606020  0.831403  1
  O  O48  1  0.749643  0.061317  0.421258  1
  O  O49  1  0.034909  0.827828  0.120109  1
  O  O50  1  0.174632  0.177054  0.108024  1
  O  O51  1  0.621210  0.787623  0.441414  1
  O  O52  1  0.949962  0.393980  0.168597  1
  O  O53  1  0.294191  0.490804  0.569503  1
  O  O54  1  0.416191  0.094794  0.732609  1
  O  O55  1  0.965091  0.172173  0.879891  1
  O  O56  1  0.034909  0.327827  0.379891  1
  O  O57  1  0.416191  0.594794  0.767391  1
  O  O58  1  0.250357  0.438683  0.921258  1
  O  O59  1  0.583809  0.905206  0.267391  1
  O  O60  1  0.949962  0.893980  0.331403  1
  O  O61  1  0.621210  0.287623  0.058586  1
