# generated using pymatgen
data_CaInBr3
_symmetry_space_group_name_H-M   'P 1'
_cell_length_a   4.29663089
_cell_length_b   7.43149664
_cell_length_c   11.02069112
_cell_angle_alpha   90.00000000
_cell_angle_beta   90.00000000
_cell_angle_gamma   106.80303311
_symmetry_Int_Tables_number   1
_chemical_formula_structural   CaInBr3
_chemical_formula_sum   'Ca2 In2 Br6'
_cell_volume   336.87061141
_cell_formula_units_Z   2
loop_
 _symmetry_equiv_pos_site_id
 _symmetry_equiv_pos_as_xyz
  1  'x, y, z'
loop_
 _atom_site_type_symbol
 _atom_site_label
 _atom_site_symmetry_multiplicity
 _atom_site_fract_x
 _atom_site_fract_y
 _atom_site_fract_z
 _atom_site_occupancy
  In  In0  1  0.760750  0.521499  0.750000  1
  In  In1  1  0.239250  0.478501  0.250000  1
  Ca  Ca2  1  0.500000  0.000000  0.000000  1
  Ca  Ca3  1  0.500000  0.000000  0.500000  1
  Br  Br4  1  0.864687  0.729373  0.452899  1
  Br  Br5  1  0.135313  0.270627  0.547101  1
  Br  Br6  1  0.135313  0.270627  0.952899  1
  Br  Br7  1  0.864687  0.729373  0.047101  1
  Br  Br8  1  0.434511  0.869022  0.750000  1
  Br  Br9  1  0.565489  0.130978  0.250000  1
