# generated using pymatgen
data_La5C2Br9
_symmetry_space_group_name_H-M   'P 1'
_cell_length_a   10.05322738
_cell_length_b   11.43789056
_cell_length_c   16.97279116
_cell_angle_alpha   90.00000000
_cell_angle_beta   90.00000000
_cell_angle_gamma   90.00000000
_symmetry_Int_Tables_number   1
_chemical_formula_structural   La5C2Br9
_chemical_formula_sum   'La20 C8 Br36'
_cell_volume   1951.66246498
_cell_formula_units_Z   4
loop_
 _symmetry_equiv_pos_site_id
 _symmetry_equiv_pos_as_xyz
  1  'x, y, z'
loop_
 _atom_site_type_symbol
 _atom_site_label
 _atom_site_symmetry_multiplicity
 _atom_site_fract_x
 _atom_site_fract_y
 _atom_site_fract_z
 _atom_site_occupancy
  C  C0  1  0.250000  0.246093  0.028039  1
  C  C1  1  0.750000  0.753907  0.971961  1
  C  C2  1  0.250000  0.746093  0.471961  1
  C  C3  1  0.750000  0.253907  0.528039  1
  C  C4  1  0.250000  0.320478  0.957662  1
  C  C5  1  0.750000  0.679522  0.042338  1
  C  C6  1  0.250000  0.820478  0.542338  1
  C  C7  1  0.750000  0.179522  0.457662  1
  Br  Br8  1  0.967026  0.069349  0.108825  1
  Br  Br9  1  0.467026  0.930651  0.891175  1
  Br  Br10  1  0.532974  0.569349  0.391175  1
  Br  Br11  1  0.032974  0.430651  0.608825  1
  Br  Br12  1  0.032974  0.930651  0.891175  1
  Br  Br13  1  0.532974  0.069349  0.108825  1
  Br  Br14  1  0.467026  0.430651  0.608825  1
  Br  Br15  1  0.967026  0.569349  0.391175  1
  Br  Br16  1  0.073189  0.613776  0.940725  1
  Br  Br17  1  0.573189  0.386224  0.059275  1
  Br  Br18  1  0.426811  0.113776  0.559275  1
  Br  Br19  1  0.926811  0.886224  0.440725  1
  Br  Br20  1  0.926811  0.386224  0.059275  1
  Br  Br21  1  0.426811  0.613776  0.940725  1
  Br  Br22  1  0.573189  0.886224  0.440725  1
  Br  Br23  1  0.073189  0.113776  0.559275  1
  Br  Br24  1  0.049361  0.633232  0.174619  1
  Br  Br25  1  0.549361  0.366768  0.825381  1
  Br  Br26  1  0.450640  0.133232  0.325381  1
  Br  Br27  1  0.950639  0.866768  0.674619  1
  Br  Br28  1  0.950639  0.366768  0.825381  1
  Br  Br29  1  0.450640  0.633232  0.174619  1
  Br  Br30  1  0.549361  0.866768  0.674619  1
  Br  Br31  1  0.049361  0.133232  0.325381  1
  Br  Br32  1  0.250000  0.367737  0.226403  1
  Br  Br33  1  0.750000  0.632263  0.773597  1
  Br  Br34  1  0.250000  0.867737  0.273597  1
  Br  Br35  1  0.750000  0.132263  0.726403  1
  Br  Br36  1  0.250000  0.158553  0.795681  1
  Br  Br37  1  0.750000  0.841447  0.204319  1
  Br  Br38  1  0.250000  0.658553  0.704319  1
  Br  Br39  1  0.750000  0.341447  0.295681  1
  Br  Br40  1  0.250000  0.885711  0.061566  1
  Br  Br41  1  0.750000  0.114289  0.938434  1
  Br  Br42  1  0.250000  0.385711  0.438434  1
  Br  Br43  1  0.750000  0.614289  0.561566  1
  La  La44  1  0.952993  0.808583  0.049616  1
  La  La45  1  0.452993  0.191417  0.950384  1
  La  La46  1  0.547007  0.308583  0.450384  1
  La  La47  1  0.047007  0.691417  0.549616  1
  La  La48  1  0.047007  0.191417  0.950384  1
  La  La49  1  0.547007  0.808583  0.049616  1
  La  La50  1  0.452993  0.691417  0.549616  1
  La  La51  1  0.952993  0.308583  0.450384  1
  La  La52  1  0.250000  0.462901  0.065533  1
  La  La53  1  0.750000  0.537099  0.934467  1
  La  La54  1  0.250000  0.962901  0.434467  1
  La  La55  1  0.750000  0.037099  0.565533  1
  La  La56  1  0.250000  0.136554  0.145691  1
  La  La57  1  0.750000  0.863446  0.854309  1
  La  La58  1  0.250000  0.636554  0.354309  1
  La  La59  1  0.750000  0.363446  0.645691  1
  La  La60  1  0.250000  0.428839  0.843743  1
  La  La61  1  0.750000  0.571161  0.156257  1
  La  La62  1  0.250000  0.928839  0.656257  1
  La  La63  1  0.750000  0.071161  0.343743  1
