# generated using pymatgen
data_TlBS3
_symmetry_space_group_name_H-M   'P 1'
_cell_length_a   5.83175826
_cell_length_b   7.06762981
_cell_length_c   12.17007674
_cell_angle_alpha   90.00000000
_cell_angle_beta   90.00000000
_cell_angle_gamma   113.67225668
_symmetry_Int_Tables_number   1
_chemical_formula_structural   TlBS3
_chemical_formula_sum   'Tl4 B4 S12'
_cell_volume   459.40355027
_cell_formula_units_Z   4
loop_
 _symmetry_equiv_pos_site_id
 _symmetry_equiv_pos_as_xyz
  1  'x, y, z'
loop_
 _atom_site_type_symbol
 _atom_site_label
 _atom_site_symmetry_multiplicity
 _atom_site_fract_x
 _atom_site_fract_y
 _atom_site_fract_z
 _atom_site_occupancy
  B  B0  1  0.640954  0.700294  0.230456  1
  B  B1  1  0.859046  0.299706  0.730456  1
  B  B2  1  0.359046  0.299706  0.769544  1
  B  B3  1  0.140954  0.700294  0.269544  1
  S  S4  1  0.168547  0.941130  0.182497  1
  S  S5  1  0.331453  0.058870  0.682497  1
  S  S6  1  0.831453  0.058870  0.817503  1
  S  S7  1  0.668547  0.941130  0.317503  1
  S  S8  1  0.328377  0.810475  0.400955  1
  S  S9  1  0.171623  0.189525  0.900955  1
  S  S10  1  0.671623  0.189525  0.599045  1
  S  S11  1  0.828377  0.810475  0.099045  1
  S  S12  1  0.296512  0.536993  0.198899  1
  S  S13  1  0.203488  0.463007  0.698899  1
  S  S14  1  0.703488  0.463007  0.801101  1
  S  S15  1  0.796512  0.536993  0.301101  1
  Tl  Tl16  1  0.725224  0.247858  0.089665  1
  Tl  Tl17  1  0.774776  0.752142  0.589665  1
  Tl  Tl18  1  0.274776  0.752142  0.910335  1
  Tl  Tl19  1  0.225224  0.247858  0.410335  1
