# generated using pymatgen
data_Na4SnSe4
_symmetry_space_group_name_H-M   'P 1'
_cell_length_a   7.34334390
_cell_length_b   8.28976980
_cell_length_c   8.28976980
_cell_angle_alpha   90.00000000
_cell_angle_beta   90.00000000
_cell_angle_gamma   90.00000000
_symmetry_Int_Tables_number   1
_chemical_formula_structural   Na4SnSe4
_chemical_formula_sum   'Na8 Sn2 Se8'
_cell_volume   504.63667345
_cell_formula_units_Z   2
loop_
 _symmetry_equiv_pos_site_id
 _symmetry_equiv_pos_as_xyz
  1  'x, y, z'
loop_
 _atom_site_type_symbol
 _atom_site_label
 _atom_site_symmetry_multiplicity
 _atom_site_fract_x
 _atom_site_fract_y
 _atom_site_fract_z
 _atom_site_occupancy
  Na  Na0  1  0.028799  0.197106  0.594862  1
  Na  Na1  1  0.971201  0.594862  0.802894  1
  Na  Na2  1  0.971201  0.405138  0.197106  1
  Na  Na3  1  0.028799  0.802894  0.405138  1
  Na  Na4  1  0.471201  0.697106  0.905138  1
  Na  Na5  1  0.471201  0.302894  0.094862  1
  Na  Na6  1  0.528799  0.905138  0.302894  1
  Na  Na7  1  0.528799  0.094862  0.697106  1
  Se  Se8  1  0.690859  0.257906  0.404939  1
  Se  Se9  1  0.690859  0.742094  0.595061  1
  Se  Se10  1  0.190859  0.095061  0.242094  1
  Se  Se11  1  0.809141  0.242094  0.904939  1
  Se  Se12  1  0.809141  0.757906  0.095061  1
  Se  Se13  1  0.190859  0.904939  0.757906  1
  Se  Se14  1  0.309141  0.595061  0.257906  1
  Se  Se15  1  0.309141  0.404939  0.742094  1
  Sn  Sn16  1  0.000000  0.000000  0.000000  1
  Sn  Sn17  1  0.500000  0.500000  0.500000  1
