# generated using pymatgen
data_HgO2
_symmetry_space_group_name_H-M   'P 1'
_cell_length_a   4.40072782
_cell_length_b   3.56803671
_cell_length_c   3.56803671
_cell_angle_alpha   82.01107545
_cell_angle_beta   112.60596977
_cell_angle_gamma   112.60596972
_symmetry_Int_Tables_number   1
_chemical_formula_structural   HgO2
_chemical_formula_sum   'Hg1 O2'
_cell_volume   47.74453216
_cell_formula_units_Z   1
loop_
 _symmetry_equiv_pos_site_id
 _symmetry_equiv_pos_as_xyz
  1  'x, y, z'
loop_
 _atom_site_type_symbol
 _atom_site_label
 _atom_site_symmetry_multiplicity
 _atom_site_fract_x
 _atom_site_fract_y
 _atom_site_fract_z
 _atom_site_occupancy
  O  O0  1  0.313005  0.460089  0.460089  1
  O  O1  1  0.686995  0.539911  0.539911  1
  Hg  Hg2  1  0.000000  0.000000  0.000000  1
