# generated using pymatgen
data_CoH20Se2(NO7)2
_symmetry_space_group_name_H-M   'P 1'
_cell_length_a   6.49363901
_cell_length_b   9.41407982
_cell_length_c   12.75889287
_cell_angle_alpha   90.00000000
_cell_angle_beta   90.00000000
_cell_angle_gamma   106.76051159
_symmetry_Int_Tables_number   1
_chemical_formula_structural   CoH20Se2(NO7)2
_chemical_formula_sum   'Co2 H40 Se4 N4 O28'
_cell_volume   746.83759156
_cell_formula_units_Z   2
loop_
 _symmetry_equiv_pos_site_id
 _symmetry_equiv_pos_as_xyz
  1  'x, y, z'
loop_
 _atom_site_type_symbol
 _atom_site_label
 _atom_site_symmetry_multiplicity
 _atom_site_fract_x
 _atom_site_fract_y
 _atom_site_fract_z
 _atom_site_occupancy
  H  H0  1  0.456840  0.573113  0.180277  1
  H  H1  1  0.053099  0.762258  0.596180  1
  H  H2  1  0.946901  0.737742  0.096180  1
  H  H3  1  0.946901  0.237742  0.403820  1
  H  H4  1  0.199947  0.069800  0.329132  1
  H  H5  1  0.800053  0.430200  0.829132  1
  H  H6  1  0.800053  0.930200  0.670867  1
  H  H7  1  0.199947  0.569800  0.170868  1
  H  H8  1  0.376874  0.168211  0.419181  1
  H  H9  1  0.623126  0.331790  0.919181  1
  H  H10  1  0.623127  0.831789  0.580820  1
  H  H11  1  0.376874  0.668210  0.080820  1
  H  H12  1  0.390391  0.230748  0.293933  1
  H  H13  1  0.609610  0.269253  0.793933  1
  H  H14  1  0.609609  0.769252  0.706066  1
  H  H15  1  0.390390  0.730747  0.206067  1
  H  H16  1  0.456839  0.073113  0.319723  1
  H  H17  1  0.543161  0.426888  0.819723  1
  H  H18  1  0.543160  0.926887  0.680277  1
  H  H19  1  0.053099  0.262258  0.903820  1
  H  H20  1  0.994181  0.638008  0.684710  1
  H  H21  1  0.005819  0.861993  0.184710  1
  H  H22  1  0.005819  0.361992  0.315290  1
  H  H23  1  0.994181  0.138007  0.815291  1
  H  H24  1  0.678977  0.287067  0.585698  1
  H  H25  1  0.321023  0.212933  0.085698  1
  H  H26  1  0.321024  0.712933  0.414301  1
  H  H27  1  0.678977  0.787067  0.914301  1
  H  H28  1  0.895546  0.250208  0.620027  1
  H  H29  1  0.104454  0.249791  0.120027  1
  H  H30  1  0.322324  0.020932  0.857402  1
  H  H31  1  0.677676  0.479069  0.357402  1
  H  H32  1  0.677676  0.979068  0.142599  1
  H  H33  1  0.322324  0.520931  0.642599  1
  H  H34  1  0.332919  0.902419  0.943857  1
  H  H35  1  0.667081  0.597580  0.443857  1
  H  H36  1  0.667081  0.097581  0.056143  1
  H  H37  1  0.332919  0.402420  0.556143  1
  H  H38  1  0.104454  0.749792  0.379973  1
  H  H39  1  0.895546  0.750209  0.879974  1
  N  N40  1  0.356028  0.136763  0.340387  1
  N  N41  1  0.356027  0.636762  0.159612  1
  N  N42  1  0.643973  0.363238  0.840387  1
  N  N43  1  0.643972  0.863237  0.659612  1
  O  O44  1  0.831297  0.331693  0.606544  1
  O  O45  1  0.708423  0.005252  0.067649  1
  O  O46  1  0.708423  0.505252  0.432351  1
  O  O47  1  0.291577  0.994748  0.932350  1
  O  O48  1  0.968275  0.385832  0.179388  1
  O  O49  1  0.031724  0.114168  0.679388  1
  O  O50  1  0.962971  0.158781  0.888932  1
  O  O51  1  0.037029  0.341220  0.388931  1
  O  O52  1  0.037029  0.841219  0.111068  1
  O  O53  1  0.962971  0.658780  0.611068  1
  O  O54  1  0.031725  0.614168  0.820612  1
  O  O55  1  0.968275  0.885832  0.320612  1
  O  O56  1  0.606976  0.270263  0.055778  1
  O  O57  1  0.393024  0.229738  0.555778  1
  O  O58  1  0.168703  0.168307  0.106543  1
  O  O59  1  0.291577  0.494748  0.567650  1
  O  O60  1  0.831297  0.831693  0.893457  1
  O  O61  1  0.393024  0.729737  0.944221  1
  O  O62  1  0.793385  0.068162  0.438343  1
  O  O63  1  0.206615  0.431837  0.938344  1
  O  O64  1  0.206616  0.931838  0.561657  1
  O  O65  1  0.793385  0.568163  0.061657  1
  O  O66  1  0.576233  0.923826  0.267597  1
  O  O67  1  0.423767  0.576174  0.767597  1
  O  O68  1  0.423767  0.076174  0.732403  1
  O  O69  1  0.576233  0.423826  0.232403  1
  O  O70  1  0.606975  0.770262  0.444222  1
  O  O71  1  0.168703  0.668307  0.393457  1
  Co  Co72  1  0.000000  0.000000  0.000000  1
  Co  Co73  1  0.000000  0.500000  0.500000  1
  Se  Se74  1  0.259191  0.586399  0.868012  1
  Se  Se75  1  0.740809  0.913602  0.368012  1
  Se  Se76  1  0.259191  0.086398  0.631988  1
  Se  Se77  1  0.740809  0.413601  0.131988  1
