# generated using pymatgen
data_ThCl4
_symmetry_space_group_name_H-M   'P 1'
_cell_length_a   7.17563325
_cell_length_b   7.17563324
_cell_length_c   7.17563324
_cell_angle_alpha   106.76886147
_cell_angle_beta   106.76886146
_cell_angle_gamma   115.02268370
_symmetry_Int_Tables_number   1
_chemical_formula_structural   ThCl4
_chemical_formula_sum   'Th2 Cl8'
_cell_volume   282.39704104
_cell_formula_units_Z   2
loop_
 _symmetry_equiv_pos_site_id
 _symmetry_equiv_pos_as_xyz
  1  'x, y, z'
loop_
 _atom_site_type_symbol
 _atom_site_label
 _atom_site_symmetry_multiplicity
 _atom_site_fract_x
 _atom_site_fract_y
 _atom_site_fract_z
 _atom_site_occupancy
  Cl  Cl0  1  0.195284  0.258281  0.562997  1
  Cl  Cl1  1  0.632287  0.195284  0.437003  1
  Cl  Cl2  1  0.367713  0.804716  0.562997  1
  Cl  Cl3  1  0.804716  0.741719  0.437003  1
  Cl  Cl4  1  0.804716  0.367713  0.062997  1
  Cl  Cl5  1  0.741719  0.804716  0.937003  1
  Cl  Cl6  1  0.195284  0.632287  0.937003  1
  Cl  Cl7  1  0.258281  0.195284  0.062997  1
  Th  Th8  1  0.875000  0.125000  0.750000  1
  Th  Th9  1  0.125000  0.875000  0.250000  1
