# generated using pymatgen
data_PuSi2
_symmetry_space_group_name_H-M   'P 1'
_cell_length_a   3.99964943
_cell_length_b   3.99964943
_cell_length_c   7.57920104
_cell_angle_alpha   105.29904234
_cell_angle_beta   105.29904233
_cell_angle_gamma   90.00000007
_symmetry_Int_Tables_number   1
_chemical_formula_structural   PuSi2
_chemical_formula_sum   'Pu2 Si4'
_cell_volume   112.48848769
_cell_formula_units_Z   2
loop_
 _symmetry_equiv_pos_site_id
 _symmetry_equiv_pos_as_xyz
  1  'x, y, z'
loop_
 _atom_site_type_symbol
 _atom_site_label
 _atom_site_symmetry_multiplicity
 _atom_site_fract_x
 _atom_site_fract_y
 _atom_site_fract_z
 _atom_site_occupancy
  Si  Si0  1  0.707779  0.957779  0.915558  1
  Si  Si1  1  0.457779  0.207779  0.415558  1
  Si  Si2  1  0.542221  0.792221  0.584442  1
  Si  Si3  1  0.292221  0.042221  0.084442  1
  Pu  Pu4  1  0.875000  0.625000  0.250000  1
  Pu  Pu5  1  0.125000  0.375000  0.750000  1
