# generated using pymatgen
data_Bi3Se4Br
_symmetry_space_group_name_H-M   'P 1'
_cell_length_a   4.12547057
_cell_length_b   10.77301391
_cell_length_c   12.20323118
_cell_angle_alpha   113.49328194
_cell_angle_beta   90.00000000
_cell_angle_gamma   101.03872670
_symmetry_Int_Tables_number   1
_chemical_formula_structural   Bi3Se4Br
_chemical_formula_sum   'Bi6 Se8 Br2'
_cell_volume   486.43840311
_cell_formula_units_Z   2
loop_
 _symmetry_equiv_pos_site_id
 _symmetry_equiv_pos_as_xyz
  1  'x, y, z'
loop_
 _atom_site_type_symbol
 _atom_site_label
 _atom_site_symmetry_multiplicity
 _atom_site_fract_x
 _atom_site_fract_y
 _atom_site_fract_z
 _atom_site_occupancy
  Se  Se0  1  0.414431  0.828862  0.508003  1
  Se  Se1  1  0.585569  0.171138  0.491997  1
  Se  Se2  1  0.686533  0.373066  0.018352  1
  Se  Se3  1  0.313467  0.626934  0.981648  1
  Se  Se4  1  0.077028  0.154057  0.727005  1
  Se  Se5  1  0.922972  0.845943  0.272995  1
  Se  Se6  1  0.253503  0.507006  0.642596  1
  Se  Se7  1  0.746497  0.492994  0.357404  1
  Br  Br8  1  0.456705  0.913410  0.834606  1
  Br  Br9  1  0.543295  0.086590  0.165394  1
  Bi  Bi10  1  0.089055  0.178110  0.962682  1
  Bi  Bi11  1  0.910945  0.821890  0.037318  1
  Bi  Bi12  1  0.672692  0.345384  0.737257  1
  Bi  Bi13  1  0.327308  0.654616  0.262743  1
  Bi  Bi14  1  0.151564  0.303129  0.414588  1
  Bi  Bi15  1  0.848436  0.696871  0.585412  1
