# generated using pymatgen
data_NaLi5Sn4
_symmetry_space_group_name_H-M   'P 1'
_cell_length_a   10.96042826
_cell_length_b   10.96042859
_cell_length_c   10.96042901
_cell_angle_alpha   26.12409524
_cell_angle_beta   26.12409151
_cell_angle_gamma   26.12409329
_symmetry_Int_Tables_number   1
_chemical_formula_structural   NaLi5Sn4
_chemical_formula_sum   'Na1 Li5 Sn4'
_cell_volume   224.90390466
_cell_formula_units_Z   1
loop_
 _symmetry_equiv_pos_site_id
 _symmetry_equiv_pos_as_xyz
  1  'x, y, z'
loop_
 _atom_site_type_symbol
 _atom_site_label
 _atom_site_symmetry_multiplicity
 _atom_site_fract_x
 _atom_site_fract_y
 _atom_site_fract_z
 _atom_site_occupancy
  Sn  Sn0  1  0.224928  0.224928  0.224928  1
  Sn  Sn1  1  0.317539  0.317539  0.317539  1
  Sn  Sn2  1  0.771789  0.771789  0.771789  1
  Sn  Sn3  1  0.682507  0.682507  0.682507  1
  Na  Na4  1  0.487045  0.487045  0.487045  1
  Li  Li5  1  0.053101  0.053101  0.053101  1
  Li  Li6  1  0.136020  0.136020  0.136020  1
  Li  Li7  1  0.585916  0.585916  0.585916  1
  Li  Li8  1  0.943782  0.943782  0.943782  1
  Li  Li9  1  0.860172  0.860172  0.860172  1
