# generated using pymatgen
data_Sr2Ru3O10
_symmetry_space_group_name_H-M   'P 1'
_cell_length_a   5.59356895
_cell_length_b   6.35184049
_cell_length_c   6.66170671
_cell_angle_alpha   101.34719601
_cell_angle_beta   90.00000000
_cell_angle_gamma   116.12371813
_symmetry_Int_Tables_number   1
_chemical_formula_structural   Sr2Ru3O10
_chemical_formula_sum   'Sr2 Ru3 O10'
_cell_volume   207.34282897
_cell_formula_units_Z   1
loop_
 _symmetry_equiv_pos_site_id
 _symmetry_equiv_pos_as_xyz
  1  'x, y, z'
loop_
 _atom_site_type_symbol
 _atom_site_label
 _atom_site_symmetry_multiplicity
 _atom_site_fract_x
 _atom_site_fract_y
 _atom_site_fract_z
 _atom_site_occupancy
  O  O0  1  0.134602  0.269205  0.553802  1
  O  O1  1  0.865398  0.730795  0.446198  1
  O  O2  1  0.610609  0.221219  0.531066  1
  O  O3  1  0.389391  0.778781  0.468934  1
  O  O4  1  0.830156  0.660312  0.939810  1
  O  O5  1  0.754815  0.999479  0.204426  1
  O  O6  1  0.755336  0.000521  0.795574  1
  O  O7  1  0.245185  0.000521  0.795574  1
  O  O8  1  0.244664  0.999479  0.204426  1
  O  O9  1  0.169844  0.339688  0.060190  1
  Sr  Sr10  1  0.322356  0.644712  0.836784  1
  Sr  Sr11  1  0.677644  0.355288  0.163216  1
  Ru  Ru12  1  0.227990  0.000000  0.500000  1
  Ru  Ru13  1  0.772010  0.000000  0.500000  1
  Ru  Ru14  1  0.000000  0.000000  0.000000  1
