# generated using pymatgen
data_H6OF4
_symmetry_space_group_name_H-M   'P 1'
_cell_length_a   5.55515114
_cell_length_b   6.62942008
_cell_length_c   7.03141747
_cell_angle_alpha   115.15291570
_cell_angle_beta   97.69521201
_cell_angle_gamma   110.09565573
_symmetry_Int_Tables_number   1
_chemical_formula_structural   H6OF4
_chemical_formula_sum   'H12 O2 F8'
_cell_volume   207.84621763
_cell_formula_units_Z   2
loop_
 _symmetry_equiv_pos_site_id
 _symmetry_equiv_pos_as_xyz
  1  'x, y, z'
loop_
 _atom_site_type_symbol
 _atom_site_label
 _atom_site_symmetry_multiplicity
 _atom_site_fract_x
 _atom_site_fract_y
 _atom_site_fract_z
 _atom_site_occupancy
  H  H0  1  0.442455  0.228075  0.995333  1
  H  H1  1  0.557545  0.771925  0.004667  1
  H  H2  1  0.362266  0.231471  0.759536  1
  H  H3  1  0.637734  0.768529  0.240464  1
  H  H4  1  0.114054  0.078892  0.833795  1
  H  H5  1  0.885946  0.921108  0.166205  1
  H  H6  1  0.142324  0.577539  0.762613  1
  H  H7  1  0.857676  0.422461  0.237387  1
  H  H8  1  0.724563  0.308040  0.614980  1
  H  H9  1  0.275437  0.691960  0.385020  1
  H  H10  1  0.702856  0.815666  0.611353  1
  H  H11  1  0.297144  0.184334  0.388647  1
  O  O12  1  0.298886  0.227004  0.888906  1
  O  O13  1  0.701114  0.772996  0.111094  1
  F  F14  1  0.307495  0.742475  0.849704  1
  F  F15  1  0.692505  0.257525  0.150296  1
  F  F16  1  0.925579  0.336487  0.639070  1
  F  F17  1  0.074421  0.663513  0.360930  1
  F  F18  1  0.471049  0.259844  0.587269  1
  F  F19  1  0.528951  0.740156  0.412731  1
  F  F20  1  0.162133  0.128015  0.242391  1
  F  F21  1  0.837867  0.871985  0.757609  1
