# generated using pymatgen
data_BaVP2(H2O5)2
_symmetry_space_group_name_H-M   'P 1'
_cell_length_a   6.52405158
_cell_length_b   11.03701434
_cell_length_c   11.54522489
_cell_angle_alpha   102.24475669
_cell_angle_beta   90.00000000
_cell_angle_gamma   90.00000000
_symmetry_Int_Tables_number   1
_chemical_formula_structural   BaVP2(H2O5)2
_chemical_formula_sum   'Ba4 V4 P8 H16 O40'
_cell_volume   812.41381428
_cell_formula_units_Z   4
loop_
 _symmetry_equiv_pos_site_id
 _symmetry_equiv_pos_as_xyz
  1  'x, y, z'
loop_
 _atom_site_type_symbol
 _atom_site_label
 _atom_site_symmetry_multiplicity
 _atom_site_fract_x
 _atom_site_fract_y
 _atom_site_fract_z
 _atom_site_occupancy
  H  H0  1  0.662194  0.617538  0.050795  1
  H  H1  1  0.162195  0.882462  0.449205  1
  H  H2  1  0.337805  0.382462  0.949206  1
  H  H3  1  0.837807  0.117537  0.550794  1
  H  H4  1  0.643613  0.553277  0.914969  1
  H  H5  1  0.143614  0.946723  0.585032  1
  H  H6  1  0.356386  0.446722  0.085031  1
  H  H7  1  0.856386  0.053278  0.414969  1
  H  H8  1  0.834717  0.883286  0.029264  1
  H  H9  1  0.334717  0.616714  0.470736  1
  H  H10  1  0.165284  0.116713  0.970736  1
  H  H11  1  0.665284  0.383286  0.529265  1
  H  H12  1  0.422765  0.348002  0.223289  1
  H  H13  1  0.922765  0.151998  0.276712  1
  H  H14  1  0.577235  0.651997  0.776711  1
  H  H15  1  0.077235  0.848002  0.723289  1
  O  O16  1  0.741479  0.568955  0.983135  1
  O  O17  1  0.241479  0.931045  0.516865  1
  O  O18  1  0.258521  0.431044  0.016864  1
  O  O19  1  0.758521  0.068955  0.483135  1
  O  O20  1  0.020151  0.033174  0.301375  1
  O  O21  1  0.520151  0.466826  0.198624  1
  O  O22  1  0.979848  0.966826  0.698624  1
  O  O23  1  0.479849  0.533174  0.801375  1
  O  O24  1  0.840297  0.867987  0.937918  1
  O  O25  1  0.340298  0.632013  0.562082  1
  O  O26  1  0.159704  0.132013  0.062082  1
  O  O27  1  0.659704  0.367986  0.437918  1
  O  O28  1  0.365810  0.261709  0.227567  1
  O  O29  1  0.865809  0.238292  0.272433  1
  O  O30  1  0.634190  0.738292  0.772433  1
  O  O31  1  0.134190  0.761708  0.727567  1
  O  O32  1  0.479146  0.808183  0.982049  1
  O  O33  1  0.979146  0.691817  0.517951  1
  O  O34  1  0.520854  0.191817  0.017951  1
  O  O35  1  0.020854  0.308182  0.482050  1
  O  O36  1  0.174705  0.851300  0.150233  1
  O  O37  1  0.674705  0.648700  0.349767  1
  O  O38  1  0.825294  0.148700  0.849767  1
  O  O39  1  0.325295  0.351300  0.650233  1
  O  O40  1  0.485711  0.680886  0.163924  1
  O  O41  1  0.985710  0.819115  0.336076  1
  O  O42  1  0.514291  0.319115  0.836076  1
  O  O43  1  0.014289  0.180886  0.663924  1
  O  O44  1  0.465747  0.044006  0.158958  1
  O  O45  1  0.965749  0.455993  0.341042  1
  O  O46  1  0.534252  0.955993  0.841041  1
  O  O47  1  0.034252  0.544007  0.658959  1
  O  O48  1  0.797926  0.875229  0.158071  1
  O  O49  1  0.297926  0.624771  0.341929  1
  O  O50  1  0.202074  0.124770  0.841929  1
  O  O51  1  0.702074  0.375229  0.658072  1
  O  O52  1  0.488212  0.904202  0.327021  1
  O  O53  1  0.988211  0.595798  0.172979  1
  O  O54  1  0.511788  0.095798  0.672979  1
  O  O55  1  0.011788  0.404203  0.827021  1
  P  P56  1  0.994682  0.895915  0.236835  1
  P  P57  1  0.494680  0.604085  0.263165  1
  P  P58  1  0.005320  0.104085  0.763165  1
  P  P59  1  0.505319  0.395915  0.736835  1
  P  P60  1  0.386310  0.154007  0.112817  1
  P  P61  1  0.886310  0.345993  0.387182  1
  P  P62  1  0.613691  0.845993  0.887182  1
  P  P63  1  0.113691  0.654007  0.612818  1
  V  V64  1  0.480626  0.868636  0.180267  1
  V  V65  1  0.980626  0.631365  0.319733  1
  V  V66  1  0.519373  0.131365  0.819734  1
  V  V67  1  0.019374  0.368636  0.680266  1
  Ba  Ba68  1  0.636294  0.847623  0.552125  1
  Ba  Ba69  1  0.136295  0.652378  0.947875  1
  Ba  Ba70  1  0.363705  0.152378  0.447875  1
  Ba  Ba71  1  0.863705  0.347622  0.052125  1
