# generated using pymatgen
data_InH36C12S6(IO2)3
_symmetry_space_group_name_H-M   'P 1'
_cell_length_a   10.00923771
_cell_length_b   10.00923770
_cell_length_c   10.00923770
_cell_angle_alpha   69.95421159
_cell_angle_beta   69.95421158
_cell_angle_gamma   69.95421159
_symmetry_Int_Tables_number   1
_chemical_formula_structural   InH36C12S6(IO2)3
_chemical_formula_sum   'In1 H36 C12 S6 I3 O6'
_cell_volume   855.63692510
_cell_formula_units_Z   1
loop_
 _symmetry_equiv_pos_site_id
 _symmetry_equiv_pos_as_xyz
  1  'x, y, z'
loop_
 _atom_site_type_symbol
 _atom_site_label
 _atom_site_symmetry_multiplicity
 _atom_site_fract_x
 _atom_site_fract_y
 _atom_site_fract_z
 _atom_site_occupancy
  H  H0  1  0.527123  0.236077  0.754513  1
  H  H1  1  0.236077  0.754513  0.527123  1
  H  H2  1  0.754513  0.527123  0.236077  1
  H  H3  1  0.472877  0.763923  0.245487  1
  H  H4  1  0.763923  0.245487  0.472877  1
  H  H5  1  0.245487  0.472877  0.763923  1
  H  H6  1  0.483693  0.153580  0.951597  1
  H  H7  1  0.153580  0.951597  0.483693  1
  H  H8  1  0.951597  0.483693  0.153580  1
  H  H9  1  0.516307  0.846420  0.048403  1
  H  H10  1  0.846420  0.048403  0.516307  1
  H  H11  1  0.048403  0.516307  0.846420  1
  H  H12  1  0.606136  0.042201  0.823605  1
  H  H13  1  0.042201  0.823605  0.606136  1
  H  H14  1  0.823605  0.606136  0.042201  1
  H  H15  1  0.656903  0.992358  0.455136  1
  H  H16  1  0.393864  0.957799  0.176395  1
  H  H17  1  0.176395  0.393864  0.957799  1
  H  H18  1  0.544864  0.343097  0.007642  1
  H  H19  1  0.343097  0.007642  0.544864  1
  H  H20  1  0.007642  0.544864  0.343097  1
  H  H21  1  0.455136  0.656903  0.992358  1
  H  H22  1  0.077162  0.283447  0.600244  1
  H  H23  1  0.600244  0.077162  0.283447  1
  H  H24  1  0.283447  0.600244  0.077162  1
  H  H25  1  0.922838  0.716553  0.399756  1
  H  H26  1  0.399756  0.922838  0.716553  1
  H  H27  1  0.716553  0.399756  0.922838  1
  H  H28  1  0.184878  0.410757  0.556466  1
  H  H29  1  0.556466  0.184878  0.410757  1
  H  H30  1  0.410757  0.556466  0.184878  1
  H  H31  1  0.815122  0.589243  0.443534  1
  H  H32  1  0.443534  0.815122  0.589243  1
  H  H33  1  0.589243  0.443534  0.815122  1
  H  H34  1  0.992358  0.455136  0.656903  1
  H  H35  1  0.957799  0.176395  0.393864  1
  C  C36  1  0.633116  0.362958  0.906806  1
  C  C37  1  0.362958  0.906806  0.633116  1
  C  C38  1  0.906806  0.633116  0.362958  1
  C  C39  1  0.366884  0.637042  0.093194  1
  C  C40  1  0.153458  0.432494  0.848874  1
  C  C41  1  0.848874  0.153458  0.432494  1
  C  C42  1  0.432494  0.848874  0.153458  1
  C  C43  1  0.846542  0.567506  0.151126  1
  C  C44  1  0.093194  0.366884  0.637042  1
  C  C45  1  0.567506  0.151126  0.846542  1
  C  C46  1  0.637042  0.093194  0.366884  1
  C  C47  1  0.151126  0.846542  0.567506  1
  O  O48  1  0.769547  0.081161  0.990501  1
  O  O49  1  0.081161  0.990501  0.769547  1
  O  O50  1  0.009499  0.230453  0.918839  1
  O  O51  1  0.230453  0.918839  0.009499  1
  O  O52  1  0.918839  0.009499  0.230453  1
  O  O53  1  0.990501  0.769547  0.081161  1
  S  S54  1  0.723919  0.195087  0.851532  1
  S  S55  1  0.195087  0.851532  0.723919  1
  S  S56  1  0.851532  0.723919  0.195087  1
  S  S57  1  0.276081  0.804913  0.148468  1
  S  S58  1  0.804913  0.148468  0.276081  1
  S  S59  1  0.148468  0.276081  0.804913  1
  In  In60  1  0.000000  0.000000  0.000000  1
  I  I61  1  0.500000  0.500000  0.500000  1
  I  I62  1  0.246858  0.246858  0.246858  1
  I  I63  1  0.753142  0.753142  0.753142  1
