# generated using pymatgen
data_Ba3InRu2O9
_symmetry_space_group_name_H-M   'P 1'
_cell_length_a   5.91301460
_cell_length_b   5.91301460
_cell_length_c   14.45055230
_cell_angle_alpha   90.00000000
_cell_angle_beta   90.00000000
_cell_angle_gamma   119.99999998
_symmetry_Int_Tables_number   1
_chemical_formula_structural   Ba3InRu2O9
_chemical_formula_sum   'Ba6 In2 Ru4 O18'
_cell_volume   437.55533232
_cell_formula_units_Z   2
loop_
 _symmetry_equiv_pos_site_id
 _symmetry_equiv_pos_as_xyz
  1  'x, y, z'
loop_
 _atom_site_type_symbol
 _atom_site_label
 _atom_site_symmetry_multiplicity
 _atom_site_fract_x
 _atom_site_fract_y
 _atom_site_fract_z
 _atom_site_occupancy
  O  O0  1  0.173267  0.826733  0.085903  1
  O  O1  1  0.173267  0.346534  0.085903  1
  O  O2  1  0.653466  0.826733  0.085903  1
  O  O3  1  0.346534  0.173267  0.585903  1
  O  O4  1  0.826733  0.653466  0.914097  1
  O  O5  1  0.826733  0.173267  0.585903  1
  O  O6  1  0.826733  0.653466  0.585903  1
  O  O7  1  0.173267  0.826733  0.414097  1
  O  O8  1  0.653466  0.826733  0.414097  1
  O  O9  1  0.346534  0.173267  0.914097  1
  O  O10  1  0.826733  0.173267  0.914097  1
  O  O11  1  0.173267  0.346534  0.414097  1
  O  O12  1  0.489307  0.978614  0.250000  1
  O  O13  1  0.510693  0.489307  0.750000  1
  O  O14  1  0.978614  0.489307  0.750000  1
  O  O15  1  0.021386  0.510693  0.250000  1
  O  O16  1  0.489307  0.510693  0.250000  1
  O  O17  1  0.510693  0.021386  0.750000  1
  Ru  Ru18  1  0.333333  0.666667  0.336532  1
  Ru  Ru19  1  0.666667  0.333333  0.836532  1
  Ru  Ru20  1  0.666667  0.333333  0.663468  1
  Ru  Ru21  1  0.333333  0.666667  0.163468  1
  In  In22  1  0.000000  0.000000  0.500000  1
  In  In23  1  0.000000  0.000000  0.000000  1
  Ba  Ba24  1  0.333333  0.666667  0.589016  1
  Ba  Ba25  1  0.666667  0.333333  0.089016  1
  Ba  Ba26  1  0.666667  0.333333  0.410984  1
  Ba  Ba27  1  0.333333  0.666667  0.910984  1
  Ba  Ba28  1  0.000000  0.000000  0.750000  1
  Ba  Ba29  1  0.000000  0.000000  0.250000  1
