# generated using pymatgen
data_USeO5
_symmetry_space_group_name_H-M   'P 1'
_cell_length_a   4.26737046
_cell_length_b   5.67156623
_cell_length_c   9.55338266
_cell_angle_alpha   90.00000000
_cell_angle_beta   90.00000000
_cell_angle_gamma   98.83606539
_symmetry_Int_Tables_number   1
_chemical_formula_structural   USeO5
_chemical_formula_sum   'U2 Se2 O10'
_cell_volume   228.47329362
_cell_formula_units_Z   2
loop_
 _symmetry_equiv_pos_site_id
 _symmetry_equiv_pos_as_xyz
  1  'x, y, z'
loop_
 _atom_site_type_symbol
 _atom_site_label
 _atom_site_symmetry_multiplicity
 _atom_site_fract_x
 _atom_site_fract_y
 _atom_site_fract_z
 _atom_site_occupancy
  O  O0  1  0.054600  0.283581  0.411217  1
  O  O1  1  0.945400  0.716419  0.911217  1
  O  O2  1  0.945400  0.716419  0.588783  1
  O  O3  1  0.054600  0.283581  0.088783  1
  O  O4  1  -0.006727  0.792020  0.250000  1
  O  O5  1  1.006727  0.207980  0.750000  1
  O  O6  1  0.487579  0.879255  0.105969  1
  O  O7  1  0.512421  0.120745  0.605969  1
  O  O8  1  0.512421  0.120745  0.894031  1
  O  O9  1  0.487579  0.879255  0.394031  1
  Se  Se10  1  0.636132  0.301033  0.750000  1
  Se  Se11  1  0.363868  0.698967  0.250000  1
  U  U12  1  0.000000  0.000000  0.500000  1
  U  U13  1  0.000000  0.000000  0.000000  1
