# generated using pymatgen
data_NbNiTe2
_symmetry_space_group_name_H-M   'P 1'
_cell_length_a   6.30633581
_cell_length_b   7.48112864
_cell_length_c   8.02431690
_cell_angle_alpha   90.00000000
_cell_angle_beta   90.00000000
_cell_angle_gamma   90.00000000
_symmetry_Int_Tables_number   1
_chemical_formula_structural   NbNiTe2
_chemical_formula_sum   'Nb4 Ni4 Te8'
_cell_volume   378.57531063
_cell_formula_units_Z   4
loop_
 _symmetry_equiv_pos_site_id
 _symmetry_equiv_pos_as_xyz
  1  'x, y, z'
loop_
 _atom_site_type_symbol
 _atom_site_label
 _atom_site_symmetry_multiplicity
 _atom_site_fract_x
 _atom_site_fract_y
 _atom_site_fract_z
 _atom_site_occupancy
  Ni  Ni0  1  0.106112  0.345078  0.750000  1
  Ni  Ni1  1  0.893888  0.345078  0.250000  1
  Ni  Ni2  1  0.394380  0.579938  0.750000  1
  Ni  Ni3  1  0.605620  0.579938  0.250000  1
  Nb  Nb4  1  0.750165  0.462719  0.956231  1
  Nb  Nb5  1  0.249835  0.462719  0.043769  1
  Nb  Nb6  1  0.249835  0.462719  0.456231  1
  Nb  Nb7  1  0.750165  0.462719  0.543769  1
  Te  Te8  1  -0.000816  0.681167  0.750000  1
  Te  Te9  1  1.000816  0.681167  0.250000  1
  Te  Te10  1  0.000000  0.149409  0.000000  1
  Te  Te11  1  0.000000  0.149409  0.500000  1
  Te  Te12  1  0.501510  0.244040  0.750000  1
  Te  Te13  1  0.498490  0.244040  0.250000  1
  Te  Te14  1  0.500000  0.775829  0.000000  1
  Te  Te15  1  0.500000  0.775829  0.500000  1
