# generated using pymatgen
data_Lu3Ge13Rh4
_symmetry_space_group_name_H-M   'P 1'
_cell_length_a   8.98659167
_cell_length_b   8.98659167
_cell_length_c   8.98659167
_cell_angle_alpha   90.00000000
_cell_angle_beta   90.00000000
_cell_angle_gamma   90.00000000
_symmetry_Int_Tables_number   1
_chemical_formula_structural   Lu3Ge13Rh4
_chemical_formula_sum   'Lu6 Ge26 Rh8'
_cell_volume   725.74662755
_cell_formula_units_Z   2
loop_
 _symmetry_equiv_pos_site_id
 _symmetry_equiv_pos_as_xyz
  1  'x, y, z'
loop_
 _atom_site_type_symbol
 _atom_site_label
 _atom_site_symmetry_multiplicity
 _atom_site_fract_x
 _atom_site_fract_y
 _atom_site_fract_z
 _atom_site_occupancy
  Ge  Ge0  1  0.500000  0.354681  0.190117  1
  Ge  Ge1  1  0.500000  0.645319  0.809883  1
  Ge  Ge2  1  0.354681  0.190117  0.500000  1
  Ge  Ge3  1  0.645319  0.190117  0.500000  1
  Ge  Ge4  1  0.190117  0.500000  0.354681  1
  Ge  Ge5  1  0.809883  0.500000  0.354681  1
  Ge  Ge6  1  0.000000  0.690117  0.145319  1
  Ge  Ge7  1  0.000000  0.309883  0.854681  1
  Ge  Ge8  1  0.000000  0.690117  0.854681  1
  Ge  Ge9  1  0.309883  0.854681  0.000000  1
  Ge  Ge10  1  0.854681  0.000000  0.690117  1
  Ge  Ge11  1  0.854681  0.000000  0.309883  1
  Ge  Ge12  1  0.690117  0.145319  0.000000  1
  Ge  Ge13  1  0.145319  0.000000  0.690117  1
  Ge  Ge14  1  0.000000  0.000000  0.000000  1
  Ge  Ge15  1  0.500000  0.500000  0.500000  1
  Ge  Ge16  1  0.000000  0.309883  0.145319  1
  Ge  Ge17  1  0.500000  0.354681  0.809883  1
  Ge  Ge18  1  0.500000  0.645319  0.190117  1
  Ge  Ge19  1  0.645319  0.809883  0.500000  1
  Ge  Ge20  1  0.354681  0.809883  0.500000  1
  Ge  Ge21  1  0.190117  0.500000  0.645319  1
  Ge  Ge22  1  0.809883  0.500000  0.645319  1
  Ge  Ge23  1  0.145319  0.000000  0.309883  1
  Ge  Ge24  1  0.309883  0.145319  0.000000  1
  Ge  Ge25  1  0.690117  0.854681  0.000000  1
  Rh  Rh26  1  0.750000  0.250000  0.250000  1
  Rh  Rh27  1  0.250000  0.250000  0.750000  1
  Rh  Rh28  1  0.250000  0.750000  0.250000  1
  Rh  Rh29  1  0.750000  0.750000  0.750000  1
  Rh  Rh30  1  0.250000  0.750000  0.750000  1
  Rh  Rh31  1  0.750000  0.750000  0.250000  1
  Rh  Rh32  1  0.750000  0.250000  0.750000  1
  Rh  Rh33  1  0.250000  0.250000  0.250000  1
  Lu  Lu34  1  0.000000  0.250000  0.500000  1
  Lu  Lu35  1  0.000000  0.750000  0.500000  1
  Lu  Lu36  1  0.500000  0.000000  0.750000  1
  Lu  Lu37  1  0.500000  0.000000  0.250000  1
  Lu  Lu38  1  0.750000  0.500000  0.000000  1
  Lu  Lu39  1  0.250000  0.500000  0.000000  1
