# generated using pymatgen
data_CuTeO4
_symmetry_space_group_name_H-M   'P 1'
_cell_length_a   4.78265589
_cell_length_b   5.60112205
_cell_length_c   10.46538835
_cell_angle_alpha   90.00000000
_cell_angle_beta   90.00000000
_cell_angle_gamma   90.77680486
_symmetry_Int_Tables_number   1
_chemical_formula_structural   CuTeO4
_chemical_formula_sum   'Cu4 Te4 O16'
_cell_volume   280.32356250
_cell_formula_units_Z   4
loop_
 _symmetry_equiv_pos_site_id
 _symmetry_equiv_pos_as_xyz
  1  'x, y, z'
loop_
 _atom_site_type_symbol
 _atom_site_label
 _atom_site_symmetry_multiplicity
 _atom_site_fract_x
 _atom_site_fract_y
 _atom_site_fract_z
 _atom_site_occupancy
  Cu  Cu0  1  0.000000  0.000000  0.500000  1
  Cu  Cu1  1  0.500000  0.500000  0.500000  1
  Cu  Cu2  1  0.500000  0.500000  0.000000  1
  Cu  Cu3  1  0.000000  0.000000  0.000000  1
  Te  Te4  1  0.467929  0.206158  0.751210  1
  Te  Te5  1  0.032071  0.293842  0.251210  1
  Te  Te6  1  0.967929  0.706158  0.748790  1
  Te  Te7  1  0.532071  0.793842  0.248790  1
  O  O8  1  0.295222  0.229166  0.918146  1
  O  O9  1  0.704778  0.770834  0.081854  1
  O  O10  1  0.660325  0.241107  0.592855  1
  O  O11  1  0.795222  0.729166  0.581854  1
  O  O12  1  0.789376  0.032218  0.330886  1
  O  O13  1  0.774620  0.532627  0.319708  1
  O  O14  1  0.289376  0.532218  0.169114  1
  O  O15  1  0.725380  0.967373  0.819708  1
  O  O16  1  0.710624  0.467782  0.830886  1
  O  O17  1  0.160325  0.741107  0.907145  1
  O  O18  1  0.210624  0.967782  0.669114  1
  O  O19  1  0.339675  0.758893  0.407145  1
  O  O20  1  0.225380  0.467373  0.680292  1
  O  O21  1  0.204778  0.270834  0.418146  1
  O  O22  1  0.839675  0.258893  0.092855  1
  O  O23  1  0.274620  0.032627  0.180292  1
