# generated using pymatgen
data_LiSb(PO3)5
_symmetry_space_group_name_H-M   'P 1'
_cell_length_a   10.83134169
_cell_length_b   14.06538119
_cell_length_c   9.67226069
_cell_angle_alpha   90.00000000
_cell_angle_beta   67.18446577
_cell_angle_gamma   90.00000000
_symmetry_Int_Tables_number   1
_chemical_formula_structural   LiSb(PO3)5
_chemical_formula_sum   'Li4 Sb4 P20 O60'
_cell_volume   1358.24681982
_cell_formula_units_Z   4
loop_
 _symmetry_equiv_pos_site_id
 _symmetry_equiv_pos_as_xyz
  1  'x, y, z'
loop_
 _atom_site_type_symbol
 _atom_site_label
 _atom_site_symmetry_multiplicity
 _atom_site_fract_x
 _atom_site_fract_y
 _atom_site_fract_z
 _atom_site_occupancy
  Li  Li0  1  -0.000243  0.644327  0.927629  1
  Li  Li1  1  0.500243  0.355673  0.072371  1
  Li  Li2  1  0.499757  0.855673  0.927629  1
  Li  Li3  1  1.000243  0.144327  0.072371  1
  O  O4  1  0.125873  0.244342  0.066992  1
  O  O5  1  0.156460  0.829682  0.119730  1
  O  O6  1  0.180700  0.655114  0.122810  1
  O  O7  1  0.124782  0.510916  0.280908  1
  O  O8  1  0.127742  0.981727  0.265017  1
  O  O9  1  0.109451  0.371988  0.502204  1
  O  O10  1  0.113985  0.127532  0.516801  1
  O  O11  1  0.138090  0.917626  0.560875  1
  O  O12  1  0.143173  0.577344  0.572497  1
  O  O13  1  0.270040  0.846667  0.301265  1
  O  O14  1  0.285288  0.637149  0.307282  1
  O  O15  1  0.353361  0.273038  0.095235  1
  O  O16  1  0.208296  0.747170  0.529351  1
  O  O17  1  0.359681  0.943413  0.061122  1
  O  O18  1  0.362707  0.523096  0.081879  1
  O  O19  1  0.137293  0.476904  0.918121  1
  O  O20  1  0.140319  0.056587  0.938878  1
  O  O21  1  0.291704  0.252830  0.470649  1
  O  O22  1  0.146639  0.726962  0.904765  1
  O  O23  1  0.214712  0.362851  0.692718  1
  O  O24  1  0.229960  0.153333  0.698735  1
  O  O25  1  0.356827  0.422656  0.427503  1
  O  O26  1  0.361910  0.082374  0.439125  1
  O  O27  1  0.386015  0.872468  0.483199  1
  O  O28  1  0.390549  0.628012  0.497796  1
  O  O29  1  0.372258  0.018273  0.734983  1
  O  O30  1  0.375218  0.489084  0.719092  1
  O  O31  1  0.319300  0.344886  0.877190  1
  O  O32  1  0.343540  0.170318  0.880270  1
  O  O33  1  0.625873  0.255658  0.066992  1
  O  O34  1  0.374127  0.755658  0.933008  1
  O  O35  1  0.656460  0.670318  0.119730  1
  O  O36  1  0.680700  0.844886  0.122810  1
  O  O37  1  0.624782  0.989084  0.280908  1
  O  O38  1  0.627742  0.518273  0.265017  1
  O  O39  1  0.609451  0.128012  0.502204  1
  O  O40  1  0.613985  0.372468  0.516801  1
  O  O41  1  0.638090  0.582374  0.560875  1
  O  O42  1  0.643173  0.922656  0.572497  1
  O  O43  1  0.770040  0.653333  0.301265  1
  O  O44  1  0.785288  0.862851  0.307282  1
  O  O45  1  0.853361  0.226962  0.095235  1
  O  O46  1  0.708296  0.752830  0.529351  1
  O  O47  1  0.859681  0.556587  0.061122  1
  O  O48  1  0.862707  0.976904  0.081879  1
  O  O49  1  0.637293  0.023096  0.918121  1
  O  O50  1  0.640319  0.443413  0.938878  1
  O  O51  1  0.791704  0.247170  0.470649  1
  O  O52  1  0.646639  0.773038  0.904765  1
  O  O53  1  0.714712  0.137149  0.692718  1
  O  O54  1  0.729960  0.346667  0.698735  1
  O  O55  1  0.856827  0.077344  0.427503  1
  O  O56  1  0.861910  0.417626  0.439125  1
  O  O57  1  0.886015  0.627532  0.483199  1
  O  O58  1  0.890549  0.871988  0.497796  1
  O  O59  1  0.872258  0.481727  0.734983  1
  O  O60  1  0.875218  0.010916  0.719092  1
  O  O61  1  0.819300  0.155114  0.877190  1
  O  O62  1  0.843540  0.329682  0.880270  1
  O  O63  1  0.874127  0.744342  0.933008  1
  P  P64  1  0.272949  0.258348  0.003449  1
  P  P65  1  0.233177  0.907391  0.174641  1
  P  P66  1  0.245114  0.574332  0.185058  1
  P  P67  1  0.253755  0.852534  0.469440  1
  P  P68  1  0.258806  0.641300  0.478068  1
  P  P69  1  0.241194  0.358700  0.521932  1
  P  P70  1  0.246245  0.147466  0.530560  1
  P  P71  1  0.254886  0.425668  0.814942  1
  P  P72  1  0.266823  0.092609  0.825359  1
  P  P73  1  0.227051  0.741652  0.996551  1
  P  P74  1  0.772949  0.241652  0.003449  1
  P  P75  1  0.733177  0.592609  0.174641  1
  P  P76  1  0.745114  0.925668  0.185058  1
  P  P77  1  0.753755  0.647466  0.469440  1
  P  P78  1  0.758806  0.858700  0.478068  1
  P  P79  1  0.741194  0.141300  0.521932  1
  P  P80  1  0.746245  0.352534  0.530560  1
  P  P81  1  0.754886  0.074332  0.814942  1
  P  P82  1  0.766823  0.407391  0.825359  1
  P  P83  1  0.727051  0.758348  0.996551  1
  Sb  Sb84  1  0.002377  0.999328  0.496690  1
  Sb  Sb85  1  0.497623  0.000672  0.503310  1
  Sb  Sb86  1  0.502377  0.500672  0.496690  1
  Sb  Sb87  1  0.997623  0.499328  0.503310  1
