# generated using pymatgen
data_Zr9S2
_symmetry_space_group_name_H-M   'P 1'
_cell_length_a   9.79216422
_cell_length_b   9.79216422
_cell_length_c   11.91430105
_cell_angle_alpha   114.26399929
_cell_angle_beta   114.26399928
_cell_angle_gamma   89.99999997
_symmetry_Int_Tables_number   1
_chemical_formula_structural   Zr9S2
_chemical_formula_sum   'Zr36 S8'
_cell_volume   929.69015979
_cell_formula_units_Z   4
loop_
 _symmetry_equiv_pos_site_id
 _symmetry_equiv_pos_as_xyz
  1  'x, y, z'
loop_
 _atom_site_type_symbol
 _atom_site_label
 _atom_site_symmetry_multiplicity
 _atom_site_fract_x
 _atom_site_fract_y
 _atom_site_fract_z
 _atom_site_occupancy
  S  S0  1  0.397117  0.147117  0.250000  1
  S  S1  1  0.602883  0.397117  0.750000  1
  S  S2  1  0.147117  0.852883  0.750000  1
  S  S3  1  0.852883  0.602883  0.250000  1
  S  S4  1  0.602883  0.852883  0.750000  1
  S  S5  1  0.397117  0.602883  0.250000  1
  S  S6  1  0.852883  0.147117  0.250000  1
  S  S7  1  0.147117  0.397117  0.750000  1
  Zr  Zr8  1  0.301272  0.699672  0.602545  1
  Zr  Zr9  1  0.402873  0.301272  0.102545  1
  Zr  Zr10  1  0.699672  0.301272  0.102545  1
  Zr  Zr11  1  0.698728  0.300328  0.397455  1
  Zr  Zr12  1  0.698728  0.597127  0.397455  1
  Zr  Zr13  1  0.597127  0.698728  0.897455  1
  Zr  Zr14  1  0.300328  0.698728  0.897455  1
  Zr  Zr15  1  0.301272  0.402873  0.602545  1
  Zr  Zr16  1  0.568566  0.646448  0.137133  1
  Zr  Zr17  1  0.990685  0.568566  0.637133  1
  Zr  Zr18  1  0.646448  0.568566  0.637133  1
  Zr  Zr19  1  0.431434  0.353552  0.862867  1
  Zr  Zr20  1  0.431434  0.009315  0.862867  1
  Zr  Zr21  1  0.009315  0.431434  0.362867  1
  Zr  Zr22  1  0.353552  0.431434  0.362867  1
  Zr  Zr23  1  0.568566  0.990685  0.137133  1
  Zr  Zr24  1  0.142650  0.112928  0.285300  1
  Zr  Zr25  1  0.672372  0.142650  0.785300  1
  Zr  Zr26  1  0.112928  0.142650  0.785300  1
  Zr  Zr27  1  0.857350  0.887072  0.714700  1
  Zr  Zr28  1  0.857350  0.327628  0.714700  1
  Zr  Zr29  1  0.327628  0.857350  0.214700  1
  Zr  Zr30  1  0.887072  0.857350  0.214700  1
  Zr  Zr31  1  0.142650  0.672372  0.285300  1
  Zr  Zr32  1  0.009994  0.259994  0.019989  1
  Zr  Zr33  1  0.259994  0.009994  0.519989  1
  Zr  Zr34  1  0.990006  0.740006  0.980011  1
  Zr  Zr35  1  0.740006  0.990006  0.480011  1
  Zr  Zr36  1  0.179128  0.500000  0.000000  1
  Zr  Zr37  1  0.000000  0.179128  0.500000  1
  Zr  Zr38  1  0.500000  0.820872  0.500000  1
  Zr  Zr39  1  0.820872  0.000000  0.000000  1
  Zr  Zr40  1  0.820872  0.500000  0.000000  1
  Zr  Zr41  1  0.000000  0.820872  0.500000  1
  Zr  Zr42  1  0.500000  0.179128  0.500000  1
  Zr  Zr43  1  0.179128  0.000000  0.000000  1
