# generated using pymatgen
data_V2O3
_symmetry_space_group_name_H-M   'P 1'
_cell_length_a   8.27348783
_cell_length_b   8.28795333
_cell_length_c   8.29252928
_cell_angle_alpha   70.42847652
_cell_angle_beta   109.19302780
_cell_angle_gamma   70.54963525
_symmetry_Int_Tables_number   1
_chemical_formula_structural   V2O3
_chemical_formula_sum   'V16 O24'
_cell_volume   438.79131546
_cell_formula_units_Z   8
loop_
 _symmetry_equiv_pos_site_id
 _symmetry_equiv_pos_as_xyz
  1  'x, y, z'
loop_
 _atom_site_type_symbol
 _atom_site_label
 _atom_site_symmetry_multiplicity
 _atom_site_fract_x
 _atom_site_fract_y
 _atom_site_fract_z
 _atom_site_occupancy
  V  V0  1  0.249916  0.782798  0.467625  1
  V  V1  1  0.216590  0.035350  0.750267  1
  V  V2  1  0.466905  0.747529  0.218370  1
  V  V3  1  0.967974  0.748855  0.718907  1
  V  V4  1  0.283620  0.465693  0.251532  1
  V  V5  1  0.750704  0.716789  0.032386  1
  V  V6  1  0.716438  0.532849  0.748211  1
  V  V7  1  0.534484  0.248848  0.782441  1
  V  V8  1  0.749400  0.216853  0.531651  1
  V  V9  1  0.783682  0.965676  0.249903  1
  V  V10  1  0.032575  0.251393  0.281263  1
  V  V11  1  0.252285  0.282590  0.968628  1
  V  V12  1  0.500530  0.500146  0.999120  1
  V  V13  1  0.001256  0.000875  0.000525  1
  V  V14  1  0.499405  0.999556  0.499728  1
  V  V15  1  0.997898  0.501096  0.499972  1
  O  O16  1  0.727114  0.009134  0.455588  1
  O  O17  1  0.990162  0.043369  0.228306  1
  O  O18  1  0.765376  0.965414  0.987126  1
  O  O19  1  0.737824  0.771460  0.772272  1
  O  O20  1  0.260581  0.228175  0.227845  1
  O  O21  1  0.272204  0.990510  0.545431  1
  O  O22  1  0.463981  0.773790  0.955301  1
  O  O23  1  0.545877  0.465565  0.272975  1
  O  O24  1  0.770363  0.453450  0.033697  1
  O  O25  1  0.726962  0.738965  0.271689  1
  O  O26  1  0.953702  0.277085  0.487907  1
  O  O27  1  0.771351  0.273735  0.757413  1
  O  O28  1  0.968728  0.486334  0.742879  1
  O  O29  1  0.031206  0.513626  0.258771  1
  O  O30  1  0.009832  0.956370  0.773067  1
  O  O31  1  0.230427  0.546897  0.965495  1
  O  O32  1  0.453604  0.534288  0.725409  1
  O  O33  1  0.236704  0.034824  0.013967  1
  O  O34  1  0.486946  0.236402  0.533483  1
  O  O35  1  0.511442  0.763389  0.465346  1
  O  O36  1  0.045323  0.724027  0.512429  1
  O  O37  1  0.271108  0.263806  0.727374  1
  O  O38  1  0.229002  0.725547  0.241414  1
  O  O39  1  0.536519  0.226941  0.044289  1
