# generated using pymatgen
data_H2O2
_symmetry_space_group_name_H-M   'P 1'
_cell_length_a   4.14483891
_cell_length_b   4.14483891
_cell_length_c   7.70503810
_cell_angle_alpha   90.00000000
_cell_angle_beta   90.00000000
_cell_angle_gamma   90.00000000
_symmetry_Int_Tables_number   1
_chemical_formula_structural   H2O2
_chemical_formula_sum   'H8 O8'
_cell_volume   132.37016284
_cell_formula_units_Z   4
loop_
 _symmetry_equiv_pos_site_id
 _symmetry_equiv_pos_as_xyz
  1  'x, y, z'
loop_
 _atom_site_type_symbol
 _atom_site_label
 _atom_site_symmetry_multiplicity
 _atom_site_fract_x
 _atom_site_fract_y
 _atom_site_fract_z
 _atom_site_occupancy
  H  H0  1  0.696493  0.073800  0.374853  1
  H  H1  1  0.303507  0.926200  0.874853  1
  H  H2  1  0.073800  0.696493  0.625147  1
  H  H3  1  0.573800  0.803507  0.124853  1
  H  H4  1  0.426200  0.196493  0.624853  1
  H  H5  1  0.803507  0.573800  0.875147  1
  H  H6  1  0.196493  0.426200  0.375147  1
  H  H7  1  0.926200  0.303507  0.125147  1
  O  O8  1  0.814279  0.949601  0.281325  1
  O  O9  1  0.185721  0.050399  0.781325  1
  O  O10  1  0.949601  0.814279  0.718675  1
  O  O11  1  0.449601  0.685721  0.031325  1
  O  O12  1  0.550399  0.314279  0.531325  1
  O  O13  1  0.685721  0.449601  0.968675  1
  O  O14  1  0.314279  0.550399  0.468675  1
  O  O15  1  0.050399  0.185721  0.218675  1
