# generated using pymatgen
data_Rb2PuCl6
_symmetry_space_group_name_H-M   'P 1'
_cell_length_a   7.48918785
_cell_length_b   7.48918785
_cell_length_c   12.21029035
_cell_angle_alpha   90.00000000
_cell_angle_beta   90.00000000
_cell_angle_gamma   119.99999997
_symmetry_Int_Tables_number   1
_chemical_formula_structural   Rb2PuCl6
_chemical_formula_sum   'Rb4 Pu2 Cl12'
_cell_volume   593.09746924
_cell_formula_units_Z   2
loop_
 _symmetry_equiv_pos_site_id
 _symmetry_equiv_pos_as_xyz
  1  'x, y, z'
loop_
 _atom_site_type_symbol
 _atom_site_label
 _atom_site_symmetry_multiplicity
 _atom_site_fract_x
 _atom_site_fract_y
 _atom_site_fract_z
 _atom_site_occupancy
  Cl  Cl0  1  0.504905  0.495095  0.614064  1
  Cl  Cl1  1  0.009809  0.504905  0.114064  1
  Cl  Cl2  1  0.495095  0.990191  0.114064  1
  Cl  Cl3  1  0.504905  0.009809  0.614064  1
  Cl  Cl4  1  0.990191  0.495095  0.614064  1
  Cl  Cl5  1  0.495095  0.504905  0.114064  1
  Cl  Cl6  1  0.162968  0.837032  0.351758  1
  Cl  Cl7  1  0.325937  0.162968  0.851758  1
  Cl  Cl8  1  0.837032  0.674063  0.851758  1
  Cl  Cl9  1  0.162968  0.325937  0.351758  1
  Cl  Cl10  1  0.674063  0.837032  0.351758  1
  Cl  Cl11  1  0.837032  0.162968  0.851758  1
  Rb  Rb12  1  0.333333  0.666667  0.874754  1
  Rb  Rb13  1  0.666667  0.333333  0.374754  1
  Rb  Rb14  1  0.000000  0.000000  0.097850  1
  Rb  Rb15  1  0.000000  0.000000  0.597850  1
  Pu  Pu16  1  0.333333  0.666667  0.239229  1
  Pu  Pu17  1  0.666667  0.333333  0.739229  1
