# generated using pymatgen
data_Sm2SCl4
_symmetry_space_group_name_H-M   'P 1'
_cell_length_a   6.48386546
_cell_length_b   7.05648711
_cell_length_c   8.33265918
_cell_angle_alpha   97.41185585
_cell_angle_beta   112.89623403
_cell_angle_gamma   90.00000003
_symmetry_Int_Tables_number   1
_chemical_formula_structural   Sm2SCl4
_chemical_formula_sum   'Sm4 S2 Cl8'
_cell_volume   347.74814203
_cell_formula_units_Z   2
loop_
 _symmetry_equiv_pos_site_id
 _symmetry_equiv_pos_as_xyz
  1  'x, y, z'
loop_
 _atom_site_type_symbol
 _atom_site_label
 _atom_site_symmetry_multiplicity
 _atom_site_fract_x
 _atom_site_fract_y
 _atom_site_fract_z
 _atom_site_occupancy
  S  S0  1  0.936949  0.750000  0.000000  1
  S  S1  1  0.063050  0.250000  0.000000  1
  Cl  Cl2  1  0.308257  0.576075  0.823962  1
  Cl  Cl3  1  0.484295  0.923925  0.176038  1
  Cl  Cl4  1  0.691743  0.423925  0.176038  1
  Cl  Cl5  1  0.515705  0.076075  0.823962  1
  Cl  Cl6  1  0.700314  0.678947  0.561101  1
  Cl  Cl7  1  0.139213  0.821053  0.438899  1
  Cl  Cl8  1  0.299686  0.321053  0.438899  1
  Cl  Cl9  1  0.860787  0.178947  0.561101  1
  Sm  Sm10  1  0.685449  0.422719  0.786249  1
  Sm  Sm11  1  0.899199  0.077281  0.213751  1
  Sm  Sm12  1  0.314551  0.577281  0.213751  1
  Sm  Sm13  1  0.100801  0.922719  0.786249  1
