# generated using pymatgen
data_CsReBr4
_symmetry_space_group_name_H-M   'P 1'
_cell_length_a   10.60162351
_cell_length_b   13.06943454
_cell_length_c   13.56505842
_cell_angle_alpha   90.00000000
_cell_angle_beta   90.00000000
_cell_angle_gamma   90.00000000
_symmetry_Int_Tables_number   1
_chemical_formula_structural   CsReBr4
_chemical_formula_sum   'Cs8 Re8 Br32'
_cell_volume   1879.53684461
_cell_formula_units_Z   8
loop_
 _symmetry_equiv_pos_site_id
 _symmetry_equiv_pos_as_xyz
  1  'x, y, z'
loop_
 _atom_site_type_symbol
 _atom_site_label
 _atom_site_symmetry_multiplicity
 _atom_site_fract_x
 _atom_site_fract_y
 _atom_site_fract_z
 _atom_site_occupancy
  Br  Br0  1  0.528748  0.201538  0.395466  1
  Br  Br1  1  0.028748  0.298462  0.604534  1
  Br  Br2  1  0.471252  0.701538  0.104534  1
  Br  Br3  1  0.971252  0.798462  0.895466  1
  Br  Br4  1  0.471252  0.798462  0.604534  1
  Br  Br5  1  0.971252  0.701538  0.395466  1
  Br  Br6  1  0.528748  0.298462  0.895466  1
  Br  Br7  1  0.028748  0.201538  0.104534  1
  Br  Br8  1  0.413734  0.985126  0.288737  1
  Br  Br9  1  0.913734  0.514874  0.711263  1
  Br  Br10  1  0.586266  0.485126  0.211263  1
  Br  Br11  1  0.086266  0.014874  0.788737  1
  Br  Br12  1  0.586266  0.014874  0.711263  1
  Br  Br13  1  0.086266  0.485126  0.288737  1
  Br  Br14  1  0.413734  0.514874  0.788737  1
  Br  Br15  1  0.913734  0.985126  0.211263  1
  Br  Br16  1  0.271837  0.061440  0.002736  1
  Br  Br17  1  0.771837  0.438560  0.997264  1
  Br  Br18  1  0.728163  0.561440  0.497264  1
  Br  Br19  1  0.228163  0.938560  0.502736  1
  Br  Br20  1  0.728163  0.938560  0.997264  1
  Br  Br21  1  0.228163  0.561440  0.002736  1
  Br  Br22  1  0.271837  0.438560  0.502736  1
  Br  Br23  1  0.771837  0.061440  0.497264  1
  Br  Br24  1  0.151522  0.844181  0.109585  1
  Br  Br25  1  0.651522  0.655819  0.890415  1
  Br  Br26  1  0.848478  0.344181  0.390415  1
  Br  Br27  1  0.348478  0.155819  0.609585  1
  Br  Br28  1  0.848478  0.155819  0.890415  1
  Br  Br29  1  0.348478  0.344181  0.109585  1
  Br  Br30  1  0.151522  0.655819  0.609585  1
  Br  Br31  1  0.651522  0.844181  0.390415  1
  Cs  Cs32  1  0.335137  0.696036  0.366875  1
  Cs  Cs33  1  0.835137  0.803964  0.633125  1
  Cs  Cs34  1  0.664863  0.196036  0.133125  1
  Cs  Cs35  1  0.164863  0.303964  0.866875  1
  Cs  Cs36  1  0.664863  0.303964  0.633125  1
  Cs  Cs37  1  0.164863  0.196036  0.366875  1
  Cs  Cs38  1  0.335137  0.803964  0.866875  1
  Cs  Cs39  1  0.835137  0.696036  0.133125  1
  Re  Re40  1  0.559705  0.014524  0.430820  1
  Re  Re41  1  0.059705  0.485476  0.569180  1
  Re  Re42  1  0.440295  0.514524  0.069180  1
  Re  Re43  1  0.940295  0.985476  0.930820  1
  Re  Re44  1  0.440295  0.985476  0.569180  1
  Re  Re45  1  0.940295  0.514524  0.430820  1
  Re  Re46  1  0.559705  0.485476  0.930820  1
  Re  Re47  1  0.059705  0.014524  0.069180  1
