# generated using pymatgen
data_Nb3(BiS3)2
_symmetry_space_group_name_H-M   'P 1'
_cell_length_a   5.79563271
_cell_length_b   5.79563271
_cell_length_c   17.51597844
_cell_angle_alpha   90.00000000
_cell_angle_beta   90.00000000
_cell_angle_gamma   120.00000003
_symmetry_Int_Tables_number   1
_chemical_formula_structural   Nb3(BiS3)2
_chemical_formula_sum   'Nb6 Bi4 S12'
_cell_volume   509.52646176
_cell_formula_units_Z   2
loop_
 _symmetry_equiv_pos_site_id
 _symmetry_equiv_pos_as_xyz
  1  'x, y, z'
loop_
 _atom_site_type_symbol
 _atom_site_label
 _atom_site_symmetry_multiplicity
 _atom_site_fract_x
 _atom_site_fract_y
 _atom_site_fract_z
 _atom_site_occupancy
  S  S0  1  0.333333  0.666667  0.911685  1
  S  S1  1  0.666667  0.333333  0.411685  1
  S  S2  1  0.666667  0.333333  0.088315  1
  S  S3  1  0.333333  0.666667  0.588315  1
  S  S4  1  0.333333  0.666667  0.411685  1
  S  S5  1  0.666667  0.333333  0.911685  1
  S  S6  1  0.666667  0.333333  0.588315  1
  S  S7  1  0.333333  0.666667  0.088315  1
  S  S8  1  0.000000  0.000000  0.408450  1
  S  S9  1  0.000000  0.000000  0.908450  1
  S  S10  1  0.000000  0.000000  0.091550  1
  S  S11  1  0.000000  0.000000  0.591550  1
  Nb  Nb12  1  0.673818  0.000000  0.000000  1
  Nb  Nb13  1  0.673818  0.673818  0.500000  1
  Nb  Nb14  1  0.000000  0.326182  0.500000  1
  Nb  Nb15  1  0.000000  0.673818  0.000000  1
  Nb  Nb16  1  0.326182  0.000000  0.500000  1
  Nb  Nb17  1  0.326182  0.326182  0.000000  1
  Bi  Bi18  1  0.333333  0.666667  0.250000  1
  Bi  Bi19  1  0.666667  0.333333  0.750000  1
  Bi  Bi20  1  0.333333  0.666667  0.750000  1
  Bi  Bi21  1  0.666667  0.333333  0.250000  1
