# generated using pymatgen
data_CoCuH18N6Cl5
_symmetry_space_group_name_H-M   'P 1'
_cell_length_a   15.77201144
_cell_length_b   15.77201091
_cell_length_c   15.77201082
_cell_angle_alpha   60.00000019
_cell_angle_beta   60.00000129
_cell_angle_gamma   60.00000101
_symmetry_Int_Tables_number   1
_chemical_formula_structural   CoCuH18N6Cl5
_chemical_formula_sum   'Co8 Cu8 H144 N48 Cl40'
_cell_volume   2774.25405113
_cell_formula_units_Z   8
loop_
 _symmetry_equiv_pos_site_id
 _symmetry_equiv_pos_as_xyz
  1  'x, y, z'
loop_
 _atom_site_type_symbol
 _atom_site_label
 _atom_site_symmetry_multiplicity
 _atom_site_fract_x
 _atom_site_fract_y
 _atom_site_fract_z
 _atom_site_occupancy
  H  H0  1  0.942641  0.054645  0.155331  1
  H  H1  1  0.445355  0.344669  0.152617  1
  H  H2  1  0.152617  0.557359  0.445355  1
  H  H3  1  0.445355  0.152617  0.557359  1
  H  H4  1  0.344669  0.557359  0.152617  1
  H  H5  1  0.344669  0.152617  0.445355  1
  H  H6  1  0.152617  0.344669  0.557359  1
  H  H7  1  0.155331  0.942641  0.054645  1
  H  H8  1  0.054645  0.155331  0.942641  1
  H  H9  1  0.347383  0.942641  0.155331  1
  H  H10  1  0.054645  0.347383  0.155331  1
  H  H11  1  0.347383  0.054645  0.942641  1
  H  H12  1  0.155331  0.054645  0.347383  1
  H  H13  1  0.942641  0.155331  0.347383  1
  H  H14  1  0.942641  0.347383  0.054645  1
  H  H15  1  0.152617  0.445355  0.344669  1
  H  H16  1  0.557359  0.152617  0.344669  1
  H  H17  1  0.557359  0.445355  0.152617  1
  H  H18  1  0.445355  0.557359  0.344669  1
  H  H19  1  0.344669  0.445355  0.557359  1
  H  H20  1  0.557359  0.344669  0.445355  1
  H  H21  1  0.155331  0.347383  0.942641  1
  H  H22  1  0.347383  0.155331  0.054645  1
  H  H23  1  0.054645  0.942641  0.347383  1
  H  H24  1  0.057359  0.945355  0.844669  1
  H  H25  1  0.554645  0.655331  0.847383  1
  H  H26  1  0.847383  0.442641  0.554645  1
  H  H27  1  0.554645  0.847383  0.442641  1
  H  H28  1  0.655331  0.442641  0.847383  1
  H  H29  1  0.655331  0.847383  0.554645  1
  H  H30  1  0.847383  0.655331  0.442641  1
  H  H31  1  0.844669  0.057359  0.945355  1
  H  H32  1  0.945355  0.844669  0.057359  1
  H  H33  1  0.652617  0.057359  0.844669  1
  H  H34  1  0.945355  0.652617  0.844669  1
  H  H35  1  0.652617  0.945355  0.057359  1
  H  H36  1  0.844669  0.945355  0.652617  1
  H  H37  1  0.057359  0.844669  0.652617  1
  H  H38  1  0.057359  0.652617  0.945355  1
  H  H39  1  0.847383  0.554645  0.655331  1
  H  H40  1  0.442641  0.847383  0.655331  1
  H  H41  1  0.442641  0.554645  0.847383  1
  H  H42  1  0.554645  0.442641  0.655331  1
  H  H43  1  0.655331  0.554645  0.442641  1
  H  H44  1  0.442641  0.655331  0.554645  1
  H  H45  1  0.844669  0.652617  0.057359  1
  H  H46  1  0.652617  0.844669  0.945355  1
  H  H47  1  0.945355  0.057359  0.652617  1
  H  H48  1  0.001759  0.926842  0.183685  1
  H  H49  1  0.573158  0.316315  0.112286  1
  H  H50  1  0.112286  0.498241  0.573158  1
  H  H51  1  0.573158  0.112286  0.498241  1
  H  H52  1  0.316315  0.498241  0.112286  1
  H  H53  1  0.316315  0.112286  0.573158  1
  H  H54  1  0.112286  0.316315  0.498241  1
  H  H55  1  0.183685  0.001759  0.926842  1
  H  H56  1  0.926842  0.183685  0.001759  1
  H  H57  1  0.387714  0.001759  0.183685  1
  H  H58  1  0.926842  0.387714  0.183685  1
  H  H59  1  0.387714  0.926842  0.001759  1
  H  H60  1  0.183685  0.926842  0.387714  1
  H  H61  1  0.001759  0.183685  0.387714  1
  H  H62  1  0.001759  0.387714  0.926842  1
  H  H63  1  0.112286  0.573158  0.316315  1
  H  H64  1  0.498241  0.112286  0.316315  1
  H  H65  1  0.498241  0.573158  0.112286  1
  H  H66  1  0.573158  0.498241  0.316315  1
  H  H67  1  0.316315  0.573158  0.498241  1
  H  H68  1  0.498241  0.316315  0.573158  1
  H  H69  1  0.183685  0.387714  0.001759  1
  H  H70  1  0.387714  0.183685  0.926842  1
  H  H71  1  0.926842  0.001759  0.387714  1
  H  H72  1  0.998241  0.073158  0.816315  1
  H  H73  1  0.426842  0.683685  0.887714  1
  H  H74  1  0.887714  0.501759  0.426842  1
  H  H75  1  0.426842  0.887714  0.501759  1
  H  H76  1  0.683685  0.501759  0.887714  1
  H  H77  1  0.683685  0.887714  0.426842  1
  H  H78  1  0.887714  0.683685  0.501759  1
  H  H79  1  0.816315  0.998241  0.073158  1
  H  H80  1  0.073158  0.816315  0.998241  1
  H  H81  1  0.612286  0.998241  0.816315  1
  H  H82  1  0.073158  0.612286  0.816315  1
  H  H83  1  0.612286  0.073158  0.998241  1
  H  H84  1  0.816315  0.073158  0.612286  1
  H  H85  1  0.998241  0.816315  0.612286  1
  H  H86  1  0.998241  0.612286  0.073158  1
  H  H87  1  0.887714  0.426842  0.683685  1
  H  H88  1  0.501759  0.887714  0.683685  1
  H  H89  1  0.501759  0.426842  0.887714  1
  H  H90  1  0.426842  0.501759  0.683685  1
  H  H91  1  0.683685  0.426842  0.501759  1
  H  H92  1  0.501759  0.683685  0.426842  1
  H  H93  1  0.816315  0.612286  0.998241  1
  H  H94  1  0.612286  0.816315  0.073158  1
  H  H95  1  0.073158  0.998241  0.612286  1
  H  H96  1  0.880667  0.977601  0.186833  1
  H  H97  1  0.522399  0.313167  0.045101  1
  H  H98  1  0.045101  0.619333  0.522399  1
  H  H99  1  0.522399  0.045101  0.619333  1
  H  H100  1  0.313167  0.619333  0.045101  1
  H  H101  1  0.313167  0.045101  0.522399  1
  H  H102  1  0.045101  0.313167  0.619333  1
  H  H103  1  0.186833  0.880667  0.977601  1
  H  H104  1  0.977601  0.186833  0.880667  1
  H  H105  1  0.454899  0.880667  0.186833  1
  H  H106  1  0.977601  0.454899  0.186833  1
  H  H107  1  0.454899  0.977601  0.880667  1
  H  H108  1  0.186833  0.977601  0.454899  1
  H  H109  1  0.880667  0.186833  0.454899  1
  H  H110  1  0.880667  0.454899  0.977601  1
  H  H111  1  0.045101  0.522399  0.313167  1
  H  H112  1  0.619333  0.045101  0.313167  1
  H  H113  1  0.619333  0.522399  0.045101  1
  H  H114  1  0.522399  0.619333  0.313167  1
  H  H115  1  0.313167  0.522399  0.619333  1
  H  H116  1  0.619333  0.313167  0.522399  1
  H  H117  1  0.186833  0.454899  0.880667  1
  H  H118  1  0.454899  0.186833  0.977601  1
  H  H119  1  0.977601  0.880667  0.454899  1
  H  H120  1  0.119333  0.022399  0.813167  1
  H  H121  1  0.477601  0.686833  0.954899  1
  H  H122  1  0.954899  0.380667  0.477601  1
  H  H123  1  0.477601  0.954899  0.380667  1
  H  H124  1  0.686833  0.380667  0.954899  1
  H  H125  1  0.686833  0.954899  0.477601  1
  H  H126  1  0.954899  0.686833  0.380667  1
  H  H127  1  0.813167  0.119333  0.022399  1
  H  H128  1  0.022399  0.813167  0.119333  1
  H  H129  1  0.545101  0.119333  0.813167  1
  H  H130  1  0.022399  0.545101  0.813167  1
  H  H131  1  0.545101  0.022399  0.119333  1
  H  H132  1  0.813167  0.022399  0.545101  1
  H  H133  1  0.119333  0.813167  0.545101  1
  H  H134  1  0.119333  0.545101  0.022399  1
  H  H135  1  0.954899  0.477601  0.686833  1
  H  H136  1  0.380667  0.954899  0.686833  1
  H  H137  1  0.380667  0.477601  0.954899  1
  H  H138  1  0.477601  0.380667  0.686833  1
  H  H139  1  0.686833  0.477601  0.380667  1
  H  H140  1  0.380667  0.686833  0.477601  1
  H  H141  1  0.813167  0.545101  0.119333  1
  H  H142  1  0.545101  0.813167  0.022399  1
  H  H143  1  0.022399  0.119333  0.545101  1
  N  N144  1  0.951101  0.990024  0.146330  1
  N  N145  1  0.509976  0.353670  0.087455  1
  N  N146  1  0.087455  0.548899  0.509976  1
  N  N147  1  0.509976  0.087455  0.548899  1
  N  N148  1  0.353670  0.548899  0.087455  1
  N  N149  1  0.353670  0.087455  0.509976  1
  N  N150  1  0.087455  0.353670  0.548899  1
  N  N151  1  0.146330  0.951101  0.990024  1
  N  N152  1  0.990024  0.146330  0.951101  1
  N  N153  1  0.412545  0.951101  0.146330  1
  N  N154  1  0.990024  0.412545  0.146330  1
  N  N155  1  0.412545  0.990024  0.951101  1
  N  N156  1  0.146330  0.990024  0.412545  1
  N  N157  1  0.951101  0.146330  0.412545  1
  N  N158  1  0.951101  0.412545  0.990024  1
  N  N159  1  0.087455  0.509976  0.353670  1
  N  N160  1  0.548899  0.087455  0.353670  1
  N  N161  1  0.548899  0.509976  0.087455  1
  N  N162  1  0.509976  0.548899  0.353670  1
  N  N163  1  0.353670  0.509976  0.548899  1
  N  N164  1  0.548899  0.353670  0.509976  1
  N  N165  1  0.146330  0.412545  0.951101  1
  N  N166  1  0.412545  0.146330  0.990024  1
  N  N167  1  0.990024  0.951101  0.412545  1
  N  N168  1  0.048899  0.009975  0.853670  1
  N  N169  1  0.490024  0.646330  0.912545  1
  N  N170  1  0.912545  0.451101  0.490024  1
  N  N171  1  0.490024  0.912545  0.451101  1
  N  N172  1  0.646330  0.451101  0.912545  1
  N  N173  1  0.646330  0.912545  0.490024  1
  N  N174  1  0.912545  0.646330  0.451101  1
  N  N175  1  0.853670  0.048899  0.009975  1
  N  N176  1  0.009975  0.853670  0.048899  1
  N  N177  1  0.587455  0.048899  0.853670  1
  N  N178  1  0.009975  0.587455  0.853670  1
  N  N179  1  0.587455  0.009975  0.048899  1
  N  N180  1  0.853670  0.009975  0.587455  1
  N  N181  1  0.048899  0.853670  0.587455  1
  N  N182  1  0.048899  0.587455  0.009975  1
  N  N183  1  0.912545  0.490024  0.646330  1
  N  N184  1  0.451101  0.912545  0.646330  1
  N  N185  1  0.451101  0.490024  0.912545  1
  N  N186  1  0.490024  0.451101  0.646330  1
  N  N187  1  0.646330  0.490024  0.451101  1
  N  N188  1  0.451101  0.646330  0.490024  1
  N  N189  1  0.853670  0.587455  0.048899  1
  N  N190  1  0.587455  0.853670  0.009975  1
  N  N191  1  0.009975  0.048899  0.587455  1
  Cl  Cl192  1  0.190464  0.190464  0.190464  1
  Cl  Cl193  1  0.309536  0.309536  0.571393  1
  Cl  Cl194  1  0.571393  0.309536  0.309536  1
  Cl  Cl195  1  0.309536  0.571393  0.309536  1
  Cl  Cl196  1  0.928607  0.190464  0.190464  1
  Cl  Cl197  1  0.190464  0.928607  0.190464  1
  Cl  Cl198  1  0.190464  0.190464  0.928607  1
  Cl  Cl199  1  0.309536  0.309536  0.309536  1
  Cl  Cl200  1  0.809536  0.809536  0.809536  1
  Cl  Cl201  1  0.690464  0.690464  0.428607  1
  Cl  Cl202  1  0.428607  0.690464  0.690464  1
  Cl  Cl203  1  0.690464  0.428607  0.690464  1
  Cl  Cl204  1  0.071393  0.809536  0.809536  1
  Cl  Cl205  1  0.809536  0.071393  0.809536  1
  Cl  Cl206  1  0.809536  0.809536  0.071393  1
  Cl  Cl207  1  0.690464  0.690464  0.690464  1
  Cl  Cl208  1  0.750000  0.095420  0.404580  1
  Cl  Cl209  1  0.404580  0.095420  0.250000  1
  Cl  Cl210  1  0.250000  0.750000  0.404580  1
  Cl  Cl211  1  0.404580  0.250000  0.750000  1
  Cl  Cl212  1  0.095420  0.750000  0.250000  1
  Cl  Cl213  1  0.095420  0.250000  0.404580  1
  Cl  Cl214  1  0.250000  0.095420  0.750000  1
  Cl  Cl215  1  0.404580  0.750000  0.095420  1
  Cl  Cl216  1  0.095420  0.404580  0.750000  1
  Cl  Cl217  1  0.750000  0.404580  0.250000  1
  Cl  Cl218  1  0.750000  0.250000  0.095420  1
  Cl  Cl219  1  0.250000  0.404580  0.095420  1
  Cl  Cl220  1  0.250000  0.904580  0.595420  1
  Cl  Cl221  1  0.595420  0.904580  0.750000  1
  Cl  Cl222  1  0.750000  0.250000  0.595420  1
  Cl  Cl223  1  0.595420  0.750000  0.250000  1
  Cl  Cl224  1  0.904580  0.250000  0.750000  1
  Cl  Cl225  1  0.904580  0.750000  0.595420  1
  Cl  Cl226  1  0.750000  0.904580  0.250000  1
  Cl  Cl227  1  0.595420  0.250000  0.904580  1
  Cl  Cl228  1  0.904580  0.595420  0.250000  1
  Cl  Cl229  1  0.250000  0.595420  0.750000  1
  Cl  Cl230  1  0.250000  0.750000  0.904580  1
  Cl  Cl231  1  0.750000  0.595420  0.904580  1
  Co  Co232  1  0.000000  0.000000  0.000000  1
  Co  Co233  1  0.500000  0.500000  0.000000  1
  Co  Co234  1  0.000000  0.500000  0.500000  1
  Co  Co235  1  0.500000  0.000000  0.500000  1
  Co  Co236  1  0.500000  0.000000  0.000000  1
  Co  Co237  1  0.000000  0.500000  0.000000  1
  Co  Co238  1  0.000000  0.000000  0.500000  1
  Co  Co239  1  0.500000  0.500000  0.500000  1
  Cu  Cu240  1  0.250000  0.250000  0.250000  1
  Cu  Cu241  1  0.250000  0.250000  0.750000  1
  Cu  Cu242  1  0.750000  0.250000  0.250000  1
  Cu  Cu243  1  0.250000  0.750000  0.250000  1
  Cu  Cu244  1  0.750000  0.750000  0.750000  1
  Cu  Cu245  1  0.750000  0.750000  0.250000  1
  Cu  Cu246  1  0.250000  0.750000  0.750000  1
  Cu  Cu247  1  0.750000  0.250000  0.750000  1
