# generated using pymatgen
data_Al2P2H9NO11
_symmetry_space_group_name_H-M   'P 1'
_cell_length_a   9.66420818
_cell_length_b   9.64770658
_cell_length_c   9.73756816
_cell_angle_alpha   103.72479182
_cell_angle_beta   90.00000000
_cell_angle_gamma   90.00000000
_symmetry_Int_Tables_number   1
_chemical_formula_structural   Al2P2H9NO11
_chemical_formula_sum   'Al8 P8 H36 N4 O44'
_cell_volume   881.98212631
_cell_formula_units_Z   4
loop_
 _symmetry_equiv_pos_site_id
 _symmetry_equiv_pos_as_xyz
  1  'x, y, z'
loop_
 _atom_site_type_symbol
 _atom_site_label
 _atom_site_symmetry_multiplicity
 _atom_site_fract_x
 _atom_site_fract_y
 _atom_site_fract_z
 _atom_site_occupancy
  H  H0  1  0.361083  0.418475  0.857655  1
  H  H1  1  0.861083  0.081525  0.642345  1
  H  H2  1  0.638917  0.581525  0.142345  1
  H  H3  1  0.138917  0.918475  0.357655  1
  H  H4  1  0.222073  0.510077  0.831705  1
  H  H5  1  0.722073  0.989923  0.668295  1
  H  H6  1  0.777927  0.489923  0.168295  1
  H  H7  1  0.277927  0.010077  0.331705  1
  H  H8  1  0.270353  0.500651  0.998789  1
  H  H9  1  0.770353  0.999349  0.501211  1
  H  H10  1  0.729647  0.499349  0.001211  1
  H  H11  1  0.229647  0.000651  0.498789  1
  H  H12  1  0.365201  0.601748  0.913202  1
  H  H13  1  0.865201  0.898252  0.586798  1
  H  H14  1  0.634799  0.398252  0.086798  1
  H  H15  1  0.134799  0.101748  0.413202  1
  H  H16  1  0.040163  0.903276  0.810889  1
  H  H17  1  0.540163  0.596724  0.689111  1
  H  H18  1  0.959837  0.096724  0.189111  1
  H  H19  1  0.459837  0.403276  0.310889  1
  H  H20  1  0.134106  0.764562  0.113901  1
  H  H21  1  0.634106  0.735438  0.386099  1
  H  H22  1  0.865894  0.235438  0.886099  1
  H  H23  1  0.365894  0.264562  0.613901  1
  H  H24  1  0.085605  0.766204  0.958660  1
  H  H25  1  0.200178  0.441053  0.480204  1
  H  H26  1  0.914395  0.233796  0.041340  1
  H  H27  1  0.414395  0.266204  0.458660  1
  H  H28  1  0.987200  0.061830  0.896644  1
  H  H29  1  0.487200  0.438170  0.603356  1
  H  H30  1  0.012800  0.938170  0.103356  1
  H  H31  1  0.512800  0.561830  0.396644  1
  H  H32  1  0.299822  0.941053  0.980204  1
  H  H33  1  0.799822  0.558947  0.519796  1
  H  H34  1  0.700178  0.058947  0.019796  1
  H  H35  1  0.585605  0.733796  0.541340  1
  N  N36  1  0.805241  0.989912  0.600021  1
  N  N37  1  0.694759  0.489912  0.100021  1
  N  N38  1  0.194759  0.010088  0.399979  1
  N  N39  1  0.305241  0.510088  0.899979  1
  O  O40  1  0.449379  0.777519  0.707678  1
  O  O41  1  0.413336  0.958529  0.203203  1
  O  O42  1  0.086664  0.458529  0.703203  1
  O  O43  1  0.586664  0.041471  0.796797  1
  O  O44  1  0.227983  0.455544  0.164671  1
  O  O45  1  0.727983  0.044456  0.335329  1
  O  O46  1  0.772017  0.544456  0.835329  1
  O  O47  1  0.272017  0.955544  0.664671  1
  O  O48  1  0.176985  0.240508  0.975209  1
  O  O49  1  0.676985  0.259492  0.524791  1
  O  O50  1  0.823015  0.759492  0.024791  1
  O  O51  1  0.323015  0.740508  0.475209  1
  O  O52  1  0.524415  0.237487  0.013787  1
  O  O53  1  0.802818  0.289073  0.304600  1
  O  O54  1  0.697182  0.789073  0.804600  1
  O  O55  1  0.197182  0.710927  0.695400  1
  O  O56  1  0.050621  0.277519  0.207678  1
  O  O57  1  0.550621  0.222481  0.292322  1
  O  O58  1  0.949379  0.722481  0.792322  1
  O  O59  1  0.913336  0.541471  0.296797  1
  O  O60  1  0.134828  0.503567  0.445637  1
  O  O61  1  0.634828  0.996433  0.054363  1
  O  O62  1  0.865172  0.496433  0.554363  1
  O  O63  1  0.365172  0.003567  0.945637  1
  O  O64  1  0.632673  0.303899  0.805549  1
  O  O65  1  0.132673  0.196101  0.694451  1
  O  O66  1  0.367327  0.696101  0.194451  1
  O  O67  1  0.867327  0.803899  0.305549  1
  O  O68  1  0.430844  0.502279  0.352244  1
  O  O69  1  0.930844  0.997721  0.147756  1
  O  O70  1  0.569156  0.497721  0.647756  1
  O  O71  1  0.069156  0.002279  0.852244  1
  O  O72  1  0.389069  0.212220  0.785841  1
  O  O73  1  0.889069  0.287780  0.714159  1
  O  O74  1  0.610931  0.787780  0.214159  1
  O  O75  1  0.110931  0.712220  0.285841  1
  O  O76  1  0.365641  0.322247  0.542210  1
  O  O77  1  0.865641  0.177753  0.957790  1
  O  O78  1  0.634359  0.677753  0.457790  1
  O  O79  1  0.134359  0.822247  0.042210  1
  O  O80  1  0.024415  0.262513  0.486213  1
  O  O81  1  0.475585  0.762513  0.986213  1
  O  O82  1  0.975585  0.737487  0.513787  1
  O  O83  1  0.302818  0.210927  0.195400  1
  Al  Al84  1  0.230667  0.107818  0.814820  1
  Al  Al85  1  0.730667  0.392182  0.685180  1
  Al  Al86  1  0.769333  0.892182  0.185180  1
  Al  Al87  1  0.269333  0.607818  0.314820  1
  Al  Al88  1  0.464040  0.115002  0.127759  1
  Al  Al89  1  0.964040  0.384998  0.372241  1
  Al  Al90  1  0.535960  0.884998  0.872241  1
  Al  Al91  1  0.035960  0.615002  0.627759  1
  P  P92  1  0.308079  0.794890  0.635443  1
  P  P93  1  0.808079  0.705110  0.864557  1
  P  P94  1  0.691921  0.205110  0.364557  1
  P  P95  1  0.191921  0.294890  0.135443  1
  P  P96  1  0.535505  0.198059  0.848893  1
  P  P97  1  0.035505  0.301941  0.651107  1
  P  P98  1  0.464495  0.801941  0.151107  1
  P  P99  1  0.964495  0.698059  0.348893  1
