# generated using pymatgen
data_B2Pd5
_symmetry_space_group_name_H-M   'P 1'
_cell_length_a   5.01244018
_cell_length_b   5.53172576
_cell_length_c   6.95358883
_cell_angle_alpha   96.60730047
_cell_angle_beta   111.12605909
_cell_angle_gamma   90.00000004
_symmetry_Int_Tables_number   1
_chemical_formula_structural   B2Pd5
_chemical_formula_sum   'B4 Pd10'
_cell_volume   178.47320338
_cell_formula_units_Z   2
loop_
 _symmetry_equiv_pos_site_id
 _symmetry_equiv_pos_as_xyz
  1  'x, y, z'
loop_
 _atom_site_type_symbol
 _atom_site_label
 _atom_site_symmetry_multiplicity
 _atom_site_fract_x
 _atom_site_fract_y
 _atom_site_fract_z
 _atom_site_occupancy
  B  B0  1  0.587350  0.421544  0.771357  1
  B  B1  1  0.815993  0.078456  0.228643  1
  B  B2  1  0.412650  0.578456  0.228643  1
  B  B3  1  0.184007  0.921544  0.771357  1
  Pd  Pd4  1  0.004924  0.419471  0.191920  1
  Pd  Pd5  1  0.813005  0.080529  0.808080  1
  Pd  Pd6  1  0.358430  0.685137  0.575590  1
  Pd  Pd7  1  0.782839  0.814863  0.424410  1
  Pd  Pd8  1  0.641570  0.314863  0.424410  1
  Pd  Pd9  1  0.217161  0.185137  0.575590  1
  Pd  Pd10  1  0.186995  0.919471  0.191920  1
  Pd  Pd11  1  0.995076  0.580529  0.808080  1
  Pd  Pd12  1  0.431330  0.250000  0.000000  1
  Pd  Pd13  1  0.568670  0.750000  0.000000  1
