# generated using pymatgen
data_Ba9(AuO6)2
_symmetry_space_group_name_H-M   'P 1'
_cell_length_a   7.23924361
_cell_length_b   14.40459643
_cell_length_c   17.49547596
_cell_angle_alpha   90.00000000
_cell_angle_beta   90.00000000
_cell_angle_gamma   90.00000000
_symmetry_Int_Tables_number   1
_chemical_formula_structural   Ba9(AuO6)2
_chemical_formula_sum   'Ba36 Au8 O48'
_cell_volume   1824.39993698
_cell_formula_units_Z   4
loop_
 _symmetry_equiv_pos_site_id
 _symmetry_equiv_pos_as_xyz
  1  'x, y, z'
loop_
 _atom_site_type_symbol
 _atom_site_label
 _atom_site_symmetry_multiplicity
 _atom_site_fract_x
 _atom_site_fract_y
 _atom_site_fract_z
 _atom_site_occupancy
  O  O0  1  0.996156  0.048005  0.652549  1
  O  O1  1  0.496156  0.451995  0.847451  1
  O  O2  1  0.503844  0.548005  0.347451  1
  O  O3  1  0.003844  0.951995  0.152549  1
  O  O4  1  0.003844  0.951995  0.347451  1
  O  O5  1  0.503844  0.548005  0.152549  1
  O  O6  1  0.496156  0.451995  0.652549  1
  O  O7  1  0.996156  0.048005  0.847451  1
  O  O8  1  0.295793  0.727837  0.750000  1
  O  O9  1  0.795794  0.772163  0.750000  1
  O  O10  1  0.204207  0.227837  0.250000  1
  O  O11  1  0.704206  0.272163  0.250000  1
  O  O12  1  0.336805  0.676176  0.519884  1
  O  O13  1  0.836805  0.823824  0.980116  1
  O  O14  1  0.163195  0.176176  0.480116  1
  O  O15  1  0.663195  0.323824  0.019884  1
  O  O16  1  0.663195  0.323824  0.480116  1
  O  O17  1  0.163195  0.176176  0.019884  1
  O  O18  1  0.836805  0.823824  0.519884  1
  O  O19  1  0.336805  0.676176  0.980116  1
  O  O20  1  0.177420  0.876844  0.594751  1
  O  O21  1  0.677420  0.623156  0.905249  1
  O  O22  1  0.322580  0.376844  0.405249  1
  O  O23  1  0.822580  0.123156  0.094751  1
  O  O24  1  0.822580  0.123156  0.405249  1
  O  O25  1  0.322580  0.376844  0.094751  1
  O  O26  1  0.677420  0.623156  0.594751  1
  O  O27  1  0.177420  0.876844  0.905249  1
  O  O28  1  0.988140  0.300296  0.845269  1
  O  O29  1  0.488140  0.199704  0.654731  1
  O  O30  1  0.511860  0.800296  0.154731  1
  O  O31  1  0.011860  0.699704  0.345269  1
  O  O32  1  0.011860  0.699704  0.154731  1
  O  O33  1  0.511860  0.800296  0.345269  1
  O  O34  1  0.488140  0.199704  0.845269  1
  O  O35  1  0.988140  0.300296  0.654731  1
  O  O36  1  0.662637  0.991813  0.574653  1
  O  O37  1  0.162637  0.508187  0.925347  1
  O  O38  1  0.837363  0.491813  0.425347  1
  O  O39  1  0.337363  0.008187  0.074653  1
  O  O40  1  0.337363  0.008187  0.425347  1
  O  O41  1  0.837363  0.491813  0.074653  1
  O  O42  1  0.162637  0.508187  0.574653  1
  O  O43  1  0.662637  0.991813  0.925347  1
  O  O44  1  0.443074  0.946194  0.750000  1
  O  O45  1  0.943074  0.553806  0.750000  1
  O  O46  1  0.056926  0.446194  0.250000  1
  O  O47  1  0.556926  0.053806  0.250000  1
  Ba  Ba48  1  0.182885  0.822036  0.443263  1
  Ba  Ba49  1  0.682885  0.677964  0.056737  1
  Ba  Ba50  1  0.317115  0.322036  0.556737  1
  Ba  Ba51  1  0.817115  0.177964  0.943263  1
  Ba  Ba52  1  0.817115  0.177964  0.556737  1
  Ba  Ba53  1  0.317115  0.322036  0.943263  1
  Ba  Ba54  1  0.682885  0.677964  0.443263  1
  Ba  Ba55  1  0.182885  0.822036  0.056737  1
  Ba  Ba56  1  0.156205  0.182280  0.750000  1
  Ba  Ba57  1  0.656205  0.317720  0.750000  1
  Ba  Ba58  1  0.343795  0.682280  0.250000  1
  Ba  Ba59  1  0.843795  0.817720  0.250000  1
  Ba  Ba60  1  0.172630  0.436506  0.750000  1
  Ba  Ba61  1  0.672630  0.063494  0.750000  1
  Ba  Ba62  1  0.327370  0.936506  0.250000  1
  Ba  Ba63  1  0.827370  0.563494  0.250000  1
  Ba  Ba64  1  0.331248  0.051213  0.579369  1
  Ba  Ba65  1  0.831248  0.448787  0.920631  1
  Ba  Ba66  1  0.168752  0.551213  0.420631  1
  Ba  Ba67  1  0.668752  0.948787  0.079369  1
  Ba  Ba68  1  0.668752  0.948787  0.420631  1
  Ba  Ba69  1  0.168752  0.551213  0.079369  1
  Ba  Ba70  1  0.831248  0.448787  0.579369  1
  Ba  Ba71  1  0.331248  0.051213  0.920631  1
  Ba  Ba72  1  0.892134  0.099513  0.250000  1
  Ba  Ba73  1  0.392134  0.400487  0.250000  1
  Ba  Ba74  1  0.607866  0.599513  0.750000  1
  Ba  Ba75  1  0.107866  0.900487  0.750000  1
  Ba  Ba76  1  0.467956  0.186892  0.358030  1
  Ba  Ba77  1  0.967956  0.313108  0.141970  1
  Ba  Ba78  1  0.032044  0.686892  0.641970  1
  Ba  Ba79  1  0.532044  0.813108  0.858030  1
  Ba  Ba80  1  0.532044  0.813108  0.641970  1
  Ba  Ba81  1  0.032044  0.686892  0.858030  1
  Ba  Ba82  1  0.967956  0.313108  0.358030  1
  Ba  Ba83  1  0.467956  0.186892  0.141970  1
  Au  Au84  1  0.080590  0.064164  0.416199  1
  Au  Au85  1  0.580590  0.435836  0.083801  1
  Au  Au86  1  0.419410  0.564164  0.583801  1
  Au  Au87  1  0.919410  0.935836  0.916199  1
  Au  Au88  1  0.919410  0.935836  0.583801  1
  Au  Au89  1  0.419410  0.564164  0.916199  1
  Au  Au90  1  0.580590  0.435836  0.416199  1
  Au  Au91  1  0.080590  0.064164  0.083801  1
