# generated using pymatgen
data_P2SeO3
_symmetry_space_group_name_H-M   'P 1'
_cell_length_a   6.83256133
_cell_length_b   11.94377075
_cell_length_c   12.36609614
_cell_angle_alpha   90.33643529
_cell_angle_beta   90.00000000
_cell_angle_gamma   90.00000000
_symmetry_Int_Tables_number   1
_chemical_formula_structural   P2SeO3
_chemical_formula_sum   'P16 Se8 O24'
_cell_volume   1009.13699853
_cell_formula_units_Z   8
loop_
 _symmetry_equiv_pos_site_id
 _symmetry_equiv_pos_as_xyz
  1  'x, y, z'
loop_
 _atom_site_type_symbol
 _atom_site_label
 _atom_site_symmetry_multiplicity
 _atom_site_fract_x
 _atom_site_fract_y
 _atom_site_fract_z
 _atom_site_occupancy
  O  O0  1  0.724666  0.703605  0.121533  1
  O  O1  1  0.224666  0.296395  0.378467  1
  O  O2  1  0.275334  0.296395  0.878467  1
  O  O3  1  0.775334  0.703605  0.621533  1
  O  O4  1  0.907734  0.774965  0.956375  1
  O  O5  1  0.407734  0.225035  0.543625  1
  O  O6  1  0.092266  0.225035  0.043625  1
  O  O7  1  0.592266  0.774965  0.456375  1
  O  O8  1  0.401631  0.720518  0.019196  1
  O  O9  1  0.901631  0.279482  0.480804  1
  O  O10  1  0.598369  0.279482  0.980804  1
  O  O11  1  0.098369  0.720518  0.519196  1
  O  O12  1  0.679155  0.606118  0.938503  1
  O  O13  1  0.179155  0.393882  0.561497  1
  O  O14  1  0.320845  0.393882  0.061497  1
  O  O15  1  0.820845  0.606118  0.438503  1
  O  O16  1  0.585588  0.792644  0.856189  1
  O  O17  1  0.085588  0.207356  0.643811  1
  O  O18  1  0.414412  0.207356  0.143811  1
  O  O19  1  0.868630  0.890198  0.536971  1
  O  O20  1  0.631370  0.890198  0.036971  1
  O  O21  1  0.131370  0.109802  0.463029  1
  O  O22  1  0.368630  0.109802  0.963029  1
  O  O23  1  0.914412  0.792644  0.356189  1
  P  P24  1  0.746159  0.868316  0.924490  1
  P  P25  1  0.359132  0.346198  0.479156  1
  P  P26  1  0.140868  0.346198  0.979156  1
  P  P27  1  0.640868  0.653802  0.520844  1
  P  P28  1  0.533254  0.789350  0.115312  1
  P  P29  1  0.033254  0.210650  0.384688  1
  P  P30  1  0.466746  0.210650  0.884688  1
  P  P31  1  0.966746  0.789350  0.615312  1
  P  P32  1  0.487848  0.677852  0.904382  1
  P  P33  1  0.987848  0.322148  0.595618  1
  P  P34  1  0.512152  0.322148  0.095618  1
  P  P35  1  0.012152  0.677852  0.404382  1
  P  P36  1  0.753841  0.868316  0.424490  1
  P  P37  1  0.246159  0.131684  0.575510  1
  P  P38  1  0.253841  0.131684  0.075510  1
  P  P39  1  0.859132  0.653802  0.020844  1
  Se  Se40  1  0.847576  0.004862  0.842578  1
  Se  Se41  1  0.347576  0.995138  0.657422  1
  Se  Se42  1  0.152424  0.995138  0.157422  1
  Se  Se43  1  0.652424  0.004862  0.342578  1
  Se  Se44  1  0.295921  0.597084  0.802561  1
  Se  Se45  1  0.795921  0.402916  0.697439  1
  Se  Se46  1  0.704079  0.402916  0.197439  1
  Se  Se47  1  0.204079  0.597084  0.302561  1
