# generated using pymatgen
data_Nb3ICl6
_symmetry_space_group_name_H-M   'P 1'
_cell_length_a   12.89166338
_cell_length_b   12.89166338
_cell_length_c   12.89166338
_cell_angle_alpha   90.00000000
_cell_angle_beta   90.00000000
_cell_angle_gamma   90.00000000
_symmetry_Int_Tables_number   1
_chemical_formula_structural   Nb3ICl6
_chemical_formula_sum   'Nb24 I8 Cl48'
_cell_volume   2142.52979824
_cell_formula_units_Z   8
loop_
 _symmetry_equiv_pos_site_id
 _symmetry_equiv_pos_as_xyz
  1  'x, y, z'
loop_
 _atom_site_type_symbol
 _atom_site_label
 _atom_site_symmetry_multiplicity
 _atom_site_fract_x
 _atom_site_fract_y
 _atom_site_fract_z
 _atom_site_occupancy
  Cl  Cl0  1  0.621003  0.217277  0.098811  1
  Cl  Cl1  1  0.098811  0.621003  0.217277  1
  Cl  Cl2  1  0.217277  0.098811  0.621003  1
  Cl  Cl3  1  0.282723  0.901189  0.121003  1
  Cl  Cl4  1  0.598811  0.878997  0.782723  1
  Cl  Cl5  1  0.782723  0.598811  0.878997  1
  Cl  Cl6  1  0.401189  0.378997  0.717277  1
  Cl  Cl7  1  0.901189  0.121003  0.282723  1
  Cl  Cl8  1  0.717277  0.401189  0.378997  1
  Cl  Cl9  1  0.121003  0.282723  0.901189  1
  Cl  Cl10  1  0.378997  0.717277  0.401189  1
  Cl  Cl11  1  0.878997  0.782723  0.598811  1
  Cl  Cl12  1  0.378997  0.782723  0.901189  1
  Cl  Cl13  1  0.901189  0.378997  0.782723  1
  Cl  Cl14  1  0.782723  0.901189  0.378997  1
  Cl  Cl15  1  0.717277  0.098811  0.878997  1
  Cl  Cl16  1  0.401189  0.121003  0.217277  1
  Cl  Cl17  1  0.217277  0.401189  0.121003  1
  Cl  Cl18  1  0.598811  0.621003  0.282723  1
  Cl  Cl19  1  0.098811  0.878997  0.717277  1
  Cl  Cl20  1  0.282723  0.598811  0.621003  1
  Cl  Cl21  1  0.878997  0.717277  0.098811  1
  Cl  Cl22  1  0.621003  0.282723  0.598811  1
  Cl  Cl23  1  0.121003  0.217277  0.401189  1
  Cl  Cl24  1  0.739020  0.979468  0.118109  1
  Cl  Cl25  1  0.118109  0.739020  0.979468  1
  Cl  Cl26  1  0.979468  0.118109  0.739020  1
  Cl  Cl27  1  0.520532  0.881891  0.239020  1
  Cl  Cl28  1  0.618109  0.760980  0.020532  1
  Cl  Cl29  1  0.020532  0.618109  0.760980  1
  Cl  Cl30  1  0.381891  0.260980  0.479468  1
  Cl  Cl31  1  0.881891  0.239020  0.520532  1
  Cl  Cl32  1  0.479468  0.381891  0.260980  1
  Cl  Cl33  1  0.239020  0.520532  0.881891  1
  Cl  Cl34  1  0.260980  0.479468  0.381891  1
  Cl  Cl35  1  0.760980  0.020532  0.618109  1
  Cl  Cl36  1  0.260980  0.020532  0.881891  1
  Cl  Cl37  1  0.881891  0.260980  0.020532  1
  Cl  Cl38  1  0.020532  0.881891  0.260980  1
  Cl  Cl39  1  0.479468  0.118109  0.760980  1
  Cl  Cl40  1  0.381891  0.239020  0.979468  1
  Cl  Cl41  1  0.979468  0.381891  0.239020  1
  Cl  Cl42  1  0.618109  0.739020  0.520532  1
  Cl  Cl43  1  0.118109  0.760980  0.479468  1
  Cl  Cl44  1  0.520532  0.618109  0.739020  1
  Cl  Cl45  1  0.760980  0.479468  0.118109  1
  Cl  Cl46  1  0.739020  0.520532  0.618109  1
  Cl  Cl47  1  0.239020  0.979468  0.381891  1
  Nb  Nb48  1  0.559101  0.042639  0.142912  1
  Nb  Nb49  1  0.142912  0.559101  0.042639  1
  Nb  Nb50  1  0.042639  0.142912  0.559101  1
  Nb  Nb51  1  0.457361  0.857088  0.059101  1
  Nb  Nb52  1  0.642912  0.940899  0.957361  1
  Nb  Nb53  1  0.957361  0.642912  0.940899  1
  Nb  Nb54  1  0.357088  0.440899  0.542639  1
  Nb  Nb55  1  0.857088  0.059101  0.457361  1
  Nb  Nb56  1  0.542639  0.357088  0.440899  1
  Nb  Nb57  1  0.059101  0.457361  0.857088  1
  Nb  Nb58  1  0.440899  0.542639  0.357088  1
  Nb  Nb59  1  0.940899  0.957361  0.642912  1
  Nb  Nb60  1  0.440899  0.957361  0.857088  1
  Nb  Nb61  1  0.857088  0.440899  0.957361  1
  Nb  Nb62  1  0.957361  0.857088  0.440899  1
  Nb  Nb63  1  0.542639  0.142912  0.940899  1
  Nb  Nb64  1  0.357088  0.059101  0.042639  1
  Nb  Nb65  1  0.042639  0.357088  0.059101  1
  Nb  Nb66  1  0.642912  0.559101  0.457361  1
  Nb  Nb67  1  0.142912  0.940899  0.542639  1
  Nb  Nb68  1  0.457361  0.642912  0.559101  1
  Nb  Nb69  1  0.940899  0.542639  0.142912  1
  Nb  Nb70  1  0.559101  0.457361  0.642912  1
  Nb  Nb71  1  0.059101  0.042639  0.357088  1
  I  I72  1  0.129885  0.129885  0.129885  1
  I  I73  1  0.370115  0.870115  0.629885  1
  I  I74  1  0.629885  0.370115  0.870115  1
  I  I75  1  0.870115  0.629885  0.370115  1
  I  I76  1  0.870115  0.870115  0.870115  1
  I  I77  1  0.629885  0.129885  0.370115  1
  I  I78  1  0.370115  0.629885  0.129885  1
  I  I79  1  0.129885  0.370115  0.629885  1
