# generated using pymatgen
data_Na3ErCl6
_symmetry_space_group_name_H-M   'P 1'
_cell_length_a   6.91223979
_cell_length_b   7.30777350
_cell_length_c   10.19204331
_cell_angle_alpha   90.00000000
_cell_angle_beta   90.76056142
_cell_angle_gamma   90.00000000
_symmetry_Int_Tables_number   1
_chemical_formula_structural   Na3ErCl6
_chemical_formula_sum   'Na6 Er2 Cl12'
_cell_volume   514.78616930
_cell_formula_units_Z   2
loop_
 _symmetry_equiv_pos_site_id
 _symmetry_equiv_pos_as_xyz
  1  'x, y, z'
loop_
 _atom_site_type_symbol
 _atom_site_label
 _atom_site_symmetry_multiplicity
 _atom_site_fract_x
 _atom_site_fract_y
 _atom_site_fract_z
 _atom_site_occupancy
  Na  Na0  1  0.000000  0.000000  0.500000  1
  Na  Na1  1  0.500000  0.500000  0.000000  1
  Na  Na2  1  0.522768  0.924531  0.242315  1
  Na  Na3  1  0.977232  0.424531  0.257685  1
  Na  Na4  1  0.477232  0.075469  0.757685  1
  Na  Na5  1  0.022768  0.575469  0.742315  1
  Er  Er6  1  0.000000  0.000000  0.000000  1
  Er  Er7  1  0.500000  0.500000  0.500000  1
  Cl  Cl8  1  0.137820  0.063894  0.238352  1
  Cl  Cl9  1  0.362180  0.563894  0.261648  1
  Cl  Cl10  1  0.862180  0.936106  0.761648  1
  Cl  Cl11  1  0.637820  0.436106  0.738352  1
  Cl  Cl12  1  0.687490  0.177944  0.064580  1
  Cl  Cl13  1  0.812510  0.677944  0.435420  1
  Cl  Cl14  1  0.312510  0.822056  0.935420  1
  Cl  Cl15  1  0.187490  0.322056  0.564580  1
  Cl  Cl16  1  0.167149  0.304433  0.923007  1
  Cl  Cl17  1  0.332851  0.804433  0.576993  1
  Cl  Cl18  1  0.832851  0.695567  0.076993  1
  Cl  Cl19  1  0.667149  0.195567  0.423007  1
