# generated using pymatgen
data_Li8GeO6
_symmetry_space_group_name_H-M   'P 1'
_cell_length_a   5.56193432
_cell_length_b   5.56193419
_cell_length_c   10.85065595
_cell_angle_alpha   90.00000000
_cell_angle_beta   90.00000000
_cell_angle_gamma   120.00000075
_symmetry_Int_Tables_number   1
_chemical_formula_structural   Li8GeO6
_chemical_formula_sum   'Li16 Ge2 O12'
_cell_volume   290.69551003
_cell_formula_units_Z   2
loop_
 _symmetry_equiv_pos_site_id
 _symmetry_equiv_pos_as_xyz
  1  'x, y, z'
loop_
 _atom_site_type_symbol
 _atom_site_label
 _atom_site_symmetry_multiplicity
 _atom_site_fract_x
 _atom_site_fract_y
 _atom_site_fract_z
 _atom_site_occupancy
  Ge  Ge0  1  0.000000  0.000000  0.999587  1
  Ge  Ge1  1  0.000000  0.000000  0.499587  1
  Li  Li2  1  0.333333  0.666667  0.410734  1
  Li  Li3  1  0.666667  0.333333  0.910734  1
  Li  Li4  1  0.333333  0.666667  0.910734  1
  Li  Li5  1  0.666667  0.333333  0.410734  1
  Li  Li6  1  0.397983  0.000000  0.630152  1
  Li  Li7  1  0.397983  0.397983  0.130152  1
  Li  Li8  1  1.000000  0.602017  0.130152  1
  Li  Li9  1  0.000000  0.397983  0.630152  1
  Li  Li10  1  0.602017  0.602017  0.630152  1
  Li  Li11  1  0.602017  0.000000  0.130152  1
  Li  Li12  1  0.311454  0.000000  0.270150  1
  Li  Li13  1  0.311454  0.311454  0.770150  1
  Li  Li14  1  1.000000  0.688546  0.770150  1
  Li  Li15  1  0.000000  0.311454  0.270150  1
  Li  Li16  1  0.688546  0.688546  0.270150  1
  Li  Li17  1  0.688546  0.000000  0.770150  1
  O  O18  1  0.000000  0.000000  0.167180  1
  O  O19  1  0.000000  0.000000  0.667180  1
  O  O20  1  0.333333  0.666667  0.219065  1
  O  O21  1  0.666667  0.333333  0.719065  1
  O  O22  1  0.333333  0.666667  0.719065  1
  O  O23  1  0.666667  0.333333  0.219065  1
  O  O24  1  0.305053  0.000000  0.452543  1
  O  O25  1  0.305053  0.305053  0.952543  1
  O  O26  1  0.000000  0.694947  0.952543  1
  O  O27  1  1.000000  0.305053  0.452543  1
  O  O28  1  0.694947  0.694947  0.452543  1
  O  O29  1  0.694947  0.000000  0.952543  1
