# generated using pymatgen
data_SrN6
_symmetry_space_group_name_H-M   'P 1'
_cell_length_a   6.18429495
_cell_length_b   6.59359021
_cell_length_c   6.79606141
_cell_angle_alpha   77.67985905
_cell_angle_beta   62.93563821
_cell_angle_gamma   62.03301960
_symmetry_Int_Tables_number   1
_chemical_formula_structural   SrN6
_chemical_formula_sum   'Sr2 N12'
_cell_volume   217.95624619
_cell_formula_units_Z   2
loop_
 _symmetry_equiv_pos_site_id
 _symmetry_equiv_pos_as_xyz
  1  'x, y, z'
loop_
 _atom_site_type_symbol
 _atom_site_label
 _atom_site_symmetry_multiplicity
 _atom_site_fract_x
 _atom_site_fract_y
 _atom_site_fract_z
 _atom_site_occupancy
  N  N0  1  0.835445  0.377370  0.500028  1
  N  N1  1  0.212843  0.122630  -0.000028  1
  N  N2  1  0.001003  0.250000  0.997994  1
  N  N3  1  0.748997  0.250000  0.502006  1
  N  N4  1  0.998997  0.750000  0.002006  1
  N  N5  1  0.251003  0.750000  0.497994  1
  N  N6  1  0.335473  0.877370  0.499972  1
  N  N7  1  0.212814  0.622630  1.000028  1
  N  N8  1  0.787157  0.877370  1.000028  1
  N  N9  1  0.164555  0.622630  0.499972  1
  N  N10  1  0.664527  0.122630  0.500028  1
  N  N11  1  0.787186  0.377370  -0.000028  1
  Sr  Sr12  1  0.625000  0.750000  0.750000  1
  Sr  Sr13  1  0.375000  0.250000  0.250000  1
