# generated using pymatgen
data_Rb3IO
_symmetry_space_group_name_H-M   'P 1'
_cell_length_a   8.04969218
_cell_length_b   8.04969218
_cell_length_c   20.01291711
_cell_angle_alpha   90.00000000
_cell_angle_beta   90.00000000
_cell_angle_gamma   120.00000000
_symmetry_Int_Tables_number   1
_chemical_formula_structural   Rb3IO
_chemical_formula_sum   'Rb18 I6 O6'
_cell_volume   1123.05124806
_cell_formula_units_Z   6
loop_
 _symmetry_equiv_pos_site_id
 _symmetry_equiv_pos_as_xyz
  1  'x, y, z'
loop_
 _atom_site_type_symbol
 _atom_site_label
 _atom_site_symmetry_multiplicity
 _atom_site_fract_x
 _atom_site_fract_y
 _atom_site_fract_z
 _atom_site_occupancy
  O  O0  1  0.333333  0.666667  0.658786  1
  O  O1  1  0.666667  0.333333  0.158786  1
  O  O2  1  0.666667  0.333333  0.341214  1
  O  O3  1  0.333333  0.666667  0.841214  1
  O  O4  1  0.000000  0.000000  0.500000  1
  O  O5  1  0.000000  0.000000  0.000000  1
  Rb  Rb6  1  0.331907  0.165954  0.418701  1
  Rb  Rb7  1  0.331907  0.165954  0.081299  1
  Rb  Rb8  1  0.834046  0.668093  0.081299  1
  Rb  Rb9  1  0.165954  0.331907  0.581299  1
  Rb  Rb10  1  0.668093  0.834046  0.581299  1
  Rb  Rb11  1  0.165954  0.834046  0.918701  1
  Rb  Rb12  1  0.834046  0.668093  0.418701  1
  Rb  Rb13  1  0.834046  0.165954  0.081299  1
  Rb  Rb14  1  0.834046  0.165954  0.418701  1
  Rb  Rb15  1  0.479629  0.520371  0.750000  1
  Rb  Rb16  1  0.668093  0.834046  0.918701  1
  Rb  Rb17  1  0.165954  0.331907  0.918701  1
  Rb  Rb18  1  0.520371  0.479629  0.250000  1
  Rb  Rb19  1  0.959258  0.479629  0.250000  1
  Rb  Rb20  1  0.520371  0.040742  0.250000  1
  Rb  Rb21  1  0.479629  0.959258  0.750000  1
  Rb  Rb22  1  0.040742  0.520371  0.750000  1
  Rb  Rb23  1  0.165954  0.834046  0.581299  1
  I  I24  1  0.333333  0.666667  0.410761  1
  I  I25  1  0.666667  0.333333  0.910761  1
  I  I26  1  0.666667  0.333333  0.589239  1
  I  I27  1  0.333333  0.666667  0.089239  1
  I  I28  1  0.000000  0.000000  0.750000  1
  I  I29  1  0.000000  0.000000  0.250000  1
