# generated using pymatgen
data_Rb3BiBr6
_symmetry_space_group_name_H-M   'P 1'
_cell_length_a   8.65541935
_cell_length_b   13.66525232
_cell_length_c   27.33745973
_cell_angle_alpha   90.00000000
_cell_angle_beta   90.00000000
_cell_angle_gamma   90.00000000
_symmetry_Int_Tables_number   1
_chemical_formula_structural   Rb3BiBr6
_chemical_formula_sum   'Rb24 Bi8 Br48'
_cell_volume   3233.43343962
_cell_formula_units_Z   8
loop_
 _symmetry_equiv_pos_site_id
 _symmetry_equiv_pos_as_xyz
  1  'x, y, z'
loop_
 _atom_site_type_symbol
 _atom_site_label
 _atom_site_symmetry_multiplicity
 _atom_site_fract_x
 _atom_site_fract_y
 _atom_site_fract_z
 _atom_site_occupancy
  Br  Br0  1  0.790376  0.771298  0.827903  1
  Br  Br1  1  0.826700  0.384774  0.431105  1
  Br  Br2  1  0.326700  0.115226  0.568895  1
  Br  Br3  1  0.673300  0.884774  0.068895  1
  Br  Br4  1  0.283227  0.435322  0.451686  1
  Br  Br5  1  0.173300  0.615226  0.568895  1
  Br  Br6  1  0.673300  0.884774  0.431105  1
  Br  Br7  1  0.326700  0.115226  0.931105  1
  Br  Br8  1  0.854971  0.361862  0.250000  1
  Br  Br9  1  0.354971  0.138138  0.750000  1
  Br  Br10  1  0.645029  0.861862  0.250000  1
  Br  Br11  1  0.145029  0.638138  0.750000  1
  Br  Br12  1  0.141267  0.976517  0.250000  1
  Br  Br13  1  0.641267  0.523483  0.750000  1
  Br  Br14  1  0.358733  0.476517  0.250000  1
  Br  Br15  1  0.858733  0.023483  0.750000  1
  Br  Br16  1  0.209624  0.228702  0.172097  1
  Br  Br17  1  0.709624  0.271298  0.827903  1
  Br  Br18  1  0.290376  0.728702  0.327903  1
  Br  Br19  1  0.790376  0.771298  0.672097  1
  Br  Br20  1  0.173300  0.615226  0.931105  1
  Br  Br21  1  0.290376  0.728702  0.172097  1
  Br  Br22  1  0.709624  0.271298  0.672097  1
  Br  Br23  1  0.209624  0.228702  0.327903  1
  Br  Br24  1  0.795541  0.110125  0.172166  1
  Br  Br25  1  0.295541  0.389875  0.827834  1
  Br  Br26  1  0.704459  0.610125  0.327834  1
  Br  Br27  1  0.204459  0.889875  0.672166  1
  Br  Br28  1  0.204459  0.889875  0.827834  1
  Br  Br29  1  0.704459  0.610125  0.172166  1
  Br  Br30  1  0.295541  0.389875  0.672166  1
  Br  Br31  1  0.795541  0.110125  0.327834  1
  Br  Br32  1  0.004039  0.669467  0.061766  1
  Br  Br33  1  0.504039  0.830533  0.938234  1
  Br  Br34  1  0.495961  0.169467  0.438234  1
  Br  Br35  1  0.995961  0.330533  0.561766  1
  Br  Br36  1  0.995961  0.330533  0.938234  1
  Br  Br37  1  0.495961  0.169467  0.061766  1
  Br  Br38  1  0.504039  0.830533  0.561766  1
  Br  Br39  1  0.004039  0.669467  0.438234  1
  Br  Br40  1  0.283227  0.435322  0.048314  1
  Br  Br41  1  0.783227  0.064678  0.951686  1
  Br  Br42  1  0.216773  0.935322  0.451686  1
  Br  Br43  1  0.716773  0.564678  0.548314  1
  Br  Br44  1  0.716773  0.564678  0.951686  1
  Br  Br45  1  0.216773  0.935322  0.048314  1
  Br  Br46  1  0.783227  0.064678  0.548314  1
  Br  Br47  1  0.826700  0.384774  0.068895  1
  Rb  Rb48  1  0.566069  0.344426  0.341071  1
  Rb  Rb49  1  0.063204  0.178660  0.046163  1
  Rb  Rb50  1  0.563204  0.321340  0.953837  1
  Rb  Rb51  1  0.436796  0.678660  0.453837  1
  Rb  Rb52  1  0.936796  0.821340  0.546163  1
  Rb  Rb53  1  0.936796  0.821340  0.953837  1
  Rb  Rb54  1  0.436796  0.678660  0.046163  1
  Rb  Rb55  1  0.563204  0.321340  0.546163  1
  Rb  Rb56  1  0.069802  0.493768  0.159251  1
  Rb  Rb57  1  0.569802  0.006232  0.840749  1
  Rb  Rb58  1  0.430198  0.993768  0.340749  1
  Rb  Rb59  1  0.930198  0.506232  0.659251  1
  Rb  Rb60  1  0.930198  0.506232  0.840749  1
  Rb  Rb61  1  0.430198  0.993768  0.159251  1
  Rb  Rb62  1  0.569802  0.006232  0.659251  1
  Rb  Rb63  1  0.069802  0.493768  0.340749  1
  Rb  Rb64  1  0.063204  0.178660  0.453837  1
  Rb  Rb65  1  0.066069  0.155574  0.841071  1
  Rb  Rb66  1  0.933931  0.844426  0.341071  1
  Rb  Rb67  1  0.433931  0.655574  0.658929  1
  Rb  Rb68  1  0.433931  0.655574  0.841071  1
  Rb  Rb69  1  0.933931  0.844426  0.158929  1
  Rb  Rb70  1  0.066069  0.155574  0.658929  1
  Rb  Rb71  1  0.566069  0.344426  0.158929  1
  Bi  Bi72  1  0.000000  0.500000  0.500000  1
  Bi  Bi73  1  0.500000  0.000000  0.500000  1
  Bi  Bi74  1  0.500000  0.000000  0.000000  1
  Bi  Bi75  1  0.000000  0.500000  0.000000  1
  Bi  Bi76  1  0.002545  0.830499  0.750000  1
  Bi  Bi77  1  0.502545  0.669501  0.250000  1
  Bi  Bi78  1  0.497455  0.330499  0.750000  1
  Bi  Bi79  1  0.997455  0.169501  0.250000  1
