# generated using pymatgen
data_Pb9(Br5O2)2
_symmetry_space_group_name_H-M   'P 1'
_cell_length_a   8.64829632
_cell_length_b   12.56246597
_cell_length_c   12.56246597
_cell_angle_alpha   90.00000000
_cell_angle_beta   90.00000000
_cell_angle_gamma   90.00000000
_symmetry_Int_Tables_number   1
_chemical_formula_structural   Pb9(Br5O2)2
_chemical_formula_sum   'Pb18 Br20 O8'
_cell_volume   1364.83565109
_cell_formula_units_Z   2
loop_
 _symmetry_equiv_pos_site_id
 _symmetry_equiv_pos_as_xyz
  1  'x, y, z'
loop_
 _atom_site_type_symbol
 _atom_site_label
 _atom_site_symmetry_multiplicity
 _atom_site_fract_x
 _atom_site_fract_y
 _atom_site_fract_z
 _atom_site_occupancy
  O  O0  1  0.624450  0.293570  0.859919  1
  O  O1  1  0.624450  0.640081  0.293570  1
  O  O2  1  0.624450  0.859919  0.206430  1
  O  O3  1  0.624450  0.206430  0.640081  1
  O  O4  1  0.375550  0.706430  0.140081  1
  O  O5  1  0.375550  0.359919  0.706430  1
  O  O6  1  0.375550  0.140081  0.793570  1
  O  O7  1  0.375550  0.793570  0.359919  1
  Br  Br8  1  0.120252  0.750000  0.750000  1
  Br  Br9  1  0.879748  0.250000  0.250000  1
  Br  Br10  1  0.408487  0.937541  0.628921  1
  Br  Br11  1  0.408487  0.871079  0.937541  1
  Br  Br12  1  0.408487  0.628921  0.562459  1
  Br  Br13  1  0.408487  0.562459  0.871079  1
  Br  Br14  1  0.591513  0.062459  0.371079  1
  Br  Br15  1  0.591513  0.128921  0.062459  1
  Br  Br16  1  0.591513  0.371079  0.437541  1
  Br  Br17  1  0.591513  0.437541  0.128921  1
  Br  Br18  1  0.000000  0.750000  0.250000  1
  Br  Br19  1  0.000000  0.250000  0.750000  1
  Br  Br20  1  0.128719  0.457549  0.124797  1
  Br  Br21  1  0.128719  0.375203  0.457549  1
  Br  Br22  1  0.128719  0.124797  0.042451  1
  Br  Br23  1  0.128719  0.042451  0.375203  1
  Br  Br24  1  0.871281  0.542451  0.875203  1
  Br  Br25  1  0.871281  0.624797  0.542451  1
  Br  Br26  1  0.871281  0.875203  0.957549  1
  Br  Br27  1  0.871281  0.957549  0.624797  1
  Pb  Pb28  1  0.800022  0.750000  0.750000  1
  Pb  Pb29  1  0.199978  0.250000  0.250000  1
  Pb  Pb30  1  0.805598  0.325649  0.990045  1
  Pb  Pb31  1  0.805598  0.509955  0.325649  1
  Pb  Pb32  1  0.805598  0.990045  0.174351  1
  Pb  Pb33  1  0.805598  0.174351  0.509955  1
  Pb  Pb34  1  0.194402  0.674351  0.009955  1
  Pb  Pb35  1  0.194402  0.490045  0.674351  1
  Pb  Pb36  1  0.194402  0.009955  0.825649  1
  Pb  Pb37  1  0.194402  0.825649  0.490045  1
  Pb  Pb38  1  0.644040  0.111945  0.801479  1
  Pb  Pb39  1  0.644040  0.698521  0.111945  1
  Pb  Pb40  1  0.644040  0.801479  0.388055  1
  Pb  Pb41  1  0.644040  0.388055  0.698521  1
  Pb  Pb42  1  0.355960  0.888055  0.198521  1
  Pb  Pb43  1  0.355960  0.301479  0.888055  1
  Pb  Pb44  1  0.355960  0.198521  0.611945  1
  Pb  Pb45  1  0.355960  0.611945  0.301479  1
