# generated using pymatgen
data_P2Pb3S8
_symmetry_space_group_name_H-M   'P 1'
_cell_length_a   11.19321314
_cell_length_b   11.19321314
_cell_length_c   11.19321314
_cell_angle_alpha   90.00000000
_cell_angle_beta   90.00000000
_cell_angle_gamma   90.00000000
_symmetry_Int_Tables_number   1
_chemical_formula_structural   P2Pb3S8
_chemical_formula_sum   'P8 Pb12 S32'
_cell_volume   1402.37551620
_cell_formula_units_Z   4
loop_
 _symmetry_equiv_pos_site_id
 _symmetry_equiv_pos_as_xyz
  1  'x, y, z'
loop_
 _atom_site_type_symbol
 _atom_site_label
 _atom_site_symmetry_multiplicity
 _atom_site_fract_x
 _atom_site_fract_y
 _atom_site_fract_z
 _atom_site_occupancy
  P  P0  1  0.152806  0.347194  0.652806  1
  P  P1  1  0.347194  0.652806  0.152806  1
  P  P2  1  0.652806  0.152806  0.347194  1
  P  P3  1  0.847194  0.847194  0.847194  1
  P  P4  1  0.425857  0.074143  0.925857  1
  P  P5  1  0.074143  0.925857  0.425857  1
  P  P6  1  0.925857  0.425857  0.074143  1
  P  P7  1  0.574143  0.574143  0.574143  1
  S  S8  1  0.444734  0.728787  0.290460  1
  S  S9  1  0.055266  0.271213  0.790460  1
  S  S10  1  0.271213  0.790460  0.055266  1
  S  S11  1  0.790460  0.055266  0.271213  1
  S  S12  1  0.771213  0.709540  0.944734  1
  S  S13  1  0.944734  0.771213  0.709540  1
  S  S14  1  0.228787  0.209540  0.555266  1
  S  S15  1  0.728787  0.290460  0.444734  1
  S  S16  1  0.555266  0.228787  0.209540  1
  S  S17  1  0.290460  0.444734  0.728787  1
  S  S18  1  0.209540  0.555266  0.228787  1
  S  S19  1  0.709540  0.944734  0.771213  1
  S  S20  1  0.466175  0.466175  0.466175  1
  S  S21  1  0.033825  0.533825  0.966175  1
  S  S22  1  0.966175  0.033825  0.533825  1
  S  S23  1  0.533825  0.966175  0.033825  1
  S  S24  1  0.951942  0.951942  0.951942  1
  S  S25  1  0.548058  0.048058  0.451942  1
  S  S26  1  0.451942  0.548058  0.048058  1
  S  S27  1  0.048058  0.451942  0.548058  1
  S  S28  1  0.092445  0.004301  0.261240  1
  S  S29  1  0.261240  0.092445  0.004301  1
  S  S30  1  0.004301  0.261240  0.092445  1
  S  S31  1  0.495699  0.738760  0.592445  1
  S  S32  1  0.761240  0.407555  0.995699  1
  S  S33  1  0.995699  0.761240  0.407555  1
  S  S34  1  0.238760  0.907555  0.504301  1
  S  S35  1  0.738760  0.592445  0.495699  1
  S  S36  1  0.504301  0.238760  0.907555  1
  S  S37  1  0.592445  0.495699  0.738760  1
  S  S38  1  0.907555  0.504301  0.238760  1
  S  S39  1  0.407555  0.995699  0.761240  1
  Pb  Pb40  1  0.031211  0.736127  0.141083  1
  Pb  Pb41  1  0.531211  0.763873  0.858917  1
  Pb  Pb42  1  0.968789  0.236127  0.358917  1
  Pb  Pb43  1  0.763873  0.858917  0.531211  1
  Pb  Pb44  1  0.358917  0.968789  0.236127  1
  Pb  Pb45  1  0.858917  0.531211  0.763873  1
  Pb  Pb46  1  0.736127  0.141083  0.031211  1
  Pb  Pb47  1  0.141083  0.031211  0.736127  1
  Pb  Pb48  1  0.236127  0.358917  0.968789  1
  Pb  Pb49  1  0.263873  0.641083  0.468789  1
  Pb  Pb50  1  0.641083  0.468789  0.263873  1
  Pb  Pb51  1  0.468789  0.263873  0.641083  1
