# generated using pymatgen
data_RbLi7Ge8
_symmetry_space_group_name_H-M   'P 1'
_cell_length_a   9.75152025
_cell_length_b   9.75152025
_cell_length_c   16.60010787
_cell_angle_alpha   90.00000000
_cell_angle_beta   90.00000000
_cell_angle_gamma   119.99999998
_symmetry_Int_Tables_number   1
_chemical_formula_structural   RbLi7Ge8
_chemical_formula_sum   'Rb4 Li28 Ge32'
_cell_volume   1367.05565472
_cell_formula_units_Z   4
loop_
 _symmetry_equiv_pos_site_id
 _symmetry_equiv_pos_as_xyz
  1  'x, y, z'
loop_
 _atom_site_type_symbol
 _atom_site_label
 _atom_site_symmetry_multiplicity
 _atom_site_fract_x
 _atom_site_fract_y
 _atom_site_fract_z
 _atom_site_occupancy
  Li  Li0  1  0.559907  0.440093  0.943886  1
  Li  Li1  1  0.119813  0.559907  0.443886  1
  Li  Li2  1  0.440093  0.880187  0.443886  1
  Li  Li3  1  0.559907  0.119813  0.943886  1
  Li  Li4  1  0.880187  0.440093  0.943886  1
  Li  Li5  1  0.440093  0.559907  0.443886  1
  Li  Li6  1  0.522113  0.477887  0.310189  1
  Li  Li7  1  0.044227  0.522113  0.810189  1
  Li  Li8  1  0.477887  0.955773  0.810189  1
  Li  Li9  1  0.522113  0.044227  0.310189  1
  Li  Li10  1  0.955773  0.477887  0.310189  1
  Li  Li11  1  0.477887  0.522113  0.810189  1
  Li  Li12  1  0.160871  0.839129  0.084055  1
  Li  Li13  1  0.321743  0.160871  0.584055  1
  Li  Li14  1  0.839129  0.678257  0.584055  1
  Li  Li15  1  0.160871  0.321743  0.084055  1
  Li  Li16  1  0.678257  0.839129  0.084055  1
  Li  Li17  1  0.839129  0.160871  0.584055  1
  Li  Li18  1  0.833926  0.166074  0.400032  1
  Li  Li19  1  0.667853  0.833926  0.900032  1
  Li  Li20  1  0.166074  0.332147  0.900032  1
  Li  Li21  1  0.833926  0.667853  0.400032  1
  Li  Li22  1  0.332147  0.166074  0.400032  1
  Li  Li23  1  0.166074  0.833926  0.900032  1
  Li  Li24  1  0.000000  0.000000  0.653457  1
  Li  Li25  1  0.000000  0.000000  0.153457  1
  Li  Li26  1  0.000000  0.000000  0.834572  1
  Li  Li27  1  0.000000  0.000000  0.334572  1
  Ge  Ge28  1  0.666667  0.333333  0.377166  1
  Ge  Ge29  1  0.333333  0.666667  0.877166  1
  Ge  Ge30  1  0.578501  0.421499  0.506966  1
  Ge  Ge31  1  0.157002  0.578501  0.006966  1
  Ge  Ge32  1  0.421499  0.842998  0.006966  1
  Ge  Ge33  1  0.578501  0.157002  0.506966  1
  Ge  Ge34  1  0.842998  0.421499  0.506966  1
  Ge  Ge35  1  0.421499  0.578501  0.006966  1
  Ge  Ge36  1  0.348152  0.174076  0.867724  1
  Ge  Ge37  1  0.174076  0.348152  0.367724  1
  Ge  Ge38  1  0.174076  0.825924  0.367724  1
  Ge  Ge39  1  0.825924  0.174076  0.867724  1
  Ge  Ge40  1  0.825924  0.651848  0.867724  1
  Ge  Ge41  1  0.651848  0.825924  0.367724  1
  Ge  Ge42  1  0.262612  0.265577  0.735119  1
  Ge  Ge43  1  0.734423  0.997035  0.735119  1
  Ge  Ge44  1  0.002965  0.737388  0.735119  1
  Ge  Ge45  1  0.997035  0.262612  0.235119  1
  Ge  Ge46  1  0.737388  0.734423  0.235119  1
  Ge  Ge47  1  0.265577  0.002965  0.235119  1
  Ge  Ge48  1  0.262612  0.997035  0.735119  1
  Ge  Ge49  1  0.265577  0.262612  0.235119  1
  Ge  Ge50  1  0.997035  0.734423  0.235119  1
  Ge  Ge51  1  0.002965  0.265577  0.735119  1
  Ge  Ge52  1  0.734423  0.737388  0.735119  1
  Ge  Ge53  1  0.737388  0.002965  0.235119  1
  Ge  Ge54  1  0.183615  0.091808  0.996283  1
  Ge  Ge55  1  0.091808  0.183615  0.496283  1
  Ge  Ge56  1  0.091808  0.908192  0.496283  1
  Ge  Ge57  1  0.908192  0.091808  0.996283  1
  Ge  Ge58  1  0.908192  0.816385  0.996283  1
  Ge  Ge59  1  0.816385  0.908192  0.496283  1
  Rb  Rb60  1  0.666667  0.333333  0.152139  1
  Rb  Rb61  1  0.333333  0.666667  0.652139  1
  Rb  Rb62  1  0.666667  0.333333  0.714592  1
  Rb  Rb63  1  0.333333  0.666667  0.214592  1
