# generated using pymatgen
data_Nb9As7Pd
_symmetry_space_group_name_H-M   'P 1'
_cell_length_a   16.79421764
_cell_length_b   16.79421764
_cell_length_c   3.59794146
_cell_angle_alpha   90.00000000
_cell_angle_beta   90.00000000
_cell_angle_gamma   120.00000000
_symmetry_Int_Tables_number   1
_chemical_formula_structural   Nb9As7Pd
_chemical_formula_sum   'Nb27 As21 Pd3'
_cell_volume   878.82879562
_cell_formula_units_Z   3
loop_
 _symmetry_equiv_pos_site_id
 _symmetry_equiv_pos_as_xyz
  1  'x, y, z'
loop_
 _atom_site_type_symbol
 _atom_site_label
 _atom_site_symmetry_multiplicity
 _atom_site_fract_x
 _atom_site_fract_y
 _atom_site_fract_z
 _atom_site_occupancy
  As  As0  1  0.000000  0.000000  0.500000  1
  As  As1  1  0.333333  0.666667  0.500000  1
  As  As2  1  0.666667  0.333333  0.000000  1
  As  As3  1  0.884727  0.373520  0.000000  1
  As  As4  1  0.626480  0.511206  0.000000  1
  As  As5  1  0.488794  0.115273  0.000000  1
  As  As6  1  0.710452  0.157158  0.000000  1
  As  As7  1  0.842842  0.553294  0.000000  1
  As  As8  1  0.446706  0.289548  0.000000  1
  As  As9  1  0.927091  0.195182  0.000000  1
  As  As10  1  0.804818  0.731909  0.000000  1
  As  As11  1  0.268091  0.072909  0.000000  1
  As  As12  1  0.512182  0.885611  0.500000  1
  As  As13  1  0.114389  0.626571  0.500000  1
  As  As14  1  0.373429  0.487818  0.500000  1
  As  As15  1  0.736954  0.930481  0.500000  1
  As  As16  1  0.069519  0.806473  0.500000  1
  As  As17  1  0.193527  0.263046  0.500000  1
  As  As18  1  0.552787  0.709622  0.500000  1
  As  As19  1  0.290378  0.843165  0.500000  1
  As  As20  1  0.156835  0.447213  0.500000  1
  Nb  Nb21  1  0.466633  0.754546  0.000000  1
  Nb  Nb22  1  0.245454  0.712087  0.000000  1
  Nb  Nb23  1  0.029460  0.674538  0.000000  1
  Nb  Nb24  1  0.325462  0.354922  0.000000  1
  Nb  Nb25  1  0.504964  0.577186  0.000000  1
  Nb  Nb26  1  0.645078  0.970540  0.000000  1
  Nb  Nb27  1  0.314140  0.202458  0.500000  1
  Nb  Nb28  1  0.888318  0.685860  0.500000  1
  Nb  Nb29  1  0.797542  0.111682  0.500000  1
  Nb  Nb30  1  0.873458  0.004948  0.000000  1
  Nb  Nb31  1  0.995052  0.868510  0.000000  1
  Nb  Nb32  1  0.131490  0.126542  0.000000  1
  Nb  Nb33  1  0.682570  0.799128  0.000000  1
  Nb  Nb34  1  0.200872  0.883442  0.000000  1
  Nb  Nb35  1  0.116558  0.317430  0.000000  1
  Nb  Nb36  1  0.355955  0.029951  0.500000  1
  Nb  Nb37  1  0.422814  0.927777  0.000000  1
  Nb  Nb38  1  0.072223  0.495036  0.000000  1
  Nb  Nb39  1  0.927731  0.505416  0.500000  1
  Nb  Nb40  1  0.494584  0.422315  0.500000  1
  Nb  Nb41  1  0.577685  0.072269  0.500000  1
  Nb  Nb42  1  0.753972  0.287594  0.500000  1
  Nb  Nb43  1  0.712406  0.466377  0.500000  1
  Nb  Nb44  1  0.533623  0.246028  0.500000  1
  Nb  Nb45  1  0.970049  0.326004  0.500000  1
  Nb  Nb46  1  0.673996  0.644045  0.500000  1
  Nb  Nb47  1  0.287913  0.533367  0.000000  1
  Pd  Pd48  1  0.844831  0.850451  0.500000  1
  Pd  Pd49  1  0.149549  0.994379  0.500000  1
  Pd  Pd50  1  0.005621  0.155169  0.500000  1
