# generated using pymatgen
data_Sb2MoSe
_symmetry_space_group_name_H-M   'P 1'
_cell_length_a   6.57442526
_cell_length_b   6.66347698
_cell_length_c   18.72269584
_cell_angle_alpha   94.43184196
_cell_angle_beta   90.00000000
_cell_angle_gamma   90.00000000
_symmetry_Int_Tables_number   1
_chemical_formula_structural   Sb2MoSe
_chemical_formula_sum   'Sb16 Mo8 Se8'
_cell_volume   817.76133765
_cell_formula_units_Z   8
loop_
 _symmetry_equiv_pos_site_id
 _symmetry_equiv_pos_as_xyz
  1  'x, y, z'
loop_
 _atom_site_type_symbol
 _atom_site_label
 _atom_site_symmetry_multiplicity
 _atom_site_fract_x
 _atom_site_fract_y
 _atom_site_fract_z
 _atom_site_occupancy
  Sb  Sb0  1  0.625282  0.924919  0.925780  1
  Sb  Sb1  1  0.125282  0.075081  0.574220  1
  Sb  Sb2  1  0.374718  0.075081  0.074220  1
  Sb  Sb3  1  0.874718  0.924919  0.425780  1
  Sb  Sb4  1  0.124553  0.924998  0.926002  1
  Sb  Sb5  1  0.624553  0.075002  0.573998  1
  Sb  Sb6  1  0.875447  0.075002  0.073998  1
  Sb  Sb7  1  0.375447  0.924998  0.426002  1
  Sb  Sb8  1  0.651650  0.798757  0.773085  1
  Sb  Sb9  1  0.151650  0.201243  0.726915  1
  Sb  Sb10  1  0.348350  0.201243  0.226915  1
  Sb  Sb11  1  0.848350  0.798757  0.273085  1
  Sb  Sb12  1  0.098239  0.798951  0.773366  1
  Sb  Sb13  1  0.598239  0.201049  0.726634  1
  Sb  Sb14  1  0.901761  0.201049  0.226634  1
  Sb  Sb15  1  0.401761  0.798951  0.273366  1
  Mo  Mo16  1  0.874760  0.674403  0.005626  1
  Mo  Mo17  1  0.374760  0.325597  0.494374  1
  Mo  Mo18  1  0.125240  0.325597  0.994374  1
  Mo  Mo19  1  0.625240  0.674403  0.505626  1
  Mo  Mo20  1  0.624386  0.325767  0.994569  1
  Mo  Mo21  1  0.124386  0.674233  0.505431  1
  Mo  Mo22  1  0.375614  0.674233  0.005431  1
  Mo  Mo23  1  0.875614  0.325767  0.494569  1
  Se  Se24  1  0.874578  0.412643  0.900368  1
  Se  Se25  1  0.374578  0.587357  0.599632  1
  Se  Se26  1  0.125422  0.587357  0.099632  1
  Se  Se27  1  0.625422  0.412643  0.400368  1
  Se  Se28  1  0.625025  0.587133  0.099814  1
  Se  Se29  1  0.125025  0.412867  0.400186  1
  Se  Se30  1  0.374975  0.412867  0.900186  1
  Se  Se31  1  0.874975  0.587133  0.599814  1
