# generated using pymatgen
data_MnO2
_symmetry_space_group_name_H-M   'P 1'
_cell_length_a   5.80764198
_cell_length_b   5.81121335
_cell_length_c   5.80773231
_cell_angle_alpha   60.01981669
_cell_angle_beta   89.99999314
_cell_angle_gamma   119.97966596
_symmetry_Int_Tables_number   1
_chemical_formula_structural   MnO2
_chemical_formula_sum   'Mn4 O8'
_cell_volume   138.68247169
_cell_formula_units_Z   4
loop_
 _symmetry_equiv_pos_site_id
 _symmetry_equiv_pos_as_xyz
  1  'x, y, z'
loop_
 _atom_site_type_symbol
 _atom_site_label
 _atom_site_symmetry_multiplicity
 _atom_site_fract_x
 _atom_site_fract_y
 _atom_site_fract_z
 _atom_site_occupancy
  Mn  Mn0  1  0.000000  0.500000  0.999999  1
  Mn  Mn1  1  0.999999  0.500000  0.500001  1
  Mn  Mn2  1  0.500000  0.000000  0.000000  1
  Mn  Mn3  1  0.000000  0.000000  0.000000  1
  O  O4  1  0.207266  0.471795  0.764103  1
  O  O5  1  0.235470  0.528206  0.235898  1
  O  O6  1  0.764099  0.028200  0.764519  1
  O  O7  1  0.235901  0.971800  0.792718  1
  O  O8  1  0.792736  0.528205  0.235898  1
  O  O9  1  0.764529  0.471795  0.764102  1
  O  O10  1  0.235900  0.971800  0.235481  1
  O  O11  1  0.764100  0.028200  0.207280  1
