# generated using pymatgen
data_NaAl6Fe3Si6B3O30F
_symmetry_space_group_name_H-M   'P 1'
_cell_length_a   9.56846067
_cell_length_b   9.56846067
_cell_length_c   9.56846067
_cell_angle_alpha   113.74496541
_cell_angle_beta   113.74496539
_cell_angle_gamma   113.74496541
_symmetry_Int_Tables_number   1
_chemical_formula_structural   NaAl6Fe3Si6B3O30F
_chemical_formula_sum   'Na1 Al6 Fe3 Si6 B3 O30 F1'
_cell_volume   542.15976371
_cell_formula_units_Z   1
loop_
 _symmetry_equiv_pos_site_id
 _symmetry_equiv_pos_as_xyz
  1  'x, y, z'
loop_
 _atom_site_type_symbol
 _atom_site_label
 _atom_site_symmetry_multiplicity
 _atom_site_fract_x
 _atom_site_fract_y
 _atom_site_fract_z
 _atom_site_occupancy
  B  B0  1  0.564712  0.564712  0.231989  1
  B  B1  1  0.564712  0.231989  0.564712  1
  B  B2  1  0.231989  0.564712  0.564712  1
  O  O3  1  0.585468  0.770220  0.968853  1
  O  O4  1  0.170844  0.501493  0.651063  1
  O  O5  1  0.501494  0.651065  0.170845  1
  O  O6  1  0.501493  0.170844  0.651063  1
  O  O7  1  0.170844  0.651065  0.501494  1
  O  O8  1  0.651064  0.501493  0.170845  1
  O  O9  1  0.361400  0.788712  0.075453  1
  O  O10  1  0.788713  0.075453  0.361400  1
  O  O11  1  0.075454  0.361401  0.788713  1
  O  O12  1  0.075453  0.788712  0.361400  1
  O  O13  1  0.788713  0.361401  0.075453  1
  O  O14  1  0.361400  0.075453  0.788713  1
  O  O15  1  0.968853  0.585467  0.770219  1
  O  O16  1  0.651064  0.170844  0.501493  1
  O  O17  1  0.770220  0.968854  0.585468  1
  O  O18  1  0.770219  0.585467  0.968853  1
  O  O19  1  0.585468  0.968854  0.770219  1
  O  O20  1  0.544798  0.544799  0.361405  1
  O  O21  1  0.361405  0.544799  0.544799  1
  O  O22  1  0.544798  0.361405  0.544798  1
  O  O23  1  0.791388  0.391640  0.391640  1
  O  O24  1  0.391641  0.791388  0.391640  1
  O  O25  1  0.968854  0.770220  0.585468  1
  O  O26  1  0.166913  0.166913  0.887536  1
  O  O27  1  0.887536  0.166913  0.166913  1
  O  O28  1  0.166913  0.887536  0.166913  1
  O  O29  1  0.262166  0.988043  0.988043  1
  O  O30  1  0.988043  0.262166  0.988043  1
  O  O31  1  0.988044  0.988043  0.262166  1
  O  O32  1  0.391640  0.391640  0.791387  1
  F  F33  1  0.769267  0.769267  0.769267  1
  Na  Na34  1  0.217126  0.217126  0.217126  1
  Al  Al35  1  0.345870  0.563806  0.904393  1
  Al  Al36  1  0.563806  0.904393  0.345869  1
  Al  Al37  1  0.563806  0.345871  0.904394  1
  Al  Al38  1  0.345870  0.904393  0.563806  1
  Al  Al39  1  0.904393  0.563806  0.345869  1
  Al  Al40  1  0.904394  0.345871  0.563807  1
  Si  Si41  1  0.996852  0.189500  0.806382  1
  Si  Si42  1  0.189500  0.806382  0.996852  1
  Si  Si43  1  0.996852  0.806382  0.189500  1
  Si  Si44  1  0.806383  0.189500  0.996852  1
  Si  Si45  1  0.189499  0.996852  0.806382  1
  Si  Si46  1  0.806382  0.996852  0.189500  1
  Fe  Fe47  1  0.548621  0.754113  0.548622  1
  Fe  Fe48  1  0.754113  0.548622  0.548622  1
  Fe  Fe49  1  0.548622  0.548622  0.754113  1
