# generated using pymatgen
data_RbAg5S3
_symmetry_space_group_name_H-M   'P 1'
_cell_length_a   13.71242495
_cell_length_b   13.71242495
_cell_length_c   8.15911000
_cell_angle_alpha   90.00000000
_cell_angle_beta   90.00000000
_cell_angle_gamma   120.00000001
_symmetry_Int_Tables_number   1
_chemical_formula_structural   RbAg5S3
_chemical_formula_sum   'Rb6 Ag30 S18'
_cell_volume   1328.62355359
_cell_formula_units_Z   6
loop_
 _symmetry_equiv_pos_site_id
 _symmetry_equiv_pos_as_xyz
  1  'x, y, z'
loop_
 _atom_site_type_symbol
 _atom_site_label
 _atom_site_symmetry_multiplicity
 _atom_site_fract_x
 _atom_site_fract_y
 _atom_site_fract_z
 _atom_site_occupancy
  S  S0  1  0.421118  0.891717  0.000000  1
  S  S1  1  0.108283  0.529401  0.000000  1
  S  S2  1  0.470599  0.578882  0.000000  1
  S  S3  1  0.754463  0.195384  0.000000  1
  S  S4  1  0.804616  0.559080  0.000000  1
  S  S5  1  0.440920  0.245537  0.000000  1
  S  S6  1  0.771909  0.886541  0.000000  1
  S  S7  1  0.113459  0.885368  0.000000  1
  S  S8  1  0.114632  0.228091  0.000000  1
  S  S9  1  0.558353  0.754560  0.500000  1
  S  S10  1  0.245440  0.803793  0.500000  1
  S  S11  1  0.196207  0.441647  0.500000  1
  S  S12  1  0.553338  0.105272  0.500000  1
  S  S13  1  0.894728  0.448066  0.500000  1
  S  S14  1  0.551934  0.446662  0.500000  1
  S  S15  1  0.862199  0.088054  0.500000  1
  S  S16  1  0.911946  0.774146  0.500000  1
  S  S17  1  0.225854  0.137801  0.500000  1
  Rb  Rb18  1  0.666667  0.333333  0.751012  1
  Rb  Rb19  1  0.666667  0.333333  0.248988  1
  Rb  Rb20  1  0.333333  0.666667  0.749846  1
  Rb  Rb21  1  0.333333  0.666667  0.250154  1
  Rb  Rb22  1  0.000000  0.000000  0.748694  1
  Rb  Rb23  1  0.000000  0.000000  0.251306  1
  Ag  Ag24  1  0.964371  0.300709  0.500000  1
  Ag  Ag25  1  0.336338  0.035629  0.500000  1
  Ag  Ag26  1  0.699291  0.663662  0.500000  1
  Ag  Ag27  1  0.967141  0.297606  0.000000  1
  Ag  Ag28  1  0.330465  0.032859  0.000000  1
  Ag  Ag29  1  0.702394  0.669535  0.000000  1
  Ag  Ag30  1  0.333371  0.203255  0.750025  1
  Ag  Ag31  1  0.869885  0.666629  0.249975  1
  Ag  Ag32  1  0.796745  0.130115  0.249975  1
  Ag  Ag33  1  0.796745  0.130115  0.750025  1
  Ag  Ag34  1  0.869885  0.666629  0.750025  1
  Ag  Ag35  1  0.333371  0.203255  0.249975  1
  Ag  Ag36  1  0.517660  0.518318  0.750603  1
  Ag  Ag37  1  0.000657  0.482340  0.249397  1
  Ag  Ag38  1  0.481682  0.999343  0.249397  1
  Ag  Ag39  1  0.481682  0.999343  0.750603  1
  Ag  Ag40  1  0.000657  0.482340  0.750603  1
  Ag  Ag41  1  0.517660  0.518318  0.249397  1
  Ag  Ag42  1  0.148808  0.334122  0.749498  1
  Ag  Ag43  1  0.185314  0.851192  0.250502  1
  Ag  Ag44  1  0.665878  0.814686  0.250502  1
  Ag  Ag45  1  0.665878  0.814686  0.749498  1
  Ag  Ag46  1  0.185314  0.851192  0.749498  1
  Ag  Ag47  1  0.148808  0.334122  0.250502  1
  Ag  Ag48  1  0.630066  0.958154  0.000000  1
  Ag  Ag49  1  0.041846  0.671912  0.000000  1
  Ag  Ag50  1  0.328088  0.369934  0.000000  1
  Ag  Ag51  1  0.625365  0.963684  0.500000  1
  Ag  Ag52  1  0.036316  0.661682  0.500000  1
  Ag  Ag53  1  0.338318  0.374635  0.500000  1
