# generated using pymatgen
data_KNaS
_symmetry_space_group_name_H-M   'P 1'
_cell_length_a   4.66617197
_cell_length_b   7.81392874
_cell_length_c   8.41723710
_cell_angle_alpha   90.00000000
_cell_angle_beta   90.00000000
_cell_angle_gamma   90.00000000
_symmetry_Int_Tables_number   1
_chemical_formula_structural   KNaS
_chemical_formula_sum   'K4 Na4 S4'
_cell_volume   306.90202044
_cell_formula_units_Z   4
loop_
 _symmetry_equiv_pos_site_id
 _symmetry_equiv_pos_as_xyz
  1  'x, y, z'
loop_
 _atom_site_type_symbol
 _atom_site_label
 _atom_site_symmetry_multiplicity
 _atom_site_fract_x
 _atom_site_fract_y
 _atom_site_fract_z
 _atom_site_occupancy
  K  K0  1  0.750000  0.986494  0.815299  1
  K  K1  1  0.250000  0.013506  0.184701  1
  K  K2  1  0.750000  0.486494  0.684701  1
  K  K3  1  0.250000  0.513506  0.315299  1
  Na  Na4  1  0.750000  0.853075  0.424432  1
  Na  Na5  1  0.250000  0.146925  0.575568  1
  Na  Na6  1  0.750000  0.353075  0.075568  1
  Na  Na7  1  0.250000  0.646925  0.924432  1
  S  S8  1  0.750000  0.720455  0.104509  1
  S  S9  1  0.250000  0.279545  0.895491  1
  S  S10  1  0.750000  0.220455  0.395491  1
  S  S11  1  0.250000  0.779545  0.604509  1
