# generated using pymatgen
data_BaNb2O6
_symmetry_space_group_name_H-M   'P 1'
_cell_length_a   3.99423356
_cell_length_b   6.17580884
_cell_length_c   10.71209857
_cell_angle_alpha   90.00000000
_cell_angle_beta   90.18974366
_cell_angle_gamma   90.00000000
_symmetry_Int_Tables_number   1
_chemical_formula_structural   BaNb2O6
_chemical_formula_sum   'Ba2 Nb4 O12'
_cell_volume   264.24055951
_cell_formula_units_Z   2
loop_
 _symmetry_equiv_pos_site_id
 _symmetry_equiv_pos_as_xyz
  1  'x, y, z'
loop_
 _atom_site_type_symbol
 _atom_site_label
 _atom_site_symmetry_multiplicity
 _atom_site_fract_x
 _atom_site_fract_y
 _atom_site_fract_z
 _atom_site_occupancy
  O  O0  1  0.002347  0.413787  0.150033  1
  O  O1  1  0.997652  0.913786  0.349967  1
  O  O2  1  0.997653  0.586213  0.849966  1
  O  O3  1  0.002348  0.086214  0.650034  1
  O  O4  1  0.498875  0.116398  0.197498  1
  O  O5  1  0.501124  0.616399  0.302502  1
  O  O6  1  0.498063  0.199123  0.463545  1
  O  O7  1  0.501937  0.699122  0.036456  1
  O  O8  1  0.501938  0.800878  0.536455  1
  O  O9  1  0.501125  0.883602  0.802501  1
  O  O10  1  0.498876  0.383601  0.697499  1
  O  O11  1  0.498063  0.300878  0.963545  1
  Nb  Nb12  1  0.517175  0.451870  0.149373  1
  Nb  Nb13  1  0.482824  0.951870  0.350627  1
  Nb  Nb14  1  0.482825  0.548130  0.850626  1
  Nb  Nb15  1  0.517176  0.048129  0.649374  1
  Ba  Ba16  1  0.000000  0.000000  0.000000  1
  Ba  Ba17  1  0.000001  0.500001  0.500000  1
