# generated using pymatgen
data_TmSiRu
_symmetry_space_group_name_H-M   'P 1'
_cell_length_a   4.27493949
_cell_length_b   6.91308427
_cell_length_c   7.12829807
_cell_angle_alpha   90.00000000
_cell_angle_beta   90.00000000
_cell_angle_gamma   90.00000000
_symmetry_Int_Tables_number   1
_chemical_formula_structural   TmSiRu
_chemical_formula_sum   'Tm4 Si4 Ru4'
_cell_volume   210.66271364
_cell_formula_units_Z   4
loop_
 _symmetry_equiv_pos_site_id
 _symmetry_equiv_pos_as_xyz
  1  'x, y, z'
loop_
 _atom_site_type_symbol
 _atom_site_label
 _atom_site_symmetry_multiplicity
 _atom_site_fract_x
 _atom_site_fract_y
 _atom_site_fract_z
 _atom_site_occupancy
  Si  Si0  1  0.250000  0.301451  0.893572  1
  Si  Si1  1  0.750000  0.698549  0.106428  1
  Si  Si2  1  0.250000  0.801451  0.606428  1
  Si  Si3  1  0.750000  0.198549  0.393572  1
  Ru  Ru4  1  0.750000  0.844989  0.434256  1
  Ru  Ru5  1  0.250000  0.155011  0.565744  1
  Ru  Ru6  1  0.750000  0.344989  0.065744  1
  Ru  Ru7  1  0.250000  0.655011  0.934256  1
  Tm  Tm8  1  0.250000  0.990600  0.187813  1
  Tm  Tm9  1  0.750000  0.009400  0.812187  1
  Tm  Tm10  1  0.250000  0.490600  0.312187  1
  Tm  Tm11  1  0.750000  0.509400  0.687813  1
