# generated using pymatgen
data_MgAlH4O2F5
_symmetry_space_group_name_H-M   'P 1'
_cell_length_a   6.62701911
_cell_length_b   7.14467221
_cell_length_c   7.14467221
_cell_angle_alpha   60.48266588
_cell_angle_beta   62.36912683
_cell_angle_gamma   62.36912682
_symmetry_Int_Tables_number   1
_chemical_formula_structural   MgAlH4O2F5
_chemical_formula_sum   'Mg2 Al2 H8 O4 F10'
_cell_volume   248.36389706
_cell_formula_units_Z   2
loop_
 _symmetry_equiv_pos_site_id
 _symmetry_equiv_pos_as_xyz
  1  'x, y, z'
loop_
 _atom_site_type_symbol
 _atom_site_label
 _atom_site_symmetry_multiplicity
 _atom_site_fract_x
 _atom_site_fract_y
 _atom_site_fract_z
 _atom_site_occupancy
  H  H0  1  0.720886  0.011771  0.795515  1
  H  H1  1  0.028172  0.488229  0.704485  1
  H  H2  1  0.279114  0.204485  0.988229  1
  H  H3  1  0.971828  0.295515  0.511771  1
  H  H4  1  0.720886  0.795515  0.011771  1
  H  H5  1  0.971828  0.511771  0.295515  1
  H  H6  1  0.279114  0.988229  0.204485  1
  H  H7  1  0.028172  0.704485  0.488229  1
  O  O8  1  0.132614  0.576868  0.576868  1
  O  O9  1  0.213650  0.076868  0.076868  1
  O  O10  1  0.786350  0.923132  0.923132  1
  O  O11  1  0.867386  0.423132  0.423132  1
  F  F12  1  0.188195  0.080187  0.667719  1
  F  F13  1  0.570918  0.750000  0.750000  1
  F  F14  1  0.429082  0.250000  0.250000  1
  F  F15  1  0.563899  0.167719  0.580187  1
  F  F16  1  0.436101  0.832281  0.419813  1
  F  F17  1  0.436101  0.419813  0.832281  1
  F  F18  1  0.563899  0.580187  0.167719  1
  F  F19  1  0.811805  0.919813  0.332281  1
  F  F20  1  0.811805  0.332281  0.919813  1
  F  F21  1  0.188195  0.667719  0.080187  1
  Mg  Mg22  1  0.500000  0.500000  0.500000  1
  Mg  Mg23  1  0.000000  0.000000  0.000000  1
  Al  Al24  1  0.500000  0.500000  0.000000  1
  Al  Al25  1  0.500000  0.000000  0.500000  1
