# generated using pymatgen
data_Gd2B3C2
_symmetry_space_group_name_H-M   'P 1'
_cell_length_a   3.42239209
_cell_length_b   3.71988570
_cell_length_c   7.06495319
_cell_angle_alpha   90.00000000
_cell_angle_beta   104.01696465
_cell_angle_gamma   90.00000000
_symmetry_Int_Tables_number   1
_chemical_formula_structural   Gd2B3C2
_chemical_formula_sum   'Gd2 B3 C2'
_cell_volume   87.26511892
_cell_formula_units_Z   1
loop_
 _symmetry_equiv_pos_site_id
 _symmetry_equiv_pos_as_xyz
  1  'x, y, z'
loop_
 _atom_site_type_symbol
 _atom_site_label
 _atom_site_symmetry_multiplicity
 _atom_site_fract_x
 _atom_site_fract_y
 _atom_site_fract_z
 _atom_site_occupancy
  Gd  Gd0  1  0.865148  0.000000  0.730296  1
  Gd  Gd1  1  0.134852  0.000000  0.269704  1
  B  B2  1  0.282626  0.500000  0.565253  1
  B  B3  1  0.717374  0.500000  0.434747  1
  B  B4  1  0.500000  0.500000  0.000000  1
  C  C5  1  0.394827  0.500000  0.789654  1
  C  C6  1  0.605173  0.500000  0.210346  1
