# generated using pymatgen
data_Cr2P
_symmetry_space_group_name_H-M   'P 1'
_cell_length_a   6.33064847
_cell_length_b   6.54809409
_cell_length_c   6.84225256
_cell_angle_alpha   118.58776034
_cell_angle_beta   117.55593636
_cell_angle_gamma   89.99999610
_symmetry_Int_Tables_number   1
_chemical_formula_structural   Cr2P
_chemical_formula_sum   'Cr12 P6'
_cell_volume   211.68897507
_cell_formula_units_Z   6
loop_
 _symmetry_equiv_pos_site_id
 _symmetry_equiv_pos_as_xyz
  1  'x, y, z'
loop_
 _atom_site_type_symbol
 _atom_site_label
 _atom_site_symmetry_multiplicity
 _atom_site_fract_x
 _atom_site_fract_y
 _atom_site_fract_z
 _atom_site_occupancy
  Cr  Cr0  1  0.373585  0.000000  0.000000  1
  Cr  Cr1  1  0.450050  0.500000  1.000000  1
  Cr  Cr2  1  0.635291  0.785345  0.570691  1
  Cr  Cr3  1  0.064600  0.214655  0.429309  1
  Cr  Cr4  1  0.555060  0.288114  0.576228  1
  Cr  Cr5  1  0.978831  0.711886  0.423772  1
  Cr  Cr6  1  0.742487  0.205105  1.000000  1
  Cr  Cr7  1  0.742487  0.794895  1.000000  1
  Cr  Cr8  1  0.253031  0.416601  0.250733  1
  Cr  Cr9  1  0.002298  0.583399  0.749267  1
  Cr  Cr10  1  0.253031  0.834131  0.250733  1
  Cr  Cr11  1  0.002298  0.165869  0.749267  1
  P  P12  1  0.026736  1.000000  1.000000  1
  P  P13  1  0.921315  0.500000  0.000000  1
  P  P14  1  0.334306  0.607073  0.670010  1
  P  P15  1  0.664295  0.392927  0.329990  1
  P  P16  1  0.334306  0.062938  0.670010  1
  P  P17  1  0.664295  0.937062  0.329990  1
