# generated using pymatgen
data_NaCrP2O7
_symmetry_space_group_name_H-M   'P 1'
_cell_length_a   7.39864529
_cell_length_b   8.00126100
_cell_length_c   9.61386211
_cell_angle_alpha   90.00000000
_cell_angle_beta   111.61032253
_cell_angle_gamma   90.00000000
_symmetry_Int_Tables_number   1
_chemical_formula_structural   NaCrP2O7
_chemical_formula_sum   'Na4 Cr4 P8 O28'
_cell_volume   529.12234745
_cell_formula_units_Z   4
loop_
 _symmetry_equiv_pos_site_id
 _symmetry_equiv_pos_as_xyz
  1  'x, y, z'
loop_
 _atom_site_type_symbol
 _atom_site_label
 _atom_site_symmetry_multiplicity
 _atom_site_fract_x
 _atom_site_fract_y
 _atom_site_fract_z
 _atom_site_occupancy
  O  O0  1  0.467054  0.912949  0.654026  1
  O  O1  1  0.532946  0.412949  0.845974  1
  O  O2  1  0.532946  0.087051  0.345974  1
  O  O3  1  0.467054  0.587051  0.154026  1
  O  O4  1  0.310708  0.800576  0.383667  1
  O  O5  1  0.689292  0.300576  0.116333  1
  O  O6  1  0.689292  0.199424  0.616333  1
  O  O7  1  0.310708  0.699424  0.883667  1
  O  O8  1  0.361559  0.606353  0.599693  1
  O  O9  1  0.638441  0.106353  0.900307  1
  O  O10  1  0.638441  0.393647  0.400307  1
  O  O11  1  0.361559  0.893647  0.099693  1
  O  O12  1  0.813965  0.864089  0.605455  1
  O  O13  1  0.186035  0.364089  0.894545  1
  O  O14  1  0.186035  0.135911  0.394545  1
  O  O15  1  0.813965  0.635911  0.105455  1
  O  O16  1  0.123284  0.653122  0.061213  1
  O  O17  1  0.876716  0.153122  0.438787  1
  O  O18  1  0.876716  0.346878  0.938787  1
  O  O19  1  0.123284  0.846878  0.561213  1
  O  O20  1  0.813228  0.786970  0.879785  1
  O  O21  1  0.186772  0.286970  0.620215  1
  O  O22  1  0.186772  0.213030  0.120215  1
  O  O23  1  0.813228  0.713030  0.379785  1
  O  O24  1  0.988415  0.915215  0.140415  1
  O  O25  1  0.011585  0.415215  0.359585  1
  O  O26  1  0.011585  0.084785  0.859585  1
  O  O27  1  0.988415  0.584785  0.640415  1
  Na  Na28  1  0.290161  0.025025  0.793779  1
  Na  Na29  1  0.709839  0.525025  0.706221  1
  Na  Na30  1  0.290161  0.474975  0.293779  1
  Na  Na31  1  0.709839  0.974975  0.206221  1
  P  P32  1  0.327672  0.710188  0.046782  1
  P  P33  1  0.926875  0.745006  0.546089  1
  P  P34  1  0.073125  0.254994  0.453911  1
  P  P35  1  0.926875  0.754994  0.046089  1
  P  P36  1  0.327672  0.789812  0.546782  1
  P  P37  1  0.672328  0.289812  0.953218  1
  P  P38  1  0.073125  0.245006  0.953911  1
  P  P39  1  0.672328  0.210188  0.453218  1
  Cr  Cr40  1  0.741707  0.506947  0.252114  1
  Cr  Cr41  1  0.258293  0.006947  0.247886  1
  Cr  Cr42  1  0.258293  0.493053  0.747886  1
  Cr  Cr43  1  0.741707  0.993053  0.752114  1
