# generated using pymatgen
data_U7Te12
_symmetry_space_group_name_H-M   'P 1'
_cell_length_a   12.42108704
_cell_length_b   12.42108705
_cell_length_c   4.19090591
_cell_angle_alpha   90.00000000
_cell_angle_beta   90.00000000
_cell_angle_gamma   120.00000000
_symmetry_Int_Tables_number   1
_chemical_formula_structural   U7Te12
_chemical_formula_sum   'U7 Te12'
_cell_volume   559.96096423
_cell_formula_units_Z   1
loop_
 _symmetry_equiv_pos_site_id
 _symmetry_equiv_pos_as_xyz
  1  'x, y, z'
loop_
 _atom_site_type_symbol
 _atom_site_label
 _atom_site_symmetry_multiplicity
 _atom_site_fract_x
 _atom_site_fract_y
 _atom_site_fract_z
 _atom_site_occupancy
  Te  Te0  1  0.743640  0.752393  0.000000  1
  Te  Te1  1  0.247607  0.991247  0.000000  1
  Te  Te2  1  0.008753  0.256360  0.000000  1
  Te  Te3  1  0.492593  0.863841  0.000000  1
  Te  Te4  1  0.136159  0.628752  0.000000  1
  Te  Te5  1  0.371248  0.507407  0.000000  1
  Te  Te6  1  0.860987  0.385673  0.500000  1
  Te  Te7  1  0.211960  0.208550  0.500000  1
  Te  Te8  1  0.996591  0.788040  0.500000  1
  Te  Te9  1  0.791450  0.003409  0.500000  1
  Te  Te10  1  0.524686  0.139013  0.500000  1
  Te  Te11  1  0.614327  0.475314  0.500000  1
  U  U12  1  0.724102  0.154976  0.000000  1
  U  U13  1  0.845024  0.569126  0.000000  1
  U  U14  1  0.430874  0.275898  0.000000  1
  U  U15  1  0.547887  0.707617  0.500000  1
  U  U16  1  0.292383  0.840270  0.500000  1
  U  U17  1  0.159730  0.452113  0.500000  1
  U  U18  1  0.000000  0.000000  0.000000  1
