# generated using pymatgen
data_Tl(ZnSb)2
_symmetry_space_group_name_H-M   'P 1'
_cell_length_a   7.09604223
_cell_length_b   7.09604223
_cell_length_c   7.09604223
_cell_angle_alpha   106.16865352
_cell_angle_beta   106.16865343
_cell_angle_gamma   116.29983602
_symmetry_Int_Tables_number   1
_chemical_formula_structural   Tl(ZnSb)2
_chemical_formula_sum   'Tl2 Zn4 Sb4'
_cell_volume   272.09552726
_cell_formula_units_Z   2
loop_
 _symmetry_equiv_pos_site_id
 _symmetry_equiv_pos_as_xyz
  1  'x, y, z'
loop_
 _atom_site_type_symbol
 _atom_site_label
 _atom_site_symmetry_multiplicity
 _atom_site_fract_x
 _atom_site_fract_y
 _atom_site_fract_z
 _atom_site_occupancy
  Zn  Zn0  1  0.776143  -0.006729  0.500040  1
  Zn  Zn1  1  -0.006729  0.493232  0.217129  1
  Zn  Zn2  1  0.493232  0.276103  0.499960  1
  Zn  Zn3  1  0.276103  0.776143  0.782871  1
  Sb  Sb4  1  0.836930  0.643982  0.499959  1
  Sb  Sb5  1  0.336971  0.836930  0.192948  1
  Sb  Sb6  1  0.643982  0.144023  0.807052  1
  Sb  Sb7  1  0.144023  0.336971  0.500041  1
  Tl  Tl8  1  0.752515  0.752515  0.000000  1
  Tl  Tl9  1  0.252429  0.252429  0.000000  1
