# generated using pymatgen
data_TaI2O
_symmetry_space_group_name_H-M   'P 1'
_cell_length_a   3.90328146
_cell_length_b   7.53353929
_cell_length_c   8.58397820
_cell_angle_alpha   104.28278436
_cell_angle_beta   103.14160748
_cell_angle_gamma   90.00000005
_symmetry_Int_Tables_number   1
_chemical_formula_structural   TaI2O
_chemical_formula_sum   'Ta2 I4 O2'
_cell_volume   237.78685793
_cell_formula_units_Z   2
loop_
 _symmetry_equiv_pos_site_id
 _symmetry_equiv_pos_as_xyz
  1  'x, y, z'
loop_
 _atom_site_type_symbol
 _atom_site_label
 _atom_site_symmetry_multiplicity
 _atom_site_fract_x
 _atom_site_fract_y
 _atom_site_fract_z
 _atom_site_occupancy
  O  O0  1  0.500055  0.286995  1.000110  1
  O  O1  1  0.499945  0.713005  -0.000110  1
  I  I2  1  0.883417  0.934613  0.766835  1
  I  I3  1  0.116583  0.065387  0.233165  1
  I  I4  1  0.856717  0.419167  0.713434  1
  I  I5  1  0.143283  0.580833  0.286566  1
  Ta  Ta6  1  0.000082  0.293606  0.000163  1
  Ta  Ta7  1  0.999918  0.706394  0.999837  1
