# generated using pymatgen
data_CsH7O4
_symmetry_space_group_name_H-M   'P 1'
_cell_length_a   6.08240954
_cell_length_b   8.77200293
_cell_length_c   10.03024198
_cell_angle_alpha   97.27204117
_cell_angle_beta   90.00000000
_cell_angle_gamma   90.00000000
_symmetry_Int_Tables_number   1
_chemical_formula_structural   CsH7O4
_chemical_formula_sum   'Cs4 H28 O16'
_cell_volume   530.85802818
_cell_formula_units_Z   4
loop_
 _symmetry_equiv_pos_site_id
 _symmetry_equiv_pos_as_xyz
  1  'x, y, z'
loop_
 _atom_site_type_symbol
 _atom_site_label
 _atom_site_symmetry_multiplicity
 _atom_site_fract_x
 _atom_site_fract_y
 _atom_site_fract_z
 _atom_site_occupancy
  H  H0  1  0.868875  0.509324  0.893148  1
  H  H1  1  0.368875  0.990676  0.606852  1
  H  H2  1  0.131125  0.490676  0.106852  1
  H  H3  1  0.631125  0.009324  0.393148  1
  H  H4  1  0.875670  0.370843  0.981673  1
  H  H5  1  0.375670  0.129157  0.518327  1
  H  H6  1  0.124330  0.629157  0.018327  1
  H  H7  1  0.624330  0.870843  0.481673  1
  H  H8  1  0.807934  0.206167  0.130821  1
  H  H9  1  0.307934  0.293833  0.369179  1
  H  H10  1  0.192066  0.793833  0.869179  1
  H  H11  1  0.692066  0.706167  0.630821  1
  H  H12  1  0.612014  0.163842  0.236150  1
  H  H13  1  0.112014  0.336158  0.263850  1
  H  H14  1  0.387986  0.836158  0.763850  1
  H  H15  1  0.887986  0.663842  0.736150  1
  H  H16  1  0.335576  0.052449  0.913702  1
  H  H17  1  0.835576  0.447551  0.586298  1
  H  H18  1  0.664424  0.947551  0.086298  1
  H  H19  1  0.164424  0.552449  0.413702  1
  H  H20  1  0.374939  0.752255  0.559914  1
  H  H21  1  0.874939  0.747745  0.940086  1
  H  H22  1  0.625061  0.247745  0.440086  1
  H  H23  1  0.125061  0.252255  0.059914  1
  H  H24  1  0.030227  0.665664  0.518878  1
  H  H25  1  0.530227  0.834336  0.981122  1
  H  H26  1  0.969773  0.334336  0.481122  1
  H  H27  1  0.469773  0.165664  0.018878  1
  O  O28  1  0.802620  0.405867  0.900761  1
  O  O29  1  0.302619  0.094133  0.599239  1
  O  O30  1  0.197380  0.594133  0.099239  1
  O  O31  1  0.697380  0.905867  0.400761  1
  O  O32  1  0.668321  0.141700  0.139242  1
  O  O33  1  0.168321  0.358300  0.360758  1
  O  O34  1  0.331679  0.858300  0.860758  1
  O  O35  1  0.831679  0.641700  0.639242  1
  O  O36  1  0.351983  0.163733  0.949107  1
  O  O37  1  0.851983  0.336267  0.550893  1
  O  O38  1  0.648017  0.836267  0.050893  1
  O  O39  1  0.148017  0.663733  0.449107  1
  O  O40  1  0.012639  0.312649  0.114765  1
  O  O41  1  0.512639  0.187351  0.385235  1
  O  O42  1  0.987361  0.687351  0.885235  1
  O  O43  1  0.487361  0.812649  0.614765  1
  Cs  Cs44  1  0.852186  0.069975  0.733724  1
  Cs  Cs45  1  0.352186  0.430025  0.766276  1
  Cs  Cs46  1  0.147814  0.930025  0.266276  1
  Cs  Cs47  1  0.647814  0.569975  0.233724  1
