# generated using pymatgen
data_SNCl
_symmetry_space_group_name_H-M   'P 1'
_cell_length_a   5.92171426
_cell_length_b   6.48889922
_cell_length_c   11.81546587
_cell_angle_alpha   90.00000000
_cell_angle_beta   90.00000000
_cell_angle_gamma   98.60096876
_symmetry_Int_Tables_number   1
_chemical_formula_structural   SNCl
_chemical_formula_sum   'S6 N6 Cl6'
_cell_volume   448.90817644
_cell_formula_units_Z   6
loop_
 _symmetry_equiv_pos_site_id
 _symmetry_equiv_pos_as_xyz
  1  'x, y, z'
loop_
 _atom_site_type_symbol
 _atom_site_label
 _atom_site_symmetry_multiplicity
 _atom_site_fract_x
 _atom_site_fract_y
 _atom_site_fract_z
 _atom_site_occupancy
  S  S0  1  0.034727  0.217951  0.870917  1
  S  S1  1  0.965273  0.782049  0.370917  1
  S  S2  1  0.965273  0.782049  0.129083  1
  S  S3  1  0.034727  0.217951  0.629083  1
  S  S4  1  0.878677  0.843368  0.750000  1
  S  S5  1  0.121323  0.156632  0.250000  1
  Cl  Cl6  1  0.718798  0.333319  0.915898  1
  Cl  Cl7  1  0.281202  0.666681  0.415898  1
  Cl  Cl8  1  0.281202  0.666681  0.084102  1
  Cl  Cl9  1  0.718798  0.333319  0.584102  1
  Cl  Cl10  1  0.514362  0.836046  0.750000  1
  Cl  Cl11  1  0.485638  0.163954  0.250000  1
  N  N12  1  0.964544  0.968710  0.863830  1
  N  N13  1  0.035456  0.031290  0.363830  1
  N  N14  1  0.035456  0.031290  0.136170  1
  N  N15  1  0.964544  0.968710  0.636170  1
  N  N16  1  0.102060  0.323727  0.750000  1
  N  N17  1  0.897940  0.676273  0.250000  1
