# generated using pymatgen
data_SbAs2Cl13
_symmetry_space_group_name_H-M   'P 1'
_cell_length_a   9.87918632
_cell_length_b   9.87918631
_cell_length_c   12.18304244
_cell_angle_alpha   90.00000000
_cell_angle_beta   90.00000000
_cell_angle_gamma   113.64517667
_symmetry_Int_Tables_number   1
_chemical_formula_structural   SbAs2Cl13
_chemical_formula_sum   'Sb2 As4 Cl26'
_cell_volume   1089.22038367
_cell_formula_units_Z   2
loop_
 _symmetry_equiv_pos_site_id
 _symmetry_equiv_pos_as_xyz
  1  'x, y, z'
loop_
 _atom_site_type_symbol
 _atom_site_label
 _atom_site_symmetry_multiplicity
 _atom_site_fract_x
 _atom_site_fract_y
 _atom_site_fract_z
 _atom_site_occupancy
  Cl  Cl0  1  0.074261  0.242475  0.099011  1
  Cl  Cl1  1  0.311000  0.377705  0.369684  1
  Cl  Cl2  1  0.332238  0.667762  0.107880  1
  Cl  Cl3  1  0.667762  0.332238  0.607880  1
  Cl  Cl4  1  0.088660  0.911340  0.890306  1
  Cl  Cl5  1  0.911340  0.088660  0.390306  1
  Cl  Cl6  1  0.310335  0.004766  0.117612  1
  Cl  Cl7  1  0.689665  0.995234  0.617612  1
  Cl  Cl8  1  0.995234  0.689665  0.117612  1
  Cl  Cl9  1  0.004766  0.310335  0.617612  1
  Cl  Cl10  1  0.425074  0.892394  0.882817  1
  Cl  Cl11  1  0.574926  0.107606  0.382817  1
  Cl  Cl12  1  0.107606  0.574926  0.882817  1
  Cl  Cl13  1  0.892394  0.425074  0.382817  1
  Cl  Cl14  1  0.622295  0.689000  0.369684  1
  Cl  Cl15  1  0.242475  0.074261  0.599011  1
  Cl  Cl16  1  0.757525  0.925739  0.099011  1
  Cl  Cl17  1  0.925739  0.757525  0.599011  1
  Cl  Cl18  1  0.735627  0.264373  0.091383  1
  Cl  Cl19  1  0.264373  0.735627  0.591383  1
  Cl  Cl20  1  0.860209  0.139791  0.865259  1
  Cl  Cl21  1  0.139791  0.860209  0.365259  1
  Cl  Cl22  1  0.558298  0.441702  0.166125  1
  Cl  Cl23  1  0.441702  0.558298  0.666125  1
  Cl  Cl24  1  0.377705  0.311000  0.869684  1
  Cl  Cl25  1  0.689000  0.622295  0.869684  1
  As  As26  1  0.552160  0.447840  0.350399  1
  As  As27  1  0.856956  0.143044  0.038359  1
  As  As28  1  0.447840  0.552160  0.850399  1
  As  As29  1  0.143044  0.856956  0.538359  1
  Sb  Sb30  1  0.790316  0.209684  0.500841  1
  Sb  Sb31  1  0.209684  0.790316  1.000841  1
