# generated using pymatgen
data_CeZn(BO2)5
_symmetry_space_group_name_H-M   'P 1'
_cell_length_a   7.68110140
_cell_length_b   8.84800619
_cell_length_c   9.55752905
_cell_angle_alpha   92.58028386
_cell_angle_beta   90.00000000
_cell_angle_gamma   90.00000000
_symmetry_Int_Tables_number   1
_chemical_formula_structural   CeZn(BO2)5
_chemical_formula_sum   'Ce4 Zn4 B20 O40'
_cell_volume   648.89435665
_cell_formula_units_Z   4
loop_
 _symmetry_equiv_pos_site_id
 _symmetry_equiv_pos_as_xyz
  1  'x, y, z'
loop_
 _atom_site_type_symbol
 _atom_site_label
 _atom_site_symmetry_multiplicity
 _atom_site_fract_x
 _atom_site_fract_y
 _atom_site_fract_z
 _atom_site_occupancy
  Ce  Ce0  1  0.684144  0.315887  0.262123  1
  Ce  Ce1  1  0.315856  0.684113  0.737877  1
  Ce  Ce2  1  0.184144  0.184113  0.237877  1
  Ce  Ce3  1  0.815856  0.815887  0.762123  1
  Zn  Zn4  1  0.412100  0.610021  0.122937  1
  Zn  Zn5  1  0.087900  0.110021  0.622937  1
  Zn  Zn6  1  0.587900  0.389979  0.877063  1
  Zn  Zn7  1  0.912100  0.889979  0.377063  1
  B  B8  1  0.597257  0.848597  0.002939  1
  B  B9  1  0.172962  0.985422  0.891625  1
  B  B10  1  0.032797  0.782578  0.053261  1
  B  B11  1  0.672962  0.514578  0.608375  1
  B  B12  1  0.827038  0.014578  0.108375  1
  B  B13  1  0.097257  0.651403  0.497061  1
  B  B14  1  0.467203  0.282578  0.553261  1
  B  B15  1  0.327038  0.485422  0.391625  1
  B  B16  1  0.402743  0.151403  0.997061  1
  B  B17  1  0.418882  0.087717  0.735770  1
  B  B18  1  0.967203  0.217422  0.946739  1
  B  B19  1  0.315229  0.928144  0.414576  1
  B  B20  1  0.902743  0.348597  0.502939  1
  B  B21  1  0.581118  0.912283  0.264230  1
  B  B22  1  0.684771  0.071856  0.585424  1
  B  B23  1  0.184771  0.428144  0.914576  1
  B  B24  1  0.532797  0.717422  0.446739  1
  B  B25  1  0.815229  0.571856  0.085424  1
  B  B26  1  0.918882  0.412283  0.764230  1
  B  B27  1  0.081118  0.587717  0.235770  1
  O  O28  1  0.957870  0.270392  0.386159  1
  O  O29  1  0.025094  0.085810  0.855004  1
  O  O30  1  0.783835  0.527092  0.736546  1
  O  O31  1  0.536611  0.817584  0.134281  1
  O  O32  1  0.542130  0.770392  0.886159  1
  O  O33  1  0.042130  0.729608  0.613841  1
  O  O34  1  0.474906  0.585810  0.355004  1
  O  O35  1  0.345975  0.497411  0.931466  1
  O  O36  1  0.106689  0.830336  0.916451  1
  O  O37  1  0.974906  0.914190  0.144996  1
  O  O38  1  0.776273  0.459096  0.487592  1
  O  O39  1  0.917413  0.513744  0.189307  1
  O  O40  1  0.716165  0.027092  0.236546  1
  O  O41  1  0.893311  0.169664  0.083549  1
  O  O42  1  0.276273  0.040904  0.012408  1
  O  O43  1  0.463389  0.182416  0.865719  1
  O  O44  1  0.417413  0.986256  0.310693  1
  O  O45  1  0.082587  0.486256  0.810693  1
  O  O46  1  0.151975  0.686840  0.130229  1
  O  O47  1  0.606689  0.669664  0.583549  1
  O  O48  1  0.651975  0.813160  0.369771  1
  O  O49  1  0.963389  0.317584  0.634281  1
  O  O50  1  0.845975  0.002589  0.568534  1
  O  O51  1  0.457870  0.229608  0.113841  1
  O  O52  1  0.582587  0.013744  0.689307  1
  O  O53  1  0.393311  0.330336  0.416451  1
  O  O54  1  0.525094  0.414190  0.644996  1
  O  O55  1  0.374115  0.810360  0.490228  1
  O  O56  1  0.348025  0.186840  0.630229  1
  O  O57  1  0.654025  0.502589  0.068534  1
  O  O58  1  0.216165  0.472908  0.263454  1
  O  O59  1  0.625885  0.189640  0.509772  1
  O  O60  1  0.154025  0.997411  0.431466  1
  O  O61  1  0.283835  0.972908  0.763454  1
  O  O62  1  0.848025  0.313160  0.869771  1
  O  O63  1  0.125885  0.310360  0.990228  1
  O  O64  1  0.874115  0.689640  0.009772  1
  O  O65  1  0.723727  0.959096  0.987592  1
  O  O66  1  0.223727  0.540904  0.512408  1
  O  O67  1  0.036611  0.682416  0.365719  1
