# generated using pymatgen
data_B2H5
_symmetry_space_group_name_H-M   'P 1'
_cell_length_a   6.00887760
_cell_length_b   9.01985660
_cell_length_c   10.37926013
_cell_angle_alpha   90.00000000
_cell_angle_beta   90.00000000
_cell_angle_gamma   105.95692546
_symmetry_Int_Tables_number   1
_chemical_formula_structural   B2H5
_chemical_formula_sum   'B16 H40'
_cell_volume   540.87201768
_cell_formula_units_Z   8
loop_
 _symmetry_equiv_pos_site_id
 _symmetry_equiv_pos_as_xyz
  1  'x, y, z'
loop_
 _atom_site_type_symbol
 _atom_site_label
 _atom_site_symmetry_multiplicity
 _atom_site_fract_x
 _atom_site_fract_y
 _atom_site_fract_z
 _atom_site_occupancy
  B  B0  1  0.168205  0.275802  0.411892  1
  B  B1  1  0.331795  0.224198  0.911892  1
  B  B2  1  0.831795  0.724198  0.588108  1
  B  B3  1  0.668205  0.775802  0.088108  1
  B  B4  1  0.172689  0.122223  0.297020  1
  B  B5  1  0.327311  0.377777  0.797020  1
  B  B6  1  0.827311  0.877777  0.702980  1
  B  B7  1  0.672689  0.622223  0.202980  1
  B  B8  1  0.018584  0.268887  0.270508  1
  B  B9  1  0.481416  0.231113  0.770508  1
  B  B10  1  0.981416  0.731113  0.729492  1
  B  B11  1  0.518584  0.768887  0.229492  1
  B  B12  1  0.854601  0.248444  0.421751  1
  B  B13  1  0.645399  0.251556  0.921751  1
  B  B14  1  0.145399  0.751556  0.578249  1
  B  B15  1  0.354601  0.748444  0.078249  1
  H  H16  1  0.317165  0.391389  0.431920  1
  H  H17  1  0.182835  0.108611  0.931920  1
  H  H18  1  0.682835  0.608611  0.568080  1
  H  H19  1  0.817165  0.891389  0.068080  1
  H  H20  1  0.242569  0.157820  0.426159  1
  H  H21  1  0.257431  0.342180  0.926159  1
  H  H22  1  0.757431  0.842180  0.573841  1
  H  H23  1  0.742569  0.657820  0.073841  1
  H  H24  1  0.348894  0.141580  0.237200  1
  H  H25  1  0.151106  0.358420  0.737200  1
  H  H26  1  0.651106  0.858420  0.762800  1
  H  H27  1  0.848894  0.641580  0.262800  1
  H  H28  1  0.064919  0.991572  0.320415  1
  H  H29  1  0.435081  0.508428  0.820415  1
  H  H30  1  0.935081  0.008428  0.679585  1
  H  H31  1  0.564919  0.491572  0.179585  1
  H  H32  1  0.008753  0.146373  0.207466  1
  H  H33  1  0.491247  0.353627  0.707466  1
  H  H34  1  0.991247  0.853627  0.792534  1
  H  H35  1  0.508753  0.646373  0.292534  1
  H  H36  1  0.076604  0.380187  0.203670  1
  H  H37  1  0.423396  0.119813  0.703670  1
  H  H38  1  0.923396  0.619813  0.796330  1
  H  H39  1  0.576604  0.880187  0.296330  1
  H  H40  1  0.801176  0.229370  0.288993  1
  H  H41  1  0.698824  0.270630  0.788993  1
  H  H42  1  0.198824  0.770630  0.711007  1
  H  H43  1  0.301176  0.729370  0.211007  1
  H  H44  1  0.799726  0.360957  0.453603  1
  H  H45  1  0.700274  0.139043  0.953603  1
  H  H46  1  0.200274  0.639043  0.546397  1
  H  H47  1  0.299726  0.860957  0.046397  1
  H  H48  1  0.729292  0.124309  0.451142  1
  H  H49  1  0.770708  0.375691  0.951142  1
  H  H50  1  0.270708  0.875691  0.548858  1
  H  H51  1  0.229292  0.624309  0.048858  1
  H  H52  1  0.032651  0.239239  0.507838  1
  H  H53  1  0.467349  0.260761  0.007838  1
  H  H54  1  0.967349  0.760761  0.492162  1
  H  H55  1  0.532651  0.739239  0.992162  1
