# generated using pymatgen
data_K4PbO3
_symmetry_space_group_name_H-M   'P 1'
_cell_length_a   6.67690147
_cell_length_b   11.71180947
_cell_length_c   18.93521980
_cell_angle_alpha   90.00000000
_cell_angle_beta   90.00000000
_cell_angle_gamma   90.00000000
_symmetry_Int_Tables_number   1
_chemical_formula_structural   K4PbO3
_chemical_formula_sum   'K32 Pb8 O24'
_cell_volume   1480.70763866
_cell_formula_units_Z   8
loop_
 _symmetry_equiv_pos_site_id
 _symmetry_equiv_pos_as_xyz
  1  'x, y, z'
loop_
 _atom_site_type_symbol
 _atom_site_label
 _atom_site_symmetry_multiplicity
 _atom_site_fract_x
 _atom_site_fract_y
 _atom_site_fract_z
 _atom_site_occupancy
  K  K0  1  0.232068  0.687441  0.556779  1
  K  K1  1  0.748757  0.054539  0.534301  1
  K  K2  1  0.126607  0.171891  0.351033  1
  K  K3  1  0.267932  0.187441  0.556779  1
  K  K4  1  0.767932  0.187441  0.943221  1
  K  K5  1  0.373393  0.828109  0.851033  1
  K  K6  1  0.050964  0.619920  0.799503  1
  K  K7  1  0.373393  0.671891  0.351033  1
  K  K8  1  0.626607  0.171891  0.148967  1
  K  K9  1  0.751243  0.554539  0.534301  1
  K  K10  1  0.732068  0.687441  0.943221  1
  K  K11  1  0.949036  0.119920  0.700497  1
  K  K12  1  0.126607  0.328109  0.851033  1
  K  K13  1  0.232068  0.812559  0.056779  1
  K  K14  1  0.251243  0.554539  0.965699  1
  K  K15  1  0.873393  0.828109  0.648967  1
  K  K16  1  0.267932  0.312559  0.056779  1
  K  K17  1  0.873393  0.671891  0.148967  1
  K  K18  1  0.748757  0.445461  0.034301  1
  K  K19  1  0.626607  0.328109  0.648967  1
  K  K20  1  0.248757  0.445461  0.465699  1
  K  K21  1  0.248757  0.054539  0.965699  1
  K  K22  1  0.550964  0.880080  0.200497  1
  K  K23  1  0.449036  0.380080  0.299503  1
  K  K24  1  0.251243  0.945461  0.465699  1
  K  K25  1  0.949036  0.380080  0.200497  1
  K  K26  1  0.751243  0.945461  0.034301  1
  K  K27  1  0.449036  0.119920  0.799503  1
  K  K28  1  0.767932  0.312559  0.443221  1
  K  K29  1  0.732068  0.812559  0.443221  1
  K  K30  1  0.550964  0.619920  0.700497  1
  K  K31  1  0.050964  0.880080  0.299503  1
  Pb  Pb32  1  0.888934  0.936687  0.845057  1
  Pb  Pb33  1  0.611066  0.063313  0.345057  1
  Pb  Pb34  1  0.388934  0.563313  0.154943  1
  Pb  Pb35  1  0.388934  0.936687  0.654943  1
  Pb  Pb36  1  0.111066  0.436687  0.654943  1
  Pb  Pb37  1  0.111066  0.063313  0.154943  1
  Pb  Pb38  1  0.888934  0.563313  0.345057  1
  Pb  Pb39  1  0.611066  0.436687  0.845057  1
  O  O40  1  0.613944  0.987528  0.900770  1
  O  O41  1  0.456120  0.894623  0.342215  1
  O  O42  1  0.456120  0.605377  0.842215  1
  O  O43  1  0.543880  0.394623  0.157785  1
  O  O44  1  0.956120  0.605377  0.657785  1
  O  O45  1  0.886056  0.012472  0.400770  1
  O  O46  1  0.113944  0.512472  0.099230  1
  O  O47  1  0.956579  0.150665  0.066697  1
  O  O48  1  0.456579  0.349335  0.933303  1
  O  O49  1  0.956579  0.349335  0.566697  1
  O  O50  1  0.613944  0.512472  0.400770  1
  O  O51  1  0.043421  0.849335  0.933303  1
  O  O52  1  0.386056  0.012472  0.099230  1
  O  O53  1  0.886056  0.487528  0.900770  1
  O  O54  1  0.043421  0.650665  0.433303  1
  O  O55  1  0.043880  0.105377  0.842215  1
  O  O56  1  0.043880  0.394623  0.342215  1
  O  O57  1  0.543421  0.650665  0.066697  1
  O  O58  1  0.113944  0.987528  0.599230  1
  O  O59  1  0.386056  0.487528  0.599230  1
  O  O60  1  0.456579  0.150665  0.433303  1
  O  O61  1  0.543880  0.105377  0.657785  1
  O  O62  1  0.543421  0.849335  0.566697  1
  O  O63  1  0.956120  0.894623  0.157785  1
