# generated using pymatgen
data_PaBr5
_symmetry_space_group_name_H-M   'P 1'
_cell_length_a   9.25292041
_cell_length_b   9.66663956
_cell_length_c   12.10646034
_cell_angle_alpha   90.00000000
_cell_angle_beta   90.00000000
_cell_angle_gamma   90.53794306
_symmetry_Int_Tables_number   1
_chemical_formula_structural   PaBr5
_chemical_formula_sum   'Pa4 Br20'
_cell_volume   1082.81033704
_cell_formula_units_Z   4
loop_
 _symmetry_equiv_pos_site_id
 _symmetry_equiv_pos_as_xyz
  1  'x, y, z'
loop_
 _atom_site_type_symbol
 _atom_site_label
 _atom_site_symmetry_multiplicity
 _atom_site_fract_x
 _atom_site_fract_y
 _atom_site_fract_z
 _atom_site_occupancy
  Br  Br0  1  0.544546  0.367311  0.850679  1
  Br  Br1  1  0.955454  0.132689  0.350679  1
  Br  Br2  1  0.455454  0.632689  0.149321  1
  Br  Br3  1  0.044546  0.867311  0.649321  1
  Br  Br4  1  0.962093  0.131784  0.892673  1
  Br  Br5  1  0.537907  0.368216  0.392673  1
  Br  Br6  1  0.037907  0.868216  0.107327  1
  Br  Br7  1  0.462093  0.631784  0.607327  1
  Br  Br8  1  0.129422  0.582269  0.876823  1
  Br  Br9  1  0.370578  0.917731  0.376823  1
  Br  Br10  1  0.870578  0.417731  0.123177  1
  Br  Br11  1  0.629422  0.082269  0.623177  1
  Br  Br12  1  0.770288  0.772353  0.873624  1
  Br  Br13  1  0.729712  0.727647  0.373624  1
  Br  Br14  1  0.229712  0.227647  0.126376  1
  Br  Br15  1  0.270288  0.272353  0.626376  1
  Br  Br16  1  0.322872  0.930819  0.877961  1
  Br  Br17  1  0.177128  0.569181  0.377961  1
  Br  Br18  1  0.677128  0.069181  0.122039  1
  Br  Br19  1  0.822872  0.430819  0.622039  1
  Pa  Pa20  1  0.548748  0.344855  0.632147  1
  Pa  Pa21  1  0.951252  0.155145  0.132147  1
  Pa  Pa22  1  0.451252  0.655145  0.367853  1
  Pa  Pa23  1  0.048748  0.844855  0.867853  1
