# generated using pymatgen
data_Cu2SO4
_symmetry_space_group_name_H-M   'P 1'
_cell_length_a   4.60599112
_cell_length_b   5.90323548
_cell_length_c   7.85210914
_cell_angle_alpha   83.42970848
_cell_angle_beta   72.94458827
_cell_angle_gamma   67.03776667
_symmetry_Int_Tables_number   1
_chemical_formula_structural   Cu2SO4
_chemical_formula_sum   'Cu4 S2 O8'
_cell_volume   187.93804201
_cell_formula_units_Z   2
loop_
 _symmetry_equiv_pos_site_id
 _symmetry_equiv_pos_as_xyz
  1  'x, y, z'
loop_
 _atom_site_type_symbol
 _atom_site_label
 _atom_site_symmetry_multiplicity
 _atom_site_fract_x
 _atom_site_fract_y
 _atom_site_fract_z
 _atom_site_occupancy
  O  O0  1  0.922427  0.406551  0.368190  1
  O  O1  1  0.197168  0.093449  0.131810  1
  O  O2  1  0.671022  0.406551  0.131810  1
  O  O3  1  0.709383  0.093449  0.368190  1
  O  O4  1  0.077573  0.593449  0.631810  1
  O  O5  1  0.802832  0.906551  0.868190  1
  O  O6  1  0.290617  0.906551  0.631810  1
  O  O7  1  0.328978  0.593449  0.868190  1
  S  S8  1  0.875000  0.250000  0.250000  1
  S  S9  1  0.125000  0.750000  0.750000  1
  Cu  Cu10  1  0.176712  0.250000  0.646576  1
  Cu  Cu11  1  0.573288  0.250000  0.853424  1
  Cu  Cu12  1  0.823288  0.750000  0.353424  1
  Cu  Cu13  1  0.426712  0.750000  0.146576  1
