# generated using pymatgen
data_NaFe(GeO3)2
_symmetry_space_group_name_H-M   'P 1'
_cell_length_a   5.57886807
_cell_length_b   6.80565957
_cell_length_c   6.80565957
_cell_angle_alpha   83.03394433
_cell_angle_beta   77.16623877
_cell_angle_gamma   77.16623879
_symmetry_Int_Tables_number   1
_chemical_formula_structural   NaFe(GeO3)2
_chemical_formula_sum   'Na2 Fe2 Ge4 O12'
_cell_volume   244.94309977
_cell_formula_units_Z   2
loop_
 _symmetry_equiv_pos_site_id
 _symmetry_equiv_pos_as_xyz
  1  'x, y, z'
loop_
 _atom_site_type_symbol
 _atom_site_label
 _atom_site_symmetry_multiplicity
 _atom_site_fract_x
 _atom_site_fract_y
 _atom_site_fract_z
 _atom_site_occupancy
  O  O0  1  0.004991  0.649963  0.628926  1
  O  O1  1  0.495009  0.371074  0.350037  1
  O  O2  1  0.995009  0.350037  0.371074  1
  O  O3  1  0.504991  0.628926  0.649963  1
  O  O4  1  0.301738  0.911168  0.371876  1
  O  O5  1  0.198262  0.628124  0.088832  1
  O  O6  1  0.698262  0.088832  0.628124  1
  O  O7  1  0.801738  0.371876  0.911168  1
  O  O8  1  0.629150  0.813802  0.976376  1
  O  O9  1  0.870850  0.023624  0.186198  1
  O  O10  1  0.370850  0.186198  0.023624  1
  O  O11  1  0.129150  0.976376  0.813802  1
  Na  Na12  1  0.750000  0.696130  0.303870  1
  Na  Na13  1  0.250000  0.303870  0.696130  1
  Fe  Fe14  1  0.750000  0.096996  0.903004  1
  Fe  Fe15  1  0.250000  0.903004  0.096996  1
  Ge  Ge16  1  0.723428  0.619146  0.807396  1
  Ge  Ge17  1  0.776572  0.192604  0.380854  1
  Ge  Ge18  1  0.276572  0.380854  0.192604  1
  Ge  Ge19  1  0.223428  0.807396  0.619146  1
