# generated using pymatgen
data_Pt2PbO4
_symmetry_space_group_name_H-M   'P 1'
_cell_length_a   5.74331616
_cell_length_b   6.22796700
_cell_length_c   6.77100860
_cell_angle_alpha   115.82981056
_cell_angle_beta   96.63217521
_cell_angle_gamma   109.58396754
_symmetry_Int_Tables_number   1
_chemical_formula_structural   Pt2PbO4
_chemical_formula_sum   'Pt4 Pb2 O8'
_cell_volume   195.37399975
_cell_formula_units_Z   2
loop_
 _symmetry_equiv_pos_site_id
 _symmetry_equiv_pos_as_xyz
  1  'x, y, z'
loop_
 _atom_site_type_symbol
 _atom_site_label
 _atom_site_symmetry_multiplicity
 _atom_site_fract_x
 _atom_site_fract_y
 _atom_site_fract_z
 _atom_site_occupancy
  O  O0  1  0.518498  0.862031  0.723317  1
  O  O1  1  0.481502  0.137969  0.276683  1
  O  O2  1  0.834561  0.831840  0.158580  1
  O  O3  1  0.165439  0.168160  0.841420  1
  O  O4  1  0.870216  0.655224  0.495135  1
  O  O5  1  0.129784  0.344776  0.504865  1
  O  O6  1  0.367770  0.603709  0.275085  1
  O  O7  1  0.632230  0.396291  0.724915  1
  Pt  Pt8  1  0.500000  0.500000  0.500000  1
  Pt  Pt9  1  0.000000  0.000000  0.500000  1
  Pt  Pt10  1  0.500000  0.500000  0.000000  1
  Pt  Pt11  1  0.500000  0.000000  0.500000  1
  Pb  Pb12  1  0.857200  0.248088  0.144104  1
  Pb  Pb13  1  0.142800  0.751912  0.855896  1
