# generated using pymatgen
data_P2Pd15
_symmetry_space_group_name_H-M   'P 1'
_cell_length_a   7.13851173
_cell_length_b   7.13851198
_cell_length_c   7.13851273
_cell_angle_alpha   60.81143232
_cell_angle_beta   60.81143116
_cell_angle_gamma   60.81142898
_symmetry_Int_Tables_number   1
_chemical_formula_structural   P2Pd15
_chemical_formula_sum   'P2 Pd15'
_cell_volume   261.92930785
_cell_formula_units_Z   1
loop_
 _symmetry_equiv_pos_site_id
 _symmetry_equiv_pos_as_xyz
  1  'x, y, z'
loop_
 _atom_site_type_symbol
 _atom_site_label
 _atom_site_symmetry_multiplicity
 _atom_site_fract_x
 _atom_site_fract_y
 _atom_site_fract_z
 _atom_site_occupancy
  Pd  Pd0  1  0.365327  0.846456  0.679616  1
  Pd  Pd1  1  0.679616  0.365327  0.846456  1
  Pd  Pd2  1  0.846456  0.679616  0.365327  1
  Pd  Pd3  1  0.634673  0.153544  0.320384  1
  Pd  Pd4  1  0.320384  0.634673  0.153544  1
  Pd  Pd5  1  0.153544  0.320384  0.634673  1
  Pd  Pd6  1  0.052782  0.774912  0.557979  1
  Pd  Pd7  1  0.557979  0.052782  0.774912  1
  Pd  Pd8  1  0.774912  0.557979  0.052782  1
  Pd  Pd9  1  0.947218  0.225088  0.442021  1
  Pd  Pd10  1  0.442021  0.947218  0.225088  1
  Pd  Pd11  1  0.225088  0.442021  0.947218  1
  Pd  Pd12  1  0.079427  0.079427  0.079427  1
  Pd  Pd13  1  0.920573  0.920573  0.920573  1
  Pd  Pd14  1  0.500000  0.500000  0.500000  1
  P  P15  1  0.285683  0.285683  0.285683  1
  P  P16  1  0.714317  0.714317  0.714317  1
