# generated using pymatgen
data_Nd2GeO5
_symmetry_space_group_name_H-M   'P 1'
_cell_length_a   7.05593220
_cell_length_b   7.32789485
_cell_length_c   10.18537968
_cell_angle_alpha   90.00000000
_cell_angle_beta   107.78106377
_cell_angle_gamma   90.00000000
_symmetry_Int_Tables_number   1
_chemical_formula_structural   Nd2GeO5
_chemical_formula_sum   'Nd8 Ge4 O20'
_cell_volume   501.47914964
_cell_formula_units_Z   4
loop_
 _symmetry_equiv_pos_site_id
 _symmetry_equiv_pos_as_xyz
  1  'x, y, z'
loop_
 _atom_site_type_symbol
 _atom_site_label
 _atom_site_symmetry_multiplicity
 _atom_site_fract_x
 _atom_site_fract_y
 _atom_site_fract_z
 _atom_site_occupancy
  Nd  Nd0  1  0.420095  0.149671  0.150178  1
  Nd  Nd1  1  0.079905  0.649671  0.849822  1
  Nd  Nd2  1  0.244660  0.619329  0.530919  1
  Nd  Nd3  1  0.579905  0.850329  0.849822  1
  Nd  Nd4  1  0.255340  0.119329  0.469081  1
  Nd  Nd5  1  0.744660  0.880671  0.530919  1
  Nd  Nd6  1  0.920095  0.350329  0.150178  1
  Nd  Nd7  1  0.755340  0.380671  0.469081  1
  Ge  Ge8  1  0.979175  0.866640  0.209310  1
  Ge  Ge9  1  0.520825  0.366640  0.790690  1
  Ge  Ge10  1  0.020825  0.133360  0.790690  1
  Ge  Ge11  1  0.479175  0.633360  0.209310  1
  O  O12  1  0.522754  0.640835  0.398881  1
  O  O13  1  0.815066  0.611821  0.971687  1
  O  O14  1  0.477246  0.359165  0.601119  1
  O  O15  1  0.749199  0.040346  0.177462  1
  O  O16  1  0.546448  0.116774  0.390216  1
  O  O17  1  0.453552  0.883226  0.609784  1
  O  O18  1  0.637453  0.422322  0.217229  1
  O  O19  1  0.862547  0.922322  0.782771  1
  O  O20  1  0.249199  0.459654  0.177462  1
  O  O21  1  0.184934  0.388179  0.028313  1
  O  O22  1  0.953552  0.616774  0.609784  1
  O  O23  1  0.250801  0.959654  0.822538  1
  O  O24  1  0.022754  0.859165  0.398881  1
  O  O25  1  0.315066  0.888179  0.971687  1
  O  O26  1  0.362547  0.577678  0.782771  1
  O  O27  1  0.137453  0.077678  0.217229  1
  O  O28  1  0.046448  0.383226  0.390216  1
  O  O29  1  0.750801  0.540346  0.822538  1
  O  O30  1  0.684934  0.111821  0.028313  1
  O  O31  1  0.977246  0.140835  0.601119  1
