# generated using pymatgen
data_ThTl3F7
_symmetry_space_group_name_H-M   'P 1'
_cell_length_a   8.58497967
_cell_length_b   9.93661105
_cell_length_c   10.87743024
_cell_angle_alpha   117.21653382
_cell_angle_beta   90.00000000
_cell_angle_gamma   90.00000000
_symmetry_Int_Tables_number   1
_chemical_formula_structural   ThTl3F7
_chemical_formula_sum   'Th4 Tl12 F28'
_cell_volume   825.17214192
_cell_formula_units_Z   4
loop_
 _symmetry_equiv_pos_site_id
 _symmetry_equiv_pos_as_xyz
  1  'x, y, z'
loop_
 _atom_site_type_symbol
 _atom_site_label
 _atom_site_symmetry_multiplicity
 _atom_site_fract_x
 _atom_site_fract_y
 _atom_site_fract_z
 _atom_site_occupancy
  F  F0  1  0.946007  0.641916  0.728473  1
  F  F1  1  0.446007  0.358084  0.271527  1
  F  F2  1  0.053993  0.358084  0.271527  1
  F  F3  1  0.553993  0.641916  0.728473  1
  F  F4  1  0.445105  0.913493  0.270994  1
  F  F5  1  0.945105  0.086507  0.729006  1
  F  F6  1  0.554895  0.086507  0.729006  1
  F  F7  1  0.054895  0.913493  0.270994  1
  F  F8  1  0.250000  0.051710  0.103381  1
  F  F9  1  0.750000  0.948290  0.896619  1
  F  F10  1  0.250000  0.178912  0.357253  1
  F  F11  1  0.750000  0.821088  0.642747  1
  F  F12  1  0.065925  0.777648  0.555069  1
  F  F13  1  0.565925  0.222352  0.444931  1
  F  F14  1  0.934075  0.222352  0.444931  1
  F  F15  1  0.434075  0.777648  0.555069  1
  F  F16  1  0.000181  0.129521  1.000038  1
  F  F17  1  0.500181  0.870479  -0.000038  1
  F  F18  1  0.999819  0.870479  -0.000038  1
  F  F19  1  0.499819  0.129521  1.000038  1
  F  F20  1  0.500000  0.500000  0.000000  1
  F  F21  1  0.000000  0.500000  0.000000  1
  F  F22  1  0.750000  0.363642  0.728416  1
  F  F23  1  0.250000  0.636358  0.271584  1
  F  F24  1  0.750000  0.979576  0.210797  1
  F  F25  1  0.250000  0.020424  0.789203  1
  F  F26  1  0.750000  0.230264  0.210225  1
  F  F27  1  0.250000  0.769736  0.789775  1
  Tl  Tl28  1  0.532775  0.636493  0.272867  1
  Tl  Tl29  1  0.032775  0.363507  0.727133  1
  Tl  Tl30  1  0.467225  0.363507  0.727133  1
  Tl  Tl31  1  0.967225  0.636493  0.272867  1
  Tl  Tl32  1  0.250000  0.975759  0.484921  1
  Tl  Tl33  1  0.750000  0.024241  0.515079  1
  Tl  Tl34  1  0.250000  0.508994  0.484896  1
  Tl  Tl35  1  0.750000  0.491006  0.515104  1
  Tl  Tl36  1  0.250000  0.707733  0.031322  1
  Tl  Tl37  1  0.750000  0.292267  0.968678  1
  Tl  Tl38  1  0.250000  0.323279  0.031050  1
  Tl  Tl39  1  0.750000  0.676721  0.968950  1
  Th  Th40  1  0.000956  0.891575  0.783178  1
  Th  Th41  1  0.500956  0.108425  0.216822  1
  Th  Th42  1  0.999044  0.108425  0.216822  1
  Th  Th43  1  0.499044  0.891575  0.783178  1
