# generated using pymatgen
data_EuPSe3
_symmetry_space_group_name_H-M   'P 1'
_cell_length_a   7.03601455
_cell_length_b   7.82108619
_cell_length_c   9.76927427
_cell_angle_alpha   90.00000000
_cell_angle_beta   91.92096951
_cell_angle_gamma   90.00000000
_symmetry_Int_Tables_number   1
_chemical_formula_structural   EuPSe3
_chemical_formula_sum   'Eu4 P4 Se12'
_cell_volume   537.29397095
_cell_formula_units_Z   4
loop_
 _symmetry_equiv_pos_site_id
 _symmetry_equiv_pos_as_xyz
  1  'x, y, z'
loop_
 _atom_site_type_symbol
 _atom_site_label
 _atom_site_symmetry_multiplicity
 _atom_site_fract_x
 _atom_site_fract_y
 _atom_site_fract_z
 _atom_site_occupancy
  P  P0  1  0.061704  0.894217  0.435764  1
  P  P1  1  0.438296  0.394217  0.064236  1
  P  P2  1  0.938296  0.105783  0.564236  1
  P  P3  1  0.561704  0.605783  0.935764  1
  Se  Se4  1  0.610464  0.492558  0.732276  1
  Se  Se5  1  0.889536  0.992558  0.767724  1
  Se  Se6  1  0.389536  0.507442  0.267724  1
  Se  Se7  1  0.110464  0.007442  0.232276  1
  Se  Se8  1  0.822843  0.699418  0.045721  1
  Se  Se9  1  0.677157  0.199418  0.454279  1
  Se  Se10  1  0.177157  0.300582  0.954279  1
  Se  Se11  1  0.322843  0.800582  0.545721  1
  Se  Se12  1  0.339563  0.806307  0.942243  1
  Se  Se13  1  0.160437  0.306307  0.557757  1
  Se  Se14  1  0.660437  0.193693  0.057757  1
  Se  Se15  1  0.839563  0.693693  0.442243  1
  Eu  Eu16  1  0.536972  0.887009  0.250924  1
  Eu  Eu17  1  0.963028  0.387009  0.249076  1
  Eu  Eu18  1  0.463028  0.112991  0.749076  1
  Eu  Eu19  1  0.036972  0.612991  0.750924  1
