# generated using pymatgen
data_CaV2P2O9
_symmetry_space_group_name_H-M   'P 1'
_cell_length_a   6.54399914
_cell_length_b   7.47301994
_cell_length_c   14.36389038
_cell_angle_alpha   89.99938338
_cell_angle_beta   89.99702927
_cell_angle_gamma   89.99228778
_symmetry_Int_Tables_number   1
_chemical_formula_structural   CaV2P2O9
_chemical_formula_sum   'Ca4 V8 P8 O36'
_cell_volume   702.44358708
_cell_formula_units_Z   4
loop_
 _symmetry_equiv_pos_site_id
 _symmetry_equiv_pos_as_xyz
  1  'x, y, z'
loop_
 _atom_site_type_symbol
 _atom_site_label
 _atom_site_symmetry_multiplicity
 _atom_site_fract_x
 _atom_site_fract_y
 _atom_site_fract_z
 _atom_site_occupancy
  Ca  Ca0  1  0.750010  0.888392  0.778565  1
  Ca  Ca1  1  0.750034  0.611618  0.278573  1
  Ca  Ca2  1  0.249965  0.388371  0.721431  1
  Ca  Ca3  1  0.249989  0.111612  0.221436  1
  V  V4  1  0.749999  0.351619  0.881164  1
  V  V5  1  0.250005  0.648388  0.118847  1
  V  V6  1  0.250001  0.851605  0.618834  1
  V  V7  1  0.750001  0.148400  0.381145  1
  V  V8  1  0.499992  0.999996  -0.000008  1
  V  V9  1  0.499998  0.499999  0.500007  1
  V  V10  1  0.000008  0.499993  0.500010  1
  V  V11  1  0.000001  0.999998  0.999990  1
  P  P12  1  0.249997  0.359446  0.932895  1
  P  P13  1  0.750006  0.640570  0.067118  1
  P  P14  1  0.750002  0.859474  0.567087  1
  P  P15  1  0.250001  0.140540  0.432914  1
  P  P16  1  0.749995  0.388915  0.691924  1
  P  P17  1  0.749993  0.111073  0.191923  1
  P  P18  1  0.250007  0.888915  0.808060  1
  P  P19  1  0.250004  0.611085  0.308086  1
  O  O20  1  0.054265  0.605325  0.369728  1
  O  O21  1  0.554262  0.394695  0.630286  1
  O  O22  1  0.945759  0.105305  0.130256  1
  O  O23  1  0.445749  0.894685  0.869733  1
  O  O24  1  0.945727  0.394673  0.630278  1
  O  O25  1  0.445745  0.605305  0.369720  1
  O  O26  1  0.054250  0.894689  0.869735  1
  O  O27  1  0.554240  0.105308  0.130259  1
  O  O28  1  0.249997  0.327146  0.482339  1
  O  O29  1  0.750006  0.672865  0.517661  1
  O  O30  1  0.750009  0.827157  0.017662  1
  O  O31  1  0.249989  0.172850  0.982342  1
  O  O32  1  0.749986  0.124303  0.945738  1
  O  O33  1  0.250010  0.875679  0.054245  1
  O  O34  1  0.249950  0.624257  0.554271  1
  O  O35  1  0.750051  0.375667  0.445758  1
  O  O36  1  0.750016  0.215419  0.751691  1
  O  O37  1  0.249985  0.784581  0.248318  1
  O  O38  1  0.250021  0.715418  0.748330  1
  O  O39  1  0.749979  0.284569  0.251661  1
  O  O40  1  0.435361  0.130478  0.366879  1
  O  O41  1  0.935342  0.869542  0.633106  1
  O  O42  1  0.564667  0.630488  0.133115  1
  O  O43  1  0.064656  0.369537  0.866906  1
  O  O44  1  0.564646  0.869546  0.633108  1
  O  O45  1  0.064657  0.130483  0.366880  1
  O  O46  1  0.435338  0.369518  0.866899  1
  O  O47  1  0.935344  0.630472  0.133109  1
  O  O48  1  0.750007  0.498579  0.991632  1
  O  O49  1  0.249984  0.041187  0.734255  1
  O  O50  1  0.250006  0.458795  0.234236  1
  O  O51  1  0.749992  0.541200  0.765773  1
  O  O52  1  0.749994  0.001428  0.491629  1
  O  O53  1  0.250007  0.998607  0.508348  1
  O  O54  1  0.249994  0.501433  0.008376  1
  O  O55  1  0.750017  0.958801  0.265735  1
