# generated using pymatgen
data_CsC8
_symmetry_space_group_name_H-M   'P 1'
_cell_length_a   4.97653788
_cell_length_b   4.97653788
_cell_length_c   18.38198853
_cell_angle_alpha   90.00000000
_cell_angle_beta   90.00000000
_cell_angle_gamma   119.99999998
_symmetry_Int_Tables_number   1
_chemical_formula_structural   CsC8
_chemical_formula_sum   'Cs3 C24'
_cell_volume   394.25549135
_cell_formula_units_Z   3
loop_
 _symmetry_equiv_pos_site_id
 _symmetry_equiv_pos_as_xyz
  1  'x, y, z'
loop_
 _atom_site_type_symbol
 _atom_site_label
 _atom_site_symmetry_multiplicity
 _atom_site_fract_x
 _atom_site_fract_y
 _atom_site_fract_z
 _atom_site_occupancy
  C  C0  1  0.166532  0.333112  0.333333  1
  C  C1  1  0.833420  0.166532  0.666666  1
  C  C2  1  0.333112  0.166580  0.999999  1
  C  C3  1  0.666888  0.833420  0.999999  1
  C  C4  1  0.166580  0.833468  0.666666  1
  C  C5  1  0.833420  0.666888  0.666667  1
  C  C6  1  0.833468  0.166580  0.000001  1
  C  C7  1  0.833468  0.666888  0.333333  1
  C  C8  1  0.333112  0.166532  0.333334  1
  C  C9  1  0.666888  0.833468  0.333334  1
  C  C10  1  0.166580  0.333112  0.666667  1
  C  C11  1  0.166532  0.833420  0.000001  1
  C  C12  1  0.166522  0.333043  0.000000  1
  C  C13  1  0.833478  0.166522  0.333333  1
  C  C14  1  0.333043  0.166522  0.666667  1
  C  C15  1  0.666957  0.833478  0.666667  1
  C  C16  1  0.166522  0.833478  0.333333  1
  C  C17  1  0.833478  0.666957  0.000000  1
  C  C18  1  0.333361  0.666721  0.000000  1
  C  C19  1  0.666639  0.333361  0.333333  1
  C  C20  1  0.666721  0.333361  0.666667  1
  C  C21  1  0.333279  0.666639  0.666667  1
  C  C22  1  0.333361  0.666639  0.333333  1
  C  C23  1  0.666639  0.333279  0.000000  1
  Cs  Cs24  1  0.000000  0.000000  0.500000  1
  Cs  Cs25  1  0.000000  0.000000  0.833333  1
  Cs  Cs26  1  0.000000  0.000000  0.166667  1
