# generated using pymatgen
data_AsXeF7
_symmetry_space_group_name_H-M   'P 1'
_cell_length_a   6.45698221
_cell_length_b   6.51777699
_cell_length_c   16.49647043
_cell_angle_alpha   100.34619388
_cell_angle_beta   90.00000000
_cell_angle_gamma   90.00000000
_symmetry_Int_Tables_number   1
_chemical_formula_structural   AsXeF7
_chemical_formula_sum   'As4 Xe4 F28'
_cell_volume   682.96853849
_cell_formula_units_Z   4
loop_
 _symmetry_equiv_pos_site_id
 _symmetry_equiv_pos_as_xyz
  1  'x, y, z'
loop_
 _atom_site_type_symbol
 _atom_site_label
 _atom_site_symmetry_multiplicity
 _atom_site_fract_x
 _atom_site_fract_y
 _atom_site_fract_z
 _atom_site_occupancy
  F  F0  1  0.627961  0.319938  0.772092  1
  F  F1  1  0.127961  0.180062  0.727908  1
  F  F2  1  0.372039  0.680062  0.227908  1
  F  F3  1  0.872039  0.819938  0.272092  1
  F  F4  1  0.826544  0.145813  0.994226  1
  F  F5  1  0.326544  0.354187  0.505774  1
  F  F6  1  0.173456  0.854187  0.005774  1
  F  F7  1  0.673456  0.645813  0.494226  1
  F  F8  1  0.722022  0.502125  0.623591  1
  F  F9  1  0.222022  -0.002125  0.876409  1
  F  F10  1  0.277978  0.497875  0.376408  1
  F  F11  1  0.777978  1.002125  0.123592  1
  F  F12  1  0.454065  0.773870  0.619565  1
  F  F13  1  0.954065  0.726130  0.880435  1
  F  F14  1  0.545935  0.226130  0.380435  1
  F  F15  1  0.045935  0.273870  0.119565  1
  F  F16  1  0.766667  0.862167  0.714799  1
  F  F17  1  0.266667  0.637833  0.785201  1
  F  F18  1  0.233333  0.137833  0.285201  1
  F  F19  1  0.733333  0.362167  0.214799  1
  F  F20  1  0.722823  0.009823  0.580941  1
  F  F21  1  0.222823  0.490177  0.919059  1
  F  F22  1  0.277177  0.990177  0.419059  1
  F  F23  1  0.777177  0.509823  0.080941  1
  F  F24  1  0.989619  0.742254  0.586355  1
  F  F25  1  0.489619  0.757746  0.913645  1
  F  F26  1  0.010381  0.257746  0.413645  1
  F  F27  1  0.510381  0.242254  0.086355  1
  As  As28  1  0.775456  0.263601  0.111109  1
  As  As29  1  0.275456  0.236399  0.388891  1
  As  As30  1  0.224544  0.736399  0.888891  1
  As  As31  1  0.724544  0.763601  0.611109  1
  Xe  Xe32  1  0.718642  0.241906  0.878532  1
  Xe  Xe33  1  0.218642  0.258094  0.621468  1
  Xe  Xe34  1  0.281358  0.758094  0.121468  1
  Xe  Xe35  1  0.781358  0.741906  0.378532  1
