# generated using pymatgen
data_Ag8S
_symmetry_space_group_name_H-M   'P 1'
_cell_length_a   6.43450178
_cell_length_b   6.45633935
_cell_length_c   6.45633936
_cell_angle_alpha   60.07082272
_cell_angle_beta   60.11182415
_cell_angle_gamma   60.11182424
_symmetry_Int_Tables_number   1
_chemical_formula_structural   Ag8S
_chemical_formula_sum   'Ag8 S1'
_cell_volume   190.08038981
_cell_formula_units_Z   1
loop_
 _symmetry_equiv_pos_site_id
 _symmetry_equiv_pos_as_xyz
  1  'x, y, z'
loop_
 _atom_site_type_symbol
 _atom_site_label
 _atom_site_symmetry_multiplicity
 _atom_site_fract_x
 _atom_site_fract_y
 _atom_site_fract_z
 _atom_site_occupancy
  S  S0  1  0.000570  0.999430  0.999430  1
  Ag  Ag1  1  0.626264  0.625372  0.122101  1
  Ag  Ag2  1  0.144984  0.147263  0.562769  1
  Ag  Ag3  1  0.144984  0.562769  0.147263  1
  Ag  Ag4  1  0.125323  0.624555  0.624555  1
  Ag  Ag5  1  0.625568  0.624555  0.624555  1
  Ag  Ag6  1  0.143703  0.146978  0.146978  1
  Ag  Ag7  1  0.562342  0.146978  0.146978  1
  Ag  Ag8  1  0.626264  0.122101  0.625372  1
