# generated using pymatgen
data_Li3Ce5Ge4
_symmetry_space_group_name_H-M   'P 1'
_cell_length_a   4.56086903
_cell_length_b   6.30561728
_cell_length_c   10.30134612
_cell_angle_alpha   90.00000000
_cell_angle_beta   102.78965798
_cell_angle_gamma   90.00000000
_symmetry_Int_Tables_number   1
_chemical_formula_structural   Li3Ce5Ge4
_chemical_formula_sum   'Li3 Ce5 Ge4'
_cell_volume   288.90704233
_cell_formula_units_Z   1
loop_
 _symmetry_equiv_pos_site_id
 _symmetry_equiv_pos_as_xyz
  1  'x, y, z'
loop_
 _atom_site_type_symbol
 _atom_site_label
 _atom_site_symmetry_multiplicity
 _atom_site_fract_x
 _atom_site_fract_y
 _atom_site_fract_z
 _atom_site_occupancy
  Li  Li0  1  0.501965  0.500000  0.003929  1
  Li  Li1  1  0.818892  0.000000  0.637784  1
  Li  Li2  1  0.391708  0.000000  0.783415  1
  Ge  Ge3  1  0.729109  0.293684  0.458218  1
  Ge  Ge4  1  0.729109  0.706316  0.458218  1
  Ge  Ge5  1  0.591637  0.797896  0.183275  1
  Ge  Ge6  1  0.591637  0.202104  0.183275  1
  Ce  Ce7  1  0.307082  0.500000  0.614165  1
  Ce  Ce8  1  0.130293  0.500000  0.260586  1
  Ce  Ce9  1  0.888915  0.500000  0.777831  1
  Ce  Ce10  1  0.190643  0.000000  0.381286  1
  Ce  Ce11  1  0.014109  0.000000  0.028218  1
