# generated using pymatgen
data_Sb5PO10
_symmetry_space_group_name_H-M   'P 1'
_cell_length_a   6.89831379
_cell_length_b   7.28101776
_cell_length_c   20.34541086
_cell_angle_alpha   90.00000000
_cell_angle_beta   90.00000000
_cell_angle_gamma   90.00000000
_symmetry_Int_Tables_number   1
_chemical_formula_structural   Sb5PO10
_chemical_formula_sum   'Sb20 P4 O40'
_cell_volume   1021.88376764
_cell_formula_units_Z   4
loop_
 _symmetry_equiv_pos_site_id
 _symmetry_equiv_pos_as_xyz
  1  'x, y, z'
loop_
 _atom_site_type_symbol
 _atom_site_label
 _atom_site_symmetry_multiplicity
 _atom_site_fract_x
 _atom_site_fract_y
 _atom_site_fract_z
 _atom_site_occupancy
  O  O0  1  0.282801  0.974922  0.521507  1
  O  O1  1  0.782801  0.525078  0.478493  1
  O  O2  1  0.717199  0.474922  0.978493  1
  O  O3  1  0.217199  0.025078  0.021507  1
  O  O4  1  0.423581  0.529702  0.494068  1
  O  O5  1  0.923581  0.970298  0.505932  1
  O  O6  1  0.576419  0.029702  0.005932  1
  O  O7  1  0.076419  0.470298  0.994068  1
  O  O8  1  0.034219  0.986560  0.344444  1
  O  O9  1  0.534219  0.513440  0.655556  1
  O  O10  1  0.965781  0.486560  0.155556  1
  O  O11  1  0.465781  0.013440  0.844444  1
  O  O12  1  0.653933  0.414395  0.253207  1
  O  O13  1  0.153933  0.085605  0.746793  1
  O  O14  1  0.346067  0.914395  0.246793  1
  O  O15  1  0.112641  0.258400  0.475853  1
  O  O16  1  0.846067  0.585605  0.753207  1
  O  O17  1  0.570844  0.326110  0.402751  1
  O  O18  1  0.929156  0.673890  0.902751  1
  O  O19  1  0.429156  0.826110  0.097249  1
  O  O20  1  0.124071  0.627484  0.409165  1
  O  O21  1  0.624071  0.872516  0.590835  1
  O  O22  1  0.875929  0.127484  0.090835  1
  O  O23  1  0.375929  0.372516  0.909165  1
  O  O24  1  0.769014  0.231243  0.700186  1
  O  O25  1  0.269014  0.268757  0.299814  1
  O  O26  1  0.230986  0.731243  0.799814  1
  O  O27  1  0.730986  0.768757  0.200186  1
  O  O28  1  0.848286  0.950782  0.797562  1
  O  O29  1  0.348286  0.549218  0.202438  1
  O  O30  1  0.151714  0.450782  0.702438  1
  O  O31  1  0.651714  0.049218  0.297562  1
  O  O32  1  0.569379  0.866122  0.718974  1
  O  O33  1  0.069379  0.633878  0.281026  1
  O  O34  1  0.430621  0.366122  0.781026  1
  O  O35  1  0.930621  0.133878  0.218974  1
  O  O36  1  0.387359  0.741600  0.975853  1
  O  O37  1  0.887359  0.758400  0.024147  1
  O  O38  1  0.612641  0.241600  0.524147  1
  O  O39  1  0.070844  0.173890  0.597249  1
  P  P40  1  0.097288  0.093724  0.527267  1
  P  P41  1  0.597288  0.406276  0.472733  1
  P  P42  1  0.902712  0.593724  0.972733  1
  P  P43  1  0.402712  0.906276  0.027267  1
  Sb  Sb44  1  0.108423  0.531771  0.499664  1
  Sb  Sb45  1  0.608423  0.968229  0.500336  1
  Sb  Sb46  1  0.891577  0.031771  1.000336  1
  Sb  Sb47  1  0.391577  0.468229  -0.000336  1
  Sb  Sb48  1  0.912027  0.736504  0.355130  1
  Sb  Sb49  1  0.412027  0.763496  0.644870  1
  Sb  Sb50  1  0.087973  0.236504  0.144870  1
  Sb  Sb51  1  0.587973  0.263496  0.855130  1
  Sb  Sb52  1  0.351397  0.028292  0.339120  1
  Sb  Sb53  1  0.851397  0.471708  0.660880  1
  Sb  Sb54  1  0.648603  0.528292  0.160880  1
  Sb  Sb55  1  0.148603  0.971708  0.839120  1
  Sb  Sb56  1  0.595187  0.010134  0.196026  1
  Sb  Sb57  1  0.095187  0.489866  0.803974  1
  Sb  Sb58  1  0.404813  0.510134  0.303974  1
  Sb  Sb59  1  0.904813  0.989866  0.696026  1
  Sb  Sb60  1  0.875973  0.229780  0.310610  1
  Sb  Sb61  1  0.375973  0.270220  0.689390  1
  Sb  Sb62  1  0.124027  0.729780  0.189390  1
  Sb  Sb63  1  0.624027  0.770220  0.810610  1
