# generated using pymatgen
data_Mn5As4
_symmetry_space_group_name_H-M   'P 1'
_cell_length_a   3.48501298
_cell_length_b   6.79286960
_cell_length_c   11.87289117
_cell_angle_alpha   90.00000000
_cell_angle_beta   90.00000000
_cell_angle_gamma   104.86366731
_symmetry_Int_Tables_number   1
_chemical_formula_structural   Mn5As4
_chemical_formula_sum   'Mn10 As8'
_cell_volume   271.66489393
_cell_formula_units_Z   2
loop_
 _symmetry_equiv_pos_site_id
 _symmetry_equiv_pos_as_xyz
  1  'x, y, z'
loop_
 _atom_site_type_symbol
 _atom_site_label
 _atom_site_symmetry_multiplicity
 _atom_site_fract_x
 _atom_site_fract_y
 _atom_site_fract_z
 _atom_site_occupancy
  Mn  Mn0  1  0.023160  0.046319  0.294556  1
  Mn  Mn1  1  0.976840  0.953681  0.794556  1
  Mn  Mn2  1  0.168664  0.337329  0.869530  1
  Mn  Mn3  1  0.831336  0.662671  0.369530  1
  Mn  Mn4  1  0.371191  0.742381  0.016694  1
  Mn  Mn5  1  0.628809  0.257619  0.516694  1
  Mn  Mn6  1  0.440360  0.880720  0.626737  1
  Mn  Mn7  1  0.559640  0.119280  0.126737  1
  Mn  Mn8  1  0.777843  0.555686  0.680736  1
  Mn  Mn9  1  0.222157  0.444314  0.180736  1
  As  As10  1  0.010229  0.020457  0.996405  1
  As  As11  1  0.989771  0.979543  0.496405  1
  As  As12  1  0.270513  0.541027  0.525242  1
  As  As13  1  0.729487  0.458973  0.025242  1
  As  As14  1  0.344858  0.689717  0.807168  1
  As  As15  1  0.655142  0.310283  0.307168  1
  As  As16  1  0.600211  0.200421  0.732031  1
  As  As17  1  0.399789  0.799579  0.232031  1
