# generated using pymatgen
data_In(TeMo)3
_symmetry_space_group_name_H-M   'P 1'
_cell_length_a   9.59231161
_cell_length_b   9.59231161
_cell_length_c   4.62339185
_cell_angle_alpha   90.00000000
_cell_angle_beta   90.00000000
_cell_angle_gamma   119.99999999
_symmetry_Int_Tables_number   1
_chemical_formula_structural   In(TeMo)3
_chemical_formula_sum   'In2 Te6 Mo6'
_cell_volume   368.41549878
_cell_formula_units_Z   2
loop_
 _symmetry_equiv_pos_site_id
 _symmetry_equiv_pos_as_xyz
  1  'x, y, z'
loop_
 _atom_site_type_symbol
 _atom_site_label
 _atom_site_symmetry_multiplicity
 _atom_site_fract_x
 _atom_site_fract_y
 _atom_site_fract_z
 _atom_site_occupancy
  Mo  Mo0  1  0.825997  0.858099  0.750000  1
  Mo  Mo1  1  0.967898  0.825997  0.250000  1
  Mo  Mo2  1  0.174003  0.141901  0.250000  1
  Mo  Mo3  1  0.858099  0.032102  0.250000  1
  Mo  Mo4  1  0.141901  0.967898  0.750000  1
  Mo  Mo5  1  0.032102  0.174003  0.750000  1
  In  In6  1  0.666667  0.333333  0.250000  1
  In  In7  1  0.333333  0.666667  0.750000  1
  Te  Te8  1  0.370937  0.301637  0.750000  1
  Te  Te9  1  0.698363  0.069300  0.750000  1
  Te  Te10  1  0.069300  0.370937  0.250000  1
  Te  Te11  1  0.629063  0.698363  0.250000  1
  Te  Te12  1  0.301637  0.930700  0.250000  1
  Te  Te13  1  0.930700  0.629063  0.750000  1
