# generated using pymatgen
data_H2CS3
_symmetry_space_group_name_H-M   'P 1'
_cell_length_a   6.15016137
_cell_length_b   12.50474054
_cell_length_c   19.59835998
_cell_angle_alpha   102.14130492
_cell_angle_beta   90.00000000
_cell_angle_gamma   90.00000000
_symmetry_Int_Tables_number   1
_chemical_formula_structural   H2CS3
_chemical_formula_sum   'H24 C12 S36'
_cell_volume   1473.52081916
_cell_formula_units_Z   12
loop_
 _symmetry_equiv_pos_site_id
 _symmetry_equiv_pos_as_xyz
  1  'x, y, z'
loop_
 _atom_site_type_symbol
 _atom_site_label
 _atom_site_symmetry_multiplicity
 _atom_site_fract_x
 _atom_site_fract_y
 _atom_site_fract_z
 _atom_site_occupancy
  H  H0  1  0.337616  0.634620  0.505354  1
  H  H1  1  0.837616  0.365380  0.994646  1
  H  H2  1  0.662384  0.365380  0.494646  1
  H  H3  1  0.162384  0.634620  0.005354  1
  H  H4  1  0.598050  0.760732  0.353091  1
  H  H5  1  0.098050  0.239268  0.146909  1
  H  H6  1  0.401950  0.239268  0.646909  1
  H  H7  1  0.901950  0.760732  0.853091  1
  H  H8  1  0.519418  0.502323  0.858440  1
  H  H9  1  1.019418  0.497677  0.641560  1
  H  H10  1  0.480582  0.497677  0.141560  1
  H  H11  1  -0.019418  0.502323  0.358440  1
  H  H12  1  0.016568  0.293244  0.840385  1
  H  H13  1  0.516568  0.706756  0.659615  1
  H  H14  1  0.983432  0.706756  0.159615  1
  H  H15  1  0.483432  0.293244  0.340385  1
  H  H16  1  0.916961  0.868566  0.719571  1
  H  H17  1  0.347302  0.967336  0.051192  1
  H  H18  1  0.416961  0.131434  0.780429  1
  H  H19  1  0.583039  0.868566  0.219571  1
  H  H20  1  0.152698  0.967336  0.551192  1
  H  H21  1  0.652698  0.032664  0.948808  1
  H  H22  1  0.847302  0.032664  0.448808  1
  H  H23  1  0.083039  0.131434  0.280429  1
  C  C24  1  0.647268  0.943277  0.118350  1
  C  C25  1  0.147268  0.056723  0.381650  1
  C  C26  1  0.352732  0.056723  0.881650  1
  C  C27  1  0.852732  0.943277  0.618350  1
  C  C28  1  0.851107  0.682602  0.952902  1
  C  C29  1  0.351107  0.317398  0.547098  1
  C  C30  1  0.148893  0.317398  0.047098  1
  C  C31  1  0.648893  0.682602  0.452902  1
  C  C32  1  0.805361  0.343333  0.294302  1
  C  C33  1  0.305361  0.656667  0.205698  1
  C  C34  1  0.194639  0.656667  0.705698  1
  C  C35  1  0.694639  0.343333  0.794302  1
  S  S36  1  0.865894  0.311757  0.047341  1
  S  S37  1  0.289118  0.766590  0.269551  1
  S  S38  1  0.210882  0.766590  0.769551  1
  S  S39  1  0.710882  0.233410  0.730449  1
  S  S40  1  0.611406  0.383133  0.359428  1
  S  S41  1  0.111406  0.616867  0.140572  1
  S  S42  1  0.388594  0.616867  0.640572  1
  S  S43  1  0.888594  0.383133  0.859428  1
  S  S44  1  0.029257  0.429340  0.298465  1
  S  S45  1  0.529257  0.570660  0.201535  1
  S  S46  1  0.970743  0.570660  0.701535  1
  S  S47  1  0.470743  0.429340  0.798465  1
  S  S48  1  0.722707  0.740518  0.890352  1
  S  S49  1  0.222707  0.259482  0.609648  1
  S  S50  1  0.277293  0.259482  0.109648  1
  S  S51  1  0.777293  0.740518  0.390352  1
  S  S52  1  0.134106  0.688243  0.952659  1
  S  S53  1  0.634106  0.311757  0.547341  1
  S  S54  1  0.789118  0.233410  0.230449  1
  S  S55  1  0.365894  0.688243  0.452659  1
  S  S56  1  0.700307  0.628796  0.006996  1
  S  S57  1  0.200307  0.371204  0.493004  1
  S  S58  1  0.299693  0.371204  0.993004  1
  S  S59  1  0.799693  0.628796  0.506996  1
  S  S60  1  0.809604  0.989797  0.064144  1
  S  S61  1  0.309604  0.010203  0.435856  1
  S  S62  1  0.190396  0.010203  0.935856  1
  S  S63  1  0.690396  0.989797  0.564144  1
  S  S64  1  0.365862  0.932659  0.112545  1
  S  S65  1  0.865862  0.067341  0.387455  1
  S  S66  1  0.634138  0.067341  0.887455  1
  S  S67  1  0.134138  0.932659  0.612545  1
  S  S68  1  0.765018  0.903344  0.190307  1
  S  S69  1  0.265018  0.096656  0.309693  1
  S  S70  1  0.234982  0.096656  0.809693  1
  S  S71  1  0.734982  0.903344  0.690307  1
