# generated using pymatgen
data_TmCl2
_symmetry_space_group_name_H-M   'P 1'
_cell_length_a   6.21512788
_cell_length_b   7.19773141
_cell_length_c   12.21789727
_cell_angle_alpha   90.00000000
_cell_angle_beta   90.00000000
_cell_angle_gamma   90.00000000
_symmetry_Int_Tables_number   1
_chemical_formula_structural   TmCl2
_chemical_formula_sum   'Tm8 Cl16'
_cell_volume   546.56544931
_cell_formula_units_Z   8
loop_
 _symmetry_equiv_pos_site_id
 _symmetry_equiv_pos_as_xyz
  1  'x, y, z'
loop_
 _atom_site_type_symbol
 _atom_site_label
 _atom_site_symmetry_multiplicity
 _atom_site_fract_x
 _atom_site_fract_y
 _atom_site_fract_z
 _atom_site_occupancy
  Cl  Cl0  1  0.021416  0.205734  0.456431  1
  Cl  Cl1  1  0.521416  0.794266  0.043569  1
  Cl  Cl2  1  0.478584  0.705734  0.543570  1
  Cl  Cl3  1  0.978584  0.294266  0.956430  1
  Cl  Cl4  1  0.978584  0.794266  0.543570  1
  Cl  Cl5  1  0.478584  0.205734  0.956430  1
  Cl  Cl6  1  0.521416  0.294266  0.456431  1
  Cl  Cl7  1  0.021416  0.705734  0.043569  1
  Cl  Cl8  1  0.193582  0.874422  0.792496  1
  Cl  Cl9  1  0.693582  0.125578  0.707504  1
  Cl  Cl10  1  0.306418  0.374422  0.207504  1
  Cl  Cl11  1  0.806418  0.625578  0.292496  1
  Cl  Cl12  1  0.806418  0.125578  0.207504  1
  Cl  Cl13  1  0.306418  0.874422  0.292496  1
  Cl  Cl14  1  0.693582  0.625578  0.792496  1
  Cl  Cl15  1  0.193582  0.374422  0.707504  1
  Tm  Tm16  1  0.319063  0.045886  0.597504  1
  Tm  Tm17  1  0.819063  0.954114  0.902496  1
  Tm  Tm18  1  0.180938  0.545886  0.402496  1
  Tm  Tm19  1  0.680937  0.454114  0.097504  1
  Tm  Tm20  1  0.680937  0.954114  0.402496  1
  Tm  Tm21  1  0.180938  0.045886  0.097504  1
  Tm  Tm22  1  0.819063  0.454114  0.597504  1
  Tm  Tm23  1  0.319063  0.545886  0.902496  1
