# generated using pymatgen
data_AuBr3
_symmetry_space_group_name_H-M   'P 1'
_cell_length_a   7.04957126
_cell_length_b   8.67028672
_cell_length_c   20.81271292
_cell_angle_alpha   90.00000000
_cell_angle_beta   90.00000000
_cell_angle_gamma   109.78178365
_symmetry_Int_Tables_number   1
_chemical_formula_structural   AuBr3
_chemical_formula_sum   'Au8 Br24'
_cell_volume   1197.04130544
_cell_formula_units_Z   8
loop_
 _symmetry_equiv_pos_site_id
 _symmetry_equiv_pos_as_xyz
  1  'x, y, z'
loop_
 _atom_site_type_symbol
 _atom_site_label
 _atom_site_symmetry_multiplicity
 _atom_site_fract_x
 _atom_site_fract_y
 _atom_site_fract_z
 _atom_site_occupancy
  Br  Br0  1  0.458627  0.788349  0.232891  1
  Br  Br1  1  0.041373  0.711651  0.732891  1
  Br  Br2  1  0.541373  0.211651  0.767109  1
  Br  Br3  1  0.958627  0.288349  0.267109  1
  Br  Br4  1  0.976980  0.792960  0.188594  1
  Br  Br5  1  0.523020  0.707040  0.688594  1
  Br  Br6  1  0.023020  0.207040  0.811406  1
  Br  Br7  1  0.476980  0.292960  0.311406  1
  Br  Br8  1  0.823383  0.267334  0.105775  1
  Br  Br9  1  0.676617  0.232666  0.605775  1
  Br  Br10  1  0.176617  0.732666  0.894225  1
  Br  Br11  1  0.323383  0.767334  0.394225  1
  Br  Br12  1  0.699310  0.229906  0.939745  1
  Br  Br13  1  0.800690  0.270094  0.439745  1
  Br  Br14  1  0.300690  0.770094  0.060255  1
  Br  Br15  1  0.199310  0.729906  0.560255  1
  Br  Br16  1  0.223078  0.254022  0.978626  1
  Br  Br17  1  0.276922  0.245978  0.478626  1
  Br  Br18  1  0.776922  0.745978  0.021374  1
  Br  Br19  1  0.723078  0.754022  0.521374  1
  Br  Br20  1  0.359997  0.291819  0.143343  1
  Br  Br21  1  0.140003  0.208181  0.643343  1
  Br  Br22  1  0.640003  0.708181  0.856657  1
  Br  Br23  1  0.859997  0.791819  0.356657  1
  Au  Au24  1  0.154030  0.785135  0.289304  1
  Au  Au25  1  0.345970  0.714865  0.789304  1
  Au  Au26  1  0.845970  0.214865  0.710696  1
  Au  Au27  1  0.654030  0.285135  0.210696  1
  Au  Au28  1  0.024767  0.760015  0.461973  1
  Au  Au29  1  0.475233  0.739985  0.961973  1
  Au  Au30  1  0.975233  0.239985  0.538027  1
  Au  Au31  1  0.524767  0.260015  0.038027  1
