# generated using pymatgen
data_Cd3(ClO)2
_symmetry_space_group_name_H-M   'P 1'
_cell_length_a   6.54679277
_cell_length_b   6.76852335
_cell_length_c   6.83139605
_cell_angle_alpha   90.00000000
_cell_angle_beta   90.00000000
_cell_angle_gamma   116.12909568
_symmetry_Int_Tables_number   1
_chemical_formula_structural   Cd3(ClO)2
_chemical_formula_sum   'Cd6 Cl4 O4'
_cell_volume   271.77753248
_cell_formula_units_Z   2
loop_
 _symmetry_equiv_pos_site_id
 _symmetry_equiv_pos_as_xyz
  1  'x, y, z'
loop_
 _atom_site_type_symbol
 _atom_site_label
 _atom_site_symmetry_multiplicity
 _atom_site_fract_x
 _atom_site_fract_y
 _atom_site_fract_z
 _atom_site_occupancy
  O  O0  1  0.668570  0.436620  0.612505  1
  O  O1  1  0.331430  0.063380  0.112505  1
  O  O2  1  0.331430  0.563380  0.387495  1
  O  O3  1  0.668570  0.936620  0.887495  1
  Cl  Cl4  1  0.191388  0.935242  0.635065  1
  Cl  Cl5  1  0.808612  0.564758  0.135065  1
  Cl  Cl6  1  0.191388  0.435242  0.864935  1
  Cl  Cl7  1  0.808612  0.064758  0.364935  1
  Cd  Cd8  1  0.588282  0.229671  0.873166  1
  Cd  Cd9  1  0.411718  0.270329  0.373166  1
  Cd  Cd10  1  0.411718  0.770329  0.126834  1
  Cd  Cd11  1  0.588282  0.729671  0.626834  1
  Cd  Cd12  1  0.000000  0.500000  0.500000  1
  Cd  Cd13  1  0.000000  0.000000  0.000000  1
