# generated using pymatgen
data_Cs2MnSnTe4
_symmetry_space_group_name_H-M   'P 1'
_cell_length_a   6.80935238
_cell_length_b   8.55221884
_cell_length_c   13.56852272
_cell_angle_alpha   84.26692213
_cell_angle_beta   75.46776781
_cell_angle_gamma   66.54026950
_symmetry_Int_Tables_number   1
_chemical_formula_structural   Cs2MnSnTe4
_chemical_formula_sum   'Cs4 Mn2 Sn2 Te8'
_cell_volume   701.65866742
_cell_formula_units_Z   2
loop_
 _symmetry_equiv_pos_site_id
 _symmetry_equiv_pos_as_xyz
  1  'x, y, z'
loop_
 _atom_site_type_symbol
 _atom_site_label
 _atom_site_symmetry_multiplicity
 _atom_site_fract_x
 _atom_site_fract_y
 _atom_site_fract_z
 _atom_site_occupancy
  Mn  Mn0  1  0.875000  0.250000  0.250000  1
  Mn  Mn1  1  0.125000  0.750000  0.750000  1
  Sn  Sn2  1  0.375000  0.250000  0.250000  1
  Sn  Sn3  1  0.625000  0.750000  0.750000  1
  Te  Te4  1  0.214708  0.945696  0.869999  1
  Te  Te5  1  0.530404  0.554304  0.630001  1
  Te  Te6  1  0.839595  0.945696  0.630001  1
  Te  Te7  1  0.915293  0.554304  0.869999  1
  Te  Te8  1  0.785292  0.054304  0.130001  1
  Te  Te9  1  0.469596  0.445696  0.369999  1
  Te  Te10  1  0.160405  0.054304  0.369999  1
  Te  Te11  1  0.084707  0.445696  0.130001  1
  Cs  Cs12  1  0.809271  0.750000  0.381459  1
  Cs  Cs13  1  0.440729  0.750000  0.118541  1
  Cs  Cs14  1  0.190729  0.250000  0.618541  1
  Cs  Cs15  1  0.559271  0.250000  0.881459  1
