# generated using pymatgen
data_GeBi4Te7
_symmetry_space_group_name_H-M   'P 1'
_cell_length_a   4.41607004
_cell_length_b   4.41607026
_cell_length_c   24.42042928
_cell_angle_alpha   90.00000000
_cell_angle_beta   90.00000000
_cell_angle_gamma   119.99999838
_symmetry_Int_Tables_number   1
_chemical_formula_structural   GeBi4Te7
_chemical_formula_sum   'Ge1 Bi4 Te7'
_cell_volume   412.43532910
_cell_formula_units_Z   1
loop_
 _symmetry_equiv_pos_site_id
 _symmetry_equiv_pos_as_xyz
  1  'x, y, z'
loop_
 _atom_site_type_symbol
 _atom_site_label
 _atom_site_symmetry_multiplicity
 _atom_site_fract_x
 _atom_site_fract_y
 _atom_site_fract_z
 _atom_site_occupancy
  Ge  Ge0  1  0.000000  0.000000  0.000000  1
  Bi  Bi1  1  0.333333  0.666667  0.845424  1
  Bi  Bi2  1  0.666667  0.333333  0.154576  1
  Bi  Bi3  1  0.333333  0.666667  0.584543  1
  Bi  Bi4  1  0.666667  0.333333  0.415457  1
  Te  Te5  1  0.333333  0.666667  0.068376  1
  Te  Te6  1  0.666667  0.333333  0.931624  1
  Te  Te7  1  0.333333  0.666667  0.344177  1
  Te  Te8  1  0.666667  0.333333  0.655823  1
  Te  Te9  1  0.000000  0.000000  0.225920  1
  Te  Te10  1  0.000000  0.000000  0.774080  1
  Te  Te11  1  0.000000  0.000000  0.500000  1
