# generated using pymatgen
data_RbIO4
_symmetry_space_group_name_H-M   'P 1'
_cell_length_a   6.05312546
_cell_length_b   6.05304216
_cell_length_c   7.93276116
_cell_angle_alpha   112.43320221
_cell_angle_beta   112.42916910
_cell_angle_gamma   89.99709078
_symmetry_Int_Tables_number   1
_chemical_formula_structural   RbIO4
_chemical_formula_sum   'Rb2 I2 O8'
_cell_volume   244.70629109
_cell_formula_units_Z   2
loop_
 _symmetry_equiv_pos_site_id
 _symmetry_equiv_pos_as_xyz
  1  'x, y, z'
loop_
 _atom_site_type_symbol
 _atom_site_label
 _atom_site_symmetry_multiplicity
 _atom_site_fract_x
 _atom_site_fract_y
 _atom_site_fract_z
 _atom_site_occupancy
  O  O0  1  0.580426  0.164751  0.401790  1
  O  O1  1  0.237050  0.080430  0.901770  1
  O  O2  1  0.664777  0.321331  0.901780  1
  O  O3  1  0.821301  0.737040  0.401763  1
  O  O4  1  0.178699  0.262960  0.598237  1
  O  O5  1  0.335223  0.678669  0.098220  1
  O  O6  1  0.762950  0.919570  0.098230  1
  O  O7  1  0.419574  0.835249  0.598210  1
  Rb  Rb8  1  0.125004  0.375004  0.250006  1
  Rb  Rb9  1  0.874996  0.624996  0.749994  1
  I  I10  1  0.624983  0.875005  0.250006  1
  I  I11  1  0.375017  0.124995  0.749994  1
