# generated using pymatgen
data_Sn2OF2
_symmetry_space_group_name_H-M   'P 1'
_cell_length_a   5.22798878
_cell_length_b   6.22903434
_cell_length_c   6.22903434
_cell_angle_alpha   81.99215993
_cell_angle_beta   84.55252242
_cell_angle_gamma   84.55252249
_symmetry_Int_Tables_number   1
_chemical_formula_structural   Sn2OF2
_chemical_formula_sum   'Sn4 O2 F4'
_cell_volume   199.27720958
_cell_formula_units_Z   2
loop_
 _symmetry_equiv_pos_site_id
 _symmetry_equiv_pos_as_xyz
  1  'x, y, z'
loop_
 _atom_site_type_symbol
 _atom_site_label
 _atom_site_symmetry_multiplicity
 _atom_site_fract_x
 _atom_site_fract_y
 _atom_site_fract_z
 _atom_site_occupancy
  O  O0  1  0.305544  0.607960  0.607960  1
  O  O1  1  0.694456  0.392040  0.392040  1
  F  F2  1  0.201107  0.142331  0.508676  1
  F  F3  1  0.798893  0.857669  0.491324  1
  F  F4  1  0.201107  0.508676  0.142331  1
  F  F5  1  0.798893  0.491324  0.857669  1
  Sn  Sn6  1  0.500000  0.702728  0.297272  1
  Sn  Sn7  1  0.500000  0.297272  0.702728  1
  Sn  Sn8  1  0.012174  0.781219  0.781219  1
  Sn  Sn9  1  0.987826  0.218781  0.218781  1
