# generated using pymatgen
data_Li15Bi4(PdO10)2
_symmetry_space_group_name_H-M   'P 1'
_cell_length_a   5.40338486
_cell_length_b   10.81301457
_cell_length_c   11.25218377
_cell_angle_alpha   75.70164075
_cell_angle_beta   104.28289708
_cell_angle_gamma   133.30951757
_symmetry_Int_Tables_number   1
_chemical_formula_structural   Li15Bi4(PdO10)2
_chemical_formula_sum   'Li15 Bi4 Pd2 O20'
_cell_volume   460.77152435
_cell_formula_units_Z   1
loop_
 _symmetry_equiv_pos_site_id
 _symmetry_equiv_pos_as_xyz
  1  'x, y, z'
loop_
 _atom_site_type_symbol
 _atom_site_label
 _atom_site_symmetry_multiplicity
 _atom_site_fract_x
 _atom_site_fract_y
 _atom_site_fract_z
 _atom_site_occupancy
  Li  Li0  1  0.920526  0.040677  0.392683  1
  Li  Li1  1  0.749625  0.126116  0.088710  1
  Li  Li2  1  0.624233  0.185628  0.459455  1
  Li  Li3  1  0.455119  0.273943  0.199282  1
  Li  Li4  1  0.095320  0.959351  0.618566  1
  Li  Li5  1  0.256916  0.883573  0.899460  1
  Li  Li6  1  0.381959  0.811081  0.543475  1
  Li  Li7  1  0.543302  0.730611  0.795999  1
  Li  Li8  1  0.450542  0.773039  0.198389  1
  Li  Li9  1  0.074631  0.449124  0.616662  1
  Li  Li10  1  0.620981  0.690498  0.463243  1
  Li  Li11  1  0.223754  0.372353  0.900051  1
  Li  Li12  1  0.747705  0.624615  0.090858  1
  Li  Li13  1  0.388733  0.302902  0.544488  1
  Li  Li14  1  0.917712  0.540346  0.391102  1
  O  O15  1  0.796499  0.100547  0.913753  1
  O  O16  1  0.969410  0.019093  0.164461  1
  O  O17  1  0.125603  0.933365  0.443308  1
  O  O18  1  0.880443  0.065172  0.557447  1
  O  O19  1  0.997778  0.964872  0.835346  1
  O  O20  1  0.129911  0.438505  0.443093  1
  O  O21  1  0.320076  0.839845  0.734848  1
  O  O22  1  0.213559  0.893139  0.091391  1
  O  O23  1  0.074088  0.505058  0.837828  1
  O  O24  1  0.400926  0.800034  0.359553  1
  O  O25  1  0.613713  0.705993  0.640239  1
  O  O26  1  0.959801  0.516337  0.167098  1
  O  O27  1  0.793689  0.605825  0.911861  1
  O  O28  1  0.289133  0.355515  0.733520  1
  O  O29  1  0.670347  0.664755  0.255113  1
  O  O30  1  0.209612  0.396244  0.090603  1
  O  O31  1  0.869261  0.559307  0.557761  1
  O  O32  1  0.399500  0.299758  0.358177  1
  O  O33  1  0.591775  0.193495  0.629140  1
  O  O34  1  0.671136  0.164362  0.258266  1
  Pd  Pd35  1  0.008179  0.505758  0.001368  1
  Pd  Pd36  1  0.996477  0.994875  0.999567  1
  Bi  Bi37  1  0.185374  0.407984  0.280524  1
  Bi  Bi38  1  0.818908  0.096779  0.720449  1
  Bi  Bi39  1  0.808774  0.587941  0.721508  1
  Bi  Bi40  1  0.184711  0.906716  0.279505  1
