# generated using pymatgen
data_Ce15B8N25
_symmetry_space_group_name_H-M   'P 1'
_cell_length_a   10.72537698
_cell_length_b   10.72537686
_cell_length_c   10.72537724
_cell_angle_alpha   82.43032438
_cell_angle_beta   82.43032446
_cell_angle_gamma   82.43032328
_symmetry_Int_Tables_number   1
_chemical_formula_structural   Ce15B8N25
_chemical_formula_sum   'Ce30 B16 N50'
_cell_volume   1204.12887596
_cell_formula_units_Z   2
loop_
 _symmetry_equiv_pos_site_id
 _symmetry_equiv_pos_as_xyz
  1  'x, y, z'
loop_
 _atom_site_type_symbol
 _atom_site_label
 _atom_site_symmetry_multiplicity
 _atom_site_fract_x
 _atom_site_fract_y
 _atom_site_fract_z
 _atom_site_occupancy
  B  B0  1  0.164622  0.164622  0.164622  1
  B  B1  1  0.335378  0.335378  0.335378  1
  B  B2  1  0.835378  0.835378  0.835378  1
  B  B3  1  0.664622  0.664622  0.664622  1
  B  B4  1  0.065275  0.652446  0.162296  1
  B  B5  1  0.162296  0.065275  0.652446  1
  B  B6  1  0.652446  0.162296  0.065275  1
  B  B7  1  0.847554  0.434725  0.337704  1
  B  B8  1  0.337704  0.847554  0.434725  1
  B  B9  1  0.434725  0.337704  0.847554  1
  B  B10  1  0.934725  0.347554  0.837704  1
  B  B11  1  0.837704  0.934725  0.347554  1
  B  B12  1  0.347554  0.837704  0.934725  1
  B  B13  1  0.152446  0.565275  0.662296  1
  B  B14  1  0.662296  0.152446  0.565275  1
  B  B15  1  0.565275  0.662296  0.152446  1
  N  N16  1  0.000000  0.000000  0.000000  1
  N  N17  1  0.500000  0.500000  0.500000  1
  N  N18  1  0.750897  0.162332  0.955164  1
  N  N19  1  0.955164  0.750897  0.162332  1
  N  N20  1  0.162332  0.955164  0.750897  1
  N  N21  1  0.337668  0.749103  0.544836  1
  N  N22  1  0.544836  0.337668  0.749103  1
  N  N23  1  0.749103  0.544836  0.337668  1
  N  N24  1  0.249103  0.837668  0.044836  1
  N  N25  1  0.044836  0.249103  0.837668  1
  N  N26  1  0.837668  0.044836  0.249103  1
  N  N27  1  0.662332  0.250897  0.455164  1
  N  N28  1  0.455164  0.662332  0.250897  1
  N  N29  1  0.250897  0.455164  0.662332  1
  N  N30  1  0.603883  0.558514  0.071116  1
  N  N31  1  0.071116  0.603883  0.558514  1
  N  N32  1  0.558514  0.071116  0.603883  1
  N  N33  1  0.941486  0.896117  0.428884  1
  N  N34  1  0.428884  0.941486  0.896117  1
  N  N35  1  0.896117  0.428884  0.941486  1
  N  N36  1  0.396117  0.441486  0.928884  1
  N  N37  1  0.928884  0.396117  0.441486  1
  N  N38  1  0.441486  0.928884  0.396117  1
  N  N39  1  0.058514  0.103883  0.571116  1
  N  N40  1  0.571116  0.058514  0.103883  1
  N  N41  1  0.103883  0.571116  0.058514  1
  N  N42  1  0.144860  0.276513  0.073564  1
  N  N43  1  0.073564  0.144860  0.276513  1
  N  N44  1  0.276513  0.073564  0.144860  1
  N  N45  1  0.223487  0.355140  0.426436  1
  N  N46  1  0.426436  0.223487  0.355140  1
  N  N47  1  0.355140  0.426436  0.223487  1
  N  N48  1  0.855140  0.723487  0.926436  1
  N  N49  1  0.926436  0.855140  0.723487  1
  N  N50  1  0.723487  0.926436  0.855140  1
  N  N51  1  0.776513  0.644860  0.573564  1
  N  N52  1  0.573564  0.776513  0.644860  1
  N  N53  1  0.644860  0.573564  0.776513  1
  N  N54  1  0.270292  0.138530  0.630464  1
  N  N55  1  0.630464  0.270292  0.138530  1
  N  N56  1  0.138530  0.630464  0.270292  1
  N  N57  1  0.361470  0.229708  0.869536  1
  N  N58  1  0.869536  0.361470  0.229708  1
  N  N59  1  0.229708  0.869536  0.361470  1
  N  N60  1  0.729708  0.861470  0.369536  1
  N  N61  1  0.369536  0.729708  0.861470  1
  N  N62  1  0.861470  0.369536  0.729708  1
  N  N63  1  0.638530  0.770292  0.130464  1
  N  N64  1  0.130464  0.638530  0.770292  1
  N  N65  1  0.770292  0.130464  0.638530  1
  Ce  Ce66  1  0.589689  0.410361  0.287194  1
  Ce  Ce67  1  0.287194  0.589689  0.410361  1
  Ce  Ce68  1  0.410361  0.287194  0.589689  1
  Ce  Ce69  1  0.089639  0.910311  0.212806  1
  Ce  Ce70  1  0.212806  0.089639  0.910311  1
  Ce  Ce71  1  0.910311  0.212806  0.089639  1
  Ce  Ce72  1  0.410311  0.589639  0.712806  1
  Ce  Ce73  1  0.712806  0.410311  0.589639  1
  Ce  Ce74  1  0.589639  0.712806  0.410311  1
  Ce  Ce75  1  0.910361  0.089689  0.787194  1
  Ce  Ce76  1  0.787194  0.910361  0.089689  1
  Ce  Ce77  1  0.089689  0.787194  0.910361  1
  Ce  Ce78  1  0.424348  0.901991  0.159398  1
  Ce  Ce79  1  0.159398  0.424348  0.901991  1
  Ce  Ce80  1  0.901991  0.159398  0.424348  1
  Ce  Ce81  1  0.598009  0.075652  0.340602  1
  Ce  Ce82  1  0.340602  0.598009  0.075652  1
  Ce  Ce83  1  0.075652  0.340602  0.598009  1
  Ce  Ce84  1  0.575652  0.098009  0.840602  1
  Ce  Ce85  1  0.840602  0.575652  0.098009  1
  Ce  Ce86  1  0.098009  0.840602  0.575652  1
  Ce  Ce87  1  0.401991  0.924348  0.659398  1
  Ce  Ce88  1  0.659398  0.401991  0.924348  1
  Ce  Ce89  1  0.924348  0.659398  0.401991  1
  Ce  Ce90  1  0.398672  0.250000  0.101328  1
  Ce  Ce91  1  0.101328  0.398672  0.250000  1
  Ce  Ce92  1  0.250000  0.101328  0.398672  1
  Ce  Ce93  1  0.601328  0.750000  0.898672  1
  Ce  Ce94  1  0.898672  0.601328  0.750000  1
  Ce  Ce95  1  0.750000  0.898672  0.601328  1
