# generated using pymatgen
data_Rb3Mo15Se17
_symmetry_space_group_name_H-M   'P 1'
_cell_length_a   9.71462022
_cell_length_b   9.71462021
_cell_length_c   21.19214925
_cell_angle_alpha   90.00000000
_cell_angle_beta   90.00000000
_cell_angle_gamma   120.00000001
_symmetry_Int_Tables_number   1
_chemical_formula_structural   Rb3Mo15Se17
_chemical_formula_sum   'Rb6 Mo30 Se34'
_cell_volume   1732.03749509
_cell_formula_units_Z   2
loop_
 _symmetry_equiv_pos_site_id
 _symmetry_equiv_pos_as_xyz
  1  'x, y, z'
loop_
 _atom_site_type_symbol
 _atom_site_label
 _atom_site_symmetry_multiplicity
 _atom_site_fract_x
 _atom_site_fract_y
 _atom_site_fract_z
 _atom_site_occupancy
  Se  Se0  1  0.631200  0.624645  0.857721  1
  Se  Se1  1  0.706449  0.043763  0.542926  1
  Se  Se2  1  0.956237  0.662686  0.542926  1
  Se  Se3  1  0.662686  0.706449  0.042926  1
  Se  Se4  1  0.662686  0.706449  0.457074  1
  Se  Se5  1  0.956237  0.662686  0.957074  1
  Se  Se6  1  0.333333  0.666667  0.939296  1
  Se  Se7  1  0.666667  0.333333  0.439296  1
  Se  Se8  1  0.666667  0.333333  0.060704  1
  Se  Se9  1  0.333333  0.666667  0.560704  1
  Se  Se10  1  0.294791  0.959723  0.250000  1
  Se  Se11  1  0.335068  0.294791  0.750000  1
  Se  Se12  1  0.959723  0.664932  0.750000  1
  Se  Se13  1  0.040277  0.335068  0.250000  1
  Se  Se14  1  0.664932  0.705209  0.250000  1
  Se  Se15  1  0.705209  0.040277  0.750000  1
  Se  Se16  1  0.624645  0.993445  0.357721  1
  Se  Se17  1  0.293551  0.956237  0.042926  1
  Se  Se18  1  0.993445  0.368800  0.857721  1
  Se  Se19  1  0.706449  0.043763  0.957074  1
  Se  Se20  1  0.368800  0.375355  0.357721  1
  Se  Se21  1  0.375355  0.006555  0.857721  1
  Se  Se22  1  0.375355  0.006555  0.642279  1
  Se  Se23  1  0.368800  0.375355  0.142279  1
  Se  Se24  1  0.006555  0.631200  0.142279  1
  Se  Se25  1  0.993445  0.368800  0.642279  1
  Se  Se26  1  0.631200  0.624645  0.642279  1
  Se  Se27  1  0.624645  0.993445  0.142279  1
  Se  Se28  1  0.337314  0.293551  0.542926  1
  Se  Se29  1  0.043763  0.337314  0.042926  1
  Se  Se30  1  0.337314  0.293551  0.957074  1
  Se  Se31  1  0.043763  0.337314  0.457074  1
  Se  Se32  1  0.293551  0.956237  0.457074  1
  Se  Se33  1  0.006555  0.631200  0.357721  1
  Rb  Rb34  1  0.000000  0.000000  0.362076  1
  Rb  Rb35  1  0.000000  0.000000  0.862076  1
  Rb  Rb36  1  0.000000  0.000000  0.637924  1
  Rb  Rb37  1  0.000000  0.000000  0.137924  1
  Rb  Rb38  1  0.333333  0.666667  0.750000  1
  Rb  Rb39  1  0.666667  0.333333  0.250000  1
  Mo  Mo40  1  0.481669  0.833781  0.250000  1
  Mo  Mo41  1  0.647888  0.481669  0.750000  1
  Mo  Mo42  1  0.833781  0.352112  0.750000  1
  Mo  Mo43  1  0.166219  0.647888  0.250000  1
  Mo  Mo44  1  0.352112  0.518331  0.250000  1
  Mo  Mo45  1  0.518331  0.166219  0.750000  1
  Mo  Mo46  1  0.683820  0.183064  0.856778  1
  Mo  Mo47  1  0.500756  0.683820  0.356778  1
  Mo  Mo48  1  0.183064  0.499244  0.356778  1
  Mo  Mo49  1  0.816936  0.500756  0.856778  1
  Mo  Mo50  1  0.499244  0.316180  0.856778  1
  Mo  Mo51  1  0.316180  0.816936  0.356778  1
  Mo  Mo52  1  0.316180  0.816936  0.143222  1
  Mo  Mo53  1  0.499244  0.316180  0.643222  1
  Mo  Mo54  1  0.816936  0.500756  0.643222  1
  Mo  Mo55  1  0.183064  0.499244  0.143222  1
  Mo  Mo56  1  0.500756  0.683820  0.143222  1
  Mo  Mo57  1  0.683820  0.183064  0.643222  1
  Mo  Mo58  1  0.520219  0.164775  0.965103  1
  Mo  Mo59  1  0.355444  0.520219  0.465103  1
  Mo  Mo60  1  0.164775  0.644556  0.465103  1
  Mo  Mo61  1  0.835225  0.355444  0.965103  1
  Mo  Mo62  1  0.644556  0.479781  0.965103  1
  Mo  Mo63  1  0.479781  0.835225  0.465103  1
  Mo  Mo64  1  0.479781  0.835225  0.034897  1
  Mo  Mo65  1  0.644556  0.479781  0.534897  1
  Mo  Mo66  1  0.835225  0.355444  0.534897  1
  Mo  Mo67  1  0.164775  0.644556  0.034897  1
  Mo  Mo68  1  0.355444  0.520219  0.034897  1
  Mo  Mo69  1  0.520219  0.164775  0.534897  1
