# generated using pymatgen
data_U2Si5Tc3
_symmetry_space_group_name_H-M   'P 1'
_cell_length_a   5.49169317
_cell_length_b   10.87526184
_cell_length_c   10.87526184
_cell_angle_alpha   90.00000000
_cell_angle_beta   90.00000000
_cell_angle_gamma   90.00000000
_symmetry_Int_Tables_number   1
_chemical_formula_structural   U2Si5Tc3
_chemical_formula_sum   'U8 Si20 Tc12'
_cell_volume   649.50980074
_cell_formula_units_Z   4
loop_
 _symmetry_equiv_pos_site_id
 _symmetry_equiv_pos_as_xyz
  1  'x, y, z'
loop_
 _atom_site_type_symbol
 _atom_site_label
 _atom_site_symmetry_multiplicity
 _atom_site_fract_x
 _atom_site_fract_y
 _atom_site_fract_z
 _atom_site_occupancy
  Si  Si0  1  0.774706  0.500000  0.500000  1
  Si  Si1  1  0.725294  0.000000  0.000000  1
  Si  Si2  1  0.225294  0.500000  0.500000  1
  Si  Si3  1  0.274706  0.000000  0.000000  1
  Si  Si4  1  0.750000  0.174613  0.674613  1
  Si  Si5  1  0.750000  0.325387  0.174613  1
  Si  Si6  1  0.750000  0.674613  0.825387  1
  Si  Si7  1  0.750000  0.825387  0.325387  1
  Si  Si8  1  0.250000  0.825387  0.325387  1
  Si  Si9  1  0.250000  0.674613  0.825387  1
  Si  Si10  1  0.250000  0.325387  0.174613  1
  Si  Si11  1  0.250000  0.174613  0.674613  1
  Si  Si12  1  0.500000  0.184149  0.475228  1
  Si  Si13  1  0.500000  0.815851  0.524772  1
  Si  Si14  1  0.500000  0.475228  0.815851  1
  Si  Si15  1  0.000000  0.024772  0.315851  1
  Si  Si16  1  0.000000  0.975228  0.684149  1
  Si  Si17  1  0.000000  0.315851  0.975228  1
  Si  Si18  1  0.000000  0.684149  0.024772  1
  Si  Si19  1  0.500000  0.524772  0.184149  1
  Tc  Tc20  1  0.000000  0.876117  0.141771  1
  Tc  Tc21  1  0.750000  0.000000  0.500000  1
  Tc  Tc22  1  0.250000  0.500000  0.000000  1
  Tc  Tc23  1  0.250000  0.000000  0.500000  1
  Tc  Tc24  1  0.500000  0.376117  0.358229  1
  Tc  Tc25  1  0.500000  0.623883  0.641771  1
  Tc  Tc26  1  0.500000  0.358229  0.623883  1
  Tc  Tc27  1  0.500000  0.641771  0.376117  1
  Tc  Tc28  1  0.000000  0.858229  0.876117  1
  Tc  Tc29  1  0.000000  0.123883  0.858229  1
  Tc  Tc30  1  0.000000  0.141771  0.123883  1
  Tc  Tc31  1  0.750000  0.500000  0.000000  1
  U  U32  1  0.500000  0.073005  0.236289  1
  U  U33  1  0.500000  0.926995  0.763711  1
  U  U34  1  0.500000  0.236289  0.926995  1
  U  U35  1  0.500000  0.763711  0.073005  1
  U  U36  1  0.000000  0.736289  0.573005  1
  U  U37  1  0.000000  0.426995  0.736289  1
  U  U38  1  0.000000  0.573005  0.263711  1
  U  U39  1  0.000000  0.263711  0.426995  1
