# generated using pymatgen
data_CoSeO3
_symmetry_space_group_name_H-M   'P 1'
_cell_length_a   5.09300677
_cell_length_b   6.00707074
_cell_length_c   7.67476856
_cell_angle_alpha   90.00000000
_cell_angle_beta   90.00000000
_cell_angle_gamma   90.00000000
_symmetry_Int_Tables_number   1
_chemical_formula_structural   CoSeO3
_chemical_formula_sum   'Co4 Se4 O12'
_cell_volume   234.80226800
_cell_formula_units_Z   4
loop_
 _symmetry_equiv_pos_site_id
 _symmetry_equiv_pos_as_xyz
  1  'x, y, z'
loop_
 _atom_site_type_symbol
 _atom_site_label
 _atom_site_symmetry_multiplicity
 _atom_site_fract_x
 _atom_site_fract_y
 _atom_site_fract_z
 _atom_site_occupancy
  O  O0  1  0.863590  0.185021  0.423788  1
  O  O1  1  0.363590  0.314980  0.576211  1
  O  O2  1  0.636409  0.685020  0.076211  1
  O  O3  1  0.136410  0.814979  0.923788  1
  O  O4  1  0.136410  0.814979  0.576211  1
  O  O5  1  0.636409  0.685020  0.423788  1
  O  O6  1  0.363590  0.314980  0.923788  1
  O  O7  1  0.863590  0.185021  0.076211  1
  O  O8  1  0.323027  0.069600  0.250001  1
  O  O9  1  0.823026  0.430400  0.750000  1
  O  O10  1  0.676972  0.930400  0.750000  1
  O  O11  1  0.176973  0.569600  0.250001  1
  Co  Co12  1  0.000000  0.500001  0.500000  1
  Co  Co13  1  0.500000  0.000000  0.500000  1
  Co  Co14  1  0.500000  0.000000  0.000000  1
  Co  Co15  1  0.000000  0.500001  0.000000  1
  Se  Se16  1  0.017192  0.977443  0.750000  1
  Se  Se17  1  0.517191  0.522556  0.250001  1
  Se  Se18  1  0.482808  0.477444  0.750000  1
  Se  Se19  1  0.982809  0.022557  0.250001  1
