# generated using pymatgen
data_KCN
_symmetry_space_group_name_H-M   'P 1'
_cell_length_a   3.95997978
_cell_length_b   3.95768823
_cell_length_c   3.95768823
_cell_angle_alpha   86.96775284
_cell_angle_beta   88.87418518
_cell_angle_gamma   88.87418516
_symmetry_Int_Tables_number   1
_chemical_formula_structural   KCN
_chemical_formula_sum   'K1 C1 N1'
_cell_volume   61.91678009
_cell_formula_units_Z   1
loop_
 _symmetry_equiv_pos_site_id
 _symmetry_equiv_pos_as_xyz
  1  'x, y, z'
loop_
 _atom_site_type_symbol
 _atom_site_label
 _atom_site_symmetry_multiplicity
 _atom_site_fract_x
 _atom_site_fract_y
 _atom_site_fract_z
 _atom_site_occupancy
  C  C0  1  0.636807  0.574490  0.574490  1
  N  N1  1  0.466448  0.408695  0.408695  1
  K  K2  1  0.032745  0.017815  0.017815  1
