# generated using pymatgen
data_Bi2Te4O11
_symmetry_space_group_name_H-M   'P 1'
_cell_length_a   7.07771115
_cell_length_b   8.12577593
_cell_length_c   19.21747623
_cell_angle_alpha   90.00000000
_cell_angle_beta   93.73185426
_cell_angle_gamma   90.00000000
_symmetry_Int_Tables_number   1
_chemical_formula_structural   Bi2Te4O11
_chemical_formula_sum   'Bi8 Te16 O44'
_cell_volume   1102.88992094
_cell_formula_units_Z   4
loop_
 _symmetry_equiv_pos_site_id
 _symmetry_equiv_pos_as_xyz
  1  'x, y, z'
loop_
 _atom_site_type_symbol
 _atom_site_label
 _atom_site_symmetry_multiplicity
 _atom_site_fract_x
 _atom_site_fract_y
 _atom_site_fract_z
 _atom_site_occupancy
  O  O0  1  0.805354  0.274192  0.338448  1
  O  O1  1  0.694646  0.774192  0.161552  1
  O  O2  1  0.194646  0.725808  0.661552  1
  O  O3  1  0.305354  0.225808  0.838448  1
  O  O4  1  0.313174  0.398339  0.688049  1
  O  O5  1  0.186826  0.898339  0.811951  1
  O  O6  1  0.686826  0.601661  0.311951  1
  O  O7  1  0.813174  0.101661  0.188049  1
  O  O8  1  0.165807  0.476246  0.536018  1
  O  O9  1  0.334193  0.976246  0.963982  1
  O  O10  1  0.834193  0.523754  0.463982  1
  O  O11  1  0.665807  0.023754  0.036018  1
  O  O12  1  0.840144  0.334203  0.607796  1
  O  O13  1  0.659856  0.834203  0.892204  1
  O  O14  1  0.159856  0.665797  0.392204  1
  O  O15  1  0.340144  0.165797  0.107796  1
  O  O16  1  0.058845  0.473130  0.267037  1
  O  O17  1  0.135031  0.421713  0.041914  1
  O  O18  1  0.864969  0.578287  0.958086  1
  O  O19  1  0.635031  0.078287  0.541914  1
  O  O20  1  0.457887  0.343738  0.247770  1
  O  O21  1  0.042113  0.843738  0.252230  1
  O  O22  1  0.542113  0.656262  0.752230  1
  O  O23  1  0.957887  0.156262  0.747770  1
  O  O24  1  0.937866  0.172250  0.476961  1
  O  O25  1  0.562134  0.672250  0.023039  1
  O  O26  1  0.062134  0.827750  0.523039  1
  O  O27  1  0.437866  0.327750  0.976961  1
  O  O28  1  0.909311  0.176098  0.967772  1
  O  O29  1  0.590689  0.676098  0.532228  1
  O  O30  1  0.090689  0.823902  0.032228  1
  O  O31  1  0.409311  0.323902  0.467772  1
  O  O32  1  0.255202  0.152110  0.584625  1
  O  O33  1  0.244798  0.652110  0.915375  1
  O  O34  1  0.744798  0.847890  0.415375  1
  O  O35  1  0.755202  0.347890  0.084625  1
  O  O36  1  0.285259  0.145228  0.346027  1
  O  O37  1  0.214741  0.645228  0.153973  1
  O  O38  1  0.714741  0.854772  0.653973  1
  O  O39  1  0.785259  0.354772  0.846027  1
  O  O40  1  0.558845  0.026870  0.767037  1
  O  O41  1  0.941155  0.526870  0.732963  1
  O  O42  1  0.441155  0.973130  0.232963  1
  O  O43  1  0.364969  0.921713  0.458086  1
  Te  Te44  1  0.385685  0.353173  0.570745  1
  Te  Te45  1  0.114315  0.853173  0.929255  1
  Te  Te46  1  0.614315  0.646827  0.429255  1
  Te  Te47  1  0.885685  0.146827  0.070745  1
  Te  Te48  1  0.745699  0.411859  0.260396  1
  Te  Te49  1  0.754301  0.911859  0.239604  1
  Te  Te50  1  0.254301  0.588141  0.739604  1
  Te  Te51  1  0.245699  0.088141  0.760396  1
  Te  Te52  1  0.406546  0.376359  0.073426  1
  Te  Te53  1  0.093454  0.876359  0.426574  1
  Te  Te54  1  0.593454  0.623641  0.926574  1
  Te  Te55  1  0.906546  0.123641  0.573426  1
  Te  Te56  1  0.782679  0.339317  0.747135  1
  Te  Te57  1  0.717321  0.839317  0.752865  1
  Te  Te58  1  0.217321  0.660683  0.252865  1
  Te  Te59  1  0.282679  0.160683  0.247135  1
  Bi  Bi60  1  0.075834  0.388326  0.416573  1
  Bi  Bi61  1  0.424166  0.888326  0.083427  1
  Bi  Bi62  1  0.924166  0.611674  0.583427  1
  Bi  Bi63  1  0.575834  0.111674  0.916573  1
  Bi  Bi64  1  0.071694  0.382444  0.921855  1
  Bi  Bi65  1  0.428306  0.882444  0.578145  1
  Bi  Bi66  1  0.928306  0.617556  0.078145  1
  Bi  Bi67  1  0.571694  0.117556  0.421855  1
