# generated using pymatgen
data_FeS
_symmetry_space_group_name_H-M   'P 1'
_cell_length_a   3.32201229
_cell_length_b   5.17655213
_cell_length_c   5.56905829
_cell_angle_alpha   90.00000000
_cell_angle_beta   90.00000000
_cell_angle_gamma   90.00000000
_symmetry_Int_Tables_number   1
_chemical_formula_structural   FeS
_chemical_formula_sum   'Fe4 S4'
_cell_volume   95.76869958
_cell_formula_units_Z   4
loop_
 _symmetry_equiv_pos_site_id
 _symmetry_equiv_pos_as_xyz
  1  'x, y, z'
loop_
 _atom_site_type_symbol
 _atom_site_label
 _atom_site_symmetry_multiplicity
 _atom_site_fract_x
 _atom_site_fract_y
 _atom_site_fract_z
 _atom_site_occupancy
  Fe  Fe0  1  0.750000  0.984285  0.796791  1
  Fe  Fe1  1  0.250000  0.015715  0.203209  1
  Fe  Fe2  1  0.750000  0.484285  0.703209  1
  Fe  Fe3  1  0.250000  0.515715  0.296791  1
  S  S4  1  0.750000  0.784694  0.417751  1
  S  S5  1  0.250000  0.215306  0.582249  1
  S  S6  1  0.750000  0.284694  0.082249  1
  S  S7  1  0.250000  0.715306  0.917751  1
