# generated using pymatgen
data_Nd2WO6
_symmetry_space_group_name_H-M   'P 1'
_cell_length_a   5.45201028
_cell_length_b   9.41913151
_cell_length_c   10.28763301
_cell_angle_alpha   90.00000000
_cell_angle_beta   90.00000000
_cell_angle_gamma   90.00000000
_symmetry_Int_Tables_number   1
_chemical_formula_structural   Nd2WO6
_chemical_formula_sum   'Nd8 W4 O24'
_cell_volume   528.30289422
_cell_formula_units_Z   4
loop_
 _symmetry_equiv_pos_site_id
 _symmetry_equiv_pos_as_xyz
  1  'x, y, z'
loop_
 _atom_site_type_symbol
 _atom_site_label
 _atom_site_symmetry_multiplicity
 _atom_site_fract_x
 _atom_site_fract_y
 _atom_site_fract_z
 _atom_site_occupancy
  O  O0  1  0.250171  0.088386  0.508951  1
  O  O1  1  0.750169  0.411613  0.491050  1
  O  O2  1  0.749830  0.588387  0.991050  1
  O  O3  1  0.249830  0.911614  0.008950  1
  O  O4  1  0.722474  0.112206  0.564925  1
  O  O5  1  0.222473  0.387794  0.435074  1
  O  O6  1  0.277527  0.612206  0.935074  1
  O  O7  1  0.777528  0.887794  0.064925  1
  O  O8  1  0.574137  0.848360  0.526960  1
  O  O9  1  0.074137  0.651640  0.473039  1
  O  O10  1  0.425862  0.348360  0.973040  1
  O  O11  1  0.925862  0.151641  0.026960  1
  O  O12  1  0.183505  0.861985  0.259769  1
  O  O13  1  0.683506  0.638015  0.740232  1
  O  O14  1  0.816494  0.361985  0.240232  1
  O  O15  1  0.316493  0.138014  0.759769  1
  O  O16  1  0.829370  0.049421  0.288418  1
  O  O17  1  0.329369  0.450579  0.711582  1
  O  O18  1  0.190447  0.864756  0.679050  1
  O  O19  1  0.670630  0.950579  0.788419  1
  O  O20  1  0.309553  0.135244  0.179050  1
  O  O21  1  0.809552  0.364756  0.820951  1
  O  O22  1  0.690448  0.635244  0.320950  1
  O  O23  1  0.170631  0.549421  0.211582  1
  Nd  Nd24  1  0.476338  0.603815  0.537734  1
  Nd  Nd25  1  0.976338  0.896184  0.462266  1
  Nd  Nd26  1  0.523661  0.103816  0.962266  1
  Nd  Nd27  1  0.023661  0.396185  0.037734  1
  Nd  Nd28  1  0.965792  0.781085  0.868116  1
  Nd  Nd29  1  0.465792  0.718914  0.131884  1
  Nd  Nd30  1  0.534209  0.218914  0.368116  1
  Nd  Nd31  1  0.034209  0.281086  0.631884  1
  W  W32  1  0.458808  0.996093  0.647890  1
  W  W33  1  0.958808  0.503906  0.352110  1
  W  W34  1  0.541191  0.496094  0.852111  1
  W  W35  1  0.041193  0.003907  0.147890  1
