# generated using pymatgen
data_Tc2O7
_symmetry_space_group_name_H-M   'P 1'
_cell_length_a   5.89136114
_cell_length_b   7.81973337
_cell_length_c   14.26910355
_cell_angle_alpha   90.00000000
_cell_angle_beta   90.00000000
_cell_angle_gamma   90.00000000
_symmetry_Int_Tables_number   1
_chemical_formula_structural   Tc2O7
_chemical_formula_sum   'Tc8 O28'
_cell_volume   657.36152357
_cell_formula_units_Z   4
loop_
 _symmetry_equiv_pos_site_id
 _symmetry_equiv_pos_as_xyz
  1  'x, y, z'
loop_
 _atom_site_type_symbol
 _atom_site_label
 _atom_site_symmetry_multiplicity
 _atom_site_fract_x
 _atom_site_fract_y
 _atom_site_fract_z
 _atom_site_occupancy
  O  O0  1  0.578924  0.620649  0.584876  1
  O  O1  1  0.078924  0.379351  0.915124  1
  O  O2  1  0.921076  0.120649  0.415124  1
  O  O3  1  0.421076  0.879351  0.084876  1
  O  O4  1  0.421076  0.379351  0.415124  1
  O  O5  1  0.921076  0.620649  0.084876  1
  O  O6  1  0.078924  0.879351  0.584876  1
  O  O7  1  0.578924  0.120649  0.915124  1
  O  O8  1  0.000000  0.000000  0.000000  1
  O  O9  1  0.500000  0.000000  0.500000  1
  O  O10  1  0.500000  0.500000  0.000000  1
  O  O11  1  0.000000  0.500000  0.500000  1
  O  O12  1  0.705905  0.783613  0.882961  1
  O  O13  1  0.205905  0.216387  0.617039  1
  O  O14  1  0.794095  0.283613  0.117039  1
  O  O15  1  0.294095  0.716387  0.382961  1
  O  O16  1  0.294095  0.216387  0.117039  1
  O  O17  1  0.794095  0.783613  0.382961  1
  O  O18  1  0.205905  0.716387  0.882961  1
  O  O19  1  0.705905  0.283613  0.617039  1
  O  O20  1  0.939866  0.048857  0.796051  1
  O  O21  1  0.439866  0.951143  0.703949  1
  O  O22  1  0.560134  0.548857  0.203949  1
  O  O23  1  0.060134  0.451143  0.296051  1
  O  O24  1  0.060134  0.951143  0.203949  1
  O  O25  1  0.560134  0.048857  0.296051  1
  O  O26  1  0.439866  0.451143  0.796051  1
  O  O27  1  0.939866  0.548857  0.703949  1
  Tc  Tc28  1  0.805490  0.487534  0.603541  1
  Tc  Tc29  1  0.305490  0.512466  0.896459  1
  Tc  Tc30  1  0.694510  0.987534  0.396459  1
  Tc  Tc31  1  0.194510  0.012466  0.103541  1
  Tc  Tc32  1  0.194510  0.512466  0.396459  1
  Tc  Tc33  1  0.694510  0.487534  0.103541  1
  Tc  Tc34  1  0.305490  0.012466  0.603541  1
  Tc  Tc35  1  0.805490  0.987534  0.896459  1
