# generated using pymatgen
data_MgH6(SO4)4
_symmetry_space_group_name_H-M   'P 1'
_cell_length_a   5.21175904
_cell_length_b   8.29597811
_cell_length_c   15.38558895
_cell_angle_alpha   90.00000000
_cell_angle_beta   90.00000000
_cell_angle_gamma   103.53280400
_symmetry_Int_Tables_number   1
_chemical_formula_structural   MgH6(SO4)4
_chemical_formula_sum   'Mg2 H12 S8 O32'
_cell_volume   646.75202345
_cell_formula_units_Z   2
loop_
 _symmetry_equiv_pos_site_id
 _symmetry_equiv_pos_as_xyz
  1  'x, y, z'
loop_
 _atom_site_type_symbol
 _atom_site_label
 _atom_site_symmetry_multiplicity
 _atom_site_fract_x
 _atom_site_fract_y
 _atom_site_fract_z
 _atom_site_occupancy
  H  H0  1  0.711966  0.385331  0.023803  1
  H  H1  1  0.288034  0.114669  0.523803  1
  H  H2  1  0.288034  0.614669  0.976197  1
  H  H3  1  0.711966  0.885331  0.476197  1
  H  H4  1  0.193222  0.302076  0.265327  1
  H  H5  1  0.806778  0.197924  0.765327  1
  H  H6  1  0.806778  0.697924  0.734673  1
  H  H7  1  0.193222  0.802076  0.234673  1
  H  H8  1  0.415929  0.334956  0.764148  1
  H  H9  1  0.584071  0.165044  0.264148  1
  H  H10  1  0.584071  0.665044  0.235852  1
  H  H11  1  0.415929  0.834956  0.735852  1
  O  O12  1  0.392199  0.736421  0.179132  1
  O  O13  1  0.607801  0.263579  0.820868  1
  O  O14  1  0.702323  0.896559  0.541920  1
  O  O15  1  0.297677  0.603441  0.041920  1
  O  O16  1  0.297677  0.103441  0.458080  1
  O  O17  1  0.702323  0.396559  0.958080  1
  O  O18  1  0.702437  0.821721  0.060323  1
  O  O19  1  0.297563  0.678279  0.560323  1
  O  O20  1  0.297563  0.178279  0.939677  1
  O  O21  1  0.392199  0.236421  0.320868  1
  O  O22  1  0.276317  0.895428  0.059007  1
  O  O23  1  0.723683  0.604572  0.559007  1
  O  O24  1  0.723683  0.104572  0.940993  1
  O  O25  1  0.276317  0.395428  0.440993  1
  O  O26  1  0.978075  0.840145  0.891070  1
  O  O27  1  0.021925  0.659855  0.391070  1
  O  O28  1  0.021925  0.159855  0.108930  1
  O  O29  1  0.978075  0.340145  0.608930  1
  O  O30  1  0.734200  0.856948  0.374280  1
  O  O31  1  0.265800  0.643052  0.874280  1
  O  O32  1  0.265800  0.143052  0.625720  1
  O  O33  1  0.734200  0.356948  0.125720  1
  O  O34  1  0.077079  0.861364  0.271355  1
  O  O35  1  0.922921  0.638636  0.771355  1
  O  O36  1  0.922921  0.138636  0.728645  1
  O  O37  1  0.077079  0.361364  0.228645  1
  O  O38  1  0.299031  0.883927  0.777523  1
  O  O39  1  0.700969  0.616073  0.277523  1
  O  O40  1  0.700969  0.116073  0.222477  1
  O  O41  1  0.299031  0.383927  0.722477  1
  O  O42  1  0.702437  0.321721  0.439677  1
  O  O43  1  0.607801  0.763579  0.679132  1
  Mg  Mg44  1  0.000000  0.000000  0.000000  1
  Mg  Mg45  1  0.000000  0.500000  0.500000  1
  S  S46  1  0.116957  0.250198  0.665755  1
  S  S47  1  0.883043  0.249802  0.165755  1
  S  S48  1  0.575641  0.725706  0.584703  1
  S  S49  1  0.424359  0.774294  0.084703  1
  S  S50  1  0.424359  0.274294  0.415297  1
  S  S51  1  0.575641  0.225706  0.915297  1
  S  S52  1  0.116957  0.750198  0.834245  1
  S  S53  1  0.883043  0.749802  0.334245  1
