# generated using pymatgen
data_BaTe2F10
_symmetry_space_group_name_H-M   'P 1'
_cell_length_a   4.94668014
_cell_length_b   9.15639662
_cell_length_c   10.46394030
_cell_angle_alpha   111.34235909
_cell_angle_beta   90.00000000
_cell_angle_gamma   105.67150006
_symmetry_Int_Tables_number   1
_chemical_formula_structural   BaTe2F10
_chemical_formula_sum   'Ba2 Te4 F20'
_cell_volume   422.47698885
_cell_formula_units_Z   2
loop_
 _symmetry_equiv_pos_site_id
 _symmetry_equiv_pos_as_xyz
  1  'x, y, z'
loop_
 _atom_site_type_symbol
 _atom_site_label
 _atom_site_symmetry_multiplicity
 _atom_site_fract_x
 _atom_site_fract_y
 _atom_site_fract_z
 _atom_site_occupancy
  Ba  Ba0  1  0.040789  0.000000  0.250000  1
  Ba  Ba1  1  0.959211  0.000000  0.750000  1
  Te  Te2  1  0.714009  0.316209  0.067309  1
  Te  Te3  1  0.397800  0.683791  0.432691  1
  Te  Te4  1  0.285991  0.683791  0.932691  1
  Te  Te5  1  0.602200  0.316209  0.567309  1
  F  F6  1  0.508573  0.147526  0.877299  1
  F  F7  1  0.361047  0.852474  0.622701  1
  F  F8  1  0.491427  0.852474  0.122701  1
  F  F9  1  0.638953  0.147526  0.377299  1
  F  F10  1  0.059933  0.335579  0.962471  1
  F  F11  1  0.724354  0.664421  0.537529  1
  F  F12  1  0.940067  0.664421  0.037529  1
  F  F13  1  0.275646  0.335579  0.462471  1
  F  F14  1  0.821278  0.122221  0.053257  1
  F  F15  1  0.699057  0.877779  0.446743  1
  F  F16  1  0.178722  0.877779  0.946743  1
  F  F17  1  0.300943  0.122221  0.553257  1
  F  F18  1  0.400780  0.213634  0.155113  1
  F  F19  1  0.187146  0.786366  0.344887  1
  F  F20  1  0.599220  0.786366  0.844887  1
  F  F21  1  0.812854  0.213634  0.655113  1
  F  F22  1  0.955328  0.404543  0.243538  1
  F  F23  1  0.550785  0.595457  0.256462  1
  F  F24  1  0.044672  0.595457  0.756462  1
  F  F25  1  0.449215  0.404543  0.743538  1
