# generated using pymatgen
data_CaH8(ClO2)2
_symmetry_space_group_name_H-M   'P 1'
_cell_length_a   6.08954075
_cell_length_b   7.79408718
_cell_length_c   8.93743123
_cell_angle_alpha   90.00000000
_cell_angle_beta   109.90552398
_cell_angle_gamma   90.00000000
_symmetry_Int_Tables_number   1
_chemical_formula_structural   CaH8(ClO2)2
_chemical_formula_sum   'Ca2 H16 Cl4 O8'
_cell_volume   398.84881545
_cell_formula_units_Z   2
loop_
 _symmetry_equiv_pos_site_id
 _symmetry_equiv_pos_as_xyz
  1  'x, y, z'
loop_
 _atom_site_type_symbol
 _atom_site_label
 _atom_site_symmetry_multiplicity
 _atom_site_fract_x
 _atom_site_fract_y
 _atom_site_fract_z
 _atom_site_occupancy
  H  H0  1  0.084927  0.439904  0.194612  1
  H  H1  1  0.415073  0.939904  0.305388  1
  H  H2  1  0.915073  0.560096  0.805388  1
  H  H3  1  0.584927  0.060096  0.694612  1
  H  H4  1  0.244116  0.571581  0.147892  1
  H  H5  1  0.255884  0.071581  0.352108  1
  H  H6  1  0.755884  0.428419  0.852108  1
  H  H7  1  0.744116  0.928419  0.647892  1
  H  H8  1  0.888445  0.271623  0.469535  1
  H  H9  1  0.611555  0.771623  0.030465  1
  H  H10  1  0.111555  0.728377  0.530465  1
  H  H11  1  0.388445  0.228377  0.969535  1
  H  H12  1  0.785314  0.798410  0.202989  1
  H  H13  1  0.714686  0.298410  0.297011  1
  H  H14  1  0.285314  0.701590  0.702989  1
  H  H15  1  0.214686  0.201590  0.797011  1
  O  O16  1  0.231890  0.504814  0.238660  1
  O  O17  1  0.268110  0.004814  0.261340  1
  O  O18  1  0.768110  0.495186  0.761340  1
  O  O19  1  0.731890  0.995186  0.738660  1
  O  O20  1  0.727723  0.308753  0.409716  1
  O  O21  1  0.772277  0.808753  0.090284  1
  O  O22  1  0.272277  0.691247  0.590284  1
  O  O23  1  0.227723  0.191247  0.909716  1
  Cl  Cl24  1  0.732316  0.783964  0.433971  1
  Cl  Cl25  1  0.767684  0.283964  0.066029  1
  Cl  Cl26  1  0.267684  0.216036  0.566029  1
  Cl  Cl27  1  0.232316  0.716036  0.933971  1
  Ca  Ca28  1  0.500000  0.500000  0.500000  1
  Ca  Ca29  1  0.000000  0.000000  0.000000  1
