# generated using pymatgen
data_MoBr2
_symmetry_space_group_name_H-M   'P 1'
_cell_length_a   10.03231518
_cell_length_b   10.03231518
_cell_length_c   12.10007498
_cell_angle_alpha   90.00000000
_cell_angle_beta   90.00000000
_cell_angle_gamma   105.86177842
_symmetry_Int_Tables_number   1
_chemical_formula_structural   MoBr2
_chemical_formula_sum   'Mo12 Br24'
_cell_volume   1171.46978143
_cell_formula_units_Z   12
loop_
 _symmetry_equiv_pos_site_id
 _symmetry_equiv_pos_as_xyz
  1  'x, y, z'
loop_
 _atom_site_type_symbol
 _atom_site_label
 _atom_site_symmetry_multiplicity
 _atom_site_fract_x
 _atom_site_fract_y
 _atom_site_fract_z
 _atom_site_occupancy
  Br  Br0  1  0.655234  0.655234  0.844837  1
  Br  Br1  1  0.844766  0.844766  0.344837  1
  Br  Br2  1  0.155234  0.155234  0.655163  1
  Br  Br3  1  0.344766  0.344766  0.155163  1
  Br  Br4  1  0.778480  0.221520  0.500000  1
  Br  Br5  1  0.721520  0.278480  0.000000  1
  Br  Br6  1  0.221520  0.778480  0.500000  1
  Br  Br7  1  0.278480  0.721520  0.000000  1
  Br  Br8  1  0.090609  0.321847  0.930770  1
  Br  Br9  1  0.409391  0.178153  0.430770  1
  Br  Br10  1  0.821847  0.590609  0.569230  1
  Br  Br11  1  0.678153  0.909391  0.069230  1
  Br  Br12  1  0.184734  0.953738  0.206138  1
  Br  Br13  1  0.315265  0.546262  0.706138  1
  Br  Br14  1  0.453738  0.684735  0.293862  1
  Br  Br15  1  0.046262  0.815265  0.793862  1
  Br  Br16  1  0.815265  0.046262  0.793862  1
  Br  Br17  1  0.684735  0.453738  0.293862  1
  Br  Br18  1  0.546262  0.315265  0.706138  1
  Br  Br19  1  0.953738  0.184734  0.206138  1
  Br  Br20  1  0.321847  0.090609  0.930770  1
  Br  Br21  1  0.178153  0.409391  0.430770  1
  Br  Br22  1  0.590609  0.821847  0.569230  1
  Br  Br23  1  0.909391  0.678153  0.069230  1
  Mo  Mo24  1  0.069301  0.069301  0.861503  1
  Mo  Mo25  1  0.430699  0.430699  0.361503  1
  Mo  Mo26  1  0.569301  0.569301  0.638497  1
  Mo  Mo27  1  0.930699  0.930699  0.138497  1
  Mo  Mo28  1  0.861440  0.861440  0.930826  1
  Mo  Mo29  1  0.638560  0.638560  0.430826  1
  Mo  Mo30  1  0.361440  0.361440  0.569174  1
  Mo  Mo31  1  0.138560  0.138560  0.069174  1
  Mo  Mo32  1  0.617527  0.382473  0.500000  1
  Mo  Mo33  1  0.882473  0.117527  0.000000  1
  Mo  Mo34  1  0.382473  0.617527  0.500000  1
  Mo  Mo35  1  0.117527  0.882473  0.000000  1
