# generated using pymatgen
data_NaGaBr4
_symmetry_space_group_name_H-M   'P 1'
_cell_length_a   7.65980741
_cell_length_b   7.65338194
_cell_length_c   14.26883817
_cell_angle_alpha   90.00000000
_cell_angle_beta   90.00000000
_cell_angle_gamma   90.00000000
_symmetry_Int_Tables_number   1
_chemical_formula_structural   NaGaBr4
_chemical_formula_sum   'Na4 Ga4 Br16'
_cell_volume   836.48825983
_cell_formula_units_Z   4
loop_
 _symmetry_equiv_pos_site_id
 _symmetry_equiv_pos_as_xyz
  1  'x, y, z'
loop_
 _atom_site_type_symbol
 _atom_site_label
 _atom_site_symmetry_multiplicity
 _atom_site_fract_x
 _atom_site_fract_y
 _atom_site_fract_z
 _atom_site_occupancy
  Na  Na0  1  0.948844  0.750000  0.348989  1
  Na  Na1  1  0.448844  0.250000  0.151011  1
  Na  Na2  1  0.051156  0.250000  0.651011  1
  Na  Na3  1  0.551156  0.750000  0.848989  1
  Ga  Ga4  1  0.796974  0.750000  0.601178  1
  Ga  Ga5  1  0.296974  0.250000  0.898822  1
  Ga  Ga6  1  0.203026  0.250000  0.398822  1
  Ga  Ga7  1  0.703026  0.750000  0.101178  1
  Br  Br8  1  0.623657  0.750000  0.465709  1
  Br  Br9  1  0.123657  0.250000  0.034291  1
  Br  Br10  1  0.376343  0.250000  0.534291  1
  Br  Br11  1  0.876343  0.750000  0.965709  1
  Br  Br12  1  0.093407  0.750000  0.554823  1
  Br  Br13  1  0.593407  0.250000  0.945177  1
  Br  Br14  1  0.906593  0.250000  0.445177  1
  Br  Br15  1  0.406593  0.750000  0.054823  1
  Br  Br16  1  0.764152  -0.004168  0.197981  1
  Br  Br17  1  0.264152  1.004168  0.302019  1
  Br  Br18  1  0.235848  0.495832  0.802019  1
  Br  Br19  1  0.735848  0.504168  0.697981  1
  Br  Br20  1  0.235848  1.004168  0.802019  1
  Br  Br21  1  0.735848  -0.004168  0.697981  1
  Br  Br22  1  0.764152  0.504168  0.197981  1
  Br  Br23  1  0.264152  0.495832  0.302019  1
