# generated using pymatgen
data_K2Sb4O11
_symmetry_space_group_name_H-M   'P 1'
_cell_length_a   7.29153118
_cell_length_b   7.67049981
_cell_length_c   10.61070400
_cell_angle_alpha   111.18933562
_cell_angle_beta   94.80657913
_cell_angle_gamma   89.99999998
_symmetry_Int_Tables_number   1
_chemical_formula_structural   K2Sb4O11
_chemical_formula_sum   'K4 Sb8 O22'
_cell_volume   551.09167902
_cell_formula_units_Z   2
loop_
 _symmetry_equiv_pos_site_id
 _symmetry_equiv_pos_as_xyz
  1  'x, y, z'
loop_
 _atom_site_type_symbol
 _atom_site_label
 _atom_site_symmetry_multiplicity
 _atom_site_fract_x
 _atom_site_fract_y
 _atom_site_fract_z
 _atom_site_occupancy
  O  O0  1  0.186760  0.431535  0.259059  1
  O  O1  1  0.813240  0.172476  0.740941  1
  O  O2  1  0.813240  0.568465  0.740941  1
  O  O3  1  0.186760  0.827524  0.259059  1
  O  O4  1  0.332140  0.553250  0.527831  1
  O  O5  1  0.667860  0.025420  0.472169  1
  O  O6  1  0.667860  0.446750  0.472169  1
  O  O7  1  0.332140  0.974580  0.527831  1
  O  O8  1  0.431343  0.668100  0.823756  1
  O  O9  1  0.568657  0.844344  0.176244  1
  O  O10  1  0.568657  0.331900  0.176244  1
  O  O11  1  0.431343  0.155656  0.823756  1
  O  O12  1  0.000000  0.672552  0.000000  1
  O  O13  1  0.000000  0.327448  0.000000  1
  O  O14  1  0.350650  0.160182  0.320363  1
  O  O15  1  0.649350  0.839818  0.679637  1
  O  O16  1  0.132813  0.381388  0.762777  1
  O  O17  1  0.867187  0.618612  0.237223  1
  O  O18  1  0.490038  0.333122  0.666244  1
  O  O19  1  0.509962  0.666878  0.333756  1
  O  O20  1  0.344982  0.523418  0.046837  1
  O  O21  1  0.655018  0.476582  0.953163  1
  K  K22  1  0.003002  0.239836  0.479671  1
  K  K23  1  0.996998  0.760164  0.520329  1
  K  K24  1  0.261100  0.010755  0.021510  1
  K  K25  1  0.738900  0.989245  0.978490  1
  Sb  Sb26  1  0.096972  0.571763  0.143526  1
  Sb  Sb27  1  0.903028  0.428237  0.856474  1
  Sb  Sb28  1  0.616339  0.575892  0.151783  1
  Sb  Sb29  1  0.383661  0.424108  0.848217  1
  Sb  Sb30  1  0.434980  0.932189  0.349073  1
  Sb  Sb31  1  0.565020  0.583116  0.650927  1
  Sb  Sb32  1  0.565020  0.067811  0.650927  1
  Sb  Sb33  1  0.434980  0.416884  0.349073  1
