# generated using pymatgen
data_Hg3TeCl4
_symmetry_space_group_name_H-M   'P 1'
_cell_length_a   12.09256415
_cell_length_b   12.77377028
_cell_length_c   13.10447763
_cell_angle_alpha   90.00000000
_cell_angle_beta   90.00000000
_cell_angle_gamma   90.00000000
_symmetry_Int_Tables_number   1
_chemical_formula_structural   Hg3TeCl4
_chemical_formula_sum   'Hg24 Te8 Cl32'
_cell_volume   2024.21768771
_cell_formula_units_Z   8
loop_
 _symmetry_equiv_pos_site_id
 _symmetry_equiv_pos_as_xyz
  1  'x, y, z'
loop_
 _atom_site_type_symbol
 _atom_site_label
 _atom_site_symmetry_multiplicity
 _atom_site_fract_x
 _atom_site_fract_y
 _atom_site_fract_z
 _atom_site_occupancy
  Cl  Cl0  1  0.322623  0.104936  0.218633  1
  Cl  Cl1  1  0.822623  0.395064  0.781367  1
  Cl  Cl2  1  0.677377  0.604936  0.281367  1
  Cl  Cl3  1  0.177377  0.895064  0.718633  1
  Cl  Cl4  1  0.677377  0.895064  0.781367  1
  Cl  Cl5  1  0.177377  0.604936  0.218633  1
  Cl  Cl6  1  0.322623  0.395064  0.718633  1
  Cl  Cl7  1  0.822623  0.104936  0.281367  1
  Cl  Cl8  1  0.044795  0.080498  0.104196  1
  Cl  Cl9  1  0.544795  0.419502  0.895804  1
  Cl  Cl10  1  0.955205  0.580498  0.395804  1
  Cl  Cl11  1  0.455205  0.919502  0.604196  1
  Cl  Cl12  1  0.955205  0.919502  0.895804  1
  Cl  Cl13  1  0.455205  0.580498  0.104196  1
  Cl  Cl14  1  0.044795  0.419502  0.604196  1
  Cl  Cl15  1  0.582472  0.217770  0.679195  1
  Cl  Cl16  1  0.746973  0.158076  0.947751  1
  Cl  Cl17  1  0.246974  0.341924  0.052249  1
  Cl  Cl18  1  0.253026  0.658076  0.552249  1
  Cl  Cl19  1  0.753027  0.841924  0.447751  1
  Cl  Cl20  1  0.253026  0.841924  0.052249  1
  Cl  Cl21  1  0.753027  0.658076  0.947751  1
  Cl  Cl22  1  0.746973  0.341924  0.447751  1
  Cl  Cl23  1  0.246974  0.158076  0.552249  1
  Cl  Cl24  1  0.082472  0.217770  0.820805  1
  Cl  Cl25  1  0.582472  0.282230  0.179195  1
  Cl  Cl26  1  0.917528  0.717770  0.679195  1
  Cl  Cl27  1  0.417528  0.782230  0.320805  1
  Cl  Cl28  1  0.917528  0.782230  0.179195  1
  Cl  Cl29  1  0.417528  0.717770  0.820805  1
  Cl  Cl30  1  0.082472  0.282230  0.320805  1
  Cl  Cl31  1  0.544795  0.080498  0.395804  1
  Te  Te32  1  0.401989  0.102730  0.898676  1
  Te  Te33  1  0.901989  0.397270  0.101324  1
  Te  Te34  1  0.598011  0.602730  0.601324  1
  Te  Te35  1  0.098011  0.897270  0.398676  1
  Te  Te36  1  0.598011  0.897270  0.101324  1
  Te  Te37  1  0.098011  0.602730  0.898676  1
  Te  Te38  1  0.401989  0.397270  0.398676  1
  Te  Te39  1  0.901989  0.102730  0.601324  1
  Hg  Hg40  1  0.595432  0.091379  0.182960  1
  Hg  Hg41  1  0.309821  0.314597  0.227961  1
  Hg  Hg42  1  0.190179  0.685403  0.727961  1
  Hg  Hg43  1  0.690179  0.814597  0.272039  1
  Hg  Hg44  1  0.190179  0.814597  0.227961  1
  Hg  Hg45  1  0.690179  0.685403  0.772039  1
  Hg  Hg46  1  0.809821  0.314597  0.272039  1
  Hg  Hg47  1  0.309821  0.185403  0.727961  1
  Hg  Hg48  1  0.809821  0.185403  0.772039  1
  Hg  Hg49  1  0.095432  0.408621  0.817040  1
  Hg  Hg50  1  0.404568  0.591379  0.317040  1
  Hg  Hg51  1  0.904568  0.908621  0.682960  1
  Hg  Hg52  1  0.404568  0.908621  0.817040  1
  Hg  Hg53  1  0.904568  0.591379  0.182960  1
  Hg  Hg54  1  0.595432  0.408621  0.682960  1
  Hg  Hg55  1  0.095432  0.091379  0.317040  1
  Hg  Hg56  1  0.218780  0.080991  0.014745  1
  Hg  Hg57  1  0.718780  0.419009  0.985255  1
  Hg  Hg58  1  0.781220  0.580991  0.485255  1
  Hg  Hg59  1  0.281220  0.919009  0.514745  1
  Hg  Hg60  1  0.781220  0.919009  0.985255  1
  Hg  Hg61  1  0.281220  0.580991  0.014745  1
  Hg  Hg62  1  0.218780  0.419009  0.514745  1
  Hg  Hg63  1  0.718780  0.080991  0.485255  1
