# generated using pymatgen
data_Li2NiPO4F
_symmetry_space_group_name_H-M   'P 1'
_cell_length_a   5.30480371
_cell_length_b   5.32375565
_cell_length_c   7.41216193
_cell_angle_alpha   71.66405428
_cell_angle_beta   71.56948007
_cell_angle_gamma   93.92504563
_symmetry_Int_Tables_number   1
_chemical_formula_structural   Li2NiPO4F
_chemical_formula_sum   'Li4 Ni2 P2 O8 F2'
_cell_volume   185.20466334
_cell_formula_units_Z   2
loop_
 _symmetry_equiv_pos_site_id
 _symmetry_equiv_pos_as_xyz
  1  'x, y, z'
loop_
 _atom_site_type_symbol
 _atom_site_label
 _atom_site_symmetry_multiplicity
 _atom_site_fract_x
 _atom_site_fract_y
 _atom_site_fract_z
 _atom_site_occupancy
  Li  Li0  1  0.836619  0.450640  0.124731  1
  Li  Li1  1  0.483699  0.845847  0.861874  1
  Li  Li2  1  0.517402  0.039367  0.474727  1
  Li  Li3  1  0.219649  0.548072  0.713018  1
  O  O4  1  0.276601  0.760695  0.424074  1
  O  O5  1  0.724410  0.205265  0.623610  1
  O  O6  1  0.676838  0.678034  0.656358  1
  O  O7  1  0.856084  0.337793  0.884813  1
  O  O8  1  0.139957  0.672505  0.142952  1
  O  O9  1  0.357150  0.265939  0.905720  1
  O  O10  1  0.330263  0.322010  0.363262  1
  O  O11  1  0.628293  0.748178  0.095350  1
  F  F12  1  0.161432  0.897210  0.749814  1
  F  F13  1  0.865177  0.096580  0.271966  1
  P  P14  1  0.339081  0.625846  0.260724  1
  P  P15  1  0.656905  0.370456  0.766504  1
  Ni  Ni16  1  0.992421  0.000322  0.016412  1
  Ni  Ni17  1  0.010131  0.003606  0.505502  1
