# generated using pymatgen
data_Hg3(ClO)2
_symmetry_space_group_name_H-M   'P 1'
_cell_length_a   6.48583804
_cell_length_b   6.95787141
_cell_length_c   7.10408480
_cell_angle_alpha   90.00000000
_cell_angle_beta   90.00000000
_cell_angle_gamma   113.74850912
_symmetry_Int_Tables_number   1
_chemical_formula_structural   Hg3(ClO)2
_chemical_formula_sum   'Hg6 Cl4 O4'
_cell_volume   293.44351471
_cell_formula_units_Z   2
loop_
 _symmetry_equiv_pos_site_id
 _symmetry_equiv_pos_as_xyz
  1  'x, y, z'
loop_
 _atom_site_type_symbol
 _atom_site_label
 _atom_site_symmetry_multiplicity
 _atom_site_fract_x
 _atom_site_fract_y
 _atom_site_fract_z
 _atom_site_occupancy
  O  O0  1  0.675036  0.439571  0.603912  1
  O  O1  1  0.324964  0.060429  0.103912  1
  O  O2  1  0.324964  0.560429  0.396088  1
  O  O3  1  0.675036  0.939571  0.896088  1
  Cl  Cl4  1  0.220487  0.960814  0.625865  1
  Cl  Cl5  1  0.779513  0.539186  0.125865  1
  Cl  Cl6  1  0.220487  0.460814  0.874135  1
  Cl  Cl7  1  0.779513  0.039186  0.374135  1
  Hg  Hg8  1  0.576757  0.238637  0.864013  1
  Hg  Hg9  1  0.423243  0.261363  0.364013  1
  Hg  Hg10  1  0.423243  0.761363  0.135987  1
  Hg  Hg11  1  0.576757  0.738637  0.635987  1
  Hg  Hg12  1  0.000000  0.500000  0.500000  1
  Hg  Hg13  1  0.000000  0.000000  0.000000  1
