# generated using pymatgen
data_Tb10B2Br15
_symmetry_space_group_name_H-M   'P 1'
_cell_length_a   9.09736488
_cell_length_b   9.86602985
_cell_length_c   10.72410661
_cell_angle_alpha   91.21495718
_cell_angle_beta   114.51435623
_cell_angle_gamma   110.75748135
_symmetry_Int_Tables_number   1
_chemical_formula_structural   Tb10B2Br15
_chemical_formula_sum   'Tb10 B2 Br15'
_cell_volume   802.75330547
_cell_formula_units_Z   1
loop_
 _symmetry_equiv_pos_site_id
 _symmetry_equiv_pos_as_xyz
  1  'x, y, z'
loop_
 _atom_site_type_symbol
 _atom_site_label
 _atom_site_symmetry_multiplicity
 _atom_site_fract_x
 _atom_site_fract_y
 _atom_site_fract_z
 _atom_site_occupancy
  B  B0  1  0.467430  0.819528  0.877107  1
  B  B1  1  0.532570  0.180472  0.122893  1
  Br  Br2  1  0.000000  0.000000  0.000000  1
  Br  Br3  1  0.637948  0.882970  0.584214  1
  Br  Br4  1  0.362052  0.117030  0.415786  1
  Br  Br5  1  0.884281  0.299612  0.528698  1
  Br  Br6  1  0.115719  0.700388  0.471302  1
  Br  Br7  1  0.290422  0.761605  0.180263  1
  Br  Br8  1  0.709578  0.238395  0.819737  1
  Br  Br9  1  0.056155  0.342257  0.227087  1
  Br  Br10  1  0.165143  0.058114  0.702472  1
  Br  Br11  1  0.834857  0.941886  0.297528  1
  Br  Br12  1  0.230982  0.410202  0.943210  1
  Br  Br13  1  0.769018  0.589798  0.056790  1
  Br  Br14  1  0.408396  0.462763  0.659240  1
  Br  Br15  1  0.591604  0.537237  0.340760  1
  Br  Br16  1  0.943845  0.657743  0.772913  1
  Tb  Tb17  1  0.798956  0.407506  0.275163  1
  Tb  Tb18  1  0.201044  0.592494  0.724837  1
  Tb  Tb19  1  0.674153  0.746750  0.822051  1
  Tb  Tb20  1  0.325847  0.253250  0.177949  1
  Tb  Tb21  1  0.525220  0.704685  0.094423  1
  Tb  Tb22  1  0.474780  0.295315  0.905577  1
  Tb  Tb23  1  0.584997  0.040894  0.322894  1
  Tb  Tb24  1  0.415003  0.959106  0.677106  1
  Tb  Tb25  1  0.721151  0.074215  0.048068  1
  Tb  Tb26  1  0.278849  0.925785  0.951932  1
