# generated using pymatgen
data_K2In2As3
_symmetry_space_group_name_H-M   'P 1'
_cell_length_a   7.27327821
_cell_length_b   14.63744068
_cell_length_c   16.13991961
_cell_angle_alpha   90.08741925
_cell_angle_beta   90.00000000
_cell_angle_gamma   90.00000000
_symmetry_Int_Tables_number   1
_chemical_formula_structural   K2In2As3
_chemical_formula_sum   'K16 In16 As24'
_cell_volume   1718.28899934
_cell_formula_units_Z   8
loop_
 _symmetry_equiv_pos_site_id
 _symmetry_equiv_pos_as_xyz
  1  'x, y, z'
loop_
 _atom_site_type_symbol
 _atom_site_label
 _atom_site_symmetry_multiplicity
 _atom_site_fract_x
 _atom_site_fract_y
 _atom_site_fract_z
 _atom_site_occupancy
  K  K0  1  0.958259  0.143296  0.992914  1
  K  K1  1  0.458259  0.856704  0.507086  1
  K  K2  1  0.041741  0.856704  0.007086  1
  K  K3  1  0.541741  0.143296  0.492914  1
  K  K4  1  0.566801  0.656363  0.022374  1
  K  K5  1  0.066801  0.343637  0.477626  1
  K  K6  1  0.433199  0.343637  0.977626  1
  K  K7  1  0.933199  0.656363  0.522374  1
  K  K8  1  0.545992  0.917037  0.107243  1
  K  K9  1  0.045992  0.082963  0.392757  1
  K  K10  1  0.454008  0.082963  0.892757  1
  K  K11  1  0.954008  0.917037  0.607243  1
  K  K12  1  0.917054  0.437176  0.907628  1
  K  K13  1  0.417054  0.562824  0.592372  1
  K  K14  1  0.082946  0.562824  0.092372  1
  K  K15  1  0.582946  0.437176  0.407627  1
  As  As16  1  0.799794  0.247662  0.822500  1
  As  As17  1  0.700206  0.247662  0.322500  1
  As  As18  1  0.200206  0.752338  0.177500  1
  As  As19  1  0.045276  0.521710  0.342284  1
  As  As20  1  0.545276  0.478290  0.157716  1
  As  As21  1  0.954724  0.478290  0.657716  1
  As  As22  1  0.454724  0.521710  0.842284  1
  As  As23  1  0.645067  0.746601  0.672488  1
  As  As24  1  0.145067  0.253399  0.827512  1
  As  As25  1  0.354933  0.253399  0.327512  1
  As  As26  1  0.854933  0.746601  0.172488  1
  As  As27  1  0.570954  0.665558  0.391234  1
  As  As28  1  0.299794  0.752338  0.677500  1
  As  As29  1  0.070954  0.334442  0.108766  1
  As  As30  1  0.429046  0.334442  0.608766  1
  As  As31  1  0.929046  0.665558  0.891234  1
  As  As32  1  0.957714  0.969635  0.828439  1
  As  As33  1  0.457714  0.030365  0.671561  1
  As  As34  1  0.042286  0.030365  0.171561  1
  As  As35  1  0.542286  0.969635  0.328439  1
  As  As36  1  0.439349  0.836833  0.908660  1
  As  As37  1  0.939349  0.163167  0.591340  1
  As  As38  1  0.560651  0.163167  0.091340  1
  As  As39  1  0.060651  0.836833  0.408660  1
  In  In40  1  0.750006  0.589559  0.258220  1
  In  In41  1  0.250006  0.410441  0.241780  1
  In  In42  1  0.249994  0.410441  0.741780  1
  In  In43  1  0.747494  0.815594  0.323728  1
  In  In44  1  0.247494  0.184406  0.176272  1
  In  In45  1  0.252506  0.184406  0.676272  1
  In  In46  1  0.752506  0.815594  0.823728  1
  In  In47  1  0.715408  0.091543  0.230245  1
  In  In48  1  0.215408  0.908457  0.269755  1
  In  In49  1  0.284592  0.908457  0.769755  1
  In  In50  1  0.784592  0.091543  0.730245  1
  In  In51  1  0.229871  0.682487  0.332097  1
  In  In52  1  0.729871  0.317513  0.167903  1
  In  In53  1  0.770129  0.317513  0.667903  1
  In  In54  1  0.270129  0.682487  0.832097  1
  In  In55  1  0.749994  0.589559  0.758220  1
