# generated using pymatgen
data_Gd(CuSi)2
_symmetry_space_group_name_H-M   'P 1'
_cell_length_a   4.01117846
_cell_length_b   4.00872465
_cell_length_c   5.73319807
_cell_angle_alpha   110.45182660
_cell_angle_beta   110.47632606
_cell_angle_gamma   90.00000002
_symmetry_Int_Tables_number   1
_chemical_formula_structural   Gd(CuSi)2
_chemical_formula_sum   'Gd1 Si2 Cu2'
_cell_volume   80.13116797
_cell_formula_units_Z   1
loop_
 _symmetry_equiv_pos_site_id
 _symmetry_equiv_pos_as_xyz
  1  'x, y, z'
loop_
 _atom_site_type_symbol
 _atom_site_label
 _atom_site_symmetry_multiplicity
 _atom_site_fract_x
 _atom_site_fract_y
 _atom_site_fract_z
 _atom_site_occupancy
  Si  Si0  1  0.618476  0.618914  0.236952  1
  Si  Si1  1  0.381524  0.381086  0.763048  1
  Cu  Cu2  1  0.249669  0.749302  0.499338  1
  Cu  Cu3  1  0.750331  0.250698  0.500662  1
  Gd  Gd4  1  0.000000  0.000000  0.000000  1
