# generated using pymatgen
data_H4N2O3
_symmetry_space_group_name_H-M   'P 1'
_cell_length_a   4.93735302
_cell_length_b   5.67510286
_cell_length_c   5.75321142
_cell_angle_alpha   90.00000000
_cell_angle_beta   90.00000000
_cell_angle_gamma   90.00000000
_symmetry_Int_Tables_number   1
_chemical_formula_structural   H4N2O3
_chemical_formula_sum   'H8 N4 O6'
_cell_volume   161.20490485
_cell_formula_units_Z   2
loop_
 _symmetry_equiv_pos_site_id
 _symmetry_equiv_pos_as_xyz
  1  'x, y, z'
loop_
 _atom_site_type_symbol
 _atom_site_label
 _atom_site_symmetry_multiplicity
 _atom_site_fract_x
 _atom_site_fract_y
 _atom_site_fract_z
 _atom_site_occupancy
  H  H0  1  0.553873  0.500000  0.147931  1
  H  H1  1  0.312252  0.646694  0.000000  1
  H  H2  1  0.312252  0.353306  0.000000  1
  H  H3  1  0.687748  0.146694  0.500000  1
  H  H4  1  0.553873  0.500000  0.852069  1
  H  H5  1  0.446127  0.000000  0.352069  1
  H  H6  1  0.446127  0.000000  0.647931  1
  H  H7  1  0.687748  0.853306  0.500000  1
  N  N8  1  0.026931  0.500000  0.500000  1
  N  N9  1  0.434274  0.500000  0.000000  1
  N  N10  1  0.565726  0.000000  0.500000  1
  N  N11  1  0.973069  0.000000  0.000000  1
  O  O12  1  0.898158  0.500000  0.691689  1
  O  O13  1  0.101842  0.000000  0.191689  1
  O  O14  1  0.101842  0.000000  0.808311  1
  O  O15  1  0.282445  0.500000  0.500000  1
  O  O16  1  0.717555  0.000000  0.000000  1
  O  O17  1  0.898158  0.500000  0.308311  1
