# generated using pymatgen
data_Cs2SbBr6
_symmetry_space_group_name_H-M   'P 1'
_cell_length_a   11.20487835
_cell_length_b   11.20487835
_cell_length_c   13.80141574
_cell_angle_alpha   113.94955735
_cell_angle_beta   113.94955734
_cell_angle_gamma   90.00000001
_symmetry_Int_Tables_number   1
_chemical_formula_structural   Cs2SbBr6
_chemical_formula_sum   'Cs8 Sb4 Br24'
_cell_volume   1418.78721991
_cell_formula_units_Z   4
loop_
 _symmetry_equiv_pos_site_id
 _symmetry_equiv_pos_as_xyz
  1  'x, y, z'
loop_
 _atom_site_type_symbol
 _atom_site_label
 _atom_site_symmetry_multiplicity
 _atom_site_fract_x
 _atom_site_fract_y
 _atom_site_fract_z
 _atom_site_occupancy
  Br  Br0  1  0.875287  0.366893  0.750574  1
  Br  Br1  1  0.253900  0.503900  0.507799  1
  Br  Br2  1  0.755268  0.005268  0.510536  1
  Br  Br3  1  0.005268  0.755268  0.010535  1
  Br  Br4  1  0.244732  0.994732  0.489465  1
  Br  Br5  1  0.994732  0.244732  0.989464  1
  Br  Br6  1  0.496100  0.746100  0.992201  1
  Br  Br7  1  0.746100  0.496100  0.492201  1
  Br  Br8  1  0.875287  0.883681  0.750574  1
  Br  Br9  1  0.633107  0.124713  0.749426  1
  Br  Br10  1  0.374133  0.868089  0.748266  1
  Br  Br11  1  0.380176  0.374133  0.248266  1
  Br  Br12  1  0.868089  0.374133  0.248266  1
  Br  Br13  1  0.116319  0.124713  0.749426  1
  Br  Br14  1  0.625867  0.619824  0.251734  1
  Br  Br15  1  0.619824  0.625867  0.751734  1
  Br  Br16  1  0.131911  0.625867  0.751734  1
  Br  Br17  1  0.374133  0.380176  0.748266  1
  Br  Br18  1  0.625867  0.131911  0.251734  1
  Br  Br19  1  0.883681  0.875287  0.250574  1
  Br  Br20  1  0.366893  0.875287  0.250574  1
  Br  Br21  1  0.124713  0.633107  0.249426  1
  Br  Br22  1  0.124713  0.116319  0.249426  1
  Br  Br23  1  0.503900  0.253900  0.007799  1
  Sb  Sb24  1  0.125000  0.875000  0.250000  1
  Sb  Sb25  1  0.875000  0.125000  0.750000  1
  Sb  Sb26  1  0.375000  0.625000  0.750000  1
  Sb  Sb27  1  0.625000  0.375000  0.250000  1
  Cs  Cs28  1  0.000000  0.744040  0.500000  1
  Cs  Cs29  1  0.500000  0.255960  0.500000  1
  Cs  Cs30  1  0.255960  0.000000  0.000000  1
  Cs  Cs31  1  0.744040  0.500000  0.000000  1
  Cs  Cs32  1  0.744040  0.000000  0.000000  1
  Cs  Cs33  1  0.500000  0.744040  0.500000  1
  Cs  Cs34  1  0.000000  0.255960  0.500000  1
  Cs  Cs35  1  0.255960  0.500000  0.000000  1
