# generated using pymatgen
data_Na2CoH8(SO6)2
_symmetry_space_group_name_H-M   'P 1'
_cell_length_a   5.59467264
_cell_length_b   8.33820294
_cell_length_c   11.18279881
_cell_angle_alpha   90.00000000
_cell_angle_beta   99.77413187
_cell_angle_gamma   90.00000000
_symmetry_Int_Tables_number   1
_chemical_formula_structural   Na2CoH8(SO6)2
_chemical_formula_sum   'Na4 Co2 H16 S4 O24'
_cell_volume   514.09989356
_cell_formula_units_Z   2
loop_
 _symmetry_equiv_pos_site_id
 _symmetry_equiv_pos_as_xyz
  1  'x, y, z'
loop_
 _atom_site_type_symbol
 _atom_site_label
 _atom_site_symmetry_multiplicity
 _atom_site_fract_x
 _atom_site_fract_y
 _atom_site_fract_z
 _atom_site_occupancy
  H  H0  1  0.242560  0.724034  0.014827  1
  H  H1  1  0.757440  0.224034  0.485173  1
  H  H2  1  0.757440  0.275966  0.985173  1
  H  H3  1  0.242560  0.775966  0.514827  1
  H  H4  1  0.327255  0.802743  0.140184  1
  H  H5  1  0.672745  0.302743  0.359816  1
  H  H6  1  0.672745  0.197257  0.859816  1
  H  H7  1  0.327255  0.697257  0.640184  1
  H  H8  1  0.768756  0.135711  0.154085  1
  H  H9  1  0.231244  0.635711  0.345915  1
  H  H10  1  0.765998  0.945317  0.181345  1
  H  H11  1  0.234002  0.445317  0.318655  1
  H  H12  1  0.234002  0.054683  0.818655  1
  H  H13  1  0.765998  0.554683  0.681345  1
  H  H14  1  0.231244  0.864289  0.845915  1
  H  H15  1  0.768756  0.364289  0.654085  1
  O  O16  1  0.211563  0.086537  0.577080  1
  O  O17  1  0.788437  0.913463  0.422920  1
  O  O18  1  0.688046  0.872712  0.923847  1
  O  O19  1  0.211563  0.413463  0.077080  1
  O  O20  1  0.311954  0.127288  0.076153  1
  O  O21  1  0.688046  0.627288  0.423847  1
  O  O22  1  0.366800  0.678355  0.873527  1
  O  O23  1  0.633200  0.178355  0.626473  1
  O  O24  1  0.633200  0.321645  0.126473  1
  O  O25  1  0.366800  0.821645  0.373527  1
  O  O26  1  0.130139  0.963571  0.837571  1
  O  O27  1  0.869861  0.463571  0.662429  1
  O  O28  1  0.869861  0.036429  0.162429  1
  O  O29  1  0.130139  0.536429  0.337571  1
  O  O30  1  0.179394  0.716435  0.579421  1
  O  O31  1  0.820606  0.216435  0.920579  1
  O  O32  1  0.820606  0.283565  0.420579  1
  O  O33  1  0.179394  0.783565  0.079421  1
  O  O34  1  0.643898  0.775054  0.231602  1
  O  O35  1  0.356102  0.275054  0.268398  1
  O  O36  1  0.356102  0.224946  0.768398  1
  O  O37  1  0.643898  0.724946  0.731602  1
  O  O38  1  0.311954  0.372712  0.576153  1
  O  O39  1  0.788437  0.586537  0.922920  1
  Na  Na40  1  0.121042  0.070944  0.361190  1
  Na  Na41  1  0.878958  0.929056  0.638810  1
  Na  Na42  1  0.121042  0.429055  0.861190  1
  Na  Na43  1  0.878958  0.570944  0.138810  1
  S  S44  1  0.627208  0.785865  0.364481  1
  S  S45  1  0.372792  0.285865  0.135519  1
  S  S46  1  0.372792  0.214135  0.635519  1
  S  S47  1  0.627208  0.714135  0.864481  1
  Co  Co48  1  0.000000  0.500000  0.500000  1
  Co  Co49  1  0.000000  0.000000  0.000000  1
