# generated using pymatgen
data_YH3(CO2)3
_symmetry_space_group_name_H-M   'P 1'
_cell_length_a   6.20746691
_cell_length_b   6.20746691
_cell_length_c   6.20746691
_cell_angle_alpha   115.52885657
_cell_angle_beta   115.52885663
_cell_angle_gamma   115.52885667
_symmetry_Int_Tables_number   1
_chemical_formula_structural   YH3(CO2)3
_chemical_formula_sum   'Y1 H3 C3 O6'
_cell_volume   127.18038717
_cell_formula_units_Z   1
loop_
 _symmetry_equiv_pos_site_id
 _symmetry_equiv_pos_as_xyz
  1  'x, y, z'
loop_
 _atom_site_type_symbol
 _atom_site_label
 _atom_site_symmetry_multiplicity
 _atom_site_fract_x
 _atom_site_fract_y
 _atom_site_fract_z
 _atom_site_occupancy
  H  H0  1  0.366906  0.366906  0.850787  1
  H  H1  1  0.366906  0.850787  0.366906  1
  H  H2  1  0.850787  0.366906  0.366906  1
  C  C3  1  0.150481  0.611738  0.611738  1
  C  C4  1  0.611738  0.150481  0.611738  1
  C  C5  1  0.611738  0.611738  0.150481  1
  O  O6  1  0.339578  0.592140  0.592140  1
  O  O7  1  0.889104  0.284277  0.889104  1
  O  O8  1  0.889104  0.889104  0.284277  1
  O  O9  1  0.284277  0.889104  0.889104  1
  O  O10  1  0.592140  0.339578  0.592140  1
  O  O11  1  0.592140  0.592140  0.339578  1
  Y  Y12  1  0.000804  0.000804  0.000804  1
