# generated using pymatgen
data_CsCrI3
_symmetry_space_group_name_H-M   'P 1'
_cell_length_a   8.26393249
_cell_length_b   8.26393287
_cell_length_c   6.89325679
_cell_angle_alpha   90.00000000
_cell_angle_beta   90.00000000
_cell_angle_gamma   119.99999845
_symmetry_Int_Tables_number   1
_chemical_formula_structural   CsCrI3
_chemical_formula_sum   'Cs2 Cr2 I6'
_cell_volume   407.68866504
_cell_formula_units_Z   2
loop_
 _symmetry_equiv_pos_site_id
 _symmetry_equiv_pos_as_xyz
  1  'x, y, z'
loop_
 _atom_site_type_symbol
 _atom_site_label
 _atom_site_symmetry_multiplicity
 _atom_site_fract_x
 _atom_site_fract_y
 _atom_site_fract_z
 _atom_site_occupancy
  Cs  Cs0  1  0.666667  0.333333  0.250216  1
  Cs  Cs1  1  0.333333  0.666667  0.750216  1
  Cr  Cr2  1  0.000000  0.000000  0.999960  1
  Cr  Cr3  1  0.000000  0.000000  0.499960  1
  I  I4  1  0.161073  0.838927  0.249941  1
  I  I5  1  0.322146  0.161073  0.749941  1
  I  I6  1  0.838927  0.677854  0.749941  1
  I  I7  1  0.161073  0.322146  0.249941  1
  I  I8  1  0.677854  0.838927  0.249941  1
  I  I9  1  0.838927  0.161073  0.749941  1
