# generated using pymatgen
data_ErMnGe
_symmetry_space_group_name_H-M   'P 1'
_cell_length_a   4.06901678
_cell_length_b   7.00165234
_cell_length_c   7.91513128
_cell_angle_alpha   90.00000000
_cell_angle_beta   90.00000000
_cell_angle_gamma   90.00000000
_symmetry_Int_Tables_number   1
_chemical_formula_structural   ErMnGe
_chemical_formula_sum   'Er4 Mn4 Ge4'
_cell_volume   225.50083055
_cell_formula_units_Z   4
loop_
 _symmetry_equiv_pos_site_id
 _symmetry_equiv_pos_as_xyz
  1  'x, y, z'
loop_
 _atom_site_type_symbol
 _atom_site_label
 _atom_site_symmetry_multiplicity
 _atom_site_fract_x
 _atom_site_fract_y
 _atom_site_fract_z
 _atom_site_occupancy
  Mn  Mn0  1  0.750000  0.367558  0.553601  1
  Mn  Mn1  1  0.250000  0.132442  0.053601  1
  Mn  Mn2  1  0.750000  0.867558  0.946399  1
  Mn  Mn3  1  0.250000  0.632442  0.446399  1
  Ge  Ge4  1  0.250000  0.274203  0.378515  1
  Ge  Ge5  1  0.750000  0.225797  0.878515  1
  Ge  Ge6  1  0.250000  0.774203  0.121485  1
  Ge  Ge7  1  0.750000  0.725797  0.621485  1
  Er  Er8  1  0.250000  0.525748  0.819867  1
  Er  Er9  1  0.750000  0.474252  0.180133  1
  Er  Er10  1  0.250000  0.025748  0.680133  1
  Er  Er11  1  0.750000  0.974252  0.319867  1
