# generated using pymatgen
data_Co3B7IO13
_symmetry_space_group_name_H-M   'P 1'
_cell_length_a   8.64033403
_cell_length_b   8.64033404
_cell_length_c   8.64033403
_cell_angle_alpha   59.99999999
_cell_angle_beta   59.99999998
_cell_angle_gamma   60.00000000
_symmetry_Int_Tables_number   1
_chemical_formula_structural   Co3B7IO13
_chemical_formula_sum   'Co6 B14 I2 O26'
_cell_volume   456.11735773
_cell_formula_units_Z   2
loop_
 _symmetry_equiv_pos_site_id
 _symmetry_equiv_pos_as_xyz
  1  'x, y, z'
loop_
 _atom_site_type_symbol
 _atom_site_label
 _atom_site_symmetry_multiplicity
 _atom_site_fract_x
 _atom_site_fract_y
 _atom_site_fract_z
 _atom_site_occupancy
  B  B0  1  0.580206  0.259380  0.580207  1
  B  B1  1  0.580207  0.580207  0.580206  1
  B  B2  1  0.080207  0.080207  0.759379  1
  B  B3  1  0.080207  0.759380  0.080206  1
  B  B4  1  0.759379  0.080207  0.080206  1
  B  B5  1  0.259379  0.580207  0.580207  1
  B  B6  1  0.580207  0.580207  0.259379  1
  B  B7  1  0.080207  0.080207  0.080207  1
  B  B8  1  0.250000  0.750000  0.750000  1
  B  B9  1  0.250000  0.750000  0.250000  1
  B  B10  1  0.750000  0.250001  0.250000  1
  B  B11  1  0.750000  0.750000  0.250000  1
  B  B12  1  0.250000  0.250001  0.750000  1
  B  B13  1  0.750000  0.250001  0.750000  1
  O  O14  1  0.000000  0.000000  0.000000  1
  O  O15  1  0.256914  0.936503  0.702934  1
  O  O16  1  0.202935  0.756913  0.603650  1
  O  O17  1  0.436503  0.202934  0.603650  1
  O  O18  1  0.436503  0.756913  0.202934  1
  O  O19  1  0.702935  0.103650  0.256913  1
  O  O20  1  0.756914  0.436503  0.603649  1
  O  O21  1  0.603649  0.756913  0.436503  1
  O  O22  1  0.436503  0.603649  0.756913  1
  O  O23  1  0.500000  0.500000  0.500000  1
  O  O24  1  0.103649  0.702934  0.936503  1
  O  O25  1  0.756913  0.603649  0.202935  1
  O  O26  1  0.202934  0.436503  0.756913  1
  O  O27  1  0.756914  0.202934  0.436502  1
  O  O28  1  0.603650  0.436503  0.202934  1
  O  O29  1  0.603649  0.202934  0.756914  1
  O  O30  1  0.202934  0.603649  0.436503  1
  O  O31  1  0.103649  0.936503  0.256913  1
  O  O32  1  0.256913  0.103650  0.936503  1
  O  O33  1  0.702934  0.936503  0.103650  1
  O  O34  1  0.256914  0.702934  0.103649  1
  O  O35  1  0.702935  0.256914  0.936503  1
  O  O36  1  0.103649  0.256914  0.702935  1
  O  O37  1  0.936503  0.103650  0.702934  1
  O  O38  1  0.936502  0.702934  0.256914  1
  O  O39  1  0.936503  0.256914  0.103649  1
  Co  Co40  1  0.500000  0.000000  0.500000  1
  Co  Co41  1  0.000000  0.500000  0.500000  1
  Co  Co42  1  0.500000  0.000000  0.000000  1
  Co  Co43  1  0.500000  0.500000  1.000000  1
  Co  Co44  1  0.000000  0.500000  0.000000  1
  Co  Co45  1  0.000000  0.000000  0.500000  1
  I  I46  1  0.750000  0.750000  0.750000  1
  I  I47  1  0.250000  0.250001  0.249999  1
