# generated using pymatgen
data_Ta(TeBr3)2
_symmetry_space_group_name_H-M   'P 1'
_cell_length_a   7.56753034
_cell_length_b   7.66927949
_cell_length_c   13.34433448
_cell_angle_alpha   81.22724009
_cell_angle_beta   78.31561962
_cell_angle_gamma   78.16887887
_symmetry_Int_Tables_number   1
_chemical_formula_structural   Ta(TeBr3)2
_chemical_formula_sum   'Ta2 Te4 Br12'
_cell_volume   737.31742632
_cell_formula_units_Z   2
loop_
 _symmetry_equiv_pos_site_id
 _symmetry_equiv_pos_as_xyz
  1  'x, y, z'
loop_
 _atom_site_type_symbol
 _atom_site_label
 _atom_site_symmetry_multiplicity
 _atom_site_fract_x
 _atom_site_fract_y
 _atom_site_fract_z
 _atom_site_occupancy
  Br  Br0  1  0.904621  0.246631  0.970912  1
  Br  Br1  1  0.095379  0.753369  0.029088  1
  Br  Br2  1  0.973793  0.043044  0.729098  1
  Br  Br3  1  0.026207  0.956956  0.270902  1
  Br  Br4  1  0.083935  0.472837  0.726666  1
  Br  Br5  1  0.916065  0.527163  0.273334  1
  Br  Br6  1  0.300994  0.564985  0.379850  1
  Br  Br7  1  0.699006  0.435015  0.620150  1
  Br  Br8  1  0.470376  0.811929  0.143068  1
  Br  Br9  1  0.529624  0.188071  0.856932  1
  Br  Br10  1  0.375933  0.364854  0.144521  1
  Br  Br11  1  0.624067  0.635146  0.855479  1
  Te  Te12  1  0.270382  0.160587  0.540406  1
  Te  Te13  1  0.729618  0.839413  0.459594  1
  Te  Te14  1  0.431972  0.825163  0.614506  1
  Te  Te15  1  0.568028  0.174837  0.385494  1
  Ta  Ta16  1  0.798195  0.342254  0.806024  1
  Ta  Ta17  1  0.201805  0.657746  0.193976  1
