# generated using pymatgen
data_LiMnH6O7
_symmetry_space_group_name_H-M   'P 1'
_cell_length_a   7.78762605
_cell_length_b   7.78762604
_cell_length_c   5.59475235
_cell_angle_alpha   90.00000000
_cell_angle_beta   90.00000000
_cell_angle_gamma   119.99999998
_symmetry_Int_Tables_number   1
_chemical_formula_structural   LiMnH6O7
_chemical_formula_sum   'Li2 Mn2 H12 O14'
_cell_volume   293.84728145
_cell_formula_units_Z   2
loop_
 _symmetry_equiv_pos_site_id
 _symmetry_equiv_pos_as_xyz
  1  'x, y, z'
loop_
 _atom_site_type_symbol
 _atom_site_label
 _atom_site_symmetry_multiplicity
 _atom_site_fract_x
 _atom_site_fract_y
 _atom_site_fract_z
 _atom_site_occupancy
  H  H0  1  0.668028  0.934355  0.457438  1
  H  H1  1  0.331972  0.266327  0.957438  1
  H  H2  1  0.065645  0.733672  0.457438  1
  H  H3  1  0.266327  0.331972  0.457438  1
  H  H4  1  0.733674  0.668028  0.957438  1
  H  H5  1  0.331973  0.065645  0.957438  1
  H  H6  1  0.065645  0.331972  0.457438  1
  H  H7  1  0.668028  0.733672  0.457438  1
  H  H8  1  0.934356  0.668028  0.957438  1
  H  H9  1  0.733674  0.065645  0.957438  1
  H  H10  1  0.266327  0.934355  0.457438  1
  H  H11  1  0.934355  0.266327  0.957438  1
  Li  Li12  1  0.000000  0.000000  0.718104  1
  Li  Li13  1  0.000000  0.000000  0.218103  1
  O  O14  1  0.877994  0.755987  0.968330  1
  O  O15  1  0.244013  0.122006  0.968330  1
  O  O16  1  0.755987  0.877993  0.468331  1
  O  O17  1  0.877994  0.122006  0.968330  1
  O  O18  1  0.122006  0.877993  0.468331  1
  O  O19  1  0.552876  0.447124  0.407378  1
  O  O20  1  0.105751  0.552875  0.907378  1
  O  O21  1  0.447124  0.894249  0.907378  1
  O  O22  1  0.122006  0.244013  0.468331  1
  O  O23  1  0.894248  0.447124  0.407378  1
  O  O24  1  0.447124  0.552875  0.907378  1
  O  O25  1  0.666667  0.333333  0.789563  1
  O  O26  1  0.333333  0.666667  0.289561  1
  O  O27  1  0.552876  0.105751  0.407378  1
  Mn  Mn28  1  0.333333  0.666667  0.001881  1
  Mn  Mn29  1  0.666667  0.333333  0.501880  1
