# generated using pymatgen
data_Na4Al3Ge3IO12
_symmetry_space_group_name_H-M   'P 1'
_cell_length_a   9.28416078
_cell_length_b   9.28416078
_cell_length_c   9.28416078
_cell_angle_alpha   90.00000000
_cell_angle_beta   90.00000000
_cell_angle_gamma   90.00000000
_symmetry_Int_Tables_number   1
_chemical_formula_structural   Na4Al3Ge3IO12
_chemical_formula_sum   'Na8 Al6 Ge6 I2 O24'
_cell_volume   800.25419319
_cell_formula_units_Z   2
loop_
 _symmetry_equiv_pos_site_id
 _symmetry_equiv_pos_as_xyz
  1  'x, y, z'
loop_
 _atom_site_type_symbol
 _atom_site_label
 _atom_site_symmetry_multiplicity
 _atom_site_fract_x
 _atom_site_fract_y
 _atom_site_fract_z
 _atom_site_occupancy
  O  O0  1  0.646676  0.937247  0.646976  1
  O  O1  1  0.646676  0.062753  0.353024  1
  O  O2  1  0.937247  0.646976  0.646676  1
  O  O3  1  0.062753  0.646976  0.353324  1
  O  O4  1  0.646976  0.646676  0.937247  1
  O  O5  1  0.353024  0.353324  0.937247  1
  O  O6  1  0.853324  0.853024  0.437247  1
  O  O7  1  0.853324  0.146976  0.562753  1
  O  O8  1  0.146676  0.853024  0.562753  1
  O  O9  1  0.146976  0.562753  0.853324  1
  O  O10  1  0.562753  0.146676  0.853024  1
  O  O11  1  0.562753  0.853324  0.146976  1
  O  O12  1  0.853024  0.437247  0.853324  1
  O  O13  1  0.437247  0.853324  0.853024  1
  O  O14  1  0.853024  0.562753  0.146676  1
  O  O15  1  0.146976  0.437247  0.146676  1
  O  O16  1  0.437247  0.146676  0.146976  1
  O  O17  1  0.353024  0.646676  0.062753  1
  O  O18  1  0.646976  0.353324  0.062753  1
  O  O19  1  0.937247  0.353024  0.353324  1
  O  O20  1  0.062753  0.353024  0.646676  1
  O  O21  1  0.353324  0.062753  0.646976  1
  O  O22  1  0.146676  0.146976  0.437247  1
  O  O23  1  0.353324  0.937247  0.353024  1
  Na  Na24  1  0.193065  0.193065  0.193065  1
  Na  Na25  1  0.306935  0.693065  0.306935  1
  Na  Na26  1  0.306935  0.306935  0.693065  1
  Na  Na27  1  0.693065  0.306935  0.306935  1
  Na  Na28  1  0.806935  0.806935  0.193065  1
  Na  Na29  1  0.193065  0.806935  0.806935  1
  Na  Na30  1  0.806935  0.193065  0.806935  1
  Na  Na31  1  0.693065  0.693065  0.693065  1
  Al  Al32  1  0.500000  0.250000  0.000000  1
  Al  Al33  1  0.000000  0.500000  0.250000  1
  Al  Al34  1  0.000000  0.500000  0.750000  1
  Al  Al35  1  0.250000  0.000000  0.500000  1
  Al  Al36  1  0.750000  0.000000  0.500000  1
  Al  Al37  1  0.500000  0.750000  0.000000  1
  Ge  Ge38  1  0.750000  0.500000  0.000000  1
  Ge  Ge39  1  0.000000  0.750000  0.500000  1
  Ge  Ge40  1  0.250000  0.500000  0.000000  1
  Ge  Ge41  1  0.500000  0.000000  0.750000  1
  Ge  Ge42  1  0.500000  0.000000  0.250000  1
  Ge  Ge43  1  0.000000  0.250000  0.500000  1
  I  I44  1  0.500000  0.500000  0.500000  1
  I  I45  1  0.000000  0.000000  0.000000  1
