# generated using pymatgen
data_Ba(ClO3)2
_symmetry_space_group_name_H-M   'P 1'
_cell_length_a   7.18718675
_cell_length_b   7.18718674
_cell_length_c   7.83196017
_cell_angle_alpha   106.06045361
_cell_angle_beta   106.06045361
_cell_angle_gamma   113.39447680
_symmetry_Int_Tables_number   1
_chemical_formula_structural   Ba(ClO3)2
_chemical_formula_sum   'Ba2 Cl4 O12'
_cell_volume   320.72925754
_cell_formula_units_Z   2
loop_
 _symmetry_equiv_pos_site_id
 _symmetry_equiv_pos_as_xyz
  1  'x, y, z'
loop_
 _atom_site_type_symbol
 _atom_site_label
 _atom_site_symmetry_multiplicity
 _atom_site_fract_x
 _atom_site_fract_y
 _atom_site_fract_z
 _atom_site_occupancy
  Ba  Ba0  1  0.001200  0.001200  0.000000  1
  Ba  Ba1  1  0.751200  0.251200  0.500000  1
  Cl  Cl2  1  0.616741  0.219382  0.958797  1
  Cl  Cl3  1  0.260585  0.657944  0.041203  1
  Cl  Cl4  1  0.969382  0.866741  0.458797  1
  Cl  Cl5  1  0.407944  0.510585  0.541203  1
  O  O6  1  0.723245  0.156164  0.113276  1
  O  O7  1  0.042888  0.609969  0.886724  1
  O  O8  1  0.906164  0.973245  0.613276  1
  O  O9  1  0.359969  0.292888  0.386724  1
  O  O10  1  0.852674  0.890544  0.280054  1
  O  O11  1  0.610490  0.572620  0.719946  1
  O  O12  1  0.640544  0.102674  0.780054  1
  O  O13  1  0.322620  0.860490  0.219946  1
  O  O14  1  0.372495  0.112146  0.908664  1
  O  O15  1  0.203481  0.463831  0.091336  1
  O  O16  1  0.862146  0.622495  0.408664  1
  O  O17  1  0.213831  0.453481  0.591336  1
