# generated using pymatgen
data_As4(Pb3S5)3
_symmetry_space_group_name_H-M   'P 1'
_cell_length_a   10.76550757
_cell_length_b   10.76550705
_cell_length_c   10.76550685
_cell_angle_alpha   114.24534920
_cell_angle_beta   114.24534800
_cell_angle_gamma   114.24535061
_symmetry_Int_Tables_number   1
_chemical_formula_structural   As4(Pb3S5)3
_chemical_formula_sum   'As4 Pb9 S15'
_cell_volume   744.03947277
_cell_formula_units_Z   1
loop_
 _symmetry_equiv_pos_site_id
 _symmetry_equiv_pos_as_xyz
  1  'x, y, z'
loop_
 _atom_site_type_symbol
 _atom_site_label
 _atom_site_symmetry_multiplicity
 _atom_site_fract_x
 _atom_site_fract_y
 _atom_site_fract_z
 _atom_site_occupancy
  As  As0  1  0.407587  0.842102  0.407587  1
  As  As1  1  0.407587  0.407587  0.842102  1
  As  As2  1  0.057548  0.057548  0.057548  1
  As  As3  1  0.842102  0.407587  0.407587  1
  Pb  Pb4  1  0.978885  0.243231  0.774252  1
  Pb  Pb5  1  0.978885  0.774252  0.243231  1
  Pb  Pb6  1  0.597182  0.334294  0.597182  1
  Pb  Pb7  1  0.334294  0.597182  0.597182  1
  Pb  Pb8  1  0.774252  0.243231  0.978885  1
  Pb  Pb9  1  0.774252  0.978885  0.243231  1
  Pb  Pb10  1  0.243231  0.978885  0.774252  1
  Pb  Pb11  1  0.597182  0.597182  0.334294  1
  Pb  Pb12  1  0.243231  0.774252  0.978885  1
  S  S13  1  0.887386  0.631614  0.631614  1
  S  S14  1  0.474414  0.920653  0.920653  1
  S  S15  1  0.039567  0.586294  0.394807  1
  S  S16  1  0.039567  0.394807  0.586294  1
  S  S17  1  0.394807  0.586294  0.039567  1
  S  S18  1  0.920653  0.474414  0.920653  1
  S  S19  1  0.586294  0.039567  0.394807  1
  S  S20  1  0.323915  0.130148  0.130148  1
  S  S21  1  0.586294  0.394807  0.039567  1
  S  S22  1  0.130148  0.323915  0.130148  1
  S  S23  1  0.394807  0.039567  0.586294  1
  S  S24  1  0.130148  0.130148  0.323915  1
  S  S25  1  0.631614  0.887386  0.631614  1
  S  S26  1  0.631614  0.631614  0.887386  1
  S  S27  1  0.920653  0.920653  0.474414  1
