# generated using pymatgen
data_BClF6
_symmetry_space_group_name_H-M   'P 1'
_cell_length_a   5.88679932
_cell_length_b   9.10634997
_cell_length_c   9.10510064
_cell_angle_alpha   90.00000000
_cell_angle_beta   90.00000000
_cell_angle_gamma   98.41036613
_symmetry_Int_Tables_number   1
_chemical_formula_structural   BClF6
_chemical_formula_sum   'B4 Cl4 F24'
_cell_volume   482.85037315
_cell_formula_units_Z   4
loop_
 _symmetry_equiv_pos_site_id
 _symmetry_equiv_pos_as_xyz
  1  'x, y, z'
loop_
 _atom_site_type_symbol
 _atom_site_label
 _atom_site_symmetry_multiplicity
 _atom_site_fract_x
 _atom_site_fract_y
 _atom_site_fract_z
 _atom_site_occupancy
  B  B0  1  0.757376  0.324097  0.503734  1
  B  B1  1  0.742624  0.175902  0.003734  1
  B  B2  1  0.242624  0.675902  0.496266  1
  B  B3  1  0.257376  0.824098  0.996266  1
  F  F4  1  0.114977  0.038709  0.342377  1
  F  F5  1  0.385023  0.461291  0.842377  1
  F  F6  1  0.885023  0.961291  0.657623  1
  F  F7  1  0.614977  0.538709  0.157623  1
  F  F8  1  0.275241  0.282512  0.266736  1
  F  F9  1  0.224759  0.217488  0.766736  1
  F  F10  1  0.724759  0.717488  0.733264  1
  F  F11  1  0.775241  0.782512  0.233264  1
  F  F12  1  0.090288  0.701479  0.998780  1
  F  F13  1  0.409712  0.798521  0.498780  1
  F  F14  1  0.909712  0.298521  0.001220  1
  F  F15  1  0.590288  0.201479  0.501220  1
  F  F16  1  0.476891  0.778028  0.953192  1
  F  F17  1  0.023109  0.721972  0.453192  1
  F  F18  1  0.523109  0.221972  0.046808  1
  F  F19  1  0.976891  0.278028  0.546808  1
  F  F20  1  0.210156  0.936902  0.904792  1
  F  F21  1  0.289844  0.563098  0.404792  1
  F  F22  1  0.789844  0.063098  0.095208  1
  F  F23  1  0.710156  0.436902  0.595208  1
  F  F24  1  0.296210  0.880564  0.146502  1
  F  F25  1  0.203790  0.619436  0.646502  1
  F  F26  1  0.703790  0.119436  0.853498  1
  F  F27  1  0.796210  0.380564  0.353498  1
  Cl  Cl28  1  0.788704  0.613422  0.284037  1
  Cl  Cl29  1  0.711296  0.886578  0.784037  1
  Cl  Cl30  1  0.211296  0.386578  0.715963  1
  Cl  Cl31  1  0.288704  0.113422  0.215963  1
