# generated using pymatgen
data_LiVPO4
_symmetry_space_group_name_H-M   'P 1'
_cell_length_a   4.76669615
_cell_length_b   6.11325149
_cell_length_c   10.53061771
_cell_angle_alpha   90.00000000
_cell_angle_beta   90.00000000
_cell_angle_gamma   90.00000000
_symmetry_Int_Tables_number   1
_chemical_formula_structural   LiVPO4
_chemical_formula_sum   'Li4 V4 P4 O16'
_cell_volume   306.86233003
_cell_formula_units_Z   4
loop_
 _symmetry_equiv_pos_site_id
 _symmetry_equiv_pos_as_xyz
  1  'x, y, z'
loop_
 _atom_site_type_symbol
 _atom_site_label
 _atom_site_symmetry_multiplicity
 _atom_site_fract_x
 _atom_site_fract_y
 _atom_site_fract_z
 _atom_site_occupancy
  Li  Li0  1  0.000000  0.000000  0.000000  1
  Li  Li1  1  0.500001  0.000000  0.500000  1
  Li  Li2  1  0.000000  0.499999  0.000000  1
  Li  Li3  1  0.500001  0.499999  0.500000  1
  O  O4  1  0.777389  0.547668  0.339538  1
  O  O5  1  0.222611  0.452332  0.660462  1
  O  O6  1  0.722612  0.547668  0.839538  1
  O  O7  1  0.777389  0.952331  0.339538  1
  O  O8  1  0.277390  0.047669  0.160462  1
  O  O9  1  0.735787  0.250000  0.095922  1
  O  O10  1  0.277390  0.452332  0.160462  1
  O  O11  1  0.222611  0.047669  0.660462  1
  O  O12  1  0.264212  0.750000  0.904078  1
  O  O13  1  0.764213  0.250000  0.595922  1
  O  O14  1  0.792619  0.750000  0.545942  1
  O  O15  1  0.235789  0.750000  0.404078  1
  O  O16  1  0.707382  0.750000  0.045942  1
  O  O17  1  0.292618  0.250000  0.954057  1
  O  O18  1  0.207381  0.250000  0.454057  1
  O  O19  1  0.722612  0.952331  0.839538  1
  P  P20  1  0.586455  0.750000  0.909010  1
  P  P21  1  0.913544  0.750000  0.409010  1
  P  P22  1  0.413547  0.250000  0.090989  1
  P  P23  1  0.086454  0.250000  0.590990  1
  V  V24  1  0.016666  0.750000  0.725130  1
  V  V25  1  0.483333  0.750000  0.225130  1
  V  V26  1  0.983334  0.250000  0.274869  1
  V  V27  1  0.516667  0.250000  0.774870  1
