# generated using pymatgen
data_Ce2O3
_symmetry_space_group_name_H-M   'P 1'
_cell_length_a   5.51473809
_cell_length_b   5.51473809
_cell_length_c   5.89266193
_cell_angle_alpha   90.00000000
_cell_angle_beta   90.00000000
_cell_angle_gamma   120.00000005
_symmetry_Int_Tables_number   1
_chemical_formula_structural   Ce2O3
_chemical_formula_sum   'Ce2 O3'
_cell_volume   155.20007979
_cell_formula_units_Z   1
loop_
 _symmetry_equiv_pos_site_id
 _symmetry_equiv_pos_as_xyz
  1  'x, y, z'
loop_
 _atom_site_type_symbol
 _atom_site_label
 _atom_site_symmetry_multiplicity
 _atom_site_fract_x
 _atom_site_fract_y
 _atom_site_fract_z
 _atom_site_occupancy
  O  O0  1  0.000000  0.656370  0.000000  1
  O  O1  1  0.656370  0.000000  0.000000  1
  O  O2  1  0.343630  0.343630  0.000000  1
  Ce  Ce3  1  0.666667  0.333333  0.824049  1
  Ce  Ce4  1  0.333333  0.666667  0.175951  1
