# generated using pymatgen
data_Ba3(TaS4)2
_symmetry_space_group_name_H-M   'P 1'
_cell_length_a   6.93931196
_cell_length_b   12.15593033
_cell_length_c   12.74885555
_cell_angle_alpha   109.19259087
_cell_angle_beta   90.00000000
_cell_angle_gamma   90.00000000
_symmetry_Int_Tables_number   1
_chemical_formula_structural   Ba3(TaS4)2
_chemical_formula_sum   'Ba9 Ta6 S24'
_cell_volume   1015.64159618
_cell_formula_units_Z   3
loop_
 _symmetry_equiv_pos_site_id
 _symmetry_equiv_pos_as_xyz
  1  'x, y, z'
loop_
 _atom_site_type_symbol
 _atom_site_label
 _atom_site_symmetry_multiplicity
 _atom_site_fract_x
 _atom_site_fract_y
 _atom_site_fract_z
 _atom_site_occupancy
  S  S0  1  0.751742  0.312741  0.800933  1
  S  S1  1  0.751742  0.687259  0.199067  1
  S  S2  1  0.248258  0.687259  0.199067  1
  S  S3  1  0.248258  0.312741  0.800933  1
  S  S4  1  0.744459  0.383136  0.152737  1
  S  S5  1  0.744459  0.616864  0.847263  1
  S  S6  1  0.255541  0.616864  0.847263  1
  S  S7  1  0.255541  0.383136  0.152737  1
  S  S8  1  0.744604  0.151998  0.515882  1
  S  S9  1  0.744604  0.848002  0.484118  1
  S  S10  1  0.255396  0.848002  0.484118  1
  S  S11  1  0.255396  0.151998  0.515882  1
  S  S12  1  0.759395  0.092266  0.145227  1
  S  S13  1  0.759395  0.907734  0.854773  1
  S  S14  1  0.240605  0.907734  0.854773  1
  S  S15  1  0.500000  0.057181  0.700573  1
  S  S16  1  0.500000  0.942819  0.299427  1
  S  S17  1  0.000000  0.324599  0.367616  1
  S  S18  1  0.000000  0.675401  0.632384  1
  S  S19  1  0.500000  0.420456  0.603971  1
  S  S20  1  0.500000  0.579544  0.396029  1
  S  S21  1  0.000000  0.177572  0.953904  1
  S  S22  1  0.000000  0.822428  0.046096  1
  S  S23  1  0.240605  0.092266  0.145227  1
  Ba  Ba24  1  0.000000  0.500000  0.000000  1
  Ba  Ba25  1  0.000000  0.046975  0.691100  1
  Ba  Ba26  1  0.000000  0.953025  0.308900  1
  Ba  Ba27  1  0.500000  0.277972  0.343544  1
  Ba  Ba28  1  0.500000  0.722028  0.656456  1
  Ba  Ba29  1  0.000000  0.405216  0.635394  1
  Ba  Ba30  1  0.500000  0.816551  0.035822  1
  Ba  Ba31  1  0.500000  0.183449  0.964178  1
  Ba  Ba32  1  0.000000  0.594784  0.364606  1
  Ta  Ta33  1  0.000000  0.000000  0.000000  1
  Ta  Ta34  1  0.500000  0.000000  0.500000  1
  Ta  Ta35  1  0.000000  0.269789  0.172456  1
  Ta  Ta36  1  0.000000  0.730211  0.827544  1
  Ta  Ta37  1  0.500000  0.265930  0.675688  1
  Ta  Ta38  1  0.500000  0.734070  0.324312  1
