# generated using pymatgen
data_Hg2P2O7
_symmetry_space_group_name_H-M   'P 1'
_cell_length_a   6.84060945
_cell_length_b   7.00222577
_cell_length_c   7.19362456
_cell_angle_alpha   77.92426313
_cell_angle_beta   67.36835582
_cell_angle_gamma   80.27300390
_symmetry_Int_Tables_number   1
_chemical_formula_structural   Hg2P2O7
_chemical_formula_sum   'Hg4 P4 O14'
_cell_volume   309.50369128
_cell_formula_units_Z   2
loop_
 _symmetry_equiv_pos_site_id
 _symmetry_equiv_pos_as_xyz
  1  'x, y, z'
loop_
 _atom_site_type_symbol
 _atom_site_label
 _atom_site_symmetry_multiplicity
 _atom_site_fract_x
 _atom_site_fract_y
 _atom_site_fract_z
 _atom_site_occupancy
  Hg  Hg0  1  0.699319  0.681202  0.374881  1
  Hg  Hg1  1  0.300681  0.318798  0.625119  1
  Hg  Hg2  1  0.896116  0.827655  0.753047  1
  Hg  Hg3  1  0.103884  0.172345  0.246953  1
  P  P4  1  0.640893  0.129472  0.169603  1
  P  P5  1  0.359107  0.870528  0.830397  1
  P  P6  1  0.786006  0.340551  0.738889  1
  P  P7  1  0.213994  0.659449  0.261111  1
  O  O8  1  0.620205  0.249386  0.958089  1
  O  O9  1  0.379795  0.750614  0.041911  1
  O  O10  1  0.933921  0.169510  0.639190  1
  O  O11  1  0.066079  0.830490  0.360810  1
  O  O12  1  0.409482  0.127240  0.320976  1
  O  O13  1  0.590518  0.872760  0.679024  1
  O  O14  1  0.629088  0.441399  0.631296  1
  O  O15  1  0.370912  0.558601  0.368704  1
  O  O16  1  0.739724  0.918839  0.119533  1
  O  O17  1  0.260276  0.081161  0.880467  1
  O  O18  1  0.916777  0.481877  0.767221  1
  O  O19  1  0.083223  0.518123  0.232779  1
  O  O20  1  0.775051  0.234816  0.234186  1
  O  O21  1  0.224949  0.765184  0.765814  1
