# generated using pymatgen
data_P2PtO7
_symmetry_space_group_name_H-M   'P 1'
_cell_length_a   7.20355972
_cell_length_b   8.04002507
_cell_length_c   9.42763240
_cell_angle_alpha   90.00000000
_cell_angle_beta   111.71380824
_cell_angle_gamma   90.00000000
_symmetry_Int_Tables_number   1
_chemical_formula_structural   P2PtO7
_chemical_formula_sum   'P8 Pt4 O28'
_cell_volume   507.27472393
_cell_formula_units_Z   4
loop_
 _symmetry_equiv_pos_site_id
 _symmetry_equiv_pos_as_xyz
  1  'x, y, z'
loop_
 _atom_site_type_symbol
 _atom_site_label
 _atom_site_symmetry_multiplicity
 _atom_site_fract_x
 _atom_site_fract_y
 _atom_site_fract_z
 _atom_site_occupancy
  O  O0  1  0.031373  0.366779  0.180946  1
  O  O1  1  0.468627  0.866779  0.319054  1
  O  O2  1  0.968627  0.633221  0.819054  1
  O  O3  1  0.531373  0.133221  0.680946  1
  O  O4  1  0.241478  0.141067  0.118336  1
  O  O5  1  0.258522  0.641067  0.381664  1
  O  O6  1  0.758522  0.858933  0.881664  1
  O  O7  1  0.741478  0.358933  0.618336  1
  O  O8  1  0.402619  0.313656  0.344726  1
  O  O9  1  0.097381  0.813656  0.155274  1
  O  O10  1  0.597381  0.686344  0.655274  1
  O  O11  1  0.902619  0.186344  0.844726  1
  O  O12  1  0.321931  0.399203  0.599687  1
  O  O13  1  0.178069  0.899203  0.900313  1
  O  O14  1  0.678069  0.600797  0.400313  1
  O  O15  1  0.821931  0.100797  0.099687  1
  O  O16  1  0.434842  0.287452  0.878215  1
  O  O17  1  0.065158  0.787452  0.621785  1
  O  O18  1  0.565158  0.712548  0.121785  1
  O  O19  1  0.934842  0.212548  0.378215  1
  O  O20  1  0.178901  0.138115  0.675810  1
  O  O21  1  0.321099  0.638115  0.824190  1
  O  O22  1  0.821099  0.861885  0.324190  1
  O  O23  1  0.678901  0.361885  0.175810  1
  O  O24  1  0.777312  0.040010  0.578782  1
  O  O25  1  0.722688  0.540010  0.921218  1
  O  O26  1  0.222688  0.959990  0.421218  1
  O  O27  1  0.277312  0.459990  0.078782  1
  P  P28  1  0.863257  0.251835  0.206566  1
  P  P29  1  0.636743  0.751835  0.293434  1
  P  P30  1  0.136743  0.748165  0.793434  1
  P  P31  1  0.363257  0.248165  0.706566  1
  P  P32  1  0.247868  0.319661  0.179994  1
  P  P33  1  0.252132  0.819661  0.320006  1
  P  P34  1  0.752132  0.680339  0.820006  1
  P  P35  1  0.747868  0.180339  0.679994  1
  Pt  Pt36  1  0.000000  0.000000  0.500000  1
  Pt  Pt37  1  0.500000  0.500000  0.000000  1
  Pt  Pt38  1  0.500000  0.500000  0.500000  1
  Pt  Pt39  1  0.000000  0.000000  0.000000  1
