# generated using pymatgen
data_BiO2
_symmetry_space_group_name_H-M   'P 1'
_cell_length_a   8.65837973
_cell_length_b   8.65837973
_cell_length_c   8.65837972
_cell_angle_alpha   53.63976241
_cell_angle_beta   135.07217519
_cell_angle_gamma   152.23469144
_symmetry_Int_Tables_number   1
_chemical_formula_structural   BiO2
_chemical_formula_sum   'Bi4 O8'
_cell_volume   212.42932623
_cell_formula_units_Z   4
loop_
 _symmetry_equiv_pos_site_id
 _symmetry_equiv_pos_as_xyz
  1  'x, y, z'
loop_
 _atom_site_type_symbol
 _atom_site_label
 _atom_site_symmetry_multiplicity
 _atom_site_fract_x
 _atom_site_fract_y
 _atom_site_fract_z
 _atom_site_occupancy
  O  O0  1  0.286365  0.750762  0.037127  1
  O  O1  1  0.109290  0.913222  0.022512  1
  O  O2  1  0.390710  0.413222  0.803932  1
  O  O3  1  0.786365  0.749238  0.535602  1
  O  O4  1  0.713635  0.249238  0.962873  1
  O  O5  1  0.890710  0.086778  0.977488  1
  O  O6  1  0.609290  0.586778  0.196068  1
  O  O7  1  0.213635  0.250762  0.464398  1
  Bi  Bi8  1  0.280761  0.611636  0.892398  1
  Bi  Bi9  1  0.780761  0.888364  0.669125  1
  Bi  Bi10  1  0.219239  0.111636  0.330875  1
  Bi  Bi11  1  0.719239  0.388364  0.107602  1
