# generated using pymatgen
data_Zr3N4
_symmetry_space_group_name_H-M   'P 1'
_cell_length_a   3.30171680
_cell_length_b   9.89617148
_cell_length_c   10.90356892
_cell_angle_alpha   90.00000000
_cell_angle_beta   90.00000000
_cell_angle_gamma   90.00000000
_symmetry_Int_Tables_number   1
_chemical_formula_structural   Zr3N4
_chemical_formula_sum   'Zr12 N16'
_cell_volume   356.26708854
_cell_formula_units_Z   4
loop_
 _symmetry_equiv_pos_site_id
 _symmetry_equiv_pos_as_xyz
  1  'x, y, z'
loop_
 _atom_site_type_symbol
 _atom_site_label
 _atom_site_symmetry_multiplicity
 _atom_site_fract_x
 _atom_site_fract_y
 _atom_site_fract_z
 _atom_site_occupancy
  Zr  Zr0  1  0.249395  0.270317  0.352966  1
  Zr  Zr1  1  0.749324  0.069795  0.124472  1
  Zr  Zr2  1  0.750881  0.106978  0.593544  1
  Zr  Zr3  1  0.749395  0.229683  0.852966  1
  Zr  Zr4  1  0.249395  0.770317  0.147034  1
  Zr  Zr5  1  0.749395  0.729683  0.647034  1
  Zr  Zr6  1  0.249324  0.430205  0.624472  1
  Zr  Zr7  1  0.250881  0.393022  0.093544  1
  Zr  Zr8  1  0.750881  0.606978  0.906456  1
  Zr  Zr9  1  0.249324  0.930205  0.875528  1
  Zr  Zr10  1  0.749324  0.569795  0.375528  1
  Zr  Zr11  1  0.250881  0.893022  0.406456  1
  N  N12  1  0.250195  0.643121  0.518347  1
  N  N13  1  0.251000  0.602940  0.028627  1
  N  N14  1  0.751000  0.897060  0.528627  1
  N  N15  1  0.249569  0.994551  0.225650  1
  N  N16  1  0.749569  0.505449  0.725650  1
  N  N17  1  0.749636  0.263585  0.214394  1
  N  N18  1  0.751000  0.397060  0.971373  1
  N  N19  1  0.749569  0.005449  0.774350  1
  N  N20  1  0.749636  0.763585  0.285606  1
  N  N21  1  0.249636  0.236415  0.714394  1
  N  N22  1  0.251000  0.102940  0.471373  1
  N  N23  1  0.249569  0.494551  0.274350  1
  N  N24  1  0.750195  0.356879  0.481653  1
  N  N25  1  0.249636  0.736415  0.785606  1
  N  N26  1  0.250195  0.143121  0.981653  1
  N  N27  1  0.750195  0.856879  0.018347  1
