# generated using pymatgen
data_K2MgH12(SO7)2
_symmetry_space_group_name_H-M   'P 1'
_cell_length_a   6.19408090
_cell_length_b   9.12201196
_cell_length_c   12.40138141
_cell_angle_alpha   90.00000000
_cell_angle_beta   90.00000000
_cell_angle_gamma   104.51044309
_symmetry_Int_Tables_number   1
_chemical_formula_structural   K2MgH12(SO7)2
_chemical_formula_sum   'K4 Mg2 H24 S4 O28'
_cell_volume   678.35758805
_cell_formula_units_Z   2
loop_
 _symmetry_equiv_pos_site_id
 _symmetry_equiv_pos_as_xyz
  1  'x, y, z'
loop_
 _atom_site_type_symbol
 _atom_site_label
 _atom_site_symmetry_multiplicity
 _atom_site_fract_x
 _atom_site_fract_y
 _atom_site_fract_z
 _atom_site_occupancy
  K  K0  1  0.342541  0.131558  0.346960  1
  K  K1  1  0.342541  0.631558  0.153040  1
  K  K2  1  0.657459  0.368442  0.846960  1
  K  K3  1  0.657459  0.868442  0.653040  1
  Mg  Mg4  1  0.000000  0.000000  0.000000  1
  Mg  Mg5  1  0.000000  0.500000  0.500000  1
  H  H6  1  0.911208  0.251644  0.627308  1
  H  H7  1  0.677534  0.780619  0.909724  1
  H  H8  1  0.677534  0.280619  0.590276  1
  H  H9  1  0.655687  0.600741  0.438242  1
  H  H10  1  0.073061  0.771551  0.601696  1
  H  H11  1  0.911208  0.751644  0.872692  1
  H  H12  1  0.088792  0.748356  0.372692  1
  H  H13  1  -0.001346  0.856935  0.189583  1
  H  H14  1  0.664502  0.470138  0.355176  1
  H  H15  1  0.926939  0.228449  0.398304  1
  H  H16  1  0.344313  0.899259  0.938242  1
  H  H17  1  0.655687  0.100741  0.061758  1
  H  H18  1  0.088792  0.248357  0.127308  1
  H  H19  1  0.926939  0.728449  0.101696  1
  H  H20  1  0.344313  0.399259  0.561758  1
  H  H21  1  0.664502  0.970138  0.144824  1
  H  H22  1  1.001346  0.143065  0.810417  1
  H  H23  1  0.335498  0.029862  0.855176  1
  H  H24  1  1.001346  0.643065  0.689583  1
  H  H25  1  0.335498  0.529862  0.644824  1
  H  H26  1  0.073061  0.271551  0.898304  1
  H  H27  1  0.322466  0.219381  0.090276  1
  H  H28  1  0.322466  0.719381  0.409724  1
  H  H29  1  -0.001346  0.356935  0.310417  1
  S  S30  1  0.275171  0.591521  0.861799  1
  S  S31  1  0.724829  0.408479  0.138201  1
  S  S32  1  0.275171  0.091521  0.638201  1
  S  S33  1  0.724829  0.908479  0.361799  1
  O  O34  1  0.970307  0.669614  0.614326  1
  O  O35  1  0.053181  0.112281  0.674368  1
  O  O36  1  0.425003  0.596579  0.766404  1
  O  O37  1  0.384657  0.716746  0.937032  1
  O  O38  1  0.701951  0.504837  0.430654  1
  O  O39  1  0.946819  0.887719  0.325632  1
  O  O40  1  0.053181  0.612281  0.825632  1
  O  O41  1  0.615343  0.283254  0.062968  1
  O  O42  1  0.615343  0.783254  0.437032  1
  O  O43  1  0.425003  0.096579  0.733596  1
  O  O44  1  0.574997  0.403421  0.233596  1
  O  O45  1  0.574997  0.903421  0.266404  1
  O  O46  1  0.754591  0.555258  0.080909  1
  O  O47  1  0.833719  0.831565  0.889782  1
  O  O48  1  0.970307  0.169614  0.885674  1
  O  O49  1  0.701951  0.004837  0.069346  1
  O  O50  1  0.166281  0.168435  0.110218  1
  O  O51  1  0.833719  0.331565  0.610218  1
  O  O52  1  0.166281  0.668435  0.389782  1
  O  O53  1  0.029693  0.830386  0.114326  1
  O  O54  1  0.298049  0.495163  0.569345  1
  O  O55  1  0.245409  0.944742  0.580909  1
  O  O56  1  0.245409  0.444742  0.919091  1
  O  O57  1  0.298049  0.995163  0.930655  1
  O  O58  1  0.754591  0.055258  0.419091  1
  O  O59  1  0.946819  0.387719  0.174368  1
  O  O60  1  0.384657  0.216746  0.562968  1
  O  O61  1  0.029693  0.330386  0.385674  1
