# generated using pymatgen
data_K3Mn2Cl7
_symmetry_space_group_name_H-M   'P 1'
_cell_length_a   5.06906541
_cell_length_b   5.06906540
_cell_length_c   13.33863375
_cell_angle_alpha   100.95362546
_cell_angle_beta   100.95362546
_cell_angle_gamma   89.99999997
_symmetry_Int_Tables_number   1
_chemical_formula_structural   K3Mn2Cl7
_chemical_formula_sum   'K3 Mn2 Cl7'
_cell_volume   330.13514302
_cell_formula_units_Z   1
loop_
 _symmetry_equiv_pos_site_id
 _symmetry_equiv_pos_as_xyz
  1  'x, y, z'
loop_
 _atom_site_type_symbol
 _atom_site_label
 _atom_site_symmetry_multiplicity
 _atom_site_fract_x
 _atom_site_fract_y
 _atom_site_fract_z
 _atom_site_occupancy
  Cl  Cl0  1  0.903010  0.403010  0.806020  1
  Cl  Cl1  1  0.403010  0.903010  0.806020  1
  Cl  Cl2  1  0.096990  0.596990  0.193980  1
  Cl  Cl3  1  0.596990  0.096990  0.193980  1
  Cl  Cl4  1  0.696715  0.696715  0.393429  1
  Cl  Cl5  1  0.500000  0.500000  0.000000  1
  Cl  Cl6  1  0.303285  0.303285  0.606571  1
  K  K7  1  0.000000  0.000000  0.000000  1
  K  K8  1  0.181626  0.181626  0.363251  1
  K  K9  1  0.818374  0.818374  0.636749  1
  Mn  Mn10  1  0.399541  0.399541  0.799083  1
  Mn  Mn11  1  0.600459  0.600459  0.200917  1
