# generated using pymatgen
data_RbFeP2O7
_symmetry_space_group_name_H-M   'P 1'
_cell_length_a   7.61670424
_cell_length_b   8.40863073
_cell_length_c   10.14996377
_cell_angle_alpha   90.00000000
_cell_angle_beta   90.00000000
_cell_angle_gamma   105.83213864
_symmetry_Int_Tables_number   1
_chemical_formula_structural   RbFeP2O7
_chemical_formula_sum   'Rb4 Fe4 P8 O28'
_cell_volume   625.40497458
_cell_formula_units_Z   4
loop_
 _symmetry_equiv_pos_site_id
 _symmetry_equiv_pos_as_xyz
  1  'x, y, z'
loop_
 _atom_site_type_symbol
 _atom_site_label
 _atom_site_symmetry_multiplicity
 _atom_site_fract_x
 _atom_site_fract_y
 _atom_site_fract_z
 _atom_site_occupancy
  O  O0  1  0.557610  0.262863  0.278031  1
  O  O1  1  0.442390  0.237136  0.778031  1
  O  O2  1  0.442390  0.737137  0.721969  1
  O  O3  1  0.557610  0.762863  0.221970  1
  O  O4  1  0.006232  0.272257  0.996871  1
  O  O5  1  0.993768  0.227744  0.496871  1
  O  O6  1  0.993768  0.727744  0.003129  1
  O  O7  1  0.006232  0.772256  0.503129  1
  O  O8  1  0.678690  0.490594  0.104133  1
  O  O9  1  0.321310  0.009406  0.604132  1
  O  O10  1  0.321310  0.509406  0.895868  1
  O  O11  1  0.678690  0.990594  0.395867  1
  O  O12  1  0.848626  0.985342  0.086225  1
  O  O13  1  0.151374  0.514658  0.586225  1
  O  O14  1  0.151374  0.014658  0.913775  1
  O  O15  1  0.848626  0.485341  0.413774  1
  O  O16  1  0.671863  0.195942  0.053760  1
  O  O17  1  0.328137  0.304059  0.553760  1
  O  O18  1  0.328136  0.804059  0.946240  1
  O  O19  1  0.671863  0.695941  0.446240  1
  O  O20  1  0.914505  0.739257  0.265453  1
  O  O21  1  0.085494  0.760743  0.765454  1
  O  O22  1  0.374477  0.269176  0.074230  1
  O  O23  1  0.914506  0.239257  0.234546  1
  O  O24  1  0.374477  0.769176  0.425770  1
  O  O25  1  0.625523  0.730824  0.925770  1
  O  O26  1  0.625523  0.230824  0.574230  1
  O  O27  1  0.085495  0.260743  0.734546  1
  P  P28  1  0.868408  0.668658  0.404955  1
  P  P29  1  0.131591  0.831342  0.904954  1
  P  P30  1  0.131592  0.331342  0.595046  1
  P  P31  1  0.868409  0.168658  0.095046  1
  P  P32  1  0.567393  0.313872  0.132042  1
  P  P33  1  0.567392  0.813872  0.367959  1
  P  P34  1  0.432609  0.686128  0.867959  1
  P  P35  1  0.432607  0.186127  0.632041  1
  Fe  Fe36  1  0.762176  0.741081  0.100348  1
  Fe  Fe37  1  0.237824  0.258919  0.899651  1
  Fe  Fe38  1  0.237824  0.758919  0.600349  1
  Fe  Fe39  1  0.762176  0.241082  0.399651  1
  Rb  Rb40  1  0.813121  0.949312  0.686671  1
  Rb  Rb41  1  0.186879  0.550688  0.186671  1
  Rb  Rb42  1  0.186879  0.050689  0.313329  1
  Rb  Rb43  1  0.813121  0.449311  0.813329  1
