# generated using pymatgen
data_NbO2
_symmetry_space_group_name_H-M   'P 1'
_cell_length_a   3.01626349
_cell_length_b   3.01626829
_cell_length_c   10.93476455
_cell_angle_alpha   90.00135491
_cell_angle_beta   89.99814271
_cell_angle_gamma   120.00006383
_symmetry_Int_Tables_number   1
_chemical_formula_structural   NbO2
_chemical_formula_sum   'Nb2 O4'
_cell_volume   86.15471169
_cell_formula_units_Z   2
loop_
 _symmetry_equiv_pos_site_id
 _symmetry_equiv_pos_as_xyz
  1  'x, y, z'
loop_
 _atom_site_type_symbol
 _atom_site_label
 _atom_site_symmetry_multiplicity
 _atom_site_fract_x
 _atom_site_fract_y
 _atom_site_fract_z
 _atom_site_occupancy
  O  O0  1  0.666776  0.333401  0.860193  1
  O  O1  1  0.666803  0.333391  0.640497  1
  O  O2  1  0.333221  0.666670  0.359510  1
  O  O3  1  0.333246  0.666658  0.139804  1
  Nb  Nb4  1  0.666525  0.333185  0.249633  1
  Nb  Nb5  1  0.333427  0.666595  0.750366  1
