# generated using pymatgen
data_U2SnPd2
_symmetry_space_group_name_H-M   'P 1'
_cell_length_a   3.78990613
_cell_length_b   7.66803602
_cell_length_c   7.66803602
_cell_angle_alpha   90.00000000
_cell_angle_beta   90.00000000
_cell_angle_gamma   90.00000000
_symmetry_Int_Tables_number   1
_chemical_formula_structural   U2SnPd2
_chemical_formula_sum   'U4 Sn2 Pd4'
_cell_volume   222.84184313
_cell_formula_units_Z   2
loop_
 _symmetry_equiv_pos_site_id
 _symmetry_equiv_pos_as_xyz
  1  'x, y, z'
loop_
 _atom_site_type_symbol
 _atom_site_label
 _atom_site_symmetry_multiplicity
 _atom_site_fract_x
 _atom_site_fract_y
 _atom_site_fract_z
 _atom_site_occupancy
  Pd  Pd0  1  0.000000  0.130163  0.369837  1
  Pd  Pd1  1  0.000000  0.369837  0.869837  1
  Pd  Pd2  1  0.000000  0.630163  0.130163  1
  Pd  Pd3  1  0.000000  0.869837  0.630163  1
  Sn  Sn4  1  0.000000  0.000000  0.000000  1
  Sn  Sn5  1  0.000000  0.500000  0.500000  1
  U  U6  1  0.500000  0.827440  0.327440  1
  U  U7  1  0.500000  0.672560  0.827440  1
  U  U8  1  0.500000  0.327440  0.172560  1
  U  U9  1  0.500000  0.172560  0.672560  1
