# generated using pymatgen
data_GeBi2O5
_symmetry_space_group_name_H-M   'P 1'
_cell_length_a   5.46558851
_cell_length_b   5.60390490
_cell_length_c   8.40055056
_cell_angle_alpha   109.48402137
_cell_angle_beta   89.93544847
_cell_angle_gamma   89.99999786
_symmetry_Int_Tables_number   1
_chemical_formula_structural   GeBi2O5
_chemical_formula_sum   'Ge2 Bi4 O10'
_cell_volume   242.56299698
_cell_formula_units_Z   2
loop_
 _symmetry_equiv_pos_site_id
 _symmetry_equiv_pos_as_xyz
  1  'x, y, z'
loop_
 _atom_site_type_symbol
 _atom_site_label
 _atom_site_symmetry_multiplicity
 _atom_site_fract_x
 _atom_site_fract_y
 _atom_site_fract_z
 _atom_site_occupancy
  Ge  Ge0  1  0.217722  0.314858  0.002384  1
  Ge  Ge1  1  0.717722  0.687526  0.002384  1
  Bi  Bi2  1  0.264379  0.614240  0.666425  1
  Bi  Bi3  1  0.766289  0.390524  0.342504  1
  Bi  Bi4  1  0.764379  0.052185  0.666425  1
  Bi  Bi5  1  0.266289  0.951979  0.342504  1
  O  O6  1  0.992905  0.243140  0.505831  1
  O  O7  1  0.492905  0.262691  0.505831  1
  O  O8  1  0.164467  0.071115  0.811771  1
  O  O9  1  0.534337  0.413352  0.998591  1
  O  O10  1  0.991369  0.740618  0.502123  1
  O  O11  1  0.034337  0.585239  0.998591  1
  O  O12  1  0.491369  0.761505  0.502123  1
  O  O13  1  0.167031  0.268953  0.195570  1
  O  O14  1  0.664467  0.740656  0.811771  1
  O  O15  1  0.667031  0.926617  0.195570  1
