# generated using pymatgen
data_RbIn5S8
_symmetry_space_group_name_H-M   'P 1'
_cell_length_a   3.92696111
_cell_length_b   9.39676524
_cell_length_c   9.85152905
_cell_angle_alpha   102.01253479
_cell_angle_beta   101.49644819
_cell_angle_gamma   90.00000002
_symmetry_Int_Tables_number   1
_chemical_formula_structural   RbIn5S8
_chemical_formula_sum   'Rb1 In5 S8'
_cell_volume   348.10791462
_cell_formula_units_Z   1
loop_
 _symmetry_equiv_pos_site_id
 _symmetry_equiv_pos_as_xyz
  1  'x, y, z'
loop_
 _atom_site_type_symbol
 _atom_site_label
 _atom_site_symmetry_multiplicity
 _atom_site_fract_x
 _atom_site_fract_y
 _atom_site_fract_z
 _atom_site_occupancy
  S  S0  1  0.834143  0.520371  0.668286  1
  S  S1  1  0.926333  0.207231  0.852666  1
  S  S2  1  0.073667  0.792769  0.147334  1
  S  S3  1  0.583745  0.129653  0.167489  1
  S  S4  1  0.416255  0.870347  0.832511  1
  S  S5  1  0.763716  0.847339  0.527432  1
  S  S6  1  0.236284  0.152661  0.472568  1
  S  S7  1  0.165857  0.479629  0.331714  1
  Rb  Rb8  1  0.500000  0.500000  0.000000  1
  In  In9  1  0.711715  0.339173  0.423429  1
  In  In10  1  0.647466  0.918896  0.294932  1
  In  In11  1  0.352534  0.081104  0.705068  1
  In  In12  1  0.288285  0.660827  0.576571  1
  In  In13  1  0.000000  0.000000  0.000000  1
