# generated using pymatgen
data_Hg4P2O7
_symmetry_space_group_name_H-M   'P 1'
_cell_length_a   5.03841902
_cell_length_b   9.48692968
_cell_length_c   9.67860810
_cell_angle_alpha   99.11139633
_cell_angle_beta   90.00000000
_cell_angle_gamma   90.00000000
_symmetry_Int_Tables_number   1
_chemical_formula_structural   Hg4P2O7
_chemical_formula_sum   'Hg8 P4 O14'
_cell_volume   456.79171642
_cell_formula_units_Z   2
loop_
 _symmetry_equiv_pos_site_id
 _symmetry_equiv_pos_as_xyz
  1  'x, y, z'
loop_
 _atom_site_type_symbol
 _atom_site_label
 _atom_site_symmetry_multiplicity
 _atom_site_fract_x
 _atom_site_fract_y
 _atom_site_fract_z
 _atom_site_occupancy
  O  O0  1  0.658821  0.087954  0.921681  1
  O  O1  1  0.658821  0.412046  0.578319  1
  O  O2  1  0.341179  0.912046  0.078319  1
  O  O3  1  0.341179  0.587954  0.421681  1
  O  O4  1  0.767654  0.250000  0.750000  1
  O  O5  1  0.232346  0.750000  0.250000  1
  O  O6  1  0.075387  0.251147  0.541458  1
  O  O7  1  0.075387  0.248853  0.958542  1
  O  O8  1  0.924613  0.748853  0.458542  1
  O  O9  1  0.924613  0.751147  0.041458  1
  O  O10  1  0.044888  0.475521  0.733937  1
  O  O11  1  0.044888  0.024479  0.766063  1
  O  O12  1  0.955112  0.975521  0.233937  1
  O  O13  1  0.955112  0.524479  0.266063  1
  P  P14  1  0.902122  0.349191  0.644055  1
  P  P15  1  0.902122  0.150809  0.855945  1
  P  P16  1  0.097878  0.650809  0.355945  1
  P  P17  1  0.097878  0.849191  0.144055  1
  Hg  Hg18  1  0.560070  0.820823  0.877109  1
  Hg  Hg19  1  0.560070  0.679177  0.622891  1
  Hg  Hg20  1  0.439930  0.179177  0.122891  1
  Hg  Hg21  1  0.439930  0.320823  0.377109  1
  Hg  Hg22  1  0.323771  0.022571  0.597939  1
  Hg  Hg23  1  0.323771  0.477429  0.902061  1
  Hg  Hg24  1  0.676229  0.977429  0.402061  1
  Hg  Hg25  1  0.676229  0.522571  0.097939  1
