# generated using pymatgen
data_TeCF2
_symmetry_space_group_name_H-M   'P 1'
_cell_length_a   7.21455194
_cell_length_b   7.53124183
_cell_length_c   12.00264739
_cell_angle_alpha   90.00000000
_cell_angle_beta   90.00000000
_cell_angle_gamma   92.09304154
_symmetry_Int_Tables_number   1
_chemical_formula_structural   TeCF2
_chemical_formula_sum   'Te8 C8 F16'
_cell_volume   651.72317254
_cell_formula_units_Z   8
loop_
 _symmetry_equiv_pos_site_id
 _symmetry_equiv_pos_as_xyz
  1  'x, y, z'
loop_
 _atom_site_type_symbol
 _atom_site_label
 _atom_site_symmetry_multiplicity
 _atom_site_fract_x
 _atom_site_fract_y
 _atom_site_fract_z
 _atom_site_occupancy
  C  C0  1  0.269282  0.552137  0.489310  1
  C  C1  1  0.599543  0.982148  0.668764  1
  C  C2  1  0.400457  0.017852  0.168764  1
  C  C3  1  0.762732  0.885589  0.464934  1
  C  C4  1  0.237268  0.114411  0.964934  1
  C  C5  1  0.730719  0.447863  0.989310  1
  C  C6  1  0.080934  0.314040  0.634262  1
  C  C7  1  0.919066  0.685960  0.134262  1
  F  F8  1  0.320929  0.210596  0.879807  1
  F  F9  1  0.679071  0.789404  0.379807  1
  F  F10  1  0.059799  0.078456  0.929461  1
  F  F11  1  0.420027  0.944781  0.702362  1
  F  F12  1  0.940201  0.921544  0.429461  1
  F  F13  1  0.319371  0.924406  0.254581  1
  F  F14  1  0.680629  0.075594  0.754581  1
  F  F15  1  0.579973  0.055219  0.202362  1
  F  F16  1  0.033417  0.640613  0.221273  1
  F  F17  1  0.966583  0.359387  0.721273  1
  F  F18  1  0.918675  0.867029  0.134631  1
  F  F19  1  0.081325  0.132971  0.634631  1
  F  F20  1  0.618133  0.497181  0.902112  1
  F  F21  1  0.381867  0.502819  0.402112  1
  F  F22  1  0.727864  0.266849  0.987439  1
  F  F23  1  0.272136  0.733151  0.487439  1
  Te  Te24  1  0.751437  0.736743  0.625075  1
  Te  Te25  1  0.248563  0.263257  0.125075  1
  Te  Te26  1  0.608841  0.130182  0.507698  1
  Te  Te27  1  0.391159  0.869818  0.007698  1
  Te  Te28  1  0.984126  0.423643  0.473253  1
  Te  Te29  1  0.015874  0.576357  0.973253  1
  Te  Te30  1  0.363924  0.445124  0.651337  1
  Te  Te31  1  0.636076  0.554876  0.151337  1
