# generated using pymatgen
data_Sm5Ga3
_symmetry_space_group_name_H-M   'P 1'
_cell_length_a   7.77158361
_cell_length_b   7.77158361
_cell_length_c   14.55652962
_cell_angle_alpha   90.00000000
_cell_angle_beta   90.00000000
_cell_angle_gamma   90.00000000
_symmetry_Int_Tables_number   1
_chemical_formula_structural   Sm5Ga3
_chemical_formula_sum   'Sm20 Ga12'
_cell_volume   879.17816960
_cell_formula_units_Z   4
loop_
 _symmetry_equiv_pos_site_id
 _symmetry_equiv_pos_as_xyz
  1  'x, y, z'
loop_
 _atom_site_type_symbol
 _atom_site_label
 _atom_site_symmetry_multiplicity
 _atom_site_fract_x
 _atom_site_fract_y
 _atom_site_fract_z
 _atom_site_occupancy
  Ga  Ga0  1  0.629450  0.129450  0.750000  1
  Ga  Ga1  1  0.370550  0.629450  0.750000  1
  Ga  Ga2  1  0.129450  0.870550  0.750000  1
  Ga  Ga3  1  0.870550  0.370550  0.750000  1
  Ga  Ga4  1  0.370550  0.870550  0.250000  1
  Ga  Ga5  1  0.629450  0.370550  0.250000  1
  Ga  Ga6  1  0.870550  0.129450  0.250000  1
  Ga  Ga7  1  0.129450  0.629450  0.250000  1
  Ga  Ga8  1  0.750000  0.750000  0.992594  1
  Ga  Ga9  1  0.250000  0.250000  0.507406  1
  Ga  Ga10  1  0.250000  0.250000  0.007406  1
  Ga  Ga11  1  0.750000  0.750000  0.492594  1
  Sm  Sm12  1  0.093858  0.564259  0.896611  1
  Sm  Sm13  1  0.593858  0.435741  0.603389  1
  Sm  Sm14  1  0.564259  0.406142  0.896611  1
  Sm  Sm15  1  0.935741  0.093858  0.896611  1
  Sm  Sm16  1  0.250000  0.250000  0.221128  1
  Sm  Sm17  1  0.750000  0.750000  0.278872  1
  Sm  Sm18  1  0.750000  0.750000  0.778872  1
  Sm  Sm19  1  0.250000  0.250000  0.721128  1
  Sm  Sm20  1  0.406142  0.935741  0.896611  1
  Sm  Sm21  1  0.064259  0.593858  0.603389  1
  Sm  Sm22  1  0.435741  0.906142  0.603389  1
  Sm  Sm23  1  0.906142  0.064259  0.603389  1
  Sm  Sm24  1  0.064259  0.906142  0.103389  1
  Sm  Sm25  1  0.435741  0.593858  0.103389  1
  Sm  Sm26  1  0.406142  0.564259  0.396611  1
  Sm  Sm27  1  0.906142  0.435741  0.103389  1
  Sm  Sm28  1  0.593858  0.064259  0.103389  1
  Sm  Sm29  1  0.935741  0.406142  0.396611  1
  Sm  Sm30  1  0.564259  0.093858  0.396611  1
  Sm  Sm31  1  0.093858  0.935741  0.396611  1
