# generated using pymatgen
data_Na3SbH18S4O9
_symmetry_space_group_name_H-M   'P 1'
_cell_length_a   12.01488051
_cell_length_b   12.01488051
_cell_length_c   12.01488051
_cell_angle_alpha   90.00000000
_cell_angle_beta   90.00000000
_cell_angle_gamma   90.00000000
_symmetry_Int_Tables_number   1
_chemical_formula_structural   Na3SbH18S4O9
_chemical_formula_sum   'Na12 Sb4 H72 S16 O36'
_cell_volume   1734.43635508
_cell_formula_units_Z   4
loop_
 _symmetry_equiv_pos_site_id
 _symmetry_equiv_pos_as_xyz
  1  'x, y, z'
loop_
 _atom_site_type_symbol
 _atom_site_label
 _atom_site_symmetry_multiplicity
 _atom_site_fract_x
 _atom_site_fract_y
 _atom_site_fract_z
 _atom_site_occupancy
  H  H0  1  0.442276  0.695600  0.873663  1
  H  H1  1  0.942276  0.804400  0.126337  1
  H  H2  1  0.557724  0.195600  0.626337  1
  H  H3  1  0.804400  0.126337  0.942276  1
  H  H4  1  0.626337  0.557724  0.195600  1
  H  H5  1  0.126337  0.942276  0.804400  1
  H  H6  1  0.695600  0.873663  0.442276  1
  H  H7  1  0.873663  0.442276  0.695600  1
  H  H8  1  0.195600  0.626337  0.557724  1
  H  H9  1  0.304400  0.373663  0.057724  1
  H  H10  1  0.373663  0.057724  0.304400  1
  H  H11  1  0.057724  0.304400  0.373663  1
  H  H12  1  0.453370  0.779136  0.773982  1
  H  H13  1  0.953370  0.720864  0.226018  1
  H  H14  1  0.546630  0.279136  0.726018  1
  H  H15  1  0.720864  0.226018  0.953370  1
  H  H16  1  0.726018  0.546630  0.279136  1
  H  H17  1  0.226018  0.953370  0.720864  1
  H  H18  1  0.779136  0.773982  0.453370  1
  H  H19  1  0.773982  0.453370  0.779136  1
  H  H20  1  0.279136  0.726018  0.546630  1
  H  H21  1  0.220864  0.273982  0.046630  1
  H  H22  1  0.273982  0.046630  0.220864  1
  H  H23  1  0.046630  0.220864  0.273982  1
  H  H24  1  0.327081  0.239804  0.541715  1
  H  H25  1  0.827081  0.260196  0.458285  1
  H  H26  1  0.672919  0.739804  0.958285  1
  H  H27  1  0.260196  0.458285  0.827081  1
  H  H28  1  0.958285  0.672919  0.739804  1
  H  H29  1  0.458285  0.827081  0.260196  1
  H  H30  1  0.239804  0.541715  0.327081  1
  H  H31  1  0.541715  0.327081  0.239804  1
  H  H32  1  0.739804  0.958285  0.672919  1
  H  H33  1  0.760196  0.041715  0.172919  1
  H  H34  1  0.200109  0.082464  0.520800  1
  H  H35  1  0.041715  0.172919  0.760196  1
  H  H36  1  0.244609  0.340114  0.522187  1
  H  H37  1  0.744609  0.159886  0.477813  1
  H  H38  1  0.755391  0.840114  0.977813  1
  H  H39  1  0.159886  0.477813  0.744609  1
  H  H40  1  0.977813  0.755391  0.840114  1
  H  H41  1  0.477813  0.744609  0.159886  1
  H  H42  1  0.340114  0.522187  0.244609  1
  H  H43  1  0.522187  0.244609  0.340114  1
  H  H44  1  0.840114  0.977813  0.755391  1
  H  H45  1  0.659886  0.022187  0.255391  1
  H  H46  1  0.022187  0.255391  0.659886  1
  H  H47  1  0.255391  0.659886  0.022187  1
  H  H48  1  0.577039  0.631556  0.359713  1
  H  H49  1  0.077039  0.868444  0.640287  1
  H  H50  1  0.422961  0.131556  0.140287  1
  H  H51  1  0.868444  0.640287  0.077039  1
  H  H52  1  0.140287  0.422961  0.131556  1
  H  H53  1  0.640287  0.077039  0.868444  1
  H  H54  1  0.631556  0.359713  0.577039  1
  H  H55  1  0.359713  0.577039  0.631556  1
  H  H56  1  0.131556  0.140287  0.422961  1
  H  H57  1  0.368444  0.859713  0.922961  1
  H  H58  1  0.859713  0.922961  0.368444  1
  H  H59  1  0.922961  0.368444  0.859713  1
  H  H60  1  0.479200  0.700109  0.417536  1
  H  H61  1  0.979200  0.799891  0.582464  1
  H  H62  1  0.520800  0.200109  0.082464  1
  H  H63  1  0.799891  0.582464  0.979200  1
  H  H64  1  0.082464  0.520800  0.200109  1
  H  H65  1  0.582464  0.979200  0.799891  1
  H  H66  1  0.700109  0.417536  0.479200  1
  H  H67  1  0.417536  0.479200  0.700109  1
  H  H68  1  0.020800  0.299891  0.917536  1
  H  H69  1  0.917536  0.020800  0.299891  1
  H  H70  1  0.299891  0.917536  0.020800  1
  H  H71  1  0.172919  0.760196  0.041715  1
  O  O72  1  0.400051  0.750360  0.830373  1
  O  O73  1  0.900051  0.749640  0.169627  1
  O  O74  1  0.599949  0.250360  0.669627  1
  O  O75  1  0.749640  0.169627  0.900051  1
  O  O76  1  0.669627  0.599949  0.250360  1
  O  O77  1  0.169627  0.900051  0.749640  1
  O  O78  1  0.750360  0.830373  0.400051  1
  O  O79  1  0.830373  0.400051  0.750360  1
  O  O80  1  0.250360  0.669627  0.599949  1
  O  O81  1  0.249640  0.330373  0.099949  1
  O  O82  1  0.330373  0.099949  0.249640  1
  O  O83  1  0.099949  0.249640  0.330373  1
  O  O84  1  0.313413  0.305357  0.493782  1
  O  O85  1  0.813413  0.194643  0.506218  1
  O  O86  1  0.686587  0.805357  0.006218  1
  O  O87  1  0.194643  0.506218  0.813413  1
  O  O88  1  0.006218  0.686587  0.805357  1
  O  O89  1  0.506218  0.813413  0.194643  1
  O  O90  1  0.305357  0.493782  0.313413  1
  O  O91  1  0.493782  0.313413  0.305357  1
  O  O92  1  0.805357  0.006218  0.686587  1
  O  O93  1  0.694643  0.993782  0.186587  1
  O  O94  1  0.993782  0.186587  0.694643  1
  O  O95  1  0.186587  0.694643  0.993782  1
  O  O96  1  0.527724  0.634387  0.425950  1
  O  O97  1  0.027724  0.865613  0.574050  1
  O  O98  1  0.472276  0.134387  0.074050  1
  O  O99  1  0.865613  0.574050  0.027724  1
  O  O100  1  0.074050  0.472276  0.134387  1
  O  O101  1  0.574050  0.027724  0.865613  1
  O  O102  1  0.634387  0.425950  0.527724  1
  O  O103  1  0.425950  0.527724  0.634387  1
  O  O104  1  0.134387  0.074050  0.472276  1
  O  O105  1  0.365613  0.925950  0.972276  1
  O  O106  1  0.925950  0.972276  0.365613  1
  O  O107  1  0.972276  0.365613  0.925950  1
  Na  Na108  1  0.291991  0.291991  0.291991  1
  Na  Na109  1  0.950349  0.049651  0.549651  1
  Na  Na110  1  0.549651  0.950349  0.049651  1
  Na  Na111  1  0.605147  0.605147  0.605147  1
  Na  Na112  1  0.894853  0.394853  0.105147  1
  Na  Na113  1  0.105147  0.894853  0.394853  1
  Na  Na114  1  0.394853  0.105147  0.894853  1
  Na  Na115  1  0.708009  0.791991  0.208009  1
  Na  Na116  1  0.791991  0.208009  0.708009  1
  Na  Na117  1  0.208009  0.708009  0.791991  1
  Na  Na118  1  0.450349  0.450349  0.450349  1
  Na  Na119  1  0.049651  0.549651  0.950349  1
  S  S120  1  0.076121  0.423879  0.576121  1
  S  S121  1  0.146145  0.153904  0.921210  1
  S  S122  1  0.576121  0.076121  0.423879  1
  S  S123  1  0.923879  0.923879  0.923879  1
  S  S124  1  0.921210  0.146145  0.153904  1
  S  S125  1  0.153904  0.921210  0.146145  1
  S  S126  1  0.346096  0.078790  0.646145  1
  S  S127  1  0.421210  0.353855  0.846096  1
  S  S128  1  0.846096  0.421210  0.353855  1
  S  S129  1  0.578790  0.853855  0.653904  1
  S  S130  1  0.078790  0.646145  0.346096  1
  S  S131  1  0.653904  0.578790  0.853855  1
  S  S132  1  0.646145  0.346096  0.078790  1
  S  S133  1  0.853855  0.653904  0.578790  1
  S  S134  1  0.423879  0.576121  0.076121  1
  S  S135  1  0.353855  0.846096  0.421210  1
  Sb  Sb136  1  0.037687  0.037687  0.037687  1
  Sb  Sb137  1  0.462313  0.962313  0.537687  1
  Sb  Sb138  1  0.537687  0.462313  0.962313  1
  Sb  Sb139  1  0.962313  0.537687  0.462313  1
