# generated using pymatgen
data_Nd2H16S3O20
_symmetry_space_group_name_H-M   'P 1'
_cell_length_a   6.89794165
_cell_length_b   7.67090483
_cell_length_c   18.56349594
_cell_angle_alpha   101.36812759
_cell_angle_beta   90.00000000
_cell_angle_gamma   116.71912713
_symmetry_Int_Tables_number   1
_chemical_formula_structural   Nd2H16S3O20
_chemical_formula_sum   'Nd4 H32 S6 O40'
_cell_volume   855.74477278
_cell_formula_units_Z   2
loop_
 _symmetry_equiv_pos_site_id
 _symmetry_equiv_pos_as_xyz
  1  'x, y, z'
loop_
 _atom_site_type_symbol
 _atom_site_label
 _atom_site_symmetry_multiplicity
 _atom_site_fract_x
 _atom_site_fract_y
 _atom_site_fract_z
 _atom_site_occupancy
  H  H0  1  0.289645  0.542728  0.756560  1
  H  H1  1  0.746917  0.457272  0.743440  1
  H  H2  1  0.710355  0.457272  0.243440  1
  H  H3  1  0.253083  0.542728  0.256560  1
  H  H4  1  0.136428  0.334789  0.700648  1
  H  H5  1  0.801638  0.665211  0.799352  1
  H  H6  1  0.863572  0.665211  0.299352  1
  H  H7  1  0.198362  0.334789  0.200648  1
  H  H8  1  0.449474  0.108076  0.649389  1
  H  H9  1  0.341398  0.891924  0.850611  1
  H  H10  1  0.550527  0.891924  0.350611  1
  H  H11  1  0.658602  0.108076  0.149389  1
  H  H12  1  0.196662  0.990189  0.661445  1
  H  H13  1  0.206473  0.009811  0.838555  1
  H  H14  1  0.803338  0.009811  0.338555  1
  H  H15  1  0.793527  0.990189  0.161445  1
  H  H16  1  0.994174  0.276739  0.517286  1
  H  H17  1  0.717436  0.723261  0.982714  1
  H  H18  1  0.005826  0.723261  0.482714  1
  H  H19  1  0.282564  0.276739  0.017286  1
  H  H20  1  0.200157  0.235659  0.505175  1
  H  H21  1  0.964498  0.764341  0.994825  1
  H  H22  1  0.799843  0.764341  0.494825  1
  H  H23  1  0.035502  0.235659  0.005175  1
  H  H24  1  0.821244  0.987893  0.606697  1
  H  H25  1  0.833351  0.012107  0.893303  1
  H  H26  1  0.178756  0.012107  0.393303  1
  H  H27  1  0.166649  0.987893  0.106697  1
  H  H28  1  0.695708  0.028807  0.545891  1
  H  H29  1  0.666901  0.971193  0.954109  1
  H  H30  1  0.304292  0.971193  0.454109  1
  H  H31  1  0.333099  0.028807  0.045891  1
  O  O32  1  0.237803  0.477517  0.703796  1
  O  O33  1  0.760285  0.522483  0.796204  1
  O  O34  1  0.762197  0.522483  0.296204  1
  O  O35  1  0.239715  0.477517  0.203796  1
  O  O36  1  0.322403  0.972988  0.642691  1
  O  O37  1  0.349416  0.027012  0.857309  1
  O  O38  1  0.677597  0.027012  0.357309  1
  O  O39  1  0.650584  0.972988  0.142691  1
  O  O40  1  0.136949  0.305265  0.540505  1
  O  O41  1  0.831684  0.694735  0.959495  1
  O  O42  1  0.863051  0.694735  0.459495  1
  O  O43  1  0.168316  0.305265  0.040505  1
  O  O44  1  0.705186  0.920402  0.564270  1
  O  O45  1  0.784784  0.079598  0.935730  1
  O  O46  1  0.294814  0.079598  0.435730  1
  O  O47  1  0.215216  0.920402  0.064270  1
  O  O48  1  0.791668  0.169821  0.787241  1
  O  O49  1  0.621846  0.830179  0.712759  1
  O  O50  1  0.208332  0.830179  0.212759  1
  O  O51  1  0.378154  0.169821  0.287241  1
  O  O52  1  0.986718  0.066167  0.693382  1
  O  O53  1  0.920551  0.933833  0.806618  1
  O  O54  1  0.013282  0.933833  0.306618  1
  O  O55  1  0.079449  0.066167  0.193382  1
  O  O56  1  0.726309  0.278256  0.519256  1
  O  O57  1  0.448053  0.721744  0.980744  1
  O  O58  1  0.273691  0.721744  0.480744  1
  O  O59  1  0.551947  0.278256  0.019256  1
  O  O60  1  0.686966  0.321224  0.651341  1
  O  O61  1  0.365742  0.678776  0.848659  1
  O  O62  1  0.313034  0.678776  0.348659  1
  O  O63  1  0.634258  0.321224  0.151341  1
  O  O64  1  0.971061  0.590373  0.604712  1
  O  O65  1  0.380688  0.409627  0.895288  1
  O  O66  1  0.028939  0.409627  0.395288  1
  O  O67  1  0.619312  0.590373  0.104712  1
  O  O68  1  0.592051  0.507730  0.577219  1
  O  O69  1  0.084320  0.492270  0.922781  1
  O  O70  1  0.407949  0.492270  0.422781  1
  O  O71  1  0.915680  0.507730  0.077219  1
  S  S72  1  0.829692  0.000000  0.750000  1
  S  S73  1  0.170308  0.000000  0.250000  1
  S  S74  1  0.744125  0.426578  0.589920  1
  S  S75  1  0.317547  0.573422  0.910080  1
  S  S76  1  0.255875  0.573422  0.410080  1
  S  S77  1  0.682453  0.426578  0.089920  1
  Nd  Nd78  1  0.354959  0.661703  0.606878  1
  Nd  Nd79  1  0.693256  0.338297  0.893122  1
  Nd  Nd80  1  0.645041  0.338297  0.393122  1
  Nd  Nd81  1  0.306744  0.661703  0.106878  1
