# generated using pymatgen
data_EuSnF7
_symmetry_space_group_name_H-M   'P 1'
_cell_length_a   5.75066950
_cell_length_b   9.19578480
_cell_length_c   11.42852786
_cell_angle_alpha   107.48734271
_cell_angle_beta   90.00000000
_cell_angle_gamma   90.00000000
_symmetry_Int_Tables_number   1
_chemical_formula_structural   EuSnF7
_chemical_formula_sum   'Eu4 Sn4 F28'
_cell_volume   576.43088111
_cell_formula_units_Z   4
loop_
 _symmetry_equiv_pos_site_id
 _symmetry_equiv_pos_as_xyz
  1  'x, y, z'
loop_
 _atom_site_type_symbol
 _atom_site_label
 _atom_site_symmetry_multiplicity
 _atom_site_fract_x
 _atom_site_fract_y
 _atom_site_fract_z
 _atom_site_occupancy
  F  F0  1  0.550365  0.370763  0.081104  1
  F  F1  1  0.050365  0.129237  0.418896  1
  F  F2  1  0.449635  0.629237  0.918896  1
  F  F3  1  0.949635  0.870763  0.581104  1
  F  F4  1  0.546154  0.173495  0.455044  1
  F  F5  1  0.046154  0.326505  0.044956  1
  F  F6  1  0.453846  0.826505  0.544956  1
  F  F7  1  0.953846  0.673495  0.955044  1
  F  F8  1  0.230308  0.621818  0.139884  1
  F  F9  1  0.730308  0.878182  0.360116  1
  F  F10  1  0.769692  0.378182  0.860116  1
  F  F11  1  0.269692  0.121818  0.639884  1
  F  F12  1  0.240626  0.918135  0.946591  1
  F  F13  1  0.740626  0.581865  0.553409  1
  F  F14  1  0.759374  0.081865  0.053409  1
  F  F15  1  0.259374  0.418135  0.446591  1
  F  F16  1  0.020092  0.629401  0.359466  1
  F  F17  1  0.520092  0.870599  0.140534  1
  F  F18  1  0.979908  0.370599  0.640534  1
  F  F19  1  0.479908  0.129401  0.859466  1
  F  F20  1  0.954238  0.085092  0.829042  1
  F  F21  1  0.454238  0.414908  0.670958  1
  F  F22  1  0.045762  0.914908  0.170958  1
  F  F23  1  0.545762  0.585092  0.329042  1
  F  F24  1  0.585476  0.797856  0.766651  1
  F  F25  1  0.085476  0.702144  0.733349  1
  F  F26  1  0.414524  0.202144  0.233349  1
  F  F27  1  0.914524  0.297856  0.266651  1
  Sn  Sn28  1  0.256457  0.269563  0.543407  1
  Sn  Sn29  1  0.756457  0.230437  0.956593  1
  Sn  Sn30  1  0.743543  0.730437  0.456593  1
  Sn  Sn31  1  0.243543  0.769563  0.043407  1
  Eu  Eu32  1  0.258435  0.923004  0.735150  1
  Eu  Eu33  1  0.758435  0.576996  0.764850  1
  Eu  Eu34  1  0.741565  0.076996  0.264850  1
  Eu  Eu35  1  0.241565  0.423004  0.235150  1
