# generated using pymatgen
data_BaDyFe2O5
_symmetry_space_group_name_H-M   'P 1'
_cell_length_a   3.97875596
_cell_length_b   7.73396613
_cell_length_c   7.93220879
_cell_angle_alpha   90.00000000
_cell_angle_beta   90.00000000
_cell_angle_gamma   90.00000000
_symmetry_Int_Tables_number   1
_chemical_formula_structural   BaDyFe2O5
_chemical_formula_sum   'Ba2 Dy2 Fe4 O10'
_cell_volume   244.08646913
_cell_formula_units_Z   2
loop_
 _symmetry_equiv_pos_site_id
 _symmetry_equiv_pos_as_xyz
  1  'x, y, z'
loop_
 _atom_site_type_symbol
 _atom_site_label
 _atom_site_symmetry_multiplicity
 _atom_site_fract_x
 _atom_site_fract_y
 _atom_site_fract_z
 _atom_site_occupancy
  O  O0  1  0.500000  0.681648  0.494184  1
  O  O1  1  0.500000  0.318351  0.505816  1
  O  O2  1  0.500000  0.681648  0.005815  1
  O  O3  1  0.500000  0.318351  0.994185  1
  O  O4  1  0.000000  0.683269  0.750000  1
  O  O5  1  0.000000  0.316731  0.250000  1
  O  O6  1  0.000000  0.683236  0.250000  1
  O  O7  1  0.000000  0.316763  0.750000  1
  O  O8  1  0.500000  0.985061  0.250000  1
  O  O9  1  0.500000  0.014940  0.750000  1
  Fe  Fe10  1  0.500000  0.737043  0.250000  1
  Fe  Fe11  1  0.500000  0.262957  0.750000  1
  Fe  Fe12  1  0.500000  0.279833  0.250000  1
  Fe  Fe13  1  0.500000  0.720168  0.750000  1
  Ba  Ba14  1  0.000000  0.000000  0.000000  1
  Ba  Ba15  1  0.000000  0.000000  0.500001  1
  Dy  Dy16  1  0.000000  0.500000  0.500001  1
  Dy  Dy17  1  0.000000  0.500000  0.000000  1
