# generated using pymatgen
data_MgH20S2(NO7)2
_symmetry_space_group_name_H-M   'P 1'
_cell_length_a   6.27176731
_cell_length_b   9.38378661
_cell_length_c   12.66619772
_cell_angle_alpha   90.00000000
_cell_angle_beta   90.00000000
_cell_angle_gamma   107.40065734
_symmetry_Int_Tables_number   1
_chemical_formula_structural   MgH20S2(NO7)2
_chemical_formula_sum   'Mg2 H40 S4 N4 O28'
_cell_volume   711.32902263
_cell_formula_units_Z   2
loop_
 _symmetry_equiv_pos_site_id
 _symmetry_equiv_pos_as_xyz
  1  'x, y, z'
loop_
 _atom_site_type_symbol
 _atom_site_label
 _atom_site_symmetry_multiplicity
 _atom_site_fract_x
 _atom_site_fract_y
 _atom_site_fract_z
 _atom_site_occupancy
  H  H0  1  0.329344  0.528895  0.644220  1
  H  H1  1  0.670656  0.971105  0.144220  1
  H  H2  1  0.670656  0.471105  0.355780  1
  H  H3  1  0.329344  0.028895  0.855780  1
  H  H4  1  0.339312  0.403926  0.562205  1
  H  H5  1  0.660688  0.096074  0.062205  1
  H  H6  1  0.660688  0.596074  0.437795  1
  H  H7  1  0.339312  0.903926  0.937795  1
  H  H8  1  0.004624  0.358299  0.314368  1
  H  H9  1  0.995376  0.141701  0.814368  1
  H  H10  1  0.995376  0.641701  0.685632  1
  H  H11  1  0.004624  0.858299  0.185632  1
  H  H12  1  0.944779  0.232320  0.401304  1
  H  H13  1  0.055221  0.267680  0.901304  1
  H  H14  1  0.055221  0.767680  0.598696  1
  H  H15  1  0.944779  0.732320  0.098696  1
  H  H16  1  0.098384  0.747245  0.374744  1
  H  H17  1  0.901616  0.752755  0.874744  1
  H  H18  1  0.901616  0.252755  0.625256  1
  H  H19  1  0.098384  0.247245  0.125256  1
  H  H20  1  0.328779  0.719325  0.408894  1
  H  H21  1  0.671221  0.780675  0.908894  1
  H  H22  1  0.671221  0.280675  0.591106  1
  H  H23  1  0.328779  0.219325  0.091106  1
  H  H24  1  0.362473  0.668287  0.070813  1
  H  H25  1  0.637527  0.831713  0.570813  1
  H  H26  1  0.637527  0.331713  0.929187  1
  H  H27  1  0.362473  0.168287  0.429187  1
  H  H28  1  0.478437  0.575046  0.156752  1
  H  H29  1  0.521563  0.924954  0.656752  1
  H  H30  1  0.521563  0.424954  0.843248  1
  H  H31  1  0.478437  0.075046  0.343248  1
  H  H32  1  0.403036  0.722123  0.199820  1
  H  H33  1  0.596964  0.777877  0.699820  1
  H  H34  1  0.596964  0.277877  0.800180  1
  H  H35  1  0.403036  0.222123  0.300180  1
  H  H36  1  0.205136  0.557538  0.165960  1
  H  H37  1  0.794864  0.942462  0.665960  1
  H  H38  1  0.205136  0.057538  0.334040  1
  H  H39  1  0.794864  0.442462  0.834040  1
  N  N40  1  0.361100  0.631577  0.148848  1
  N  N41  1  0.638900  0.868423  0.648848  1
  N  N42  1  0.638900  0.368423  0.851152  1
  N  N43  1  0.361100  0.131577  0.351152  1
  O  O44  1  0.168438  0.169826  0.105592  1
  O  O45  1  0.702717  0.003116  0.069709  1
  O  O46  1  0.702717  0.503116  0.430291  1
  O  O47  1  0.297283  0.996884  0.930291  1
  O  O48  1  0.029806  0.338692  0.389485  1
  O  O49  1  0.970194  0.161308  0.889485  1
  O  O50  1  0.970194  0.661308  0.610515  1
  O  O51  1  0.029806  0.838692  0.110515  1
  O  O52  1  0.168438  0.669826  0.394408  1
  O  O53  1  0.831562  0.830174  0.894408  1
  O  O54  1  0.831562  0.330174  0.605592  1
  O  O55  1  0.297283  0.496884  0.569709  1
  O  O56  1  0.957093  0.882553  0.321822  1
  O  O57  1  0.042907  0.617447  0.821822  1
  O  O58  1  0.042907  0.117447  0.678178  1
  O  O59  1  0.589909  0.402393  0.231017  1
  O  O60  1  0.626149  0.779185  0.433510  1
  O  O61  1  0.373851  0.720815  0.933510  1
  O  O62  1  0.373851  0.220815  0.566490  1
  O  O63  1  0.626149  0.279185  0.066490  1
  O  O64  1  0.787213  0.048094  0.417668  1
  O  O65  1  0.212787  0.451906  0.917668  1
  O  O66  1  0.212787  0.951906  0.582332  1
  O  O67  1  0.787213  0.548094  0.082332  1
  O  O68  1  0.589909  0.902393  0.268983  1
  O  O69  1  0.410091  0.597607  0.768983  1
  O  O70  1  0.410091  0.097607  0.731017  1
  O  O71  1  0.957093  0.382553  0.178178  1
  Mg  Mg72  1  0.000000  0.000000  0.000000  1
  Mg  Mg73  1  0.000000  0.500000  0.500000  1
  S  S74  1  0.742680  0.404849  0.139525  1
  S  S75  1  0.257320  0.095151  0.639525  1
  S  S76  1  0.257320  0.595151  0.860475  1
  S  S77  1  0.742680  0.904849  0.360475  1
