# generated using pymatgen
data_SbI5F6
_symmetry_space_group_name_H-M   'P 1'
_cell_length_a   8.69107736
_cell_length_b   8.86240710
_cell_length_c   15.80004220
_cell_angle_alpha   101.57974351
_cell_angle_beta   92.60220557
_cell_angle_gamma   111.68352467
_symmetry_Int_Tables_number   1
_chemical_formula_structural   SbI5F6
_chemical_formula_sum   'Sb3 I15 F18'
_cell_volume   1098.25032915
_cell_formula_units_Z   3
loop_
 _symmetry_equiv_pos_site_id
 _symmetry_equiv_pos_as_xyz
  1  'x, y, z'
loop_
 _atom_site_type_symbol
 _atom_site_label
 _atom_site_symmetry_multiplicity
 _atom_site_fract_x
 _atom_site_fract_y
 _atom_site_fract_z
 _atom_site_occupancy
  F  F0  1  0.736513  0.953731  0.716698  1
  F  F1  1  0.294749  0.752624  0.587413  1
  F  F2  1  0.705251  0.247376  0.412587  1
  F  F3  1  0.025820  0.160694  0.930010  1
  F  F4  1  0.974180  0.839306  0.069990  1
  F  F5  1  0.082275  0.873989  0.911851  1
  F  F6  1  0.917725  0.126011  0.088149  1
  F  F7  1  0.223358  0.126130  0.056711  1
  F  F8  1  0.776642  0.873870  0.943289  1
  F  F9  1  0.404221  0.255884  0.443728  1
  F  F10  1  0.263487  0.046269  0.283302  1
  F  F11  1  0.571197  0.039352  0.253105  1
  F  F12  1  0.428803  0.960648  0.746895  1
  F  F13  1  0.436469  0.956343  0.397868  1
  F  F14  1  0.563531  0.043657  0.602132  1
  F  F15  1  0.533126  0.335836  0.298308  1
  F  F16  1  0.466874  0.664164  0.701692  1
  F  F17  1  0.595779  0.744116  0.556272  1
  Sb  Sb18  1  0.482982  0.143709  0.346843  1
  Sb  Sb19  1  0.517018  0.856291  0.653157  1
  Sb  Sb20  1  0.000000  0.000000  0.000000  1
  I  I21  1  0.052166  0.340740  0.260302  1
  I  I22  1  0.660942  0.419458  0.092452  1
  I  I23  1  0.440915  0.815450  0.066971  1
  I  I24  1  0.559085  0.184550  0.933029  1
  I  I25  1  0.243690  0.582238  0.163073  1
  I  I26  1  0.756310  0.417762  0.836927  1
  I  I27  1  0.339058  0.580542  0.907548  1
  I  I28  1  0.947834  0.659260  0.739698  1
  I  I29  1  0.174550  0.541313  0.420908  1
  I  I30  1  0.825450  0.458687  0.579092  1
  I  I31  1  0.000000  0.000000  0.500000  1
  I  I32  1  0.293182  0.263774  0.607925  1
  I  I33  1  0.706818  0.736226  0.392075  1
  I  I34  1  0.169387  0.259722  0.764459  1
  I  I35  1  0.830613  0.740278  0.235541  1
