# generated using pymatgen
data_Ga2CuCl8
_symmetry_space_group_name_H-M   'P 1'
_cell_length_a   6.91094830
_cell_length_b   7.74048950
_cell_length_c   12.77231441
_cell_angle_alpha   90.00000000
_cell_angle_beta   95.76206721
_cell_angle_gamma   90.00000000
_symmetry_Int_Tables_number   1
_chemical_formula_structural   Ga2CuCl8
_chemical_formula_sum   'Ga4 Cu2 Cl16'
_cell_volume   679.79159467
_cell_formula_units_Z   2
loop_
 _symmetry_equiv_pos_site_id
 _symmetry_equiv_pos_as_xyz
  1  'x, y, z'
loop_
 _atom_site_type_symbol
 _atom_site_label
 _atom_site_symmetry_multiplicity
 _atom_site_fract_x
 _atom_site_fract_y
 _atom_site_fract_z
 _atom_site_occupancy
  Cl  Cl0  1  0.353862  0.021862  0.638174  1
  Cl  Cl1  1  0.646138  0.521862  0.861826  1
  Cl  Cl2  1  0.646138  0.978138  0.361826  1
  Cl  Cl3  1  0.353862  0.478138  0.138174  1
  Cl  Cl4  1  0.892505  0.266302  0.589902  1
  Cl  Cl5  1  0.107495  0.766302  0.910098  1
  Cl  Cl6  1  0.289715  0.012222  0.106500  1
  Cl  Cl7  1  0.710285  0.512222  0.393500  1
  Cl  Cl8  1  0.710285  0.987778  0.893500  1
  Cl  Cl9  1  0.289715  0.487778  0.606500  1
  Cl  Cl10  1  0.166648  0.222606  0.348725  1
  Cl  Cl11  1  0.833352  0.722606  0.151275  1
  Cl  Cl12  1  0.833352  0.777394  0.651275  1
  Cl  Cl13  1  0.166648  0.277394  0.848725  1
  Cl  Cl14  1  0.892505  0.233698  0.089902  1
  Cl  Cl15  1  0.107495  0.733698  0.410098  1
  Cu  Cu16  1  0.000000  0.000000  0.000000  1
  Cu  Cu17  1  0.000000  0.500000  0.500000  1
  Ga  Ga18  1  0.808535  0.760582  0.316737  1
  Ga  Ga19  1  0.191465  0.260582  0.183263  1
  Ga  Ga20  1  0.808535  0.739418  0.816737  1
  Ga  Ga21  1  0.191465  0.239418  0.683263  1
