# generated using pymatgen
data_TeAsF5
_symmetry_space_group_name_H-M   'P 1'
_cell_length_a   9.91671364
_cell_length_b   9.91671364
_cell_length_c   15.66764116
_cell_angle_alpha   85.49685508
_cell_angle_beta   85.49685510
_cell_angle_gamma   78.62094233
_symmetry_Int_Tables_number   1
_chemical_formula_structural   TeAsF5
_chemical_formula_sum   'Te12 As12 F60'
_cell_volume   1502.69128603
_cell_formula_units_Z   12
loop_
 _symmetry_equiv_pos_site_id
 _symmetry_equiv_pos_as_xyz
  1  'x, y, z'
loop_
 _atom_site_type_symbol
 _atom_site_label
 _atom_site_symmetry_multiplicity
 _atom_site_fract_x
 _atom_site_fract_y
 _atom_site_fract_z
 _atom_site_occupancy
  F  F0  1  0.296276  0.138307  0.868594  1
  F  F1  1  0.861693  0.703724  0.631406  1
  F  F2  1  0.703724  0.861693  0.131406  1
  F  F3  1  0.138307  0.296276  0.368594  1
  F  F4  1  0.084059  0.040738  0.906463  1
  F  F5  1  0.959262  0.915941  0.593537  1
  F  F6  1  0.915941  0.959262  0.093537  1
  F  F7  1  0.040738  0.084059  0.406463  1
  F  F8  1  0.176254  0.165437  0.015729  1
  F  F9  1  0.834563  0.823746  0.484271  1
  F  F10  1  0.823746  0.834563  0.984271  1
  F  F11  1  0.165437  0.176254  0.515729  1
  F  F12  1  0.169401  0.372472  0.909182  1
  F  F13  1  0.627528  0.830599  0.590818  1
  F  F14  1  0.830599  0.627528  0.090818  1
  F  F15  1  0.372472  0.169401  0.409182  1
  F  F16  1  0.075439  0.244517  0.801974  1
  F  F17  1  0.755483  0.924561  0.698026  1
  F  F18  1  0.924561  0.755483  0.198026  1
  F  F19  1  0.244517  0.075439  0.301974  1
  F  F20  1  0.429110  0.307445  0.068085  1
  F  F21  1  0.956051  0.273851  0.949304  1
  F  F22  1  0.043949  0.726149  0.050696  1
  F  F23  1  0.273851  0.956051  0.449304  1
  F  F24  1  0.674283  0.133931  0.997298  1
  F  F25  1  0.866069  0.325717  0.502702  1
  F  F26  1  0.325717  0.866069  0.002702  1
  F  F27  1  0.133931  0.674283  0.497298  1
  F  F28  1  0.571406  1.001290  0.887033  1
  F  F29  1  -0.001290  0.428594  0.612967  1
  F  F30  1  0.428594  -0.001290  0.112967  1
  F  F31  1  1.001290  0.571406  0.387033  1
  F  F32  1  0.784751  0.107576  0.841760  1
  F  F33  1  0.892424  0.215249  0.658240  1
  F  F34  1  0.215249  0.892424  0.158240  1
  F  F35  1  0.107576  0.784751  0.341760  1
  F  F36  1  0.398306  0.185609  0.625677  1
  F  F37  1  0.814391  0.601694  0.874323  1
  F  F38  1  0.601694  0.814391  0.374323  1
  F  F39  1  0.185609  0.398306  0.125677  1
  F  F40  1  0.560801  0.327478  0.544085  1
  F  F41  1  0.672522  0.439199  0.955915  1
  F  F42  1  0.439199  0.672522  0.455915  1
  F  F43  1  0.327478  0.560801  0.044085  1
  F  F44  1  0.571779  0.272551  0.702466  1
  F  F45  1  0.727449  0.428221  0.797534  1
  F  F46  1  0.428221  0.727449  0.297534  1
  F  F47  1  0.272551  0.571779  0.202466  1
  F  F48  1  0.480621  0.514779  0.645852  1
  F  F49  1  0.485221  0.519379  0.854148  1
  F  F50  1  0.519379  0.485221  0.354148  1
  F  F51  1  0.514779  0.480621  0.145852  1
  F  F52  1  0.319693  0.376669  0.726016  1
  F  F53  1  0.623331  0.680307  0.773984  1
  F  F54  1  0.680307  0.623331  0.273984  1
  F  F55  1  0.376669  0.319693  0.226016  1
  F  F56  1  0.307445  0.429110  0.568085  1
  F  F57  1  0.570890  0.692555  0.931915  1
  F  F58  1  0.692555  0.570890  0.431915  1
  F  F59  1  0.726149  0.043949  0.550696  1
  As  As60  1  0.126417  0.207965  0.909852  1
  As  As61  1  0.792035  0.873583  0.590148  1
  As  As62  1  0.873583  0.792035  0.090148  1
  As  As63  1  0.207965  0.126417  0.409852  1
  As  As64  1  0.348853  0.440066  0.134217  1
  As  As65  1  0.559934  0.651147  0.365783  1
  As  As66  1  0.651147  0.559934  0.865783  1
  As  As67  1  0.440066  0.348853  0.634217  1
  As  As68  1  0.164453  0.617721  0.391198  1
  As  As69  1  0.382279  0.835547  0.108802  1
  As  As70  1  0.835547  0.382279  0.608802  1
  As  As71  1  0.617721  0.164453  0.891198  1
  Te  Te72  1  0.788754  0.306857  0.119319  1
  Te  Te73  1  0.693143  0.211246  0.380681  1
  Te  Te74  1  0.211246  0.693143  0.880681  1
  Te  Te75  1  0.306857  0.788754  0.619319  1
  Te  Te76  1  0.881449  0.390490  0.261801  1
  Te  Te77  1  0.609510  0.118551  0.238199  1
  Te  Te78  1  0.118551  0.609510  0.738199  1
  Te  Te79  1  0.390490  0.881449  0.761801  1
  Te  Te80  1  0.020829  0.154859  0.189528  1
  Te  Te81  1  0.845141  0.979171  0.310472  1
  Te  Te82  1  0.979171  0.845141  0.810472  1
  Te  Te83  1  0.154859  0.020829  0.689528  1
