# generated using pymatgen
data_SCl
_symmetry_space_group_name_H-M   'P 1'
_cell_length_a   5.19591413
_cell_length_b   9.77110155
_cell_length_c   11.89233736
_cell_angle_alpha   86.67018385
_cell_angle_beta   77.38161659
_cell_angle_gamma   74.58065000
_symmetry_Int_Tables_number   1
_chemical_formula_structural   SCl
_chemical_formula_sum   'S8 Cl8'
_cell_volume   567.98112742
_cell_formula_units_Z   8
loop_
 _symmetry_equiv_pos_site_id
 _symmetry_equiv_pos_as_xyz
  1  'x, y, z'
loop_
 _atom_site_type_symbol
 _atom_site_label
 _atom_site_symmetry_multiplicity
 _atom_site_fract_x
 _atom_site_fract_y
 _atom_site_fract_z
 _atom_site_occupancy
  S  S0  1  0.412239  0.356057  0.864834  1
  S  S1  1  0.633129  0.643943  0.135166  1
  S  S2  1  0.518295  0.143943  0.364834  1
  S  S3  1  0.027073  0.856057  0.635166  1
  S  S4  1  0.546993  0.519599  0.814097  1
  S  S5  1  0.880689  0.480401  0.185903  1
  S  S6  1  0.816592  0.980401  0.314097  1
  S  S7  1  0.111091  0.019599  0.685903  1
  Cl  Cl8  1  0.615429  0.242661  0.990237  1
  Cl  Cl9  1  0.848328  0.757339  0.009763  1
  Cl  Cl10  1  0.608091  0.257339  0.490237  1
  Cl  Cl11  1  0.355667  0.742661  0.509763  1
  Cl  Cl12  1  0.892624  0.465200  0.677743  1
  Cl  Cl13  1  0.035567  0.534800  0.322257  1
  Cl  Cl14  1  0.107824  0.034800  0.177743  1
  Cl  Cl15  1  0.320367  0.965200  0.822257  1
