# generated using pymatgen
data_LiB(HO)4
_symmetry_space_group_name_H-M   'P 1'
_cell_length_a   7.85753704
_cell_length_b   8.65627625
_cell_length_c   9.25727224
_cell_angle_alpha   90.00000000
_cell_angle_beta   90.00000000
_cell_angle_gamma   90.00000000
_symmetry_Int_Tables_number   1
_chemical_formula_structural   LiB(HO)4
_chemical_formula_sum   'Li8 B8 H32 O32'
_cell_volume   629.65199021
_cell_formula_units_Z   8
loop_
 _symmetry_equiv_pos_site_id
 _symmetry_equiv_pos_as_xyz
  1  'x, y, z'
loop_
 _atom_site_type_symbol
 _atom_site_label
 _atom_site_symmetry_multiplicity
 _atom_site_fract_x
 _atom_site_fract_y
 _atom_site_fract_z
 _atom_site_occupancy
  Li  Li0  1  0.370107  0.125125  0.799926  1
  Li  Li1  1  0.370107  0.374875  0.299926  1
  Li  Li2  1  0.129893  0.625125  0.799926  1
  Li  Li3  1  0.629893  0.625125  0.700074  1
  Li  Li4  1  0.129893  0.874875  0.299926  1
  Li  Li5  1  0.870107  0.374875  0.200074  1
  Li  Li6  1  0.629893  0.874875  0.200074  1
  Li  Li7  1  0.870107  0.125125  0.700074  1
  B  B8  1  0.670454  0.338390  0.908757  1
  B  B9  1  0.170454  0.338390  0.591243  1
  B  B10  1  0.829546  0.661610  0.408757  1
  B  B11  1  0.329546  0.838390  0.591243  1
  B  B12  1  0.170454  0.161610  0.091243  1
  B  B13  1  0.329546  0.661610  0.091243  1
  B  B14  1  0.829546  0.838390  0.908757  1
  B  B15  1  0.670454  0.161610  0.408757  1
  H  H16  1  0.640587  0.390243  0.465400  1
  H  H17  1  0.898316  0.966014  0.087120  1
  H  H18  1  0.101684  0.466014  0.412880  1
  H  H19  1  0.601684  0.466014  0.087120  1
  H  H20  1  0.016267  0.884111  0.755144  1
  H  H21  1  0.359413  0.609757  0.534600  1
  H  H22  1  0.078230  0.712828  0.071189  1
  H  H23  1  0.078230  0.787172  0.571189  1
  H  H24  1  0.516267  0.884111  0.744856  1
  H  H25  1  0.859413  0.890243  0.465400  1
  H  H26  1  0.359413  0.890243  0.034600  1
  H  H27  1  0.421770  0.287172  0.571189  1
  H  H28  1  0.421770  0.212828  0.071189  1
  H  H29  1  0.578230  0.712828  0.428811  1
  H  H30  1  0.601684  0.033986  0.587120  1
  H  H31  1  0.898316  0.533986  0.587120  1
  H  H32  1  0.516267  0.615889  0.244856  1
  H  H33  1  0.640587  0.109757  0.965400  1
  H  H34  1  0.140587  0.109757  0.534600  1
  H  H35  1  0.140587  0.390243  0.034600  1
  H  H36  1  0.921770  0.287172  0.928811  1
  H  H37  1  0.483733  0.384111  0.755144  1
  H  H38  1  0.921770  0.212828  0.428811  1
  H  H39  1  0.398316  0.533986  0.912880  1
  H  H40  1  0.483733  0.115889  0.255144  1
  H  H41  1  0.101684  0.033986  0.912880  1
  H  H42  1  0.983733  0.115889  0.244856  1
  H  H43  1  0.983733  0.384111  0.744856  1
  H  H44  1  0.398316  0.966014  0.412880  1
  H  H45  1  0.859413  0.609757  0.965400  1
  H  H46  1  0.016267  0.615889  0.255144  1
  H  H47  1  0.578230  0.787172  0.928811  1
  O  O48  1  0.206707  0.420609  0.454340  1
  O  O49  1  0.566229  0.193287  0.930490  1
  O  O50  1  0.706707  0.079391  0.545660  1
  O  O51  1  0.570367  0.059547  0.313755  1
  O  O52  1  0.429633  0.940453  0.686245  1
  O  O53  1  0.838510  0.293263  0.847268  1
  O  O54  1  0.206707  0.079391  0.954340  1
  O  O55  1  0.338510  0.293263  0.652732  1
  O  O56  1  0.161490  0.706737  0.152732  1
  O  O57  1  0.570367  0.440453  0.813755  1
  O  O58  1  0.793293  0.920609  0.045660  1
  O  O59  1  0.929633  0.940453  0.813755  1
  O  O60  1  0.933771  0.693287  0.930490  1
  O  O61  1  0.066229  0.193287  0.569510  1
  O  O62  1  0.661490  0.793263  0.847268  1
  O  O63  1  0.933771  0.806713  0.430490  1
  O  O64  1  0.293293  0.920609  0.454340  1
  O  O65  1  0.293293  0.579391  0.954340  1
  O  O66  1  0.433771  0.806713  0.069510  1
  O  O67  1  0.066229  0.306713  0.069510  1
  O  O68  1  0.929633  0.559547  0.313755  1
  O  O69  1  0.433771  0.693287  0.569510  1
  O  O70  1  0.070367  0.440453  0.686245  1
  O  O71  1  0.566229  0.306713  0.430490  1
  O  O72  1  0.338510  0.206737  0.152732  1
  O  O73  1  0.838510  0.206737  0.347268  1
  O  O74  1  0.429633  0.559547  0.186245  1
  O  O75  1  0.793293  0.579391  0.545660  1
  O  O76  1  0.070367  0.059547  0.186245  1
  O  O77  1  0.706707  0.420609  0.045660  1
  O  O78  1  0.661490  0.706737  0.347268  1
  O  O79  1  0.161490  0.793263  0.652732  1
