# generated using pymatgen
data_Hg(IO3)2
_symmetry_space_group_name_H-M   'P 1'
_cell_length_a   5.62413465
_cell_length_b   5.97066284
_cell_length_c   9.16421869
_cell_angle_alpha   102.40450984
_cell_angle_beta   90.00000000
_cell_angle_gamma   90.00000000
_symmetry_Int_Tables_number   1
_chemical_formula_structural   Hg(IO3)2
_chemical_formula_sum   'Hg2 I4 O12'
_cell_volume   300.54883252
_cell_formula_units_Z   2
loop_
 _symmetry_equiv_pos_site_id
 _symmetry_equiv_pos_as_xyz
  1  'x, y, z'
loop_
 _atom_site_type_symbol
 _atom_site_label
 _atom_site_symmetry_multiplicity
 _atom_site_fract_x
 _atom_site_fract_y
 _atom_site_fract_z
 _atom_site_occupancy
  O  O0  1  0.933420  0.488151  0.349492  1
  O  O1  1  0.433420  0.511849  0.650508  1
  O  O2  1  0.498762  0.336016  0.006149  1
  O  O3  1  0.998762  0.663984  0.993851  1
  O  O4  1  0.420468  0.291611  0.292465  1
  O  O5  1  0.920468  0.708389  0.707535  1
  O  O6  1  0.934863  0.971108  0.412079  1
  O  O7  1  0.434863  0.028892  0.587921  1
  O  O8  1  0.575752  0.830335  0.933544  1
  O  O9  1  0.075752  0.169665  0.066456  1
  O  O10  1  0.563343  0.760346  0.259724  1
  O  O11  1  0.063343  0.239654  0.740276  1
  I  I12  1  0.269402  0.421646  0.149661  1
  I  I13  1  0.769402  0.578354  0.850339  1
  I  I14  1  0.237933  0.267630  0.572228  1
  I  I15  1  0.737933  0.732370  0.427772  1
  Hg  Hg16  1  0.745137  0.067323  0.173220  1
  Hg  Hg17  1  0.245137  0.932677  0.826780  1
