# generated using pymatgen
data_KPH3O4F
_symmetry_space_group_name_H-M   'P 1'
_cell_length_a   6.66929498
_cell_length_b   7.68886796
_cell_length_c   9.56453671
_cell_angle_alpha   90.00000000
_cell_angle_beta   100.59686626
_cell_angle_gamma   90.00000000
_symmetry_Int_Tables_number   1
_chemical_formula_structural   KPH3O4F
_chemical_formula_sum   'K4 P4 H12 O16 F4'
_cell_volume   482.09837377
_cell_formula_units_Z   4
loop_
 _symmetry_equiv_pos_site_id
 _symmetry_equiv_pos_as_xyz
  1  'x, y, z'
loop_
 _atom_site_type_symbol
 _atom_site_label
 _atom_site_symmetry_multiplicity
 _atom_site_fract_x
 _atom_site_fract_y
 _atom_site_fract_z
 _atom_site_occupancy
  K  K0  1  0.844449  0.775432  0.455844  1
  K  K1  1  0.155551  0.275432  0.044156  1
  K  K2  1  0.844449  0.724568  0.955844  1
  K  K3  1  0.155551  0.224568  0.544156  1
  P  P4  1  0.617050  0.296604  0.329336  1
  P  P5  1  0.617050  0.203396  0.829336  1
  P  P6  1  0.382950  0.703396  0.670664  1
  P  P7  1  0.382950  0.796604  0.170664  1
  H  H8  1  0.405516  0.519022  0.337434  1
  H  H9  1  0.405516  0.980978  0.837434  1
  H  H10  1  0.370886  0.818651  0.461857  1
  H  H11  1  0.110640  0.974320  0.236463  1
  H  H12  1  0.594484  0.019022  0.162566  1
  H  H13  1  0.110640  0.525680  0.736463  1
  H  H14  1  0.629114  0.318651  0.038143  1
  H  H15  1  0.889360  0.025680  0.763537  1
  H  H16  1  0.594484  0.480978  0.662566  1
  H  H17  1  0.370886  0.681349  0.961857  1
  H  H18  1  0.629114  0.181349  0.538143  1
  H  H19  1  0.889360  0.474320  0.263537  1
  O  O20  1  0.641040  0.139678  0.438883  1
  O  O21  1  0.796183  0.423495  0.366404  1
  O  O22  1  0.407420  0.781093  0.819802  1
  O  O23  1  0.589765  0.886301  0.149277  1
  O  O24  1  0.203818  0.923495  0.133596  1
  O  O25  1  0.592580  0.281093  0.680198  1
  O  O26  1  0.203818  0.576505  0.633596  1
  O  O27  1  0.410235  0.113699  0.850723  1
  O  O28  1  0.641040  0.360322  0.938883  1
  O  O29  1  0.407420  0.718907  0.319802  1
  O  O30  1  0.410235  0.386301  0.350723  1
  O  O31  1  0.589765  0.613699  0.649277  1
  O  O32  1  0.358960  0.860322  0.561117  1
  O  O33  1  0.358960  0.639678  0.061117  1
  O  O34  1  0.592580  0.218907  0.180198  1
  O  O35  1  0.796183  0.076505  0.866404  1
  F  F36  1  0.034336  0.022938  0.316579  1
  F  F37  1  0.965664  0.977062  0.683421  1
  F  F38  1  0.965664  0.522938  0.183421  1
  F  F39  1  0.034336  0.477062  0.816579  1
