# generated using pymatgen
data_BaPt2S3
_symmetry_space_group_name_H-M   'P 1'
_cell_length_a   6.88942894
_cell_length_b   6.88942894
_cell_length_c   12.42474263
_cell_angle_alpha   90.00000000
_cell_angle_beta   90.00000000
_cell_angle_gamma   90.00000000
_symmetry_Int_Tables_number   1
_chemical_formula_structural   BaPt2S3
_chemical_formula_sum   'Ba4 Pt8 S12'
_cell_volume   589.73085579
_cell_formula_units_Z   4
loop_
 _symmetry_equiv_pos_site_id
 _symmetry_equiv_pos_as_xyz
  1  'x, y, z'
loop_
 _atom_site_type_symbol
 _atom_site_label
 _atom_site_symmetry_multiplicity
 _atom_site_fract_x
 _atom_site_fract_y
 _atom_site_fract_z
 _atom_site_occupancy
  S  S0  1  0.256556  0.836284  0.495142  1
  S  S1  1  0.743444  0.163716  0.995142  1
  S  S2  1  0.836284  0.256556  0.504858  1
  S  S3  1  0.336284  0.243444  0.245142  1
  S  S4  1  0.663716  0.756556  0.745142  1
  S  S5  1  0.243444  0.336284  0.754858  1
  S  S6  1  0.756556  0.663716  0.254858  1
  S  S7  1  0.243227  0.243227  0.000000  1
  S  S8  1  0.756773  0.756773  0.500000  1
  S  S9  1  0.743227  0.256773  0.750000  1
  S  S10  1  0.256773  0.743227  0.250000  1
  S  S11  1  0.163716  0.743444  0.004858  1
  Ba  Ba12  1  0.678467  0.678467  0.000000  1
  Ba  Ba13  1  0.178467  0.821533  0.750000  1
  Ba  Ba14  1  0.821533  0.178467  0.250000  1
  Ba  Ba15  1  0.321533  0.321533  0.500000  1
  Pt  Pt16  1  0.750363  0.007065  0.625107  1
  Pt  Pt17  1  0.992935  0.249637  0.874893  1
  Pt  Pt18  1  0.007065  0.750363  0.374893  1
  Pt  Pt19  1  0.250363  0.492935  0.124893  1
  Pt  Pt20  1  0.749637  0.507065  0.624893  1
  Pt  Pt21  1  0.492935  0.250363  0.875107  1
  Pt  Pt22  1  0.507065  0.749637  0.375107  1
  Pt  Pt23  1  0.249637  0.992935  0.125107  1
