# generated using pymatgen
data_CIF7
_symmetry_space_group_name_H-M   'P 1'
_cell_length_a   7.78151786
_cell_length_b   8.63516234
_cell_length_c   8.80036798
_cell_angle_alpha   90.00000000
_cell_angle_beta   100.09484720
_cell_angle_gamma   90.00000000
_symmetry_Int_Tables_number   1
_chemical_formula_structural   CIF7
_chemical_formula_sum   'C4 I4 F28'
_cell_volume   582.18329008
_cell_formula_units_Z   4
loop_
 _symmetry_equiv_pos_site_id
 _symmetry_equiv_pos_as_xyz
  1  'x, y, z'
loop_
 _atom_site_type_symbol
 _atom_site_label
 _atom_site_symmetry_multiplicity
 _atom_site_fract_x
 _atom_site_fract_y
 _atom_site_fract_z
 _atom_site_occupancy
  C  C0  1  0.330417  0.575015  0.718415  1
  C  C1  1  0.669583  0.075015  0.781585  1
  C  C2  1  0.669583  0.424985  0.281585  1
  C  C3  1  0.330417  0.924985  0.218415  1
  F  F4  1  0.294588  0.930116  0.065048  1
  F  F5  1  0.705412  0.430116  0.434952  1
  F  F6  1  0.705412  0.069884  0.934952  1
  F  F7  1  0.294588  0.569884  0.565048  1
  F  F8  1  0.494861  0.964874  0.270926  1
  F  F9  1  0.505139  0.464874  0.229074  1
  F  F10  1  0.505139  0.035126  0.729074  1
  F  F11  1  0.494861  0.535126  0.770926  1
  F  F12  1  0.295597  0.784662  0.269442  1
  F  F13  1  0.704403  0.284662  0.230558  1
  F  F14  1  0.704403  0.215338  0.730558  1
  F  F15  1  0.295597  0.715338  0.769442  1
  F  F16  1  0.971864  0.953639  0.206556  1
  F  F17  1  0.028136  0.453639  0.293444  1
  F  F18  1  0.028136  0.046361  0.793444  1
  F  F19  1  0.971864  0.546361  0.706556  1
  F  F20  1  0.189968  0.958767  0.491706  1
  F  F21  1  0.810032  0.458767  0.008294  1
  F  F22  1  0.810032  0.041233  0.508294  1
  F  F23  1  0.189968  0.541233  0.991706  1
  F  F24  1  0.365563  0.207098  0.392044  1
  F  F25  1  0.634437  0.707098  0.107956  1
  F  F26  1  0.634437  0.792902  0.607956  1
  F  F27  1  0.365563  0.292902  0.892044  1
  F  F28  1  0.144203  0.201056  0.113575  1
  F  F29  1  0.855797  0.701056  0.386425  1
  F  F30  1  0.855797  0.798944  0.886425  1
  F  F31  1  0.144203  0.298944  0.613575  1
  I  I32  1  0.150438  0.402808  0.812139  1
  I  I33  1  0.849562  0.902808  0.687861  1
  I  I34  1  0.849562  0.597192  0.187861  1
  I  I35  1  0.150438  0.097192  0.312139  1
