# generated using pymatgen
data_CaFe4As3
_symmetry_space_group_name_H-M   'P 1'
_cell_length_a   3.74461231
_cell_length_b   11.34674301
_cell_length_c   11.90226276
_cell_angle_alpha   90.00000000
_cell_angle_beta   90.00000000
_cell_angle_gamma   90.00000000
_symmetry_Int_Tables_number   1
_chemical_formula_structural   CaFe4As3
_chemical_formula_sum   'Ca4 Fe16 As12'
_cell_volume   505.71707005
_cell_formula_units_Z   4
loop_
 _symmetry_equiv_pos_site_id
 _symmetry_equiv_pos_as_xyz
  1  'x, y, z'
loop_
 _atom_site_type_symbol
 _atom_site_label
 _atom_site_symmetry_multiplicity
 _atom_site_fract_x
 _atom_site_fract_y
 _atom_site_fract_z
 _atom_site_occupancy
  Ca  Ca0  1  0.250000  0.066629  0.832948  1
  Ca  Ca1  1  0.750000  0.933371  0.167052  1
  Ca  Ca2  1  0.750000  0.566629  0.667052  1
  Ca  Ca3  1  0.250000  0.433371  0.332948  1
  Fe  Fe4  1  0.250000  0.775203  0.810743  1
  Fe  Fe5  1  0.750000  0.224797  0.189257  1
  Fe  Fe6  1  0.750000  0.275203  0.689257  1
  Fe  Fe7  1  0.250000  0.724797  0.310743  1
  Fe  Fe8  1  0.250000  0.371344  0.806883  1
  Fe  Fe9  1  0.750000  0.628656  0.193117  1
  Fe  Fe10  1  0.750000  0.871344  0.693117  1
  Fe  Fe11  1  0.250000  0.128656  0.306883  1
  Fe  Fe12  1  0.250000  0.316703  0.013904  1
  Fe  Fe13  1  0.750000  0.683297  0.986096  1
  Fe  Fe14  1  0.750000  0.816703  0.486096  1
  Fe  Fe15  1  0.250000  0.183297  0.513904  1
  Fe  Fe16  1  0.250000  0.538992  0.068087  1
  Fe  Fe17  1  0.750000  0.461008  0.931913  1
  Fe  Fe18  1  0.750000  0.038992  0.431913  1
  Fe  Fe19  1  0.250000  0.961008  0.568087  1
  As  As20  1  0.250000  0.575386  0.873422  1
  As  As21  1  0.750000  0.424614  0.126578  1
  As  As22  1  0.750000  0.075386  0.626578  1
  As  As23  1  0.250000  0.924614  0.373422  1
  As  As24  1  0.250000  0.759993  0.611621  1
  As  As25  1  0.750000  0.240007  0.388379  1
  As  As26  1  0.750000  0.259993  0.888379  1
  As  As27  1  0.250000  0.740007  0.111620  1
  As  As28  1  0.250000  0.373396  0.602845  1
  As  As29  1  0.750000  0.626604  0.397155  1
  As  As30  1  0.750000  0.873396  0.897155  1
  As  As31  1  0.250000  0.126604  0.102845  1
