# generated using pymatgen
data_Fe2TeO6
_symmetry_space_group_name_H-M   'P 1'
_cell_length_a   4.68485788
_cell_length_b   4.68485788
_cell_length_c   9.22386202
_cell_angle_alpha   90.00000000
_cell_angle_beta   90.00000000
_cell_angle_gamma   90.00000000
_symmetry_Int_Tables_number   1
_chemical_formula_structural   Fe2TeO6
_chemical_formula_sum   'Fe4 Te2 O12'
_cell_volume   202.44433994
_cell_formula_units_Z   2
loop_
 _symmetry_equiv_pos_site_id
 _symmetry_equiv_pos_as_xyz
  1  'x, y, z'
loop_
 _atom_site_type_symbol
 _atom_site_label
 _atom_site_symmetry_multiplicity
 _atom_site_fract_x
 _atom_site_fract_y
 _atom_site_fract_z
 _atom_site_occupancy
  O  O0  1  0.691203  0.691203  0.660700  1
  O  O1  1  0.308797  0.308797  0.660700  1
  O  O2  1  0.691203  0.691203  0.339300  1
  O  O3  1  0.191203  0.808797  0.160700  1
  O  O4  1  0.808797  0.191203  0.160700  1
  O  O5  1  0.808797  0.191203  0.839300  1
  O  O6  1  0.297512  0.297512  0.000000  1
  O  O7  1  0.202488  0.797512  0.500000  1
  O  O8  1  0.797512  0.202488  0.500000  1
  O  O9  1  0.702488  0.702488  0.000000  1
  O  O10  1  0.308797  0.308797  0.339300  1
  O  O11  1  0.191203  0.808797  0.839300  1
  Fe  Fe12  1  0.000000  0.000000  0.335553  1
  Fe  Fe13  1  0.500000  0.500000  0.835553  1
  Fe  Fe14  1  0.000000  0.000000  0.664447  1
  Fe  Fe15  1  0.500000  0.500000  0.164447  1
  Te  Te16  1  0.000000  0.000000  0.000000  1
  Te  Te17  1  0.500000  0.500000  0.500000  1
