# generated using pymatgen
data_CsPdCl3
_symmetry_space_group_name_H-M   'P 1'
_cell_length_a   9.21949146
_cell_length_b   9.94113891
_cell_length_c   9.94113891
_cell_angle_alpha   64.92847856
_cell_angle_beta   62.37362159
_cell_angle_gamma   62.37362159
_symmetry_Int_Tables_number   1
_chemical_formula_structural   CsPdCl3
_chemical_formula_sum   'Cs4 Pd4 Cl12'
_cell_volume   689.46791642
_cell_formula_units_Z   4
loop_
 _symmetry_equiv_pos_site_id
 _symmetry_equiv_pos_as_xyz
  1  'x, y, z'
loop_
 _atom_site_type_symbol
 _atom_site_label
 _atom_site_symmetry_multiplicity
 _atom_site_fract_x
 _atom_site_fract_y
 _atom_site_fract_z
 _atom_site_occupancy
  Cl  Cl0  1  0.896218  0.541071  0.666494  1
  Cl  Cl1  1  0.103782  0.458929  0.333506  1
  Cl  Cl2  1  0.603782  0.333506  0.458929  1
  Cl  Cl3  1  0.396218  0.666494  0.541071  1
  Cl  Cl4  1  0.996002  0.154728  0.853267  1
  Cl  Cl5  1  0.003998  0.845272  0.146733  1
  Cl  Cl6  1  0.503998  0.146733  0.845272  1
  Cl  Cl7  1  0.496002  0.853267  0.154728  1
  Cl  Cl8  1  0.707055  0.510618  0.075271  1
  Cl  Cl9  1  0.292945  0.489382  0.924729  1
  Cl  Cl10  1  0.792945  0.924729  0.489382  1
  Cl  Cl11  1  0.207055  0.075271  0.510618  1
  Pd  Pd12  1  0.051596  0.302111  0.594696  1
  Pd  Pd13  1  0.948404  0.697889  0.405304  1
  Pd  Pd14  1  0.448404  0.405304  0.697889  1
  Pd  Pd15  1  0.551596  0.594696  0.302111  1
  Cs  Cs16  1  0.574463  0.175537  0.175537  1
  Cs  Cs17  1  0.925537  0.824463  0.824463  1
  Cs  Cs18  1  0.425537  0.824463  0.824463  1
  Cs  Cs19  1  0.074463  0.175537  0.175537  1
