# generated using pymatgen
data_V2CdP2O9
_symmetry_space_group_name_H-M   'P 1'
_cell_length_a   6.40169038
_cell_length_b   7.47459927
_cell_length_c   14.55040212
_cell_angle_alpha   90.00000000
_cell_angle_beta   90.00000000
_cell_angle_gamma   90.00000000
_symmetry_Int_Tables_number   1
_chemical_formula_structural   V2CdP2O9
_chemical_formula_sum   'V8 Cd4 P8 O36'
_cell_volume   696.23776348
_cell_formula_units_Z   4
loop_
 _symmetry_equiv_pos_site_id
 _symmetry_equiv_pos_as_xyz
  1  'x, y, z'
loop_
 _atom_site_type_symbol
 _atom_site_label
 _atom_site_symmetry_multiplicity
 _atom_site_fract_x
 _atom_site_fract_y
 _atom_site_fract_z
 _atom_site_occupancy
  O  O0  1  0.048862  0.599380  0.366779  1
  O  O1  1  0.548862  0.400620  0.633221  1
  O  O2  1  0.951138  0.099380  0.133221  1
  O  O3  1  0.451138  0.900620  0.866779  1
  O  O4  1  0.951138  0.400620  0.633221  1
  O  O5  1  0.451138  0.599380  0.366779  1
  O  O6  1  0.048862  0.900620  0.866779  1
  O  O7  1  0.548862  0.099380  0.133221  1
  O  O8  1  0.250000  0.321131  0.481368  1
  O  O9  1  0.750000  0.678869  0.518632  1
  O  O10  1  0.750000  0.821131  0.018632  1
  O  O11  1  0.250000  0.178869  0.981368  1
  O  O12  1  0.750000  0.128946  0.952507  1
  O  O13  1  0.250000  0.871054  0.047493  1
  O  O14  1  0.250000  0.628946  0.547493  1
  O  O15  1  0.750000  0.371054  0.452507  1
  O  O16  1  0.750000  0.219725  0.753134  1
  O  O17  1  0.250000  0.780275  0.246866  1
  O  O18  1  0.250000  0.719725  0.746866  1
  O  O19  1  0.750000  0.280275  0.253134  1
  O  O20  1  0.439154  0.127130  0.366110  1
  O  O21  1  0.939154  0.872870  0.633890  1
  O  O22  1  0.560846  0.627130  0.133890  1
  O  O23  1  0.060846  0.372870  0.866110  1
  O  O24  1  0.560846  0.872870  0.633890  1
  O  O25  1  0.060846  0.127130  0.366110  1
  O  O26  1  0.439154  0.372870  0.866110  1
  O  O27  1  0.939154  0.627130  0.133890  1
  O  O28  1  0.750000  0.953741  0.267304  1
  O  O29  1  0.250000  0.046259  0.732696  1
  O  O30  1  0.250000  0.453741  0.232696  1
  O  O31  1  0.750000  0.546259  0.767304  1
  O  O32  1  0.750000  0.013332  0.496738  1
  O  O33  1  0.250000  0.986668  0.503262  1
  O  O34  1  0.250000  0.513332  0.003262  1
  O  O35  1  0.750000  0.486668  0.996738  1
  P  P36  1  0.250000  0.365694  0.933528  1
  P  P37  1  0.750000  0.634306  0.066472  1
  P  P38  1  0.750000  0.865694  0.566472  1
  P  P39  1  0.250000  0.134306  0.433528  1
  P  P40  1  0.750000  0.393330  0.694119  1
  P  P41  1  0.250000  0.606670  0.305881  1
  P  P42  1  0.250000  0.893330  0.805881  1
  P  P43  1  0.750000  0.106670  0.194119  1
  V  V44  1  0.000000  0.500000  0.500000  1
  V  V45  1  0.500000  0.500000  0.500000  1
  V  V46  1  0.000000  0.000000  0.000000  1
  V  V47  1  0.500000  0.000000  0.000000  1
  V  V48  1  0.750000  0.349902  0.878730  1
  V  V49  1  0.250000  0.650098  0.121270  1
  V  V50  1  0.250000  0.849902  0.621270  1
  V  V51  1  0.750000  0.150098  0.378730  1
  Cd  Cd52  1  0.250000  0.366007  0.723123  1
  Cd  Cd53  1  0.750000  0.633993  0.276877  1
  Cd  Cd54  1  0.750000  0.866007  0.776877  1
  Cd  Cd55  1  0.250000  0.133993  0.223123  1
