# generated using pymatgen
data_K5As3O10
_symmetry_space_group_name_H-M   'P 1'
_cell_length_a   8.13689283
_cell_length_b   8.14210649
_cell_length_c   19.65770919
_cell_angle_alpha   90.00000000
_cell_angle_beta   90.00000000
_cell_angle_gamma   90.00000000
_symmetry_Int_Tables_number   1
_chemical_formula_structural   K5As3O10
_chemical_formula_sum   'K20 As12 O40'
_cell_volume   1302.35169662
_cell_formula_units_Z   4
loop_
 _symmetry_equiv_pos_site_id
 _symmetry_equiv_pos_as_xyz
  1  'x, y, z'
loop_
 _atom_site_type_symbol
 _atom_site_label
 _atom_site_symmetry_multiplicity
 _atom_site_fract_x
 _atom_site_fract_y
 _atom_site_fract_z
 _atom_site_occupancy
  O  O0  1  0.084052  0.974841  0.384291  1
  O  O1  1  0.584052  0.025159  0.115709  1
  O  O2  1  0.415948  0.474841  0.615709  1
  O  O3  1  0.915948  0.525159  0.884291  1
  O  O4  1  0.280581  0.964608  0.265724  1
  O  O5  1  0.780581  0.035392  0.234276  1
  O  O6  1  0.219419  0.464608  0.734276  1
  O  O7  1  0.719419  0.535392  0.765724  1
  O  O8  1  0.909238  0.884224  0.115968  1
  O  O9  1  0.409238  0.115776  0.384032  1
  O  O10  1  0.590762  0.384224  0.884032  1
  O  O11  1  0.090762  0.615776  0.615968  1
  O  O12  1  0.385290  0.783356  0.382810  1
  O  O13  1  0.885290  0.216644  0.117190  1
  O  O14  1  0.114710  0.283356  0.617190  1
  O  O15  1  0.614710  0.716644  0.882810  1
  O  O16  1  0.794355  0.688662  0.353566  1
  O  O17  1  0.221039  0.532610  0.304071  1
  O  O18  1  0.294355  0.311338  0.146434  1
  O  O19  1  0.205645  0.811338  0.853566  1
  O  O20  1  0.322748  0.662028  0.127431  1
  O  O21  1  0.822748  0.337972  0.372569  1
  O  O22  1  0.177252  0.162028  0.872569  1
  O  O23  1  0.677252  0.837972  0.627431  1
  O  O24  1  0.020762  0.521503  0.140136  1
  O  O25  1  0.520762  0.478497  0.359864  1
  O  O26  1  0.479238  0.021503  0.859864  1
  O  O27  1  0.979238  0.978497  0.640136  1
  O  O28  1  0.711918  0.540825  0.480460  1
  O  O29  1  0.211918  0.459175  0.019540  1
  O  O30  1  0.788082  0.040825  0.519540  1
  O  O31  1  0.288082  0.959175  0.980460  1
  O  O32  1  0.748799  0.983205  0.952621  1
  O  O33  1  0.248799  0.016795  0.547379  1
  O  O34  1  0.751201  0.483205  0.047379  1
  O  O35  1  0.251201  0.516795  0.452621  1
  O  O36  1  0.778961  0.967390  0.804071  1
  O  O37  1  0.278961  0.032610  0.695929  1
  O  O38  1  0.721039  0.467390  0.195929  1
  O  O39  1  0.705645  0.188662  0.646434  1
  K  K40  1  0.524112  0.724510  0.233645  1
  K  K41  1  0.024112  0.275490  0.266355  1
  K  K42  1  0.975888  0.224510  0.766355  1
  K  K43  1  0.475888  0.775490  0.733645  1
  K  K44  1  0.457563  0.748845  0.529636  1
  K  K45  1  0.957563  0.251155  0.970364  1
  K  K46  1  0.042437  0.248845  0.470364  1
  K  K47  1  0.542437  0.751155  0.029636  1
  K  K48  1  0.000568  0.747344  0.248741  1
  K  K49  1  0.500568  0.252656  0.251259  1
  K  K50  1  0.499432  0.247344  0.751259  1
  K  K51  1  0.999432  0.752656  0.748741  1
  K  K52  1  0.007349  0.764617  0.494279  1
  K  K53  1  0.507349  0.235383  0.005721  1
  K  K54  1  0.492651  0.264617  0.505721  1
  K  K55  1  0.992651  0.735383  0.994279  1
  K  K56  1  0.240365  0.992040  0.123033  1
  K  K57  1  0.740365  0.007960  0.376967  1
  K  K58  1  0.259635  0.492040  0.876967  1
  K  K59  1  0.759635  0.507960  0.623033  1
  As  As60  1  0.730579  0.517498  0.394412  1
  As  As61  1  0.230579  0.482502  0.105588  1
  As  As62  1  0.769421  0.017498  0.605588  1
  As  As63  1  0.269421  0.982502  0.894412  1
  As  As64  1  0.277986  0.973534  0.352528  1
  As  As65  1  0.777986  0.026466  0.147472  1
  As  As66  1  0.222014  0.473534  0.647472  1
  As  As67  1  0.722014  0.526466  0.852528  1
  As  As68  1  0.325748  0.570666  0.375852  1
  As  As69  1  0.825748  0.429334  0.124148  1
  As  As70  1  0.174252  0.070666  0.624148  1
  As  As71  1  0.674252  0.929334  0.875852  1
