# generated using pymatgen
data_TlBSe3
_symmetry_space_group_name_H-M   'P 1'
_cell_length_a   6.23936051
_cell_length_b   7.31631855
_cell_length_c   7.27001172
_cell_angle_alpha   109.45046255
_cell_angle_beta   103.27038465
_cell_angle_gamma   113.36660485
_symmetry_Int_Tables_number   1
_chemical_formula_structural   TlBSe3
_chemical_formula_sum   'Tl2 B2 Se6'
_cell_volume   260.99640635
_cell_formula_units_Z   2
loop_
 _symmetry_equiv_pos_site_id
 _symmetry_equiv_pos_as_xyz
  1  'x, y, z'
loop_
 _atom_site_type_symbol
 _atom_site_label
 _atom_site_symmetry_multiplicity
 _atom_site_fract_x
 _atom_site_fract_y
 _atom_site_fract_z
 _atom_site_occupancy
  B  B0  1  0.349130  0.773500  0.045008  1
  B  B1  1  0.804121  0.728491  0.954992  1
  Se  Se2  1  0.588905  0.699645  0.672991  1
  Se  Se3  1  0.415914  0.026654  0.327009  1
  Se  Se4  1  0.091717  0.071633  0.129167  1
  Se  Se5  1  0.462550  0.942467  0.870833  1
  Se  Se6  1  0.963285  0.528209  0.898354  1
  Se  Se7  1  0.564931  0.629855  0.101646  1
  Tl  Tl8  1  0.930002  0.448651  0.339676  1
  Tl  Tl9  1  0.090325  0.108975  0.660324  1
