# generated using pymatgen
data_RuBr3
_symmetry_space_group_name_H-M   'P 1'
_cell_length_a   5.92598027
_cell_length_b   7.14166256
_cell_length_c   12.41300445
_cell_angle_alpha   90.00000000
_cell_angle_beta   90.00000000
_cell_angle_gamma   90.00000000
_symmetry_Int_Tables_number   1
_chemical_formula_structural   RuBr3
_chemical_formula_sum   'Ru4 Br12'
_cell_volume   525.33512358
_cell_formula_units_Z   4
loop_
 _symmetry_equiv_pos_site_id
 _symmetry_equiv_pos_as_xyz
  1  'x, y, z'
loop_
 _atom_site_type_symbol
 _atom_site_label
 _atom_site_symmetry_multiplicity
 _atom_site_fract_x
 _atom_site_fract_y
 _atom_site_fract_z
 _atom_site_occupancy
  Br  Br0  1  0.250000  0.030527  0.750000  1
  Br  Br1  1  0.750000  0.969473  0.250000  1
  Br  Br2  1  0.750000  0.461150  0.750000  1
  Br  Br3  1  0.250000  0.538850  0.250000  1
  Br  Br4  1  0.250000  0.603435  0.608405  1
  Br  Br5  1  0.750000  0.396565  0.391595  1
  Br  Br6  1  0.250000  0.603435  0.891595  1
  Br  Br7  1  0.750000  0.396565  0.108405  1
  Br  Br8  1  0.250000  0.111248  0.391859  1
  Br  Br9  1  0.750000  0.888752  0.608141  1
  Br  Br10  1  0.250000  0.111248  0.108141  1
  Br  Br11  1  0.750000  0.888752  0.891859  1
  Ru  Ru12  1  0.999742  0.746000  0.750000  1
  Ru  Ru13  1  0.499742  0.254000  0.250000  1
  Ru  Ru14  1  0.500258  0.746000  0.750000  1
  Ru  Ru15  1  0.000258  0.254000  0.250000  1
