# generated using pymatgen
data_K2CoPb(NO2)6
_symmetry_space_group_name_H-M   'P 1'
_cell_length_a   7.53079457
_cell_length_b   7.53079457
_cell_length_c   7.53079457
_cell_angle_alpha   60.00000004
_cell_angle_beta   60.00000004
_cell_angle_gamma   60.00000001
_symmetry_Int_Tables_number   1
_chemical_formula_structural   K2CoPb(NO2)6
_chemical_formula_sum   'K2 Co1 Pb1 N6 O12'
_cell_volume   302.00032115
_cell_formula_units_Z   1
loop_
 _symmetry_equiv_pos_site_id
 _symmetry_equiv_pos_as_xyz
  1  'x, y, z'
loop_
 _atom_site_type_symbol
 _atom_site_label
 _atom_site_symmetry_multiplicity
 _atom_site_fract_x
 _atom_site_fract_y
 _atom_site_fract_z
 _atom_site_occupancy
  N  N0  1  0.192415  0.807585  0.807584  1
  N  N1  1  0.807585  0.807585  0.192415  1
  N  N2  1  0.807585  0.192416  0.807584  1
  N  N3  1  0.192415  0.807585  0.192414  1
  N  N4  1  0.192415  0.192416  0.807585  1
  N  N5  1  0.807585  0.192416  0.192414  1
  O  O6  1  0.355051  0.152618  0.644949  1
  O  O7  1  0.847383  0.644948  0.152618  1
  O  O8  1  0.152618  0.644948  0.355051  1
  O  O9  1  0.644949  0.847381  0.355051  1
  O  O10  1  0.152618  0.355051  0.847382  1
  O  O11  1  0.152619  0.847381  0.644950  1
  O  O12  1  0.355052  0.847381  0.152617  1
  O  O13  1  0.644949  0.152618  0.847381  1
  O  O14  1  0.355051  0.644948  0.847382  1
  O  O15  1  0.644948  0.355051  0.152619  1
  O  O16  1  0.847381  0.355051  0.644949  1
  O  O17  1  0.847382  0.152618  0.355051  1
  K  K18  1  0.250000  0.250000  0.250000  1
  K  K19  1  0.750001  0.749999  0.749999  1
  Co  Co20  1  0.000000  0.000000  0.000000  1
  Pb  Pb21  1  0.500000  0.500000  0.500000  1
