# generated using pymatgen
data_Cd7P10
_symmetry_space_group_name_H-M   'P 1'
_cell_length_a   4.69132173
_cell_length_b   11.88464415
_cell_length_c   14.15424374
_cell_angle_alpha   88.12561979
_cell_angle_beta   80.46085632
_cell_angle_gamma   78.61685005
_symmetry_Int_Tables_number   1
_chemical_formula_structural   Cd7P10
_chemical_formula_sum   'Cd14 P20'
_cell_volume   762.94454886
_cell_formula_units_Z   2
loop_
 _symmetry_equiv_pos_site_id
 _symmetry_equiv_pos_as_xyz
  1  'x, y, z'
loop_
 _atom_site_type_symbol
 _atom_site_label
 _atom_site_symmetry_multiplicity
 _atom_site_fract_x
 _atom_site_fract_y
 _atom_site_fract_z
 _atom_site_occupancy
  P  P0  1  0.335072  0.916753  0.127840  1
  P  P1  1  0.379665  0.083247  0.872160  1
  P  P2  1  0.001825  0.583247  0.627840  1
  P  P3  1  0.212912  0.416753  0.372160  1
  P  P4  1  0.016771  0.912430  0.260358  1
  P  P5  1  0.189560  0.087570  0.739642  1
  P  P6  1  0.679202  0.587570  0.760358  1
  P  P7  1  0.027129  0.412430  0.239642  1
  P  P8  1  0.109043  0.665505  0.003577  1
  P  P9  1  0.778125  0.334495  0.996423  1
  P  P10  1  0.524548  0.834495  0.503577  1
  P  P11  1  0.862620  0.165505  0.496423  1
  P  P12  1  0.679433  0.567746  0.232054  1
  P  P13  1  0.479233  0.432254  0.767946  1
  P  P14  1  0.525342  0.072445  0.128666  1
  P  P15  1  0.726454  0.927555  0.871334  1
  P  P16  1  0.347787  0.427555  0.628666  1
  P  P17  1  0.404008  0.572445  0.371334  1
  P  P18  1  0.661487  0.067746  0.267946  1
  P  P19  1  0.997178  0.932254  0.732054  1
  Cd  Cd20  1  0.420165  0.505941  0.097019  1
  Cd  Cd21  1  0.023126  0.494059  0.902981  1
  Cd  Cd22  1  0.676107  0.994059  0.597019  1
  Cd  Cd23  1  0.267185  0.005941  0.402981  1
  Cd  Cd24  1  0.812060  0.762063  0.164797  1
  Cd  Cd25  1  0.738920  0.237937  0.835203  1
  Cd  Cd26  1  0.324123  0.737937  0.664797  1
  Cd  Cd27  1  0.726857  0.262063  0.335203  1
  Cd  Cd28  1  0.057954  0.765228  0.424520  1
  Cd  Cd29  1  0.247702  0.234772  0.575480  1
  Cd  Cd30  1  0.573182  0.734772  0.924520  1
  Cd  Cd31  1  0.232474  0.265228  0.075480  1
  Cd  Cd32  1  0.744575  0.500000  0.500000  1
  Cd  Cd33  1  0.994575  0.000000  0.000000  1
