# generated using pymatgen
data_Y5C2I9
_symmetry_space_group_name_H-M   'P 1'
_cell_length_a   10.93215675
_cell_length_b   12.66269714
_cell_length_c   17.48356170
_cell_angle_alpha   90.00000000
_cell_angle_beta   90.00000000
_cell_angle_gamma   105.75364984
_symmetry_Int_Tables_number   1
_chemical_formula_structural   Y5C2I9
_chemical_formula_sum   'Y20 C8 I36'
_cell_volume   2329.34982838
_cell_formula_units_Z   4
loop_
 _symmetry_equiv_pos_site_id
 _symmetry_equiv_pos_as_xyz
  1  'x, y, z'
loop_
 _atom_site_type_symbol
 _atom_site_label
 _atom_site_symmetry_multiplicity
 _atom_site_fract_x
 _atom_site_fract_y
 _atom_site_fract_z
 _atom_site_occupancy
  C  C0  1  0.407187  0.337653  0.530738  1
  C  C1  1  0.494401  0.616687  0.415681  1
  C  C2  1  0.994401  0.116687  0.084319  1
  C  C3  1  0.505599  0.383313  0.584319  1
  C  C4  1  0.907187  0.837653  0.969262  1
  C  C5  1  0.592813  0.662347  0.469262  1
  C  C6  1  0.092813  0.162347  0.030738  1
  C  C7  1  0.005599  0.883313  0.915681  1
  Y  Y8  1  0.740146  0.752554  0.553172  1
  Y  Y9  1  0.462752  0.800872  0.442108  1
  Y  Y10  1  0.962752  0.300872  0.057892  1
  Y  Y11  1  0.537248  0.199128  0.557892  1
  Y  Y12  1  0.259854  0.247446  0.446828  1
  Y  Y13  1  0.382235  0.533528  0.539134  1
  Y  Y14  1  0.037248  0.699128  0.942108  1
  Y  Y15  1  0.759854  0.747446  0.053172  1
  Y  Y16  1  0.355450  0.553859  0.320802  1
  Y  Y17  1  0.144550  0.946141  0.820802  1
  Y  Y18  1  0.644550  0.446141  0.679198  1
  Y  Y19  1  0.855450  0.053859  0.179198  1
  Y  Y20  1  0.117765  0.966472  0.039134  1
  Y  Y21  1  0.617765  0.466472  0.460866  1
  Y  Y22  1  0.882235  0.033528  0.960866  1
  Y  Y23  1  0.299692  0.283567  0.655571  1
  Y  Y24  1  0.200308  0.216433  0.155571  1
  Y  Y25  1  0.700308  0.716433  0.344429  1
  Y  Y26  1  0.240146  0.252554  0.946828  1
  Y  Y27  1  0.799692  0.783567  0.844429  1
  I  I28  1  0.141086  0.456927  0.941715  1
  I  I29  1  0.753786  0.249581  0.181066  1
  I  I30  1  0.253786  0.749581  0.318934  1
  I  I31  1  0.246214  0.750419  0.818934  1
  I  I32  1  0.573536  0.667849  0.697368  1
  I  I33  1  0.926464  0.832151  0.197368  1
  I  I34  1  0.426464  0.332151  0.302632  1
  I  I35  1  0.073536  0.167849  0.802632  1
  I  I36  1  0.451686  0.358164  0.807669  1
  I  I37  1  0.048314  0.141836  0.307669  1
  I  I38  1  0.548314  0.641836  0.192331  1
  I  I39  1  0.951686  0.858164  0.692331  1
  I  I40  1  0.685540  0.966833  0.826588  1
  I  I41  1  0.814460  0.533167  0.326588  1
  I  I42  1  0.314460  0.033167  0.173412  1
  I  I43  1  0.185540  0.466833  0.673412  1
  I  I44  1  0.229645  0.765794  0.062566  1
  I  I45  1  0.270355  0.734206  0.562566  1
  I  I46  1  0.770355  0.234206  0.937434  1
  I  I47  1  0.729645  0.265794  0.437434  1
  I  I48  1  0.746214  0.250419  0.681066  1
  I  I49  1  0.935100  0.845002  0.434522  1
  I  I50  1  0.435100  0.345002  0.065478  1
  I  I51  1  0.064900  0.154998  0.565478  1
  I  I52  1  0.860026  0.560823  0.816836  1
  I  I53  1  0.639974  0.939177  0.316836  1
  I  I54  1  0.139974  0.439177  0.183164  1
  I  I55  1  0.360026  0.060823  0.683164  1
  I  I56  1  0.358914  0.043073  0.441715  1
  I  I57  1  0.858914  0.543073  0.058285  1
  I  I58  1  0.641086  0.956927  0.558285  1
  I  I59  1  0.356064  0.056716  0.933244  1
  I  I60  1  0.143936  0.443284  0.433244  1
  I  I61  1  0.643936  0.943284  0.066756  1
  I  I62  1  0.856064  0.556716  0.566756  1
  I  I63  1  0.564900  0.654998  0.934522  1
