# generated using pymatgen
data_B13H19
_symmetry_space_group_name_H-M   'P 1'
_cell_length_a   6.68486882
_cell_length_b   9.35826673
_cell_length_c   20.20382037
_cell_angle_alpha   98.04004654
_cell_angle_beta   90.00000000
_cell_angle_gamma   90.00000000
_symmetry_Int_Tables_number   1
_chemical_formula_structural   B13H19
_chemical_formula_sum   'B52 H76'
_cell_volume   1251.50276545
_cell_formula_units_Z   4
loop_
 _symmetry_equiv_pos_site_id
 _symmetry_equiv_pos_as_xyz
  1  'x, y, z'
loop_
 _atom_site_type_symbol
 _atom_site_label
 _atom_site_symmetry_multiplicity
 _atom_site_fract_x
 _atom_site_fract_y
 _atom_site_fract_z
 _atom_site_occupancy
  H  H0  1  0.973356  0.289537  0.124882  1
  H  H1  1  0.473356  0.710463  0.375118  1
  H  H2  1  0.026644  0.710463  0.875118  1
  H  H3  1  0.526644  0.289537  0.624882  1
  H  H4  1  0.430393  0.784458  0.105232  1
  H  H5  1  0.930393  0.215542  0.394768  1
  H  H6  1  0.569607  0.215542  0.894768  1
  H  H7  1  0.069607  0.784458  0.605232  1
  H  H8  1  0.434601  0.748145  0.196029  1
  H  H9  1  0.934601  0.251855  0.303971  1
  H  H10  1  0.565399  0.251855  0.803971  1
  H  H11  1  0.065399  0.748145  0.696029  1
  H  H12  1  0.699750  0.217066  0.140185  1
  H  H13  1  0.199750  0.782934  0.359815  1
  H  H14  1  0.300250  0.782934  0.859815  1
  H  H15  1  0.800250  0.217066  0.640185  1
  H  H16  1  0.516571  0.373482  0.172441  1
  H  H17  1  0.016571  0.626518  0.327559  1
  H  H18  1  0.483429  0.626518  0.827559  1
  H  H19  1  0.983429  0.373482  0.672441  1
  H  H20  1  0.673303  0.695450  0.064591  1
  H  H21  1  0.173303  0.304550  0.435409  1
  H  H22  1  0.326697  0.304550  0.935409  1
  H  H23  1  0.826697  0.695450  0.564591  1
  H  H24  1  0.985698  0.487727  0.149239  1
  H  H25  1  0.485698  0.512273  0.350761  1
  H  H26  1  0.014302  0.512273  0.850761  1
  H  H27  1  0.514302  0.487727  0.649239  1
  H  H28  1  0.427234  0.222125  0.092385  1
  H  H29  1  0.927234  0.777875  0.407615  1
  H  H30  1  0.572766  0.777875  0.907615  1
  H  H31  1  0.360822  0.955754  0.176262  1
  H  H32  1  0.072766  0.222125  0.592385  1
  H  H33  1  0.344008  0.857461  0.448778  1
  H  H34  1  0.155992  0.857461  0.948778  1
  H  H35  1  0.655992  0.142539  0.551222  1
  H  H36  1  0.093067  0.410219  0.056459  1
  H  H37  1  0.593067  0.589781  0.443541  1
  H  H38  1  0.906933  0.589781  0.943541  1
  H  H39  1  0.406933  0.410219  0.556459  1
  H  H40  1  0.664722  0.429865  0.014172  1
  H  H41  1  0.164722  0.570135  0.485828  1
  H  H42  1  0.335278  0.570135  0.985828  1
  H  H43  1  0.835278  0.429865  0.514172  1
  H  H44  1  0.970401  0.747490  0.066474  1
  H  H45  1  0.470401  0.252510  0.433526  1
  H  H46  1  0.029599  0.252510  0.933526  1
  H  H47  1  0.529599  0.747490  0.566474  1
  H  H48  1  0.590140  0.899757  0.044273  1
  H  H49  1  0.090140  0.100243  0.455727  1
  H  H50  1  0.409860  0.100243  0.955727  1
  H  H51  1  0.909860  0.899757  0.544273  1
  H  H52  1  0.495559  0.730076  0.716134  1
  H  H53  1  0.995559  0.269924  0.783866  1
  H  H54  1  0.504441  0.269924  0.283866  1
  H  H55  1  0.004441  0.730076  0.216134  1
  H  H56  1  0.674813  0.982648  0.678985  1
  H  H57  1  0.174813  0.017352  0.821015  1
  H  H58  1  0.325187  0.017352  0.321015  1
  H  H59  1  0.825187  0.982648  0.178985  1
  H  H60  1  0.103449  0.533679  0.621747  1
  H  H61  1  0.603449  0.466321  0.878253  1
  H  H62  1  0.896551  0.466321  0.378253  1
  H  H63  1  0.396551  0.533679  0.121747  1
  H  H64  1  0.782535  0.520844  0.755255  1
  H  H65  1  0.282535  0.479156  0.744745  1
  H  H66  1  0.217465  0.479156  0.244745  1
  H  H67  1  0.717465  0.520844  0.255255  1
  H  H68  1  0.909876  0.829030  0.780463  1
  H  H69  1  0.409876  0.170970  0.719537  1
  H  H70  1  0.090124  0.170970  0.219537  1
  H  H71  1  0.590124  0.829030  0.280463  1
  H  H72  1  0.139178  0.955754  0.676262  1
  H  H73  1  0.639178  0.044246  0.823738  1
  H  H74  1  0.860822  0.044246  0.323738  1
  H  H75  1  0.844008  0.142539  0.051222  1
  B  B76  1  0.562960  0.298141  0.112689  1
  B  B77  1  0.062960  0.701859  0.387311  1
  B  B78  1  0.437040  0.701859  0.887311  1
  B  B79  1  0.937040  0.298141  0.612689  1
  B  B80  1  0.806642  0.250113  0.087824  1
  B  B81  1  0.306642  0.749887  0.412176  1
  B  B82  1  0.193358  0.749887  0.912176  1
  B  B83  1  0.693358  0.250113  0.587824  1
  B  B84  1  0.956774  0.405487  0.093855  1
  B  B85  1  0.456774  0.594513  0.406145  1
  B  B86  1  0.043226  0.594513  0.906145  1
  B  B87  1  0.543226  0.405487  0.593855  1
  B  B88  1  0.705191  0.410737  0.069740  1
  B  B89  1  0.205191  0.589263  0.430260  1
  B  B90  1  0.294809  0.589263  0.930260  1
  B  B91  1  0.794809  0.410737  0.569740  1
  B  B92  1  0.805989  0.553308  0.133938  1
  B  B93  1  0.305989  0.446692  0.366062  1
  B  B94  1  0.194011  0.446692  0.866062  1
  B  B95  1  0.694011  0.553308  0.633938  1
  B  B96  1  0.832490  0.730636  0.102107  1
  B  B97  1  0.332490  0.269364  0.397893  1
  B  B98  1  0.167510  0.269364  0.897893  1
  B  B99  1  0.667510  0.730636  0.602107  1
  B  B100  1  0.613017  0.831371  0.089169  1
  B  B101  1  0.113017  0.168629  0.410831  1
  B  B102  1  0.386983  0.168629  0.910831  1
  B  B103  1  0.886983  0.831371  0.589169  1
  B  B104  1  0.480271  0.861279  0.164417  1
  B  B105  1  0.980271  0.138721  0.335583  1
  B  B106  1  0.519729  0.138721  0.835583  1
  B  B107  1  0.019729  0.861279  0.664417  1
  B  B108  1  0.611873  0.772380  0.224065  1
  B  B109  1  0.111873  0.227620  0.275935  1
  B  B110  1  0.388127  0.227620  0.775935  1
  B  B111  1  0.888127  0.772380  0.724065  1
  B  B112  1  0.678674  0.583165  0.208865  1
  B  B113  1  0.178674  0.416835  0.291135  1
  B  B114  1  0.321326  0.416835  0.791135  1
  B  B115  1  0.821326  0.583165  0.708865  1
  B  B116  1  0.549095  0.486505  0.141465  1
  B  B117  1  0.049095  0.513495  0.358535  1
  B  B118  1  0.450905  0.513495  0.858535  1
  B  B119  1  0.950905  0.486505  0.641465  1
  B  B120  1  0.739284  0.871135  0.164055  1
  B  B121  1  0.239284  0.128865  0.335945  1
  B  B122  1  0.260716  0.128865  0.835945  1
  B  B123  1  0.760716  0.871135  0.664055  1
  B  B124  1  0.846026  0.710034  0.188395  1
  B  B125  1  0.346026  0.289966  0.311605  1
  B  B126  1  0.153974  0.289966  0.811605  1
  B  B127  1  0.653974  0.710034  0.688395  1
