# generated using pymatgen
data_Lu6Ge4O17
_symmetry_space_group_name_H-M   'P 1'
_cell_length_a   6.89778951
_cell_length_b   10.55620965
_cell_length_c   10.96001164
_cell_angle_alpha   111.58997242
_cell_angle_beta   90.00000000
_cell_angle_gamma   90.00000000
_symmetry_Int_Tables_number   1
_chemical_formula_structural   Lu6Ge4O17
_chemical_formula_sum   'Lu12 Ge8 O34'
_cell_volume   742.05757782
_cell_formula_units_Z   2
loop_
 _symmetry_equiv_pos_site_id
 _symmetry_equiv_pos_as_xyz
  1  'x, y, z'
loop_
 _atom_site_type_symbol
 _atom_site_label
 _atom_site_symmetry_multiplicity
 _atom_site_fract_x
 _atom_site_fract_y
 _atom_site_fract_z
 _atom_site_occupancy
  O  O0  1  0.579137  0.612620  0.985233  1
  O  O1  1  0.579137  0.887380  0.014767  1
  O  O2  1  0.420863  0.387380  0.014767  1
  O  O3  1  0.420863  0.112620  0.985233  1
  O  O4  1  0.326560  0.363624  0.762161  1
  O  O5  1  0.326560  0.136376  0.237839  1
  O  O6  1  0.673440  0.636376  0.237839  1
  O  O7  1  0.673440  0.863624  0.762161  1
  O  O8  1  0.023533  0.610040  0.099550  1
  O  O9  1  0.023533  0.889960  0.900450  1
  O  O10  1  0.976467  0.389960  0.900450  1
  O  O11  1  0.976467  0.110040  0.099550  1
  O  O12  1  0.277959  0.673672  0.845507  1
  O  O13  1  0.277959  0.826328  0.154493  1
  O  O14  1  0.722041  0.326328  0.154493  1
  O  O15  1  0.722041  0.173672  0.845507  1
  O  O16  1  0.470537  0.250000  0.500000  1
  O  O17  1  0.529463  0.750000  0.500000  1
  O  O18  1  0.856317  0.249085  0.627115  1
  O  O19  1  0.856317  0.250915  0.372885  1
  O  O20  1  0.154736  0.049925  0.444399  1
  O  O21  1  0.154736  0.450075  0.555601  1
  O  O22  1  0.845264  0.950075  0.555601  1
  O  O23  1  0.845264  0.549925  0.444399  1
  O  O24  1  0.113651  0.112953  0.756352  1
  O  O25  1  0.113651  0.387047  0.243648  1
  O  O26  1  0.886349  0.887047  0.243648  1
  O  O27  1  0.886349  0.612953  0.756352  1
  O  O28  1  0.445179  0.013618  0.647176  1
  O  O29  1  0.445179  0.486382  0.352824  1
  O  O30  1  0.554821  0.986382  0.352824  1
  O  O31  1  0.554821  0.513618  0.647176  1
  O  O32  1  0.143683  0.749085  0.627115  1
  O  O33  1  0.143683  0.750915  0.372885  1
  Ge  Ge34  1  0.361511  0.397554  0.618165  1
  Ge  Ge35  1  0.361511  0.102446  0.381835  1
  Ge  Ge36  1  0.638489  0.602446  0.381835  1
  Ge  Ge37  1  0.638489  0.897554  0.618165  1
  Ge  Ge38  1  0.076891  0.730278  0.775824  1
  Ge  Ge39  1  0.076891  0.769722  0.224176  1
  Ge  Ge40  1  0.923109  0.269722  0.224176  1
  Ge  Ge41  1  0.923109  0.230277  0.775824  1
  Lu  Lu42  1  0.254245  0.525716  0.951830  1
  Lu  Lu43  1  0.254245  0.974284  0.048170  1
  Lu  Lu44  1  0.745755  0.474284  0.048170  1
  Lu  Lu45  1  0.745755  0.025716  0.951830  1
  Lu  Lu46  1  0.595200  0.694599  0.831233  1
  Lu  Lu47  1  0.595200  0.805401  0.168767  1
  Lu  Lu48  1  0.404800  0.305401  0.168767  1
  Lu  Lu49  1  0.404800  0.194599  0.831233  1
  Lu  Lu50  1  0.161130  0.572428  0.426921  1
  Lu  Lu51  1  0.161130  0.927572  0.573079  1
  Lu  Lu52  1  0.838870  0.427572  0.573079  1
  Lu  Lu53  1  0.838870  0.072428  0.426921  1
