# generated using pymatgen
data_CePO4
_symmetry_space_group_name_H-M   'P 1'
_cell_length_a   6.41618211
_cell_length_b   6.94169822
_cell_length_c   7.13409754
_cell_angle_alpha   90.00000000
_cell_angle_beta   90.00000000
_cell_angle_gamma   82.68482670
_symmetry_Int_Tables_number   1
_chemical_formula_structural   CePO4
_chemical_formula_sum   'Ce4 P4 O16'
_cell_volume   315.16077658
_cell_formula_units_Z   4
loop_
 _symmetry_equiv_pos_site_id
 _symmetry_equiv_pos_as_xyz
  1  'x, y, z'
loop_
 _atom_site_type_symbol
 _atom_site_label
 _atom_site_symmetry_multiplicity
 _atom_site_fract_x
 _atom_site_fract_y
 _atom_site_fract_z
 _atom_site_occupancy
  O  O0  1  0.282876  0.548543  0.338026  1
  O  O1  1  0.217124  0.951457  0.838026  1
  O  O2  1  0.717124  0.451457  0.661974  1
  O  O3  1  0.782876  0.048543  0.161974  1
  O  O4  1  0.223684  0.899949  0.266922  1
  O  O5  1  0.276316  0.600051  0.766922  1
  O  O6  1  0.776316  0.100051  0.733078  1
  O  O7  1  0.723684  0.399949  0.233078  1
  O  O8  1  0.448350  0.253438  0.034358  1
  O  O9  1  0.051650  0.246562  0.534358  1
  O  O10  1  0.551650  0.746562  0.965642  1
  O  O11  1  0.948350  0.753438  0.465642  1
  O  O12  1  0.476246  0.168250  0.369727  1
  O  O13  1  0.023754  0.331750  0.869727  1
  O  O14  1  0.523754  0.831750  0.630273  1
  O  O15  1  0.976246  0.668250  0.130273  1
  P  P16  1  0.108957  0.720288  0.301364  1
  P  P17  1  0.391043  0.779712  0.801364  1
  P  P18  1  0.891043  0.279712  0.698636  1
  P  P19  1  0.608957  0.220288  0.198636  1
  Ce  Ce20  1  0.604769  0.741198  0.303187  1
  Ce  Ce21  1  0.895231  0.758802  0.803187  1
  Ce  Ce22  1  0.395231  0.258802  0.696813  1
  Ce  Ce23  1  0.104769  0.241198  0.196813  1
