# generated using pymatgen
data_LiYb2Cl5
_symmetry_space_group_name_H-M   'P 1'
_cell_length_a   6.48639415
_cell_length_b   7.07439697
_cell_length_c   8.24570846
_cell_angle_alpha   95.00523659
_cell_angle_beta   113.16120023
_cell_angle_gamma   90.00000004
_symmetry_Int_Tables_number   1
_chemical_formula_structural   LiYb2Cl5
_chemical_formula_sum   'Li2 Yb4 Cl10'
_cell_volume   346.30745821
_cell_formula_units_Z   2
loop_
 _symmetry_equiv_pos_site_id
 _symmetry_equiv_pos_as_xyz
  1  'x, y, z'
loop_
 _atom_site_type_symbol
 _atom_site_label
 _atom_site_symmetry_multiplicity
 _atom_site_fract_x
 _atom_site_fract_y
 _atom_site_fract_z
 _atom_site_occupancy
  Li  Li0  1  0.000000  0.000000  0.500000  1
  Li  Li1  1  0.500000  0.500000  0.500000  1
  Cl  Cl2  1  0.473023  0.423468  0.181196  1
  Cl  Cl3  1  0.935674  0.250000  0.000000  1
  Cl  Cl4  1  0.064326  0.750000  0.000000  1
  Cl  Cl5  1  0.145573  0.317676  0.437485  1
  Cl  Cl6  1  0.854427  0.682324  0.562515  1
  Cl  Cl7  1  0.291912  0.817676  0.437485  1
  Cl  Cl8  1  0.708088  0.182324  0.562515  1
  Cl  Cl9  1  0.526977  0.576532  0.818804  1
  Cl  Cl10  1  0.708173  0.923468  0.181196  1
  Cl  Cl11  1  0.291827  0.076532  0.818804  1
  Yb  Yb12  1  0.875214  0.569226  0.206070  1
  Yb  Yb13  1  0.330855  0.069226  0.206070  1
  Yb  Yb14  1  0.124786  0.430774  0.793930  1
  Yb  Yb15  1  0.669145  0.930774  0.793930  1
