# generated using pymatgen
data_In2(PS3)3
_symmetry_space_group_name_H-M   'P 1'
_cell_length_a   7.41102051
_cell_length_b   10.68509846
_cell_length_c   17.96087809
_cell_angle_alpha   90.00000000
_cell_angle_beta   97.19705444
_cell_angle_gamma   90.00000000
_symmetry_Int_Tables_number   1
_chemical_formula_structural   In2(PS3)3
_chemical_formula_sum   'In8 P12 S36'
_cell_volume   1411.07082906
_cell_formula_units_Z   4
loop_
 _symmetry_equiv_pos_site_id
 _symmetry_equiv_pos_as_xyz
  1  'x, y, z'
loop_
 _atom_site_type_symbol
 _atom_site_label
 _atom_site_symmetry_multiplicity
 _atom_site_fract_x
 _atom_site_fract_y
 _atom_site_fract_z
 _atom_site_occupancy
  P  P0  1  0.143565  0.996220  0.985898  1
  P  P1  1  0.304223  0.508513  0.147573  1
  P  P2  1  0.195777  0.008513  0.352427  1
  P  P3  1  0.695777  0.491487  0.852427  1
  P  P4  1  0.804223  0.991487  0.647573  1
  P  P5  1  0.474803  0.013532  0.316059  1
  P  P6  1  0.025197  0.513532  0.183941  1
  P  P7  1  0.525197  0.986468  0.683941  1
  P  P8  1  0.974803  0.486468  0.816059  1
  P  P9  1  0.356435  0.496220  0.514102  1
  P  P10  1  0.856435  0.003780  0.014102  1
  P  P11  1  0.643565  0.503780  0.485898  1
  S  S12  1  0.315162  0.673201  0.087139  1
  S  S13  1  0.345168  0.655807  0.578778  1
  S  S14  1  0.154832  0.155807  0.921222  1
  S  S15  1  0.654832  0.344193  0.421222  1
  S  S16  1  0.845168  0.844193  0.078778  1
  S  S17  1  0.815162  0.826799  0.587139  1
  S  S18  1  0.684838  0.326799  0.912861  1
  S  S19  1  0.184838  0.173201  0.412861  1
  S  S20  1  0.812830  0.490770  0.582628  1
  S  S21  1  0.687170  0.990770  0.917372  1
  S  S22  1  0.187170  0.509230  0.417372  1
  S  S23  1  0.312830  0.009230  0.082628  1
  S  S24  1  0.160447  0.845284  0.918627  1
  S  S25  1  0.339553  0.345284  0.581373  1
  S  S26  1  0.839553  0.154716  0.081373  1
  S  S27  1  0.660447  0.654716  0.418627  1
  S  S28  1  0.672317  0.649277  0.912927  1
  S  S29  1  0.827683  0.149277  0.587073  1
  S  S30  1  0.327683  0.350723  0.087073  1
  S  S31  1  0.172317  0.850723  0.412927  1
  S  S32  1  0.981453  0.985104  0.742510  1
  S  S33  1  0.518547  0.485104  0.757490  1
  S  S34  1  0.018547  0.014896  0.257490  1
  S  S35  1  0.481453  0.514896  0.242510  1
  S  S36  1  0.499182  0.825855  0.740603  1
  S  S37  1  0.000818  0.325855  0.759397  1
  S  S38  1  0.500818  0.174145  0.259397  1
  S  S39  1  0.999182  0.674145  0.240603  1
  S  S40  1  0.000525  0.644253  0.756459  1
  S  S41  1  0.499475  0.144253  0.743541  1
  S  S42  1  0.999475  0.355747  0.243541  1
  S  S43  1  0.500525  0.855747  0.256459  1
  S  S44  1  0.146112  0.495429  0.917365  1
  S  S45  1  0.353888  0.995429  0.582635  1
  S  S46  1  0.853888  0.504571  0.082635  1
  S  S47  1  0.646112  0.004571  0.417365  1
  In  In48  1  0.177176  0.851641  0.175929  1
  In  In49  1  0.322824  0.351641  0.324071  1
  In  In50  1  0.822824  0.148359  0.824071  1
  In  In51  1  0.677176  0.648359  0.675929  1
  In  In52  1  0.491439  0.821002  0.489749  1
  In  In53  1  0.008561  0.321002  0.010251  1
  In  In54  1  0.508561  0.178998  0.510251  1
  In  In55  1  0.991439  0.678998  0.989749  1
