# generated using pymatgen
data_Ba5(GaS4)2
_symmetry_space_group_name_H-M   'P 1'
_cell_length_a   12.02954686
_cell_length_b   12.28189260
_cell_length_c   12.93405273
_cell_angle_alpha   118.34561442
_cell_angle_beta   90.00000000
_cell_angle_gamma   90.00000000
_symmetry_Int_Tables_number   1
_chemical_formula_structural   Ba5(GaS4)2
_chemical_formula_sum   'Ba20 Ga8 S32'
_cell_volume   1681.82589667
_cell_formula_units_Z   4
loop_
 _symmetry_equiv_pos_site_id
 _symmetry_equiv_pos_as_xyz
  1  'x, y, z'
loop_
 _atom_site_type_symbol
 _atom_site_label
 _atom_site_symmetry_multiplicity
 _atom_site_fract_x
 _atom_site_fract_y
 _atom_site_fract_z
 _atom_site_occupancy
  S  S0  1  0.958784  0.144839  0.000000  1
  S  S1  1  0.458784  0.355161  0.000000  1
  S  S2  1  0.541216  0.644839  0.000000  1
  S  S3  1  0.041216  0.855161  0.000000  1
  S  S4  1  0.258078  0.652446  0.816461  1
  S  S5  1  0.758078  0.847554  0.183539  1
  S  S6  1  0.241922  0.335985  0.183539  1
  S  S7  1  0.741922  0.164015  0.816461  1
  S  S8  1  0.741922  0.347554  0.183539  1
  S  S9  1  0.241922  0.152446  0.816461  1
  S  S10  1  0.758078  0.664015  0.816461  1
  S  S11  1  0.258078  0.835985  0.183539  1
  S  S12  1  0.996581  0.335278  0.375959  1
  S  S13  1  0.496581  0.164722  0.624041  1
  S  S14  1  0.651861  0.030815  0.000000  1
  S  S15  1  0.503419  0.459319  0.624041  1
  S  S16  1  0.003419  0.664722  0.624041  1
  S  S17  1  0.503419  0.835278  0.375959  1
  S  S18  1  0.496581  0.540681  0.375959  1
  S  S19  1  0.996581  0.959319  0.624041  1
  S  S20  1  0.647814  0.186466  0.373708  1
  S  S21  1  0.147814  0.313534  0.626292  1
  S  S22  1  0.852186  0.312758  0.626292  1
  S  S23  1  0.352186  0.187242  0.373708  1
  S  S24  1  0.352186  0.813534  0.626292  1
  S  S25  1  0.852186  0.686466  0.373708  1
  S  S26  1  0.147814  0.687242  0.373708  1
  S  S27  1  0.647814  0.812758  0.626292  1
  S  S28  1  0.348139  0.969185  0.000000  1
  S  S29  1  0.848139  0.530815  0.000000  1
  S  S30  1  0.151861  0.469185  0.000000  1
  S  S31  1  0.003419  0.040681  0.375959  1
  Ga  Ga32  1  0.500000  0.249798  0.499596  1
  Ga  Ga33  1  0.000000  0.250202  0.500404  1
  Ga  Ga34  1  0.500000  0.750202  0.500404  1
  Ga  Ga35  1  0.000000  0.749798  0.499596  1
  Ga  Ga36  1  0.767475  0.187469  0.000000  1
  Ga  Ga37  1  0.267475  0.312531  0.000000  1
  Ga  Ga38  1  0.732525  0.687469  0.000000  1
  Ga  Ga39  1  0.232525  0.812531  0.000000  1
  Ba  Ba40  1  0.250000  0.507181  0.500000  1
  Ba  Ba41  1  0.750000  0.992819  0.500000  1
  Ba  Ba42  1  0.750000  0.492819  0.500000  1
  Ba  Ba43  1  0.250000  0.007181  0.500000  1
  Ba  Ba44  1  0.494980  0.259677  0.195628  1
  Ba  Ba45  1  0.994980  0.240323  0.804372  1
  Ba  Ba46  1  0.005020  0.564049  0.804372  1
  Ba  Ba47  1  0.505020  0.935951  0.195628  1
  Ba  Ba48  1  0.505020  0.740323  0.804372  1
  Ba  Ba49  1  0.005020  0.759677  0.195628  1
  Ba  Ba50  1  0.994980  0.435951  0.195628  1
  Ba  Ba51  1  0.494980  0.064049  0.804372  1
  Ba  Ba52  1  0.659582  0.597044  0.202913  1
  Ba  Ba53  1  0.159582  0.902956  0.797087  1
  Ba  Ba54  1  0.840418  0.894131  0.797087  1
  Ba  Ba55  1  0.340418  0.605869  0.202913  1
  Ba  Ba56  1  0.340418  0.402956  0.797087  1
  Ba  Ba57  1  0.840418  0.097044  0.202913  1
  Ba  Ba58  1  0.159582  0.105869  0.202913  1
  Ba  Ba59  1  0.659582  0.394131  0.797087  1
