# generated using pymatgen
data_H2O2
_symmetry_space_group_name_H-M   'P 1'
_cell_length_a   3.37021687
_cell_length_b   3.37021687
_cell_length_c   10.84123524
_cell_angle_alpha   90.00000000
_cell_angle_beta   90.00000000
_cell_angle_gamma   90.00000000
_symmetry_Int_Tables_number   1
_chemical_formula_structural   H2O2
_chemical_formula_sum   'H8 O8'
_cell_volume   123.13867168
_cell_formula_units_Z   4
loop_
 _symmetry_equiv_pos_site_id
 _symmetry_equiv_pos_as_xyz
  1  'x, y, z'
loop_
 _atom_site_type_symbol
 _atom_site_label
 _atom_site_symmetry_multiplicity
 _atom_site_fract_x
 _atom_site_fract_y
 _atom_site_fract_z
 _atom_site_occupancy
  H  H0  1  0.645737  0.188213  0.494049  1
  H  H1  1  0.354263  0.811787  0.994049  1
  H  H2  1  0.188213  0.645737  0.505951  1
  H  H3  1  0.688213  0.854263  0.244049  1
  H  H4  1  0.311787  0.145737  0.744049  1
  H  H5  1  0.854263  0.688213  0.755951  1
  H  H6  1  0.145737  0.311787  0.255951  1
  H  H7  1  0.811787  0.354263  0.005951  1
  O  O8  1  0.958417  0.790552  0.210643  1
  O  O9  1  0.041583  0.209448  0.710643  1
  O  O10  1  0.790552  0.958417  0.789357  1
  O  O11  1  0.290552  0.541583  0.960643  1
  O  O12  1  0.709448  0.458417  0.460643  1
  O  O13  1  0.541583  0.290552  0.039357  1
  O  O14  1  0.458417  0.709448  0.539357  1
  O  O15  1  0.209448  0.041583  0.289357  1
