# generated using pymatgen
data_AlH36C12S6(IO2)3
_symmetry_space_group_name_H-M   'P 1'
_cell_length_a   10.44268810
_cell_length_b   10.44268811
_cell_length_c   10.44268811
_cell_angle_alpha   63.07479559
_cell_angle_beta   63.07479561
_cell_angle_gamma   63.07479556
_symmetry_Int_Tables_number   1
_chemical_formula_structural   AlH36C12S6(IO2)3
_chemical_formula_sum   'Al1 H36 C12 S6 I3 O6'
_cell_volume   860.16867830
_cell_formula_units_Z   1
loop_
 _symmetry_equiv_pos_site_id
 _symmetry_equiv_pos_as_xyz
  1  'x, y, z'
loop_
 _atom_site_type_symbol
 _atom_site_label
 _atom_site_symmetry_multiplicity
 _atom_site_fract_x
 _atom_site_fract_y
 _atom_site_fract_z
 _atom_site_occupancy
  H  H0  1  0.666214  0.030551  0.828485  1
  H  H1  1  0.030551  0.828485  0.666214  1
  H  H2  1  0.828485  0.666214  0.030551  1
  H  H3  1  0.333786  0.969449  0.171515  1
  H  H4  1  0.969449  0.171515  0.333786  1
  H  H5  1  0.171515  0.333786  0.969449  1
  H  H6  1  0.555294  0.225759  0.768672  1
  H  H7  1  0.225759  0.768672  0.555294  1
  H  H8  1  0.768672  0.555294  0.225759  1
  H  H9  1  0.444706  0.774241  0.231328  1
  H  H10  1  0.774241  0.231328  0.444706  1
  H  H11  1  0.231328  0.444706  0.774241  1
  H  H12  1  0.529104  0.126677  0.968905  1
  H  H13  1  0.126677  0.968905  0.529104  1
  H  H14  1  0.968905  0.529104  0.126677  1
  H  H15  1  0.656927  0.002109  0.452969  1
  H  H16  1  0.470896  0.873323  0.031095  1
  H  H17  1  0.031095  0.470896  0.873323  1
  H  H18  1  0.547031  0.343073  0.997891  1
  H  H19  1  0.343073  0.997891  0.547031  1
  H  H20  1  0.997891  0.547031  0.343073  1
  H  H21  1  0.452969  0.656927  0.002109  1
  H  H22  1  0.115158  0.296960  0.576895  1
  H  H23  1  0.576895  0.115158  0.296960  1
  H  H24  1  0.296960  0.576895  0.115158  1
  H  H25  1  0.884842  0.703040  0.423105  1
  H  H26  1  0.423105  0.884842  0.703040  1
  H  H27  1  0.703040  0.423105  0.884842  1
  H  H28  1  0.202147  0.422240  0.556292  1
  H  H29  1  0.556292  0.202147  0.422240  1
  H  H30  1  0.422240  0.556292  0.202147  1
  H  H31  1  0.797853  0.577760  0.443708  1
  H  H32  1  0.443708  0.797853  0.577760  1
  H  H33  1  0.577760  0.443708  0.797853  1
  H  H34  1  0.002109  0.452969  0.656927  1
  H  H35  1  0.873323  0.031095  0.470896  1
  C  C36  1  0.632028  0.370035  0.886859  1
  C  C37  1  0.370035  0.886859  0.632028  1
  C  C38  1  0.886859  0.632028  0.370035  1
  C  C39  1  0.367972  0.629965  0.113141  1
  C  C40  1  0.145716  0.389774  0.861933  1
  C  C41  1  0.861933  0.145716  0.389774  1
  C  C42  1  0.389774  0.861933  0.145716  1
  C  C43  1  0.854284  0.610226  0.138067  1
  C  C44  1  0.113141  0.367972  0.629965  1
  C  C45  1  0.610226  0.138067  0.854284  1
  C  C46  1  0.629965  0.113141  0.367972  1
  C  C47  1  0.138067  0.854284  0.610226  1
  O  O48  1  0.800720  0.087419  0.982880  1
  O  O49  1  0.087419  0.982880  0.800720  1
  O  O50  1  0.017120  0.199280  0.912581  1
  O  O51  1  0.199280  0.912581  0.017120  1
  O  O52  1  0.912581  0.017120  0.199280  1
  O  O53  1  0.982880  0.800720  0.087419  1
  Al  Al54  1  0.000000  0.000000  0.000000  1
  S  S55  1  0.159867  0.248037  0.800931  1
  S  S56  1  0.840133  0.751963  0.199069  1
  S  S57  1  0.248037  0.800931  0.159867  1
  S  S58  1  0.800931  0.159867  0.248037  1
  S  S59  1  0.199069  0.840133  0.751963  1
  S  S60  1  0.751963  0.199069  0.840133  1
  I  I61  1  0.248789  0.248789  0.248789  1
  I  I62  1  0.500000  0.500000  0.500000  1
  I  I63  1  0.751211  0.751211  0.751211  1
