# generated using pymatgen
data_Mn7C3
_symmetry_space_group_name_H-M   'P 1'
_cell_length_a   4.44854465
_cell_length_b   6.80861932
_cell_length_c   11.74363750
_cell_angle_alpha   90.00000000
_cell_angle_beta   90.00000000
_cell_angle_gamma   90.00000000
_symmetry_Int_Tables_number   1
_chemical_formula_structural   Mn7C3
_chemical_formula_sum   'Mn28 C12'
_cell_volume   355.69654259
_cell_formula_units_Z   4
loop_
 _symmetry_equiv_pos_site_id
 _symmetry_equiv_pos_as_xyz
  1  'x, y, z'
loop_
 _atom_site_type_symbol
 _atom_site_label
 _atom_site_symmetry_multiplicity
 _atom_site_fract_x
 _atom_site_fract_y
 _atom_site_fract_z
 _atom_site_occupancy
  C  C0  1  0.032670  0.750000  0.062010  1
  C  C1  1  0.532670  0.750000  0.437990  1
  C  C2  1  0.967330  0.250000  0.937990  1
  C  C3  1  0.467330  0.250000  0.562010  1
  C  C4  1  0.537777  0.028993  0.149337  1
  C  C5  1  0.037777  0.471007  0.350663  1
  C  C6  1  0.462223  0.528993  0.850663  1
  C  C7  1  0.962223  0.971007  0.649337  1
  C  C8  1  0.462223  0.971007  0.850663  1
  C  C9  1  0.962223  0.528993  0.649337  1
  C  C10  1  0.537777  0.471007  0.149337  1
  C  C11  1  0.037777  0.028993  0.350663  1
  Mn  Mn12  1  0.942608  0.934949  0.191719  1
  Mn  Mn13  1  0.442608  0.565051  0.308281  1
  Mn  Mn14  1  0.057392  0.434949  0.808281  1
  Mn  Mn15  1  0.557392  0.065051  0.691719  1
  Mn  Mn16  1  0.272299  0.250000  0.200550  1
  Mn  Mn17  1  0.772299  0.250000  0.299450  1
  Mn  Mn18  1  0.727701  0.750000  0.799450  1
  Mn  Mn19  1  0.227701  0.750000  0.700550  1
  Mn  Mn20  1  0.270614  0.250000  0.411962  1
  Mn  Mn21  1  0.770614  0.250000  0.088038  1
  Mn  Mn22  1  0.729386  0.750000  0.588038  1
  Mn  Mn23  1  0.229386  0.750000  0.911962  1
  Mn  Mn24  1  0.070648  0.250000  0.627930  1
  Mn  Mn25  1  0.570648  0.250000  0.872070  1
  Mn  Mn26  1  0.929352  0.750000  0.372070  1
  Mn  Mn27  1  0.429352  0.750000  0.127930  1
  Mn  Mn28  1  0.442608  0.934949  0.308281  1
  Mn  Mn29  1  0.942608  0.565051  0.191719  1
  Mn  Mn30  1  0.557392  0.434949  0.691719  1
  Mn  Mn31  1  0.057392  0.065051  0.808281  1
  Mn  Mn32  1  0.749173  0.068049  0.482294  1
  Mn  Mn33  1  0.249173  0.431951  0.017706  1
  Mn  Mn34  1  0.250827  0.568049  0.517706  1
  Mn  Mn35  1  0.750827  0.931951  0.982294  1
  Mn  Mn36  1  0.250827  0.931951  0.517706  1
  Mn  Mn37  1  0.750827  0.568049  0.982294  1
  Mn  Mn38  1  0.749173  0.431951  0.482294  1
  Mn  Mn39  1  0.249173  0.068049  0.017706  1
