# generated using pymatgen
data_Ba3NaIr2O9
_symmetry_space_group_name_H-M   'P 1'
_cell_length_a   5.96074888
_cell_length_b   5.96074887
_cell_length_c   14.87373544
_cell_angle_alpha   91.10434206
_cell_angle_beta   91.10434205
_cell_angle_gamma   119.77794578
_symmetry_Int_Tables_number   1
_chemical_formula_structural   Ba3NaIr2O9
_chemical_formula_sum   'Ba6 Na2 Ir4 O18'
_cell_volume   458.35189281
_cell_formula_units_Z   2
loop_
 _symmetry_equiv_pos_site_id
 _symmetry_equiv_pos_as_xyz
  1  'x, y, z'
loop_
 _atom_site_type_symbol
 _atom_site_label
 _atom_site_symmetry_multiplicity
 _atom_site_fract_x
 _atom_site_fract_y
 _atom_site_fract_z
 _atom_site_occupancy
  O  O0  1  0.670040  0.853832  0.597944  1
  O  O1  1  0.146168  0.329960  0.902056  1
  O  O2  1  0.329960  0.146168  0.402056  1
  O  O3  1  0.853832  0.670040  0.097944  1
  O  O4  1  0.857223  0.205875  0.090737  1
  O  O5  1  0.794125  0.142777  0.409263  1
  O  O6  1  0.142777  0.794125  0.909263  1
  O  O7  1  0.205875  0.857223  0.590737  1
  O  O8  1  0.389442  0.205575  0.076903  1
  O  O9  1  0.794425  0.610558  0.423097  1
  O  O10  1  0.610558  0.794425  0.923097  1
  O  O11  1  0.205575  0.389442  0.576903  1
  O  O12  1  0.480793  0.964151  0.760392  1
  O  O13  1  0.035849  0.519207  0.739608  1
  O  O14  1  0.519207  0.035849  0.239608  1
  O  O15  1  0.964151  0.480793  0.260392  1
  O  O16  1  0.481282  0.518718  0.750000  1
  O  O17  1  0.518718  0.481282  0.250000  1
  Na  Na18  1  0.000000  0.000000  0.500000  1
  Na  Na19  1  0.000000  0.000000  0.000000  1
  Ba  Ba20  1  0.339990  0.671956  0.084748  1
  Ba  Ba21  1  0.998575  0.001425  0.250000  1
  Ba  Ba22  1  0.328044  0.660010  0.415252  1
  Ba  Ba23  1  0.660010  0.328044  0.915252  1
  Ba  Ba24  1  0.001425  0.998575  0.750000  1
  Ba  Ba25  1  0.671956  0.339990  0.584748  1
  Ir  Ir26  1  0.652288  0.315850  0.342550  1
  Ir  Ir27  1  0.315850  0.652288  0.842550  1
  Ir  Ir28  1  0.347712  0.684150  0.657450  1
  Ir  Ir29  1  0.684150  0.347712  0.157450  1
