# generated using pymatgen
data_Li3Ti2(PO4)3
_symmetry_space_group_name_H-M   'P 1'
_cell_length_a   8.52445951
_cell_length_b   8.90584025
_cell_length_c   12.12409637
_cell_angle_alpha   89.94763674
_cell_angle_beta   88.90101767
_cell_angle_gamma   90.04620770
_symmetry_Int_Tables_number   1
_chemical_formula_structural   Li3Ti2(PO4)3
_chemical_formula_sum   'Li12 Ti8 P12 O48'
_cell_volume   920.26077083
_cell_formula_units_Z   4
loop_
 _symmetry_equiv_pos_site_id
 _symmetry_equiv_pos_as_xyz
  1  'x, y, z'
loop_
 _atom_site_type_symbol
 _atom_site_label
 _atom_site_symmetry_multiplicity
 _atom_site_fract_x
 _atom_site_fract_y
 _atom_site_fract_z
 _atom_site_occupancy
  Li  Li0  1  0.935656  0.488070  0.347439  1
  Li  Li1  1  0.416706  0.585694  0.187450  1
  Li  Li2  1  0.435610  0.011931  0.847407  1
  Li  Li3  1  0.916699  0.914277  0.687425  1
  Li  Li4  1  0.064344  0.511930  0.652561  1
  Li  Li5  1  0.179407  0.782286  0.822084  1
  Li  Li6  1  0.320628  0.282338  0.677891  1
  Li  Li7  1  0.679372  0.717662  0.322109  1
  Li  Li8  1  0.564390  0.988069  0.152593  1
  Li  Li9  1  0.583294  0.414306  0.812550  1
  Li  Li10  1  0.083301  0.085723  0.312575  1
  Li  Li11  1  0.820593  0.217714  0.177916  1
  Ti  Ti12  1  0.242643  0.025830  0.104408  1
  Ti  Ti13  1  0.742626  0.474162  0.604402  1
  Ti  Ti14  1  0.256321  0.964043  0.604697  1
  Ti  Ti15  1  0.757357  0.974170  0.895592  1
  Ti  Ti16  1  0.756292  0.536008  0.104621  1
  Ti  Ti17  1  0.257374  0.525838  0.395598  1
  Ti  Ti18  1  0.743679  0.035957  0.395303  1
  Ti  Ti19  1  0.243708  0.463992  0.895379  1
  P  P20  1  0.387649  0.880393  0.345275  1
  P  P21  1  0.958220  0.750020  0.490504  1
  P  P22  1  0.887689  0.619525  0.845232  1
  P  P23  1  0.115088  0.109227  0.849413  1
  P  P24  1  0.615061  0.390695  0.349440  1
  P  P25  1  0.384939  0.609305  0.650560  1
  P  P26  1  0.541838  0.250081  0.009345  1
  P  P27  1  0.884912  0.890773  0.150587  1
  P  P28  1  0.041780  0.249980  0.509496  1
  P  P29  1  0.612351  0.119607  0.654725  1
  P  P30  1  0.112311  0.380475  0.154768  1
  P  P31  1  0.458162  0.749919  0.990655  1
  O  O32  1  0.623529  0.292360  0.672740  1
  O  O33  1  0.597844  0.138722  0.917696  1
  O  O34  1  0.673822  0.234349  0.311848  1
  O  O35  1  0.446969  0.390584  0.396550  1
  O  O36  1  0.233983  0.044088  0.933825  1
  O  O37  1  0.557881  0.833403  0.901378  1
  O  O38  1  0.049911  0.871327  0.552857  1
  O  O39  1  0.450111  0.371306  0.947087  1
  O  O40  1  0.875513  0.003948  0.250534  1
  O  O41  1  0.266043  0.544073  0.566146  1
  O  O42  1  0.311208  0.680328  0.936806  1
  O  O43  1  0.057831  0.666665  0.401451  1
  O  O44  1  0.624563  0.503992  0.249404  1
  O  O45  1  0.228607  0.471173  0.223623  1
  O  O46  1  0.053004  0.890575  0.103465  1
  O  O47  1  0.123487  0.207686  0.172741  1
  O  O48  1  0.766017  0.955912  0.066175  1
  O  O49  1  0.811182  0.819667  0.436792  1
  O  O50  1  0.549889  0.628694  0.052913  1
  O  O51  1  0.946996  0.109425  0.896535  1
  O  O52  1  0.442119  0.166597  0.098622  1
  O  O53  1  0.060524  0.577948  0.811181  1
  O  O54  1  0.876513  0.792314  0.827259  1
  O  O55  1  0.688792  0.319672  0.063194  1
  O  O56  1  0.139565  0.414283  0.030879  1
  O  O57  1  0.402156  0.861278  0.082304  1
  O  O58  1  0.950089  0.128673  0.447143  1
  O  O59  1  0.124487  0.996052  0.749466  1
  O  O60  1  0.860435  0.585717  0.969121  1
  O  O61  1  0.360429  0.914119  0.469122  1
  O  O62  1  0.728551  0.028857  0.723609  1
  O  O63  1  0.902097  0.638605  0.582348  1
  O  O64  1  0.439446  0.077885  0.688858  1
  O  O65  1  0.188818  0.180333  0.563208  1
  O  O66  1  0.939476  0.422052  0.188819  1
  O  O67  1  0.560554  0.922115  0.311142  1
  O  O68  1  0.639571  0.085881  0.530878  1
  O  O69  1  0.271449  0.971143  0.276391  1
  O  O70  1  0.326178  0.765651  0.688152  1
  O  O71  1  0.826086  0.734250  0.188199  1
  O  O72  1  0.375437  0.496008  0.750596  1
  O  O73  1  0.771393  0.528827  0.776377  1
  O  O74  1  0.173914  0.265750  0.811801  1
  O  O75  1  0.376471  0.707640  0.327261  1
  O  O76  1  0.097903  0.361395  0.417652  1
  O  O77  1  0.942169  0.333335  0.598549  1
  O  O78  1  0.553031  0.609416  0.603450  1
  O  O79  1  0.733958  0.455927  0.433854  1
