# generated using pymatgen
data_S3(NCl)2
_symmetry_space_group_name_H-M   'P 1'
_cell_length_a   5.70101144
_cell_length_b   6.66738751
_cell_length_c   9.15441212
_cell_angle_alpha   90.00000000
_cell_angle_beta   90.00000000
_cell_angle_gamma   101.62443239
_symmetry_Int_Tables_number   1
_chemical_formula_structural   S3(NCl)2
_chemical_formula_sum   'S6 N4 Cl4'
_cell_volume   340.83000194
_cell_formula_units_Z   2
loop_
 _symmetry_equiv_pos_site_id
 _symmetry_equiv_pos_as_xyz
  1  'x, y, z'
loop_
 _atom_site_type_symbol
 _atom_site_label
 _atom_site_symmetry_multiplicity
 _atom_site_fract_x
 _atom_site_fract_y
 _atom_site_fract_z
 _atom_site_occupancy
  N  N0  1  0.764700  0.527108  0.520003  1
  N  N1  1  0.751106  0.550175  0.795658  1
  N  N2  1  0.248894  0.449825  0.295658  1
  N  N3  1  0.235300  0.472892  0.020003  1
  S  S4  1  0.302880  0.608381  0.168684  1
  S  S5  1  0.876686  0.786657  0.767501  1
  S  S6  1  0.837657  0.767211  0.530643  1
  S  S7  1  0.697120  0.391619  0.668684  1
  S  S8  1  0.162343  0.232789  0.030643  1
  S  S9  1  0.123314  0.213343  0.267501  1
  Cl  Cl10  1  0.490493  0.106551  0.997830  1
  Cl  Cl11  1  0.509507  0.893449  0.497830  1
  Cl  Cl12  1  0.075666  0.191510  0.646881  1
  Cl  Cl13  1  0.924334  0.808490  0.146881  1
