# generated using pymatgen
data_U(ClO)2
_symmetry_space_group_name_H-M   'P 1'
_cell_length_a   6.09440680
_cell_length_b   8.49464994
_cell_length_c   8.74769021
_cell_angle_alpha   90.00000000
_cell_angle_beta   90.00000000
_cell_angle_gamma   90.00000000
_symmetry_Int_Tables_number   1
_chemical_formula_structural   U(ClO)2
_chemical_formula_sum   'U4 Cl8 O8'
_cell_volume   452.86663064
_cell_formula_units_Z   4
loop_
 _symmetry_equiv_pos_site_id
 _symmetry_equiv_pos_as_xyz
  1  'x, y, z'
loop_
 _atom_site_type_symbol
 _atom_site_label
 _atom_site_symmetry_multiplicity
 _atom_site_fract_x
 _atom_site_fract_y
 _atom_site_fract_z
 _atom_site_occupancy
  U  U0  1  0.568256  0.250000  0.429230  1
  U  U1  1  0.931744  0.750000  0.929230  1
  U  U2  1  0.431744  0.750000  0.570770  1
  U  U3  1  0.068256  0.250000  0.070770  1
  Cl  Cl4  1  0.821074  0.442243  0.879964  1
  Cl  Cl5  1  0.821074  0.057757  0.879964  1
  Cl  Cl6  1  0.678926  0.942243  0.379964  1
  Cl  Cl7  1  0.321074  0.057757  0.620036  1
  Cl  Cl8  1  0.178926  0.557757  0.120036  1
  Cl  Cl9  1  0.178926  0.942243  0.120036  1
  Cl  Cl10  1  0.321074  0.442243  0.620036  1
  Cl  Cl11  1  0.678926  0.557757  0.379964  1
  O  O12  1  0.219670  0.750000  0.431599  1
  O  O13  1  0.352881  0.250000  0.279643  1
  O  O14  1  0.852881  0.250000  0.220357  1
  O  O15  1  0.719670  0.750000  0.068401  1
  O  O16  1  0.780330  0.250000  0.568401  1
  O  O17  1  0.147119  0.750000  0.779643  1
  O  O18  1  0.647119  0.750000  0.720357  1
  O  O19  1  0.280330  0.250000  0.931599  1
