# generated using pymatgen
data_YbGeRh
_symmetry_space_group_name_H-M   'P 1'
_cell_length_a   4.39886724
_cell_length_b   7.20237822
_cell_length_c   7.10170001
_cell_angle_alpha   90.00000000
_cell_angle_beta   90.00000000
_cell_angle_gamma   90.00000000
_symmetry_Int_Tables_number   1
_chemical_formula_structural   YbGeRh
_chemical_formula_sum   'Yb4 Ge4 Rh4'
_cell_volume   224.99823001
_cell_formula_units_Z   4
loop_
 _symmetry_equiv_pos_site_id
 _symmetry_equiv_pos_as_xyz
  1  'x, y, z'
loop_
 _atom_site_type_symbol
 _atom_site_label
 _atom_site_symmetry_multiplicity
 _atom_site_fract_x
 _atom_site_fract_y
 _atom_site_fract_z
 _atom_site_occupancy
  Ge  Ge0  1  0.250000  0.799906  0.107247  1
  Ge  Ge1  1  0.750000  0.200094  0.892753  1
  Ge  Ge2  1  0.250000  0.299906  0.392753  1
  Ge  Ge3  1  0.750000  0.700094  0.607247  1
  Rh  Rh4  1  0.750000  0.853335  0.930477  1
  Rh  Rh5  1  0.250000  0.146665  0.069523  1
  Rh  Rh6  1  0.750000  0.353335  0.569523  1
  Rh  Rh7  1  0.250000  0.646665  0.430477  1
  Yb  Yb8  1  0.250000  0.491193  0.812894  1
  Yb  Yb9  1  0.750000  0.508807  0.187106  1
  Yb  Yb10  1  0.250000  0.991193  0.687106  1
  Yb  Yb11  1  0.750000  0.008807  0.312894  1
