# generated using pymatgen
data_Be3P2(H2O5)2
_symmetry_space_group_name_H-M   'P 1'
_cell_length_a   4.62384189
_cell_length_b   8.40993274
_cell_length_c   9.64632004
_cell_angle_alpha   94.63840297
_cell_angle_beta   90.00000000
_cell_angle_gamma   105.95627059
_symmetry_Int_Tables_number   1
_chemical_formula_structural   Be3P2(H2O5)2
_chemical_formula_sum   'Be6 P4 H8 O20'
_cell_volume   359.37853610
_cell_formula_units_Z   2
loop_
 _symmetry_equiv_pos_site_id
 _symmetry_equiv_pos_as_xyz
  1  'x, y, z'
loop_
 _atom_site_type_symbol
 _atom_site_label
 _atom_site_symmetry_multiplicity
 _atom_site_fract_x
 _atom_site_fract_y
 _atom_site_fract_z
 _atom_site_occupancy
  H  H0  1  0.531158  0.867621  0.311393  1
  H  H1  1  0.582487  0.817211  0.904226  1
  H  H2  1  0.765277  0.182789  0.595774  1
  H  H3  1  0.417513  0.182789  0.095774  1
  H  H4  1  0.234723  0.817211  0.404226  1
  H  H5  1  0.336463  0.867621  0.811393  1
  H  H6  1  0.468842  0.132379  0.688607  1
  H  H7  1  0.663537  0.132379  0.188607  1
  Be  Be8  1  0.797768  0.504640  0.342441  1
  Be  Be9  1  0.293128  0.495360  0.157559  1
  Be  Be10  1  0.202232  0.495360  0.657559  1
  Be  Be11  1  0.706872  0.504640  0.842441  1
  Be  Be12  1  0.188421  0.000000  0.250000  1
  Be  Be13  1  0.811579  0.000000  0.750000  1
  O  O14  1  0.187330  0.646404  0.108432  1
  O  O15  1  0.459074  0.646404  0.608432  1
  O  O16  1  0.812670  0.353596  0.891568  1
  O  O17  1  0.540926  0.353596  0.391568  1
  O  O18  1  0.248700  0.334975  0.043794  1
  O  O19  1  0.538451  0.907727  0.854328  1
  O  O20  1  0.751300  0.665025  0.956206  1
  O  O21  1  0.086276  0.334975  0.543794  1
  O  O22  1  0.337209  0.436714  0.800929  1
  O  O23  1  0.900495  0.563286  0.699071  1
  O  O24  1  0.662791  0.563286  0.199071  1
  O  O25  1  0.099505  0.436714  0.300929  1
  O  O26  1  0.913724  0.665025  0.456206  1
  O  O27  1  0.630724  0.092273  0.645672  1
  O  O28  1  0.461549  0.092273  0.145672  1
  O  O29  1  0.369276  0.907727  0.354328  1
  O  O30  1  0.913688  0.866127  0.167810  1
  O  O31  1  0.952439  0.866127  0.667810  1
  O  O32  1  0.086312  0.133873  0.832190  1
  O  O33  1  0.047561  0.133873  0.332190  1
  P  P34  1  0.886525  0.688808  0.105303  1
  P  P35  1  0.802283  0.688808  0.605303  1
  P  P36  1  0.113475  0.311192  0.894697  1
  P  P37  1  0.197717  0.311192  0.394697  1
