# generated using pymatgen
data_Hg3(SeI)2
_symmetry_space_group_name_H-M   'P 1'
_cell_length_a   9.96748669
_cell_length_b   10.07881447
_cell_length_c   12.27374907
_cell_angle_alpha   114.24153752
_cell_angle_beta   113.95687867
_cell_angle_gamma   89.99999997
_symmetry_Int_Tables_number   1
_chemical_formula_structural   Hg3(SeI)2
_chemical_formula_sum   'Hg12 Se8 I8'
_cell_volume   1006.66981045
_cell_formula_units_Z   4
loop_
 _symmetry_equiv_pos_site_id
 _symmetry_equiv_pos_as_xyz
  1  'x, y, z'
loop_
 _atom_site_type_symbol
 _atom_site_label
 _atom_site_symmetry_multiplicity
 _atom_site_fract_x
 _atom_site_fract_y
 _atom_site_fract_z
 _atom_site_occupancy
  Se  Se0  1  0.883712  0.130172  0.755167  1
  Se  Se1  1  0.628544  0.369828  0.244833  1
  Se  Se2  1  0.116288  0.375005  0.244833  1
  Se  Se3  1  0.371456  0.124995  0.755167  1
  Se  Se4  1  0.116288  0.869828  0.244833  1
  Se  Se5  1  0.371456  0.630172  0.755167  1
  Se  Se6  1  0.883712  0.624995  0.755167  1
  Se  Se7  1  0.628544  0.875005  0.244833  1
  I  I8  1  0.744742  -0.000770  -0.001540  1
  I  I9  1  0.246282  0.500770  1.001540  1
  I  I10  1  0.255258  1.000770  1.001540  1
  I  I11  1  0.753718  0.499230  -0.001540  1
  I  I12  1  0.484162  0.750000  0.500000  1
  I  I13  1  0.515838  0.250000  0.500000  1
  I  I14  1  0.002933  0.750000  0.500000  1
  I  I15  1  0.997067  0.250000  0.500000  1
  Hg  Hg16  1  0.651248  0.151248  0.802496  1
  Hg  Hg17  1  0.348752  0.348752  0.197504  1
  Hg  Hg18  1  0.348752  0.848752  0.197504  1
  Hg  Hg19  1  0.651248  0.651248  0.802496  1
  Hg  Hg20  1  0.745118  0.029495  0.500000  1
  Hg  Hg21  1  0.745118  0.470505  0.500000  1
  Hg  Hg22  1  0.254882  0.529495  0.500000  1
  Hg  Hg23  1  0.254882  0.970505  0.500000  1
  Hg  Hg24  1  0.066871  0.116733  0.233466  1
  Hg  Hg25  1  0.333404  0.383267  0.766534  1
  Hg  Hg26  1  0.933129  0.883267  0.766534  1
  Hg  Hg27  1  0.666596  0.616733  0.233466  1
