# generated using pymatgen
data_B9H11
_symmetry_space_group_name_H-M   'P 1'
_cell_length_a   10.90446935
_cell_length_b   11.15666465
_cell_length_c   12.47187976
_cell_angle_alpha   90.00000000
_cell_angle_beta   90.00000000
_cell_angle_gamma   90.00000000
_symmetry_Int_Tables_number   1
_chemical_formula_structural   B9H11
_chemical_formula_sum   'B72 H88'
_cell_volume   1517.29780824
_cell_formula_units_Z   8
loop_
 _symmetry_equiv_pos_site_id
 _symmetry_equiv_pos_as_xyz
  1  'x, y, z'
loop_
 _atom_site_type_symbol
 _atom_site_label
 _atom_site_symmetry_multiplicity
 _atom_site_fract_x
 _atom_site_fract_y
 _atom_site_fract_z
 _atom_site_occupancy
  H  H0  1  0.767289  0.937385  0.488265  1
  H  H1  1  0.767289  0.562615  0.011735  1
  H  H2  1  0.732711  0.437385  0.511735  1
  H  H3  1  0.732711  0.062615  0.988265  1
  H  H4  1  0.232711  0.062615  0.511735  1
  H  H5  1  0.232711  0.437385  0.988265  1
  H  H6  1  0.267289  0.562615  0.488265  1
  H  H7  1  0.267289  0.937385  0.011735  1
  H  H8  1  0.704264  0.035611  0.603123  1
  H  H9  1  0.704264  0.464389  0.896877  1
  H  H10  1  0.795736  0.535611  0.396877  1
  H  H11  1  0.795736  0.964389  0.103123  1
  H  H12  1  0.295736  0.964389  0.396877  1
  H  H13  1  0.295736  0.535611  0.103123  1
  H  H14  1  0.204264  0.464389  0.603123  1
  H  H15  1  0.204264  0.035611  0.896877  1
  H  H16  1  0.599487  0.868119  0.445443  1
  H  H17  1  0.599487  0.631881  0.054557  1
  H  H18  1  0.900513  0.368119  0.554557  1
  H  H19  1  0.900513  0.131881  0.945443  1
  H  H20  1  0.400513  0.131881  0.554557  1
  H  H21  1  0.400513  0.368119  0.945443  1
  H  H22  1  0.099487  0.631881  0.445443  1
  H  H23  1  0.099487  0.868119  0.054557  1
  H  H24  1  0.592911  0.869270  0.284854  1
  H  H25  1  0.592911  0.630730  0.215146  1
  H  H26  1  0.907089  0.369270  0.715146  1
  H  H27  1  0.907089  0.130730  0.784854  1
  H  H28  1  0.407089  0.130730  0.715146  1
  H  H29  1  0.407089  0.369270  0.784854  1
  H  H30  1  0.092910  0.630730  0.284854  1
  H  H31  1  0.092910  0.869270  0.215146  1
  H  H32  1  0.849140  0.959528  0.345570  1
  H  H33  1  0.849140  0.540472  0.154430  1
  H  H34  1  0.650860  0.459528  0.654430  1
  H  H35  1  0.650860  0.040472  0.845570  1
  H  H36  1  0.150860  0.040472  0.654430  1
  H  H37  1  0.150860  0.459528  0.845570  1
  H  H38  1  0.349140  0.540472  0.345570  1
  H  H39  1  0.812127  0.230439  0.411681  1
  H  H40  1  0.349140  0.959528  0.154430  1
  H  H41  1  0.887960  0.464331  0.922058  1
  H  H42  1  0.612040  0.535669  0.422058  1
  H  H43  1  0.612040  0.964331  0.077942  1
  H  H44  1  0.112040  0.964331  0.422058  1
  H  H45  1  0.112040  0.535669  0.077942  1
  H  H46  1  0.387960  0.464331  0.577942  1
  H  H47  1  0.387960  0.035669  0.922058  1
  H  H48  1  0.675344  0.208222  0.637684  1
  H  H49  1  0.675344  0.291778  0.862316  1
  H  H50  1  0.824656  0.708222  0.362316  1
  H  H51  1  0.824656  0.791778  0.137684  1
  H  H52  1  0.324656  0.791778  0.362316  1
  H  H53  1  0.324656  0.708222  0.137684  1
  H  H54  1  0.175344  0.291778  0.637684  1
  H  H55  1  0.175344  0.208222  0.862316  1
  H  H56  1  0.414417  0.083482  0.331699  1
  H  H57  1  0.414417  0.416518  0.168301  1
  H  H58  1  0.085583  0.583482  0.668301  1
  H  H59  1  0.085583  0.916518  0.831699  1
  H  H60  1  0.585583  0.916518  0.668301  1
  H  H61  1  0.585583  0.583482  0.831699  1
  H  H62  1  0.914417  0.416518  0.331699  1
  H  H63  1  0.914417  0.083482  0.168301  1
  H  H64  1  0.659981  0.114929  0.250210  1
  H  H65  1  0.659981  0.385071  0.249790  1
  H  H66  1  0.840019  0.614929  0.749790  1
  H  H67  1  0.840019  0.885071  0.750210  1
  H  H68  1  0.340019  0.885071  0.749790  1
  H  H69  1  0.340019  0.614929  0.750210  1
  H  H70  1  0.159981  0.385071  0.250210  1
  H  H71  1  0.159981  0.114929  0.249790  1
  H  H72  1  0.045235  0.273187  0.057943  1
  H  H73  1  0.045235  0.226813  0.442057  1
  H  H74  1  0.454765  0.773187  0.942057  1
  H  H75  1  0.454765  0.726813  0.557943  1
  H  H76  1  0.954765  0.726813  0.942057  1
  H  H77  1  0.954765  0.773187  0.557943  1
  H  H78  1  0.545235  0.226813  0.057943  1
  H  H79  1  0.545235  0.273187  0.442057  1
  H  H80  1  0.312127  0.230439  0.088319  1
  H  H81  1  0.312127  0.269561  0.411681  1
  H  H82  1  0.187873  0.730439  0.911681  1
  H  H83  1  0.187873  0.769561  0.588319  1
  H  H84  1  0.687873  0.769561  0.911681  1
  H  H85  1  0.687873  0.730439  0.588319  1
  H  H86  1  0.812127  0.269561  0.088319  1
  H  H87  1  0.887960  0.035669  0.577942  1
  B  B88  1  0.493673  0.927140  0.468840  1
  B  B89  1  0.493673  0.572860  0.031160  1
  B  B90  1  0.006327  0.427140  0.531160  1
  B  B91  1  0.006327  0.072860  0.968840  1
  B  B92  1  0.506327  0.072860  0.531160  1
  B  B93  1  0.506327  0.427140  0.968840  1
  B  B94  1  0.993673  0.572860  0.468840  1
  B  B95  1  0.993673  0.927140  0.031160  1
  B  B96  1  0.602463  0.935901  0.359124  1
  B  B97  1  0.602463  0.564099  0.140876  1
  B  B98  1  0.897537  0.435901  0.640876  1
  B  B99  1  0.897537  0.064099  0.859124  1
  B  B100  1  0.397537  0.064099  0.640876  1
  B  B101  1  0.397537  0.435901  0.859124  1
  B  B102  1  0.102463  0.564099  0.359124  1
  B  B103  1  0.102463  0.935901  0.140876  1
  B  B104  1  0.764873  0.997183  0.396331  1
  B  B105  1  0.764873  0.502817  0.103669  1
  B  B106  1  0.735127  0.497183  0.603669  1
  B  B107  1  0.735127  0.002817  0.896331  1
  B  B108  1  0.235127  0.002817  0.603669  1
  B  B109  1  0.235127  0.497183  0.896331  1
  B  B110  1  0.264873  0.502817  0.396331  1
  B  B111  1  0.264873  0.997183  0.103669  1
  B  B112  1  0.793497  0.045218  0.530871  1
  B  B113  1  0.793497  0.454782  0.969129  1
  B  B114  1  0.706503  0.545218  0.469129  1
  B  B115  1  0.706503  0.954782  0.030871  1
  B  B116  1  0.206503  0.954782  0.469129  1
  B  B117  1  0.206503  0.545218  0.030871  1
  B  B118  1  0.293497  0.454782  0.530871  1
  B  B119  1  0.293497  0.045218  0.969129  1
  B  B120  1  0.669146  0.140747  0.563712  1
  B  B121  1  0.669146  0.359253  0.936288  1
  B  B122  1  0.830854  0.640747  0.436288  1
  B  B123  1  0.830854  0.859253  0.063712  1
  B  B124  1  0.330854  0.859253  0.436288  1
  B  B125  1  0.330854  0.640747  0.063712  1
  B  B126  1  0.169146  0.359253  0.563712  1
  B  B127  1  0.169146  0.140747  0.936288  1
  B  B128  1  0.498707  0.056076  0.387284  1
  B  B129  1  0.498707  0.443924  0.112716  1
  B  B130  1  1.001293  0.556076  0.612716  1
  B  B131  1  1.001293  0.943924  0.887284  1
  B  B132  1  0.501293  0.943924  0.612716  1
  B  B133  1  0.501293  0.556076  0.887284  1
  B  B134  1  -0.001293  0.443924  0.387284  1
  B  B135  1  -0.001293  0.056076  0.112716  1
  B  B136  1  0.647885  0.085606  0.341682  1
  B  B137  1  0.647885  0.414394  0.158318  1
  B  B138  1  0.852115  0.585606  0.658318  1
  B  B139  1  0.852115  0.914394  0.841682  1
  B  B140  1  0.352115  0.914394  0.658318  1
  B  B141  1  0.352115  0.585606  0.841682  1
  B  B142  1  0.147885  0.414394  0.341682  1
  B  B143  1  0.147885  0.085606  0.158318  1
  B  B144  1  0.746799  0.150208  0.438775  1
  B  B145  1  0.746799  0.349792  0.061225  1
  B  B146  1  0.753201  0.650208  0.561225  1
  B  B147  1  0.753201  0.849792  0.938775  1
  B  B148  1  0.253201  0.849792  0.561225  1
  B  B149  1  0.253201  0.650208  0.938775  1
  B  B150  1  0.246799  0.349792  0.438775  1
  B  B151  1  0.246799  0.150208  0.061225  1
  B  B152  1  0.585019  0.173719  0.448025  1
  B  B153  1  0.585019  0.326281  0.051975  1
  B  B154  1  0.914981  0.673719  0.551975  1
  B  B155  1  0.914981  0.826281  0.948025  1
  B  B156  1  0.414981  0.826281  0.551975  1
  B  B157  1  0.414981  0.673719  0.948025  1
  B  B158  1  0.085019  0.326281  0.448025  1
  B  B159  1  0.085019  0.173719  0.051975  1
