# generated using pymatgen
data_Bi7RhBr8
_symmetry_space_group_name_H-M   'P 1'
_cell_length_a   9.49126731
_cell_length_b   15.43339587
_cell_length_c   16.74344548
_cell_angle_alpha   90.00000000
_cell_angle_beta   92.15729086
_cell_angle_gamma   90.00000000
_symmetry_Int_Tables_number   1
_chemical_formula_structural   Bi7RhBr8
_chemical_formula_sum   'Bi28 Rh4 Br32'
_cell_volume   2450.88322688
_cell_formula_units_Z   4
loop_
 _symmetry_equiv_pos_site_id
 _symmetry_equiv_pos_as_xyz
  1  'x, y, z'
loop_
 _atom_site_type_symbol
 _atom_site_label
 _atom_site_symmetry_multiplicity
 _atom_site_fract_x
 _atom_site_fract_y
 _atom_site_fract_z
 _atom_site_occupancy
  Br  Br0  1  0.240026  0.947478  0.563972  1
  Br  Br1  1  0.259974  0.447478  0.936028  1
  Br  Br2  1  0.759974  0.052522  0.436028  1
  Br  Br3  1  0.740026  0.552522  0.063972  1
  Br  Br4  1  0.290997  0.889192  0.812101  1
  Br  Br5  1  0.209003  0.389192  0.687899  1
  Br  Br6  1  0.709003  0.110808  0.187899  1
  Br  Br7  1  0.790997  0.610808  0.312101  1
  Br  Br8  1  0.341709  0.638740  0.768196  1
  Br  Br9  1  0.158291  0.138740  0.731804  1
  Br  Br10  1  0.658291  0.361260  0.231804  1
  Br  Br11  1  0.841709  0.861260  0.268196  1
  Br  Br12  1  0.306554  0.658873  0.529090  1
  Br  Br13  1  0.193446  0.158873  0.970910  1
  Br  Br14  1  0.693446  0.341127  0.470910  1
  Br  Br15  1  0.224948  0.939659  0.105131  1
  Br  Br16  1  0.661802  0.784230  0.492235  1
  Br  Br17  1  0.838198  0.284230  0.007765  1
  Br  Br18  1  0.338198  0.215770  0.507765  1
  Br  Br19  1  0.161802  0.715770  0.992235  1
  Br  Br20  1  0.663485  0.925052  0.693841  1
  Br  Br21  1  0.836515  0.425052  0.806159  1
  Br  Br22  1  0.336515  0.074948  0.306159  1
  Br  Br23  1  0.163485  0.574948  0.193841  1
  Br  Br24  1  0.739235  0.685625  0.835995  1
  Br  Br25  1  0.760765  0.185625  0.664005  1
  Br  Br26  1  0.260765  0.314375  0.164005  1
  Br  Br27  1  0.239235  0.814375  0.335995  1
  Br  Br28  1  0.724948  0.560341  0.605131  1
  Br  Br29  1  0.775052  0.060341  0.894869  1
  Br  Br30  1  0.275052  0.439659  0.394869  1
  Br  Br31  1  0.806554  0.841127  0.029090  1
  Rh  Rh32  1  0.995374  0.763384  0.661515  1
  Rh  Rh33  1  0.504626  0.263384  0.838485  1
  Rh  Rh34  1  0.004626  0.236616  0.338485  1
  Rh  Rh35  1  0.495374  0.736616  0.161515  1
  Bi  Bi36  1  0.952472  0.937548  0.638872  1
  Bi  Bi37  1  0.218194  0.286047  0.847528  1
  Bi  Bi38  1  0.718194  0.213953  0.347528  1
  Bi  Bi39  1  0.781806  0.713953  0.152472  1
  Bi  Bi40  1  0.709158  0.736477  0.671015  1
  Bi  Bi41  1  0.790842  0.236477  0.828985  1
  Bi  Bi42  1  0.290842  0.263523  0.328985  1
  Bi  Bi43  1  0.209158  0.763523  0.171015  1
  Bi  Bi44  1  0.954939  0.794980  0.500952  1
  Bi  Bi45  1  0.545061  0.294980  -0.000952  1
  Bi  Bi46  1  0.045061  0.205020  0.499048  1
  Bi  Bi47  1  0.454939  0.705020  1.000952  1
  Bi  Bi48  1  0.281806  0.786047  0.652472  1
  Bi  Bi49  1  0.547528  0.437548  0.861128  1
  Bi  Bi50  1  0.047528  0.062452  0.361128  1
  Bi  Bi51  1  0.452472  0.562452  0.138872  1
  Bi  Bi52  1  0.006724  0.840766  0.809068  1
  Bi  Bi53  1  0.493276  0.340766  0.690932  1
  Bi  Bi54  1  0.993276  0.159234  0.190932  1
  Bi  Bi55  1  0.506724  0.659234  0.309068  1
  Bi  Bi56  1  0.042052  0.639700  0.777758  1
  Bi  Bi57  1  0.457948  0.139700  0.722242  1
  Bi  Bi58  1  0.957947  0.360300  0.222242  1
  Bi  Bi59  1  0.542053  0.860300  0.277758  1
  Bi  Bi60  1  0.017036  0.609579  0.582246  1
  Bi  Bi61  1  0.482964  0.109579  0.917754  1
  Bi  Bi62  1  0.982964  0.390421  0.417754  1
  Bi  Bi63  1  0.517036  0.890421  0.082246  1
