# generated using pymatgen
data_LiUF5
_symmetry_space_group_name_H-M   'P 1'
_cell_length_a   6.62461140
_cell_length_b   11.09752813
_cell_length_c   11.09752813
_cell_angle_alpha   84.88898593
_cell_angle_beta   72.63412585
_cell_angle_gamma   72.63412582
_symmetry_Int_Tables_number   1
_chemical_formula_structural   LiUF5
_chemical_formula_sum   'Li8 U8 F40'
_cell_volume   743.17382575
_cell_formula_units_Z   8
loop_
 _symmetry_equiv_pos_site_id
 _symmetry_equiv_pos_as_xyz
  1  'x, y, z'
loop_
 _atom_site_type_symbol
 _atom_site_label
 _atom_site_symmetry_multiplicity
 _atom_site_fract_x
 _atom_site_fract_y
 _atom_site_fract_z
 _atom_site_occupancy
  Li  Li0  1  0.300008  0.596574  0.264015  1
  Li  Li1  1  0.564023  0.235985  0.596574  1
  Li  Li2  1  0.396582  0.264015  0.903426  1
  Li  Li3  1  0.160597  0.903426  0.235985  1
  Li  Li4  1  0.699992  0.403426  0.735985  1
  Li  Li5  1  0.435977  0.764015  0.403426  1
  Li  Li6  1  0.603418  0.735985  0.096574  1
  Li  Li7  1  0.839403  0.096574  0.764015  1
  F  F8  1  0.905951  0.016138  0.913424  1
  F  F9  1  0.819375  0.586576  0.016138  1
  F  F10  1  0.422089  0.913424  0.483862  1
  F  F11  1  0.835513  0.483862  0.586576  1
  F  F12  1  0.094049  0.983862  0.086576  1
  F  F13  1  0.180625  0.413424  0.983862  1
  F  F14  1  0.577911  0.086576  0.516138  1
  F  F15  1  0.164487  0.516138  0.413424  1
  F  F16  1  0.956448  0.965622  0.616011  1
  F  F17  1  0.572459  0.883989  0.965622  1
  F  F18  1  0.422070  0.616011  0.534378  1
  F  F19  1  0.538081  0.534378  0.883989  1
  F  F20  1  0.043552  0.034378  0.383989  1
  F  F21  1  0.427541  0.116011  0.034378  1
  F  F22  1  0.577930  0.383989  0.465622  1
  F  F23  1  0.461919  0.465622  0.116011  1
  F  F24  1  0.181589  0.073703  0.709068  1
  F  F25  1  0.890657  0.790932  0.073703  1
  F  F26  1  0.755292  0.709068  0.426297  1
  F  F27  1  0.964360  0.426297  0.790932  1
  F  F28  1  0.818411  0.926297  0.290932  1
  F  F29  1  0.109342  0.209068  0.926297  1
  F  F30  1  0.244708  0.290932  0.573703  1
  F  F31  1  0.035640  0.573703  0.209068  1
  F  F32  1  0.565640  0.887353  0.701170  1
  F  F33  1  0.266810  0.798830  0.887353  1
  F  F34  1  0.952993  0.701170  0.612647  1
  F  F35  1  0.154163  0.612647  0.798830  1
  F  F36  1  0.434360  0.112647  0.298830  1
  F  F37  1  0.733190  0.201170  0.112647  1
  F  F38  1  0.047007  0.298830  0.387353  1
  F  F39  1  0.845837  0.387353  0.201170  1
  F  F40  1  0.527275  0.118172  0.784869  1
  F  F41  1  0.312144  0.715131  0.118172  1
  F  F42  1  0.145447  0.784869  0.381828  1
  F  F43  1  0.430316  0.381828  0.715131  1
  F  F44  1  0.472725  0.881828  0.215131  1
  F  F45  1  0.687856  0.284869  0.881828  1
  F  F46  1  0.854553  0.215131  0.618172  1
  F  F47  1  0.569684  0.618172  0.284869  1
  U  U48  1  0.816511  0.493555  0.381670  1
  U  U49  1  0.198180  0.118330  0.493555  1
  U  U50  1  0.810066  0.381670  0.006445  1
  U  U51  1  0.691735  0.006445  0.118330  1
  U  U52  1  0.183489  0.506445  0.618330  1
  U  U53  1  0.801820  0.881670  0.506445  1
  U  U54  1  0.189934  0.618330  0.993555  1
  U  U55  1  0.308265  0.993555  0.881670  1
