# generated using pymatgen
data_Bi2TeO6
_symmetry_space_group_name_H-M   'P 1'
_cell_length_a   5.45762471
_cell_length_b   5.45439407
_cell_length_c   8.85045673
_cell_angle_alpha   107.94729165
_cell_angle_beta   90.00000000
_cell_angle_gamma   90.00000000
_symmetry_Int_Tables_number   1
_chemical_formula_structural   Bi2TeO6
_chemical_formula_sum   'Bi4 Te2 O12'
_cell_volume   250.64081761
_cell_formula_units_Z   2
loop_
 _symmetry_equiv_pos_site_id
 _symmetry_equiv_pos_as_xyz
  1  'x, y, z'
loop_
 _atom_site_type_symbol
 _atom_site_label
 _atom_site_symmetry_multiplicity
 _atom_site_fract_x
 _atom_site_fract_y
 _atom_site_fract_z
 _atom_site_occupancy
  O  O0  1  0.415468  0.390819  0.781639  1
  O  O1  1  0.915468  0.109181  0.218361  1
  O  O2  1  0.584532  0.609181  0.218361  1
  O  O3  1  0.084532  0.890819  0.781639  1
  O  O4  1  0.250000  0.282155  0.064311  1
  O  O5  1  0.750000  0.217845  0.935689  1
  O  O6  1  0.750000  0.999602  0.499204  1
  O  O7  1  0.250000  0.500398  0.500796  1
  O  O8  1  0.250000  0.000398  0.500796  1
  O  O9  1  0.750000  0.499602  0.499204  1
  O  O10  1  0.250000  0.782155  0.064311  1
  O  O11  1  0.750000  0.717845  0.935689  1
  Te  Te12  1  0.500000  0.500000  0.000000  1
  Te  Te13  1  0.000000  0.000000  0.000000  1
  Bi  Bi14  1  0.011092  0.326803  0.653607  1
  Bi  Bi15  1  0.511092  0.173197  0.346393  1
  Bi  Bi16  1  0.988908  0.673197  0.346393  1
  Bi  Bi17  1  0.488908  0.826803  0.653607  1
