# generated using pymatgen
data_Mn4Be3Si3TeO12
_symmetry_space_group_name_H-M   'P 1'
_cell_length_a   8.52584220
_cell_length_b   8.52584220
_cell_length_c   8.52584220
_cell_angle_alpha   90.00000000
_cell_angle_beta   90.00000000
_cell_angle_gamma   90.00000000
_symmetry_Int_Tables_number   1
_chemical_formula_structural   Mn4Be3Si3TeO12
_chemical_formula_sum   'Mn8 Be6 Si6 Te2 O24'
_cell_volume   619.74334350
_cell_formula_units_Z   2
loop_
 _symmetry_equiv_pos_site_id
 _symmetry_equiv_pos_as_xyz
  1  'x, y, z'
loop_
 _atom_site_type_symbol
 _atom_site_label
 _atom_site_symmetry_multiplicity
 _atom_site_fract_x
 _atom_site_fract_y
 _atom_site_fract_z
 _atom_site_occupancy
  Be  Be0  1  0.250000  0.500000  0.000000  1
  Be  Be1  1  0.500000  0.000000  0.750000  1
  Be  Be2  1  0.500000  0.000000  0.250000  1
  Be  Be3  1  0.000000  0.250000  0.500000  1
  Be  Be4  1  0.000000  0.750000  0.500000  1
  Be  Be5  1  0.750000  0.500000  0.000000  1
  O  O6  1  0.644602  0.927276  0.644555  1
  O  O7  1  0.644602  0.072724  0.355445  1
  O  O8  1  0.927276  0.644555  0.644602  1
  O  O9  1  0.072724  0.644555  0.355398  1
  O  O10  1  0.644555  0.644602  0.927276  1
  O  O11  1  0.355445  0.355398  0.927276  1
  O  O12  1  0.855398  0.855445  0.427276  1
  O  O13  1  0.855398  0.144555  0.572724  1
  O  O14  1  0.144602  0.855445  0.572724  1
  O  O15  1  0.144555  0.572724  0.855398  1
  O  O16  1  0.572724  0.144602  0.855445  1
  O  O17  1  0.572724  0.855398  0.144555  1
  O  O18  1  0.855445  0.427276  0.855398  1
  O  O19  1  0.427276  0.855398  0.855445  1
  O  O20  1  0.144602  0.144555  0.427276  1
  O  O21  1  0.355398  0.927276  0.355445  1
  O  O22  1  0.355398  0.072724  0.644555  1
  O  O23  1  0.072724  0.355445  0.644602  1
  O  O24  1  0.927276  0.355445  0.355398  1
  O  O25  1  0.644555  0.355398  0.072724  1
  O  O26  1  0.355445  0.644602  0.072724  1
  O  O27  1  0.427276  0.144602  0.144555  1
  O  O28  1  0.144555  0.427276  0.144602  1
  O  O29  1  0.855445  0.572724  0.144602  1
  Si  Si30  1  0.750000  0.000000  0.500000  1
  Si  Si31  1  0.250000  0.000000  0.500000  1
  Si  Si32  1  0.000000  0.500000  0.750000  1
  Si  Si33  1  0.000000  0.500000  0.250000  1
  Si  Si34  1  0.500000  0.250000  0.000000  1
  Si  Si35  1  0.500000  0.750000  0.000000  1
  Mn  Mn36  1  0.687974  0.687974  0.687974  1
  Mn  Mn37  1  0.187974  0.187974  0.187974  1
  Mn  Mn38  1  0.812026  0.812026  0.187974  1
  Mn  Mn39  1  0.312026  0.312026  0.687974  1
  Mn  Mn40  1  0.687974  0.312026  0.312026  1
  Mn  Mn41  1  0.812026  0.187974  0.812026  1
  Mn  Mn42  1  0.187974  0.812026  0.812026  1
  Mn  Mn43  1  0.312026  0.687974  0.312026  1
  Te  Te44  1  0.000000  0.000000  0.000000  1
  Te  Te45  1  0.500000  0.500000  0.500000  1
