# generated using pymatgen
data_Cl2O
_symmetry_space_group_name_H-M   'P 1'
_cell_length_a   7.42070192
_cell_length_b   7.42070299
_cell_length_c   7.42070310
_cell_angle_alpha   97.83076789
_cell_angle_beta   115.58668765
_cell_angle_gamma   115.58668891
_symmetry_Int_Tables_number   1
_chemical_formula_structural   Cl2O
_chemical_formula_sum   'Cl8 O4'
_cell_volume   305.13196231
_cell_formula_units_Z   4
loop_
 _symmetry_equiv_pos_site_id
 _symmetry_equiv_pos_as_xyz
  1  'x, y, z'
loop_
 _atom_site_type_symbol
 _atom_site_label
 _atom_site_symmetry_multiplicity
 _atom_site_fract_x
 _atom_site_fract_y
 _atom_site_fract_z
 _atom_site_occupancy
  O  O0  1  0.250000  0.343885  0.093885  1
  O  O1  1  0.750000  0.093885  0.343885  1
  O  O2  1  0.750000  0.656115  0.906115  1
  O  O3  1  0.250000  0.906115  0.656115  1
  Cl  Cl4  1  0.431729  0.623551  0.191822  1
  Cl  Cl5  1  0.568271  0.191822  0.260093  1
  Cl  Cl6  1  0.931729  0.191822  0.623551  1
  Cl  Cl7  1  0.931729  0.739907  0.808178  1
  Cl  Cl8  1  0.568271  0.376449  0.808178  1
  Cl  Cl9  1  0.068271  0.260093  0.191822  1
  Cl  Cl10  1  0.068271  0.808178  0.376449  1
  Cl  Cl11  1  0.431729  0.808178  0.739907  1
