# generated using pymatgen
data_NaFeO2
_symmetry_space_group_name_H-M   'P 1'
_cell_length_a   5.46949325
_cell_length_b   5.81296542
_cell_length_c   7.21305710
_cell_angle_alpha   90.00000000
_cell_angle_beta   90.00000000
_cell_angle_gamma   90.00000000
_symmetry_Int_Tables_number   1
_chemical_formula_structural   NaFeO2
_chemical_formula_sum   'Na4 Fe4 O8'
_cell_volume   229.33175803
_cell_formula_units_Z   4
loop_
 _symmetry_equiv_pos_site_id
 _symmetry_equiv_pos_as_xyz
  1  'x, y, z'
loop_
 _atom_site_type_symbol
 _atom_site_label
 _atom_site_symmetry_multiplicity
 _atom_site_fract_x
 _atom_site_fract_y
 _atom_site_fract_z
 _atom_site_occupancy
  O  O0  1  0.918794  0.888428  0.340496  1
  O  O1  1  0.418794  0.111572  0.659504  1
  O  O2  1  0.418794  0.611572  0.840496  1
  O  O3  1  0.918794  0.388428  0.159504  1
  O  O4  1  0.346164  0.545405  0.408671  1
  O  O5  1  0.346164  0.045405  0.091329  1
  O  O6  1  0.846164  0.954595  0.908671  1
  O  O7  1  0.846164  0.454595  0.591329  1
  Na  Na8  1  0.489842  0.420219  0.122622  1
  Na  Na9  1  0.989842  0.079781  0.622622  1
  Na  Na10  1  0.989842  0.579781  0.877378  1
  Na  Na11  1  0.489842  0.920219  0.377378  1
  Fe  Fe12  1  0.000199  0.569264  0.373086  1
  Fe  Fe13  1  0.500199  0.430736  0.626914  1
  Fe  Fe14  1  0.500199  0.930736  0.873086  1
  Fe  Fe15  1  0.000199  0.069264  0.126914  1
