# generated using pymatgen
data_Eu3Al5O12
_symmetry_space_group_name_H-M   'P 1'
_cell_length_a   10.63266610
_cell_length_b   10.63266610
_cell_length_c   10.63266610
_cell_angle_alpha   109.47122061
_cell_angle_beta   109.47122061
_cell_angle_gamma   109.47122066
_symmetry_Int_Tables_number   1
_chemical_formula_structural   Eu3Al5O12
_chemical_formula_sum   'Eu12 Al20 O48'
_cell_volume   925.34703375
_cell_formula_units_Z   4
loop_
 _symmetry_equiv_pos_site_id
 _symmetry_equiv_pos_as_xyz
  1  'x, y, z'
loop_
 _atom_site_type_symbol
 _atom_site_label
 _atom_site_symmetry_multiplicity
 _atom_site_fract_x
 _atom_site_fract_y
 _atom_site_fract_z
 _atom_site_occupancy
  O  O0  1  0.600491  0.920190  0.115472  1
  O  O1  1  0.579810  0.180301  0.195282  1
  O  O2  1  0.384528  0.304718  0.485019  1
  O  O3  1  0.899509  0.014981  0.319699  1
  O  O4  1  0.899509  0.384528  0.579810  1
  O  O5  1  0.014981  0.319699  0.899509  1
  O  O6  1  0.304718  0.319699  0.920190  1
  O  O7  1  0.319699  0.899509  0.014981  1
  O  O8  1  0.195282  0.115472  0.014981  1
  O  O9  1  0.180301  0.485019  0.600491  1
  O  O10  1  0.485019  0.600491  0.180301  1
  O  O11  1  0.579810  0.899509  0.384528  1
  O  O12  1  0.319699  0.920190  0.304718  1
  O  O13  1  0.014981  0.195282  0.115472  1
  O  O14  1  0.384528  0.579810  0.899509  1
  O  O15  1  0.920190  0.304718  0.319699  1
  O  O16  1  0.115472  0.014981  0.195282  1
  O  O17  1  0.195282  0.579810  0.180301  1
  O  O18  1  0.304718  0.485019  0.384528  1
  O  O19  1  0.804718  0.884528  0.985019  1
  O  O20  1  0.485019  0.384528  0.304718  1
  O  O21  1  0.115472  0.600491  0.920190  1
  O  O22  1  0.180301  0.195282  0.579810  1
  O  O23  1  0.600491  0.180301  0.485019  1
  O  O24  1  0.399509  0.079810  0.884528  1
  O  O25  1  0.420190  0.819699  0.804718  1
  O  O26  1  0.615472  0.695282  0.514981  1
  O  O27  1  0.100491  0.985019  0.680301  1
  O  O28  1  0.100491  0.615472  0.420190  1
  O  O29  1  0.985019  0.680301  0.100491  1
  O  O30  1  0.695282  0.680301  0.079810  1
  O  O31  1  0.680301  0.100491  0.985019  1
  O  O32  1  0.399509  0.819699  0.514981  1
  O  O33  1  0.819699  0.804718  0.420190  1
  O  O34  1  0.884528  0.399509  0.079810  1
  O  O35  1  0.079810  0.884528  0.399509  1
  O  O36  1  0.514981  0.615472  0.695282  1
  O  O37  1  0.695282  0.514981  0.615472  1
  O  O38  1  0.804718  0.420190  0.819699  1
  O  O39  1  0.884528  0.985019  0.804718  1
  O  O40  1  0.079810  0.695282  0.680301  1
  O  O41  1  0.615472  0.420190  0.100491  1
  O  O42  1  0.985019  0.804718  0.884528  1
  O  O43  1  0.680301  0.079810  0.695282  1
  O  O44  1  0.420190  0.100491  0.615472  1
  O  O45  1  0.514981  0.399509  0.819699  1
  O  O46  1  0.819699  0.514981  0.399509  1
  O  O47  1  0.920190  0.115472  0.600491  1
  Al  Al48  1  0.250000  0.125000  0.875000  1
  Al  Al49  1  0.750000  0.875000  0.125000  1
  Al  Al50  1  0.375000  0.250000  0.625000  1
  Al  Al51  1  0.625000  0.375000  0.250000  1
  Al  Al52  1  0.125000  0.750000  0.875000  1
  Al  Al53  1  0.875000  0.125000  0.750000  1
  Al  Al54  1  0.750000  0.375000  0.625000  1
  Al  Al55  1  0.375000  0.625000  0.750000  1
  Al  Al56  1  0.125000  0.875000  0.250000  1
  Al  Al57  1  0.875000  0.250000  0.125000  1
  Al  Al58  1  0.625000  0.750000  0.375000  1
  Al  Al59  1  0.250000  0.625000  0.375000  1
  Al  Al60  1  0.500000  0.500000  0.500000  1
  Al  Al61  1  0.500000  0.500000  0.000000  1
  Al  Al62  1  0.500000  0.000000  0.500000  1
  Al  Al63  1  0.000000  0.500000  0.500000  1
  Al  Al64  1  0.500000  0.000000  0.000000  1
  Al  Al65  1  0.000000  0.000000  0.500000  1
  Al  Al66  1  0.000000  0.500000  0.000000  1
  Al  Al67  1  0.000000  0.000000  0.000000  1
  Eu  Eu68  1  0.250000  0.875000  0.625000  1
  Eu  Eu69  1  0.875000  0.625000  0.250000  1
  Eu  Eu70  1  0.625000  0.875000  0.750000  1
  Eu  Eu71  1  0.875000  0.750000  0.625000  1
  Eu  Eu72  1  0.625000  0.250000  0.875000  1
  Eu  Eu73  1  0.750000  0.625000  0.875000  1
  Eu  Eu74  1  0.750000  0.125000  0.375000  1
  Eu  Eu75  1  0.125000  0.375000  0.750000  1
  Eu  Eu76  1  0.375000  0.125000  0.250000  1
  Eu  Eu77  1  0.125000  0.250000  0.375000  1
  Eu  Eu78  1  0.375000  0.750000  0.125000  1
  Eu  Eu79  1  0.250000  0.375000  0.125000  1
