# generated using pymatgen
data_Be3P2
_symmetry_space_group_name_H-M   'P 1'
_cell_length_a   10.23584974
_cell_length_b   10.23584973
_cell_length_c   12.49684399
_cell_angle_alpha   114.17577767
_cell_angle_beta   114.17577767
_cell_angle_gamma   89.99999997
_symmetry_Int_Tables_number   1
_chemical_formula_structural   Be3P2
_chemical_formula_sum   'Be48 P32'
_cell_volume   1067.36923161
_cell_formula_units_Z   16
loop_
 _symmetry_equiv_pos_site_id
 _symmetry_equiv_pos_as_xyz
  1  'x, y, z'
loop_
 _atom_site_type_symbol
 _atom_site_label
 _atom_site_symmetry_multiplicity
 _atom_site_fract_x
 _atom_site_fract_y
 _atom_site_fract_z
 _atom_site_occupancy
  Be  Be0  1  0.193228  0.453386  0.123527  1
  Be  Be1  1  0.170140  0.193228  0.623527  1
  Be  Be2  1  0.453386  0.930299  0.623527  1
  Be  Be3  1  0.569701  0.046614  0.876473  1
  Be  Be4  1  0.306772  0.329860  0.876473  1
  Be  Be5  1  0.329860  0.569701  0.376473  1
  Be  Be6  1  0.046614  0.306772  0.376473  1
  Be  Be7  1  0.930299  0.170140  0.123527  1
  Be  Be8  1  0.806772  0.546614  0.876473  1
  Be  Be9  1  0.829860  0.806772  0.376473  1
  Be  Be10  1  0.546614  0.069701  0.376473  1
  Be  Be11  1  0.430299  0.953386  0.123527  1
  Be  Be12  1  0.693228  0.670140  0.123527  1
  Be  Be13  1  0.670140  0.430299  0.623527  1
  Be  Be14  1  0.953386  0.693228  0.623527  1
  Be  Be15  1  0.069701  0.829860  0.876473  1
  Be  Be16  1  0.451957  0.435101  0.134561  1
  Be  Be17  1  0.199460  0.451957  0.634561  1
  Be  Be18  1  0.435101  0.682605  0.634561  1
  Be  Be19  1  0.817395  0.064899  0.865439  1
  Be  Be20  1  0.048043  0.300540  0.865439  1
  Be  Be21  1  0.300540  0.817395  0.365439  1
  Be  Be22  1  0.064899  0.048043  0.365439  1
  Be  Be23  1  0.682605  0.199460  0.134561  1
  Be  Be24  1  0.548043  0.564899  0.865439  1
  Be  Be25  1  0.800540  0.548043  0.365439  1
  Be  Be26  1  0.564899  0.317395  0.365439  1
  Be  Be27  1  0.182605  0.935101  0.134561  1
  Be  Be28  1  0.951957  0.699460  0.134561  1
  Be  Be29  1  0.699460  0.182605  0.634561  1
  Be  Be30  1  0.935101  0.951957  0.634561  1
  Be  Be31  1  0.317395  0.800540  0.865439  1
  Be  Be32  1  0.189010  0.180232  0.111185  1
  Be  Be33  1  0.430953  0.189010  0.611185  1
  Be  Be34  1  0.180232  0.922175  0.611185  1
  Be  Be35  1  0.577825  0.319768  0.888815  1
  Be  Be36  1  0.310990  0.069047  0.888815  1
  Be  Be37  1  0.069047  0.577825  0.388815  1
  Be  Be38  1  0.319768  0.310990  0.388815  1
  Be  Be39  1  0.922175  0.430953  0.111185  1
  Be  Be40  1  0.810990  0.819768  0.888815  1
  Be  Be41  1  0.569047  0.810990  0.388815  1
  Be  Be42  1  0.819768  0.077825  0.388815  1
  Be  Be43  1  0.422175  0.680232  0.111185  1
  Be  Be44  1  0.689010  0.930953  0.111185  1
  Be  Be45  1  0.930953  0.422175  0.611185  1
  Be  Be46  1  0.680232  0.689010  0.611185  1
  Be  Be47  1  0.077825  0.569047  0.888815  1
  P  P48  1  0.375000  0.625000  0.750000  1
  P  P49  1  0.625000  0.375000  0.250000  1
  P  P50  1  0.125000  0.875000  0.250000  1
  P  P51  1  0.875000  0.125000  0.750000  1
  P  P52  1  0.125000  0.375000  0.250000  1
  P  P53  1  0.375000  0.125000  0.750000  1
  P  P54  1  0.875000  0.625000  0.750000  1
  P  P55  1  0.625000  0.875000  0.250000  1
  P  P56  1  0.000000  0.000000  0.000000  1
  P  P57  1  0.500000  0.000000  0.500000  1
  P  P58  1  0.000000  0.000000  0.500000  1
  P  P59  1  0.500000  0.500000  0.000000  1
  P  P60  1  0.500000  0.000000  0.000000  1
  P  P61  1  0.000000  0.500000  0.500000  1
  P  P62  1  0.500000  0.500000  0.500000  1
  P  P63  1  0.000000  0.500000  0.000000  1
  P  P64  1  0.236049  0.250000  0.500000  1
  P  P65  1  0.750000  0.236049  0.000000  1
  P  P66  1  0.250000  0.263951  0.000000  1
  P  P67  1  0.263951  0.750000  0.500000  1
  P  P68  1  0.763951  0.750000  0.500000  1
  P  P69  1  0.250000  0.763951  0.000000  1
  P  P70  1  0.750000  0.736049  0.000000  1
  P  P71  1  0.736049  0.250000  0.500000  1
  P  P72  1  0.382084  0.632084  0.250000  1
  P  P73  1  0.117916  0.382084  0.750000  1
  P  P74  1  0.632084  0.867916  0.750000  1
  P  P75  1  0.867916  0.117916  0.250000  1
  P  P76  1  0.617916  0.367916  0.750000  1
  P  P77  1  0.882084  0.617916  0.250000  1
  P  P78  1  0.367916  0.132084  0.250000  1
  P  P79  1  0.132084  0.882084  0.750000  1
