# generated using pymatgen
data_B5(H2N)2
_symmetry_space_group_name_H-M   'P 1'
_cell_length_a   6.89609963
_cell_length_b   9.48469857
_cell_length_c   9.61602576
_cell_angle_alpha   75.64395050
_cell_angle_beta   68.98739844
_cell_angle_gamma   68.68235408
_symmetry_Int_Tables_number   1
_chemical_formula_structural   B5(H2N)2
_chemical_formula_sum   'B20 H16 N8'
_cell_volume   541.93897705
_cell_formula_units_Z   4
loop_
 _symmetry_equiv_pos_site_id
 _symmetry_equiv_pos_as_xyz
  1  'x, y, z'
loop_
 _atom_site_type_symbol
 _atom_site_label
 _atom_site_symmetry_multiplicity
 _atom_site_fract_x
 _atom_site_fract_y
 _atom_site_fract_z
 _atom_site_occupancy
  H  H0  1  0.564131  0.620427  0.521353  1
  H  H1  1  0.909619  0.393114  0.977218  1
  H  H2  1  0.279951  0.106886  0.522782  1
  H  H3  1  0.100487  0.616492  0.373418  1
  H  H4  1  0.090397  0.883508  0.126582  1
  H  H5  1  0.899513  0.383508  0.626582  1
  H  H6  1  0.909603  0.116492  0.873418  1
  H  H7  1  0.668053  0.111503  0.667893  1
  H  H8  1  0.447449  0.388497  0.832107  1
  H  H9  1  0.331947  0.888497  0.332107  1
  H  H10  1  0.552551  0.611503  0.167893  1
  H  H11  1  0.294089  0.120427  0.021353  1
  H  H12  1  0.090381  0.606886  0.022782  1
  H  H13  1  0.435869  0.379573  0.478647  1
  H  H14  1  0.705911  0.879573  0.978647  1
  H  H15  1  0.720049  0.893114  0.477218  1
  B  B16  1  0.654979  0.664229  0.206725  1
  B  B17  1  0.270098  0.169548  0.899599  1
  B  B18  1  0.729902  0.830452  0.100401  1
  B  B19  1  0.660755  0.669548  0.399599  1
  B  B20  1  0.525932  0.835771  0.293275  1
  B  B21  1  0.345021  0.335771  0.793275  1
  B  B22  1  0.317318  0.046109  0.782289  1
  B  B23  1  0.948129  0.662211  0.127286  1
  B  B24  1  0.737626  0.837789  0.372714  1
  B  B25  1  0.051871  0.337789  0.872714  1
  B  B26  1  0.262374  0.162211  0.627286  1
  B  B27  1  0.953594  0.667125  0.319559  1
  B  B28  1  0.940278  0.832875  0.180441  1
  B  B29  1  0.046406  0.332875  0.680441  1
  B  B30  1  0.059722  0.167125  0.819559  1
  B  B31  1  0.854284  0.546109  0.282289  1
  B  B32  1  0.682682  0.953891  0.217711  1
  B  B33  1  0.145716  0.453891  0.717711  1
  B  B34  1  0.339245  0.330452  0.600401  1
  B  B35  1  0.474068  0.164229  0.706725  1
  N  N36  1  0.969202  0.253087  0.326497  1
  N  N37  1  0.548785  0.246913  0.173503  1
  N  N38  1  0.030798  0.746913  0.673503  1
  N  N39  1  0.451215  0.753087  0.826497  1
  N  N40  1  0.919996  0.381595  0.307467  1
  N  N41  1  0.080004  0.618405  0.692533  1
  N  N42  1  0.390942  0.881595  0.807467  1
  N  N43  1  0.609058  0.118405  0.192533  1
