# generated using pymatgen
data_B2PCl2
_symmetry_space_group_name_H-M   'P 1'
_cell_length_a   6.51049950
_cell_length_b   13.27109368
_cell_length_c   24.83441334
_cell_angle_alpha   90.00000000
_cell_angle_beta   90.00000000
_cell_angle_gamma   90.00000000
_symmetry_Int_Tables_number   1
_chemical_formula_structural   B2PCl2
_chemical_formula_sum   'B32 P16 Cl32'
_cell_volume   2145.72929188
_cell_formula_units_Z   16
loop_
 _symmetry_equiv_pos_site_id
 _symmetry_equiv_pos_as_xyz
  1  'x, y, z'
loop_
 _atom_site_type_symbol
 _atom_site_label
 _atom_site_symmetry_multiplicity
 _atom_site_fract_x
 _atom_site_fract_y
 _atom_site_fract_z
 _atom_site_occupancy
  B  B0  1  0.610346  0.858407  0.408538  1
  B  B1  1  0.610346  0.641593  0.591462  1
  B  B2  1  0.889654  0.358407  0.091462  1
  B  B3  1  0.889654  0.141593  0.908538  1
  B  B4  1  0.389654  0.141593  0.591462  1
  B  B5  1  0.389654  0.358407  0.408538  1
  B  B6  1  0.110346  0.641593  0.908538  1
  B  B7  1  0.110346  0.858407  0.091462  1
  B  B8  1  0.405424  0.774432  0.397877  1
  B  B9  1  0.405424  0.725568  0.602123  1
  B  B10  1  0.094576  0.274432  0.102123  1
  B  B11  1  0.094576  0.225568  0.897877  1
  B  B12  1  0.594576  0.225568  0.602123  1
  B  B13  1  0.594576  0.274432  0.397877  1
  B  B14  1  0.905424  0.725568  0.897877  1
  B  B15  1  0.905424  0.774432  0.102123  1
  B  B16  1  0.614450  0.781347  0.353657  1
  B  B17  1  0.614450  0.718653  0.646343  1
  B  B18  1  0.885550  0.281347  0.146343  1
  B  B19  1  0.885550  0.218653  0.853657  1
  B  B20  1  0.385550  0.218653  0.646343  1
  B  B21  1  0.385550  0.281347  0.353657  1
  B  B22  1  0.114450  0.718653  0.853657  1
  B  B23  1  0.114450  0.781347  0.146343  1
  B  B24  1  0.582549  0.911067  0.344037  1
  B  B25  1  0.582549  0.588933  0.655963  1
  B  B26  1  0.917451  0.411067  0.155963  1
  B  B27  1  0.917451  0.088933  0.844037  1
  B  B28  1  0.417451  0.088933  0.655963  1
  B  B29  1  0.417451  0.411067  0.344037  1
  B  B30  1  0.082549  0.588933  0.844037  1
  B  B31  1  0.082549  0.911067  0.155963  1
  P  P32  1  0.342385  0.823111  0.322164  1
  P  P33  1  0.342385  0.676889  0.677836  1
  P  P34  1  0.157615  0.323111  0.177836  1
  P  P35  1  0.157615  0.176889  0.822164  1
  P  P36  1  0.657615  0.176889  0.677836  1
  P  P37  1  0.657615  0.323111  0.322164  1
  P  P38  1  0.842385  0.676889  0.822164  1
  P  P39  1  0.842385  0.823111  0.177836  1
  P  P40  1  0.337272  0.924066  0.393984  1
  P  P41  1  0.337272  0.575934  0.606016  1
  P  P42  1  0.162728  0.424066  0.106016  1
  P  P43  1  0.162728  0.075934  0.893984  1
  P  P44  1  0.662728  0.075934  0.606016  1
  P  P45  1  0.662728  0.424066  0.393984  1
  P  P46  1  0.837272  0.575934  0.893984  1
  P  P47  1  0.837272  0.924066  0.106016  1
  Cl  Cl48  1  0.777892  0.881510  0.462286  1
  Cl  Cl49  1  0.777892  0.618490  0.537714  1
  Cl  Cl50  1  0.722108  0.381510  0.037714  1
  Cl  Cl51  1  0.722108  0.118490  0.962286  1
  Cl  Cl52  1  0.222108  0.118490  0.537714  1
  Cl  Cl53  1  0.222108  0.381510  0.462286  1
  Cl  Cl54  1  0.277892  0.618490  0.962286  1
  Cl  Cl55  1  0.277892  0.881510  0.037714  1
  Cl  Cl56  1  0.286563  0.678009  0.434462  1
  Cl  Cl57  1  0.286563  0.821991  0.565538  1
  Cl  Cl58  1  0.213437  0.178009  0.065538  1
  Cl  Cl59  1  0.213437  0.321991  0.934462  1
  Cl  Cl60  1  0.713437  0.321991  0.565538  1
  Cl  Cl61  1  0.713437  0.178009  0.434462  1
  Cl  Cl62  1  0.786563  0.821991  0.934462  1
  Cl  Cl63  1  0.786563  0.678009  0.065538  1
  Cl  Cl64  1  0.788820  0.692685  0.327964  1
  Cl  Cl65  1  0.788820  0.807315  0.672036  1
  Cl  Cl66  1  0.711180  0.192685  0.172036  1
  Cl  Cl67  1  0.711180  0.307315  0.827964  1
  Cl  Cl68  1  0.211180  0.307315  0.672036  1
  Cl  Cl69  1  0.211180  0.192685  0.327964  1
  Cl  Cl70  1  0.288820  0.807315  0.827964  1
  Cl  Cl71  1  0.288820  0.692685  0.172036  1
  Cl  Cl72  1  0.713503  0.002771  0.306445  1
  Cl  Cl73  1  0.713503  0.497229  0.693555  1
  Cl  Cl74  1  0.786497  0.502771  0.193555  1
  Cl  Cl75  1  0.786497  0.997229  0.806445  1
  Cl  Cl76  1  0.286497  0.997229  0.693555  1
  Cl  Cl77  1  0.286497  0.502771  0.306445  1
  Cl  Cl78  1  0.213503  0.497229  0.806445  1
  Cl  Cl79  1  0.213503  0.002771  0.193555  1
