# generated using pymatgen
data_Bi2(SeO3)3
_symmetry_space_group_name_H-M   'P 1'
_cell_length_a   4.78517452
_cell_length_b   13.72754283
_cell_length_c   15.31584490
_cell_angle_alpha   115.42837596
_cell_angle_beta   90.00000000
_cell_angle_gamma   90.00000000
_symmetry_Int_Tables_number   1
_chemical_formula_structural   Bi2(SeO3)3
_chemical_formula_sum   'Bi8 Se12 O36'
_cell_volume   908.61171357
_cell_formula_units_Z   4
loop_
 _symmetry_equiv_pos_site_id
 _symmetry_equiv_pos_as_xyz
  1  'x, y, z'
loop_
 _atom_site_type_symbol
 _atom_site_label
 _atom_site_symmetry_multiplicity
 _atom_site_fract_x
 _atom_site_fract_y
 _atom_site_fract_z
 _atom_site_occupancy
  O  O0  1  0.747471  0.196114  0.010896  1
  O  O1  1  0.247471  0.303886  0.489104  1
  O  O2  1  0.252529  0.803886  0.989104  1
  O  O3  1  0.752529  0.696114  0.510896  1
  O  O4  1  0.539884  0.496163  0.294591  1
  O  O5  1  0.039884  0.003837  0.205409  1
  O  O6  1  0.460116  0.503837  0.705409  1
  O  O7  1  0.960116  0.996163  0.794591  1
  O  O8  1  0.537351  0.310939  0.300252  1
  O  O9  1  0.037351  0.189061  0.199748  1
  O  O10  1  0.462649  0.689061  0.699748  1
  O  O11  1  0.962649  0.810939  0.800252  1
  O  O12  1  0.547609  0.876755  0.433385  1
  O  O13  1  0.047609  0.623245  0.066615  1
  O  O14  1  0.452391  0.123245  0.566616  1
  O  O15  1  0.952391  0.376755  0.933384  1
  O  O16  1  0.563784  0.026725  0.683530  1
  O  O17  1  0.063784  0.473275  0.816470  1
  O  O18  1  0.436216  0.973275  0.316470  1
  O  O19  1  0.936216  0.526725  0.183530  1
  O  O20  1  0.943091  0.572043  0.658067  1
  O  O21  1  0.443091  0.927957  0.841933  1
  O  O22  1  0.056909  0.427957  0.341933  1
  O  O23  1  0.556909  0.072043  0.158067  1
  O  O24  1  0.846041  0.825660  0.282545  1
  O  O25  1  0.346041  0.674340  0.217455  1
  O  O26  1  0.153959  0.174340  0.717455  1
  O  O27  1  0.653959  0.325660  0.782545  1
  O  O28  1  0.807761  0.299351  0.589709  1
  O  O29  1  0.307761  0.200649  0.910291  1
  O  O30  1  0.192239  0.700649  0.410291  1
  O  O31  1  0.692239  0.799351  0.089709  1
  O  O32  1  0.828502  0.179111  0.391898  1
  O  O33  1  0.328502  0.320889  0.108102  1
  O  O34  1  0.171498  0.820889  0.608102  1
  O  O35  1  0.671498  0.679111  0.891898  1
  Se  Se36  1  0.710783  0.945139  0.376058  1
  Se  Se37  1  0.210783  0.554861  0.123942  1
  Se  Se38  1  0.289217  0.054861  0.623942  1
  Se  Se39  1  0.789217  0.445139  0.876058  1
  Se  Se40  1  0.615216  0.807824  0.981765  1
  Se  Se41  1  0.115216  0.692176  0.518235  1
  Se  Se42  1  0.384784  0.192176  0.018235  1
  Se  Se43  1  0.884784  0.307824  0.481765  1
  Se  Se44  1  0.591727  0.560998  0.631642  1
  Se  Se45  1  0.091727  0.939002  0.868358  1
  Se  Se46  1  0.408273  0.439002  0.368358  1
  Se  Se47  1  0.908273  0.060998  0.131642  1
  Bi  Bi48  1  0.632546  0.692565  0.344602  1
  Bi  Bi49  1  0.132546  0.807435  0.155398  1
  Bi  Bi50  1  0.367454  0.307435  0.655398  1
  Bi  Bi51  1  0.867454  0.192565  0.844602  1
  Bi  Bi52  1  0.635374  0.858349  0.690706  1
  Bi  Bi53  1  0.135374  0.641651  0.809294  1
  Bi  Bi54  1  0.364626  0.141651  0.309294  1
  Bi  Bi55  1  0.864626  0.358349  0.190706  1
