# generated using pymatgen
data_GaH18C3(N3F2)3
_symmetry_space_group_name_H-M   'P 1'
_cell_length_a   14.22982665
_cell_length_b   14.22982665
_cell_length_c   14.22982665
_cell_angle_alpha   90.00000000
_cell_angle_beta   90.00000000
_cell_angle_gamma   90.00000000
_symmetry_Int_Tables_number   1
_chemical_formula_structural   GaH18C3(N3F2)3
_chemical_formula_sum   'Ga8 H144 C24 N72 F48'
_cell_volume   2881.36866185
_cell_formula_units_Z   8
loop_
 _symmetry_equiv_pos_site_id
 _symmetry_equiv_pos_as_xyz
  1  'x, y, z'
loop_
 _atom_site_type_symbol
 _atom_site_label
 _atom_site_symmetry_multiplicity
 _atom_site_fract_x
 _atom_site_fract_y
 _atom_site_fract_z
 _atom_site_occupancy
  H  H0  1  0.897332  0.814276  0.530302  1
  H  H1  1  0.530302  0.897332  0.814276  1
  H  H2  1  0.814276  0.530302  0.897332  1
  H  H3  1  0.685724  0.469698  0.397332  1
  H  H4  1  0.030302  0.602668  0.185724  1
  H  H5  1  0.185724  0.030302  0.602668  1
  H  H6  1  0.969698  0.102668  0.314276  1
  H  H7  1  0.469698  0.397332  0.685724  1
  H  H8  1  0.314276  0.969698  0.102668  1
  H  H9  1  0.397332  0.685724  0.469698  1
  H  H10  1  0.102668  0.314276  0.969698  1
  H  H11  1  0.602668  0.185724  0.030302  1
  H  H12  1  0.102668  0.185724  0.469698  1
  H  H13  1  0.469698  0.102668  0.185724  1
  H  H14  1  0.185724  0.469698  0.102668  1
  H  H15  1  0.314276  0.530302  0.602668  1
  H  H16  1  0.969698  0.397332  0.814276  1
  H  H17  1  0.814276  0.969698  0.397332  1
  H  H18  1  0.030302  0.897332  0.685724  1
  H  H19  1  0.530302  0.602668  0.314276  1
  H  H20  1  0.685724  0.030302  0.897332  1
  H  H21  1  0.602668  0.314276  0.530302  1
  H  H22  1  0.897332  0.685724  0.030302  1
  H  H23  1  0.397332  0.814276  0.969698  1
  H  H24  1  0.898683  0.693031  0.512280  1
  H  H25  1  0.512280  0.898683  0.693031  1
  H  H26  1  0.693031  0.512280  0.898683  1
  H  H27  1  0.806969  0.487720  0.398683  1
  H  H28  1  0.012280  0.601317  0.306969  1
  H  H29  1  0.306969  0.012280  0.601317  1
  H  H30  1  0.987720  0.101317  0.193031  1
  H  H31  1  0.487720  0.398683  0.806969  1
  H  H32  1  0.193031  0.987720  0.101317  1
  H  H33  1  0.398683  0.806969  0.487720  1
  H  H34  1  0.101317  0.193031  0.987720  1
  H  H35  1  0.601317  0.306969  0.012280  1
  H  H36  1  0.101317  0.306969  0.487720  1
  H  H37  1  0.487720  0.101317  0.306969  1
  H  H38  1  0.306969  0.487720  0.101317  1
  H  H39  1  0.193031  0.512280  0.601317  1
  H  H40  1  0.987720  0.398683  0.693031  1
  H  H41  1  0.693031  0.987720  0.398683  1
  H  H42  1  0.012280  0.898683  0.806969  1
  H  H43  1  0.512280  0.601317  0.193031  1
  H  H44  1  0.806969  0.012280  0.898683  1
  H  H45  1  0.601317  0.193031  0.512280  1
  H  H46  1  0.898683  0.806969  0.012280  1
  H  H47  1  0.398683  0.693031  0.987720  1
  H  H48  1  0.648840  0.836902  0.536357  1
  H  H49  1  0.536357  0.648840  0.836902  1
  H  H50  1  0.836902  0.536357  0.648840  1
  H  H51  1  0.663098  0.463643  0.148840  1
  H  H52  1  0.036357  0.851160  0.163098  1
  H  H53  1  0.163098  0.036357  0.851160  1
  H  H54  1  0.963643  0.351160  0.336902  1
  H  H55  1  0.463643  0.148840  0.663098  1
  H  H56  1  0.336902  0.963643  0.351160  1
  H  H57  1  0.148840  0.663098  0.463643  1
  H  H58  1  0.351160  0.336902  0.963643  1
  H  H59  1  0.851160  0.163098  0.036357  1
  H  H60  1  0.351160  0.163098  0.463643  1
  H  H61  1  0.463643  0.351160  0.163098  1
  H  H62  1  0.163098  0.463643  0.351160  1
  H  H63  1  0.336902  0.536357  0.851160  1
  H  H64  1  0.963643  0.148840  0.836902  1
  H  H65  1  0.836902  0.963643  0.148840  1
  H  H66  1  0.036357  0.648840  0.663098  1
  H  H67  1  0.536357  0.851160  0.336902  1
  H  H68  1  0.663098  0.036357  0.648840  1
  H  H69  1  0.851160  0.336902  0.536357  1
  H  H70  1  0.648840  0.663098  0.036357  1
  H  H71  1  0.148840  0.836902  0.963643  1
  H  H72  1  0.758487  0.892165  0.541874  1
  H  H73  1  0.541874  0.758487  0.892165  1
  H  H74  1  0.892165  0.541874  0.758487  1
  H  H75  1  0.607835  0.458126  0.258487  1
  H  H76  1  0.041874  0.741513  0.107835  1
  H  H77  1  0.107835  0.041874  0.741513  1
  H  H78  1  0.958126  0.241513  0.392165  1
  H  H79  1  0.458126  0.258487  0.607835  1
  H  H80  1  0.392165  0.958126  0.241513  1
  H  H81  1  0.258487  0.607835  0.458126  1
  H  H82  1  0.241513  0.392165  0.958126  1
  H  H83  1  0.741513  0.107835  0.041874  1
  H  H84  1  0.241513  0.107835  0.458126  1
  H  H85  1  0.458126  0.241513  0.107835  1
  H  H86  1  0.107835  0.458126  0.241513  1
  H  H87  1  0.392165  0.541874  0.741513  1
  H  H88  1  0.958126  0.258487  0.892165  1
  H  H89  1  0.892165  0.958126  0.258487  1
  H  H90  1  0.041874  0.758487  0.607835  1
  H  H91  1  0.541874  0.741513  0.392165  1
  H  H92  1  0.607835  0.041874  0.758487  1
  H  H93  1  0.741513  0.392165  0.541874  1
  H  H94  1  0.758487  0.607835  0.041874  1
  H  H95  1  0.258487  0.892165  0.958126  1
  H  H96  1  0.650882  0.663561  0.509386  1
  H  H97  1  0.509386  0.650882  0.663561  1
  H  H98  1  0.663561  0.509386  0.650882  1
  H  H99  1  0.836439  0.490614  0.150882  1
  H  H100  1  0.009386  0.849118  0.336439  1
  H  H101  1  0.336439  0.009386  0.849118  1
  H  H102  1  0.990614  0.349118  0.163561  1
  H  H103  1  0.490614  0.150882  0.836439  1
  H  H104  1  0.163561  0.990614  0.349118  1
  H  H105  1  0.150882  0.836439  0.490614  1
  H  H106  1  0.349118  0.163561  0.990614  1
  H  H107  1  0.849118  0.336439  0.009386  1
  H  H108  1  0.349118  0.336439  0.490614  1
  H  H109  1  0.490614  0.349118  0.336439  1
  H  H110  1  0.336439  0.490614  0.349118  1
  H  H111  1  0.163561  0.509386  0.849118  1
  H  H112  1  0.990614  0.150882  0.663561  1
  H  H113  1  0.663561  0.990614  0.150882  1
  H  H114  1  0.009386  0.650882  0.836439  1
  H  H115  1  0.509386  0.849118  0.163561  1
  H  H116  1  0.836439  0.009386  0.650882  1
  H  H117  1  0.849118  0.163561  0.509386  1
  H  H118  1  0.650882  0.836439  0.009386  1
  H  H119  1  0.150882  0.663561  0.990614  1
  H  H120  1  0.762126  0.610635  0.506944  1
  H  H121  1  0.506944  0.762126  0.610635  1
  H  H122  1  0.610635  0.506944  0.762126  1
  H  H123  1  0.889365  0.493056  0.262126  1
  H  H124  1  0.006944  0.737874  0.389365  1
  H  H125  1  0.389365  0.006944  0.737874  1
  H  H126  1  0.993056  0.237874  0.110635  1
  H  H127  1  0.493056  0.262126  0.889365  1
  H  H128  1  0.110635  0.993056  0.237874  1
  H  H129  1  0.262126  0.889365  0.493056  1
  H  H130  1  0.237874  0.110635  0.993056  1
  H  H131  1  0.737874  0.389365  0.006944  1
  H  H132  1  0.237874  0.389365  0.493056  1
  H  H133  1  0.493056  0.237874  0.389365  1
  H  H134  1  0.389365  0.493056  0.237874  1
  H  H135  1  0.110635  0.506944  0.737874  1
  H  H136  1  0.993056  0.262126  0.610635  1
  H  H137  1  0.610635  0.993056  0.262126  1
  H  H138  1  0.006944  0.762126  0.889365  1
  H  H139  1  0.506944  0.737874  0.110635  1
  H  H140  1  0.889365  0.006944  0.762126  1
  H  H141  1  0.737874  0.110635  0.506944  1
  H  H142  1  0.762126  0.889365  0.006944  1
  H  H143  1  0.262126  0.610635  0.993056  1
  C  C144  1  0.767019  0.751360  0.526590  1
  C  C145  1  0.526590  0.767019  0.751360  1
  C  C146  1  0.751360  0.526590  0.767019  1
  C  C147  1  0.748640  0.473410  0.267019  1
  C  C148  1  0.026590  0.732981  0.248640  1
  C  C149  1  0.248640  0.026590  0.732981  1
  C  C150  1  0.973410  0.232981  0.251360  1
  C  C151  1  0.473410  0.267019  0.748640  1
  C  C152  1  0.251360  0.973410  0.232981  1
  C  C153  1  0.267019  0.748640  0.473410  1
  C  C154  1  0.232981  0.251360  0.973410  1
  C  C155  1  0.732981  0.248640  0.026590  1
  C  C156  1  0.232981  0.248640  0.473410  1
  C  C157  1  0.473410  0.232981  0.248640  1
  C  C158  1  0.248640  0.473410  0.232981  1
  C  C159  1  0.251360  0.526590  0.732981  1
  C  C160  1  0.973410  0.267019  0.751360  1
  C  C161  1  0.751360  0.973410  0.267019  1
  C  C162  1  0.026590  0.767019  0.748640  1
  C  C163  1  0.526590  0.732981  0.251360  1
  C  C164  1  0.748640  0.026590  0.767019  1
  C  C165  1  0.732981  0.251360  0.526590  1
  C  C166  1  0.767019  0.748640  0.026590  1
  C  C167  1  0.267019  0.751360  0.973410  1
  N  N168  1  0.861106  0.752794  0.524339  1
  N  N169  1  0.524339  0.861106  0.752794  1
  N  N170  1  0.752794  0.524339  0.861106  1
  N  N171  1  0.747206  0.475661  0.361106  1
  N  N172  1  0.024339  0.638894  0.247206  1
  N  N173  1  0.247206  0.024339  0.638894  1
  N  N174  1  0.975661  0.138894  0.252794  1
  N  N175  1  0.475661  0.361106  0.747206  1
  N  N176  1  0.252794  0.975661  0.138894  1
  N  N177  1  0.361106  0.747206  0.475661  1
  N  N178  1  0.138894  0.252794  0.975661  1
  N  N179  1  0.638894  0.247206  0.024339  1
  N  N180  1  0.138894  0.247206  0.475661  1
  N  N181  1  0.475661  0.138894  0.247206  1
  N  N182  1  0.247206  0.475661  0.138894  1
  N  N183  1  0.252794  0.524339  0.638894  1
  N  N184  1  0.975661  0.361106  0.752794  1
  N  N185  1  0.752794  0.975661  0.361106  1
  N  N186  1  0.024339  0.861106  0.747206  1
  N  N187  1  0.524339  0.638894  0.252794  1
  N  N188  1  0.747206  0.024339  0.861106  1
  N  N189  1  0.638894  0.252794  0.524339  1
  N  N190  1  0.861106  0.747206  0.024339  1
  N  N191  1  0.361106  0.752794  0.975661  1
  N  N192  1  0.720391  0.831612  0.541724  1
  N  N193  1  0.541724  0.720391  0.831612  1
  N  N194  1  0.831612  0.541724  0.720391  1
  N  N195  1  0.668388  0.458276  0.220391  1
  N  N196  1  0.041724  0.779609  0.168388  1
  N  N197  1  0.168388  0.041724  0.779609  1
  N  N198  1  0.958276  0.279609  0.331612  1
  N  N199  1  0.458276  0.220391  0.668388  1
  N  N200  1  0.331612  0.958276  0.279609  1
  N  N201  1  0.220391  0.668388  0.458276  1
  N  N202  1  0.279609  0.331612  0.958276  1
  N  N203  1  0.779609  0.168388  0.041724  1
  N  N204  1  0.279609  0.168388  0.458276  1
  N  N205  1  0.458276  0.279609  0.168388  1
  N  N206  1  0.168388  0.458276  0.279609  1
  N  N207  1  0.331612  0.541724  0.779609  1
  N  N208  1  0.958276  0.220391  0.831612  1
  N  N209  1  0.831612  0.958276  0.220391  1
  N  N210  1  0.041724  0.720391  0.668388  1
  N  N211  1  0.541724  0.779609  0.331612  1
  N  N212  1  0.668388  0.041724  0.720391  1
  N  N213  1  0.779609  0.331612  0.541724  1
  N  N214  1  0.720391  0.668388  0.041724  1
  N  N215  1  0.220391  0.831612  0.958276  1
  N  N216  1  0.722335  0.669548  0.515478  1
  N  N217  1  0.515478  0.722335  0.669548  1
  N  N218  1  0.669548  0.515478  0.722335  1
  N  N219  1  0.830452  0.484522  0.222335  1
  N  N220  1  0.015478  0.777665  0.330452  1
  N  N221  1  0.330452  0.015478  0.777665  1
  N  N222  1  0.984522  0.277665  0.169548  1
  N  N223  1  0.484522  0.222335  0.830452  1
  N  N224  1  0.169548  0.984522  0.277665  1
  N  N225  1  0.222335  0.830452  0.484522  1
  N  N226  1  0.277665  0.169548  0.984522  1
  N  N227  1  0.777665  0.330452  0.015478  1
  N  N228  1  0.277665  0.330452  0.484522  1
  N  N229  1  0.484522  0.277665  0.330452  1
  N  N230  1  0.330452  0.484522  0.277665  1
  N  N231  1  0.169548  0.515478  0.777665  1
  N  N232  1  0.984522  0.222335  0.669548  1
  N  N233  1  0.669548  0.984522  0.222335  1
  N  N234  1  0.015478  0.722335  0.830452  1
  N  N235  1  0.515478  0.777665  0.169548  1
  N  N236  1  0.830452  0.015478  0.722335  1
  N  N237  1  0.777665  0.169548  0.515478  1
  N  N238  1  0.722335  0.830452  0.015478  1
  N  N239  1  0.222335  0.669548  0.984522  1
  F  F240  1  0.030422  0.630324  0.026135  1
  F  F241  1  0.026135  0.030422  0.630324  1
  F  F242  1  0.630324  0.026135  0.030422  1
  F  F243  1  0.869676  0.973865  0.530422  1
  F  F244  1  0.526135  0.469578  0.369676  1
  F  F245  1  0.369676  0.526135  0.469578  1
  F  F246  1  0.473865  0.969578  0.130324  1
  F  F247  1  0.973865  0.530422  0.869676  1
  F  F248  1  0.130324  0.473865  0.969578  1
  F  F249  1  0.530422  0.869676  0.973865  1
  F  F250  1  0.969578  0.130324  0.473865  1
  F  F251  1  0.469578  0.369676  0.526135  1
  F  F252  1  0.969578  0.369676  0.973865  1
  F  F253  1  0.973865  0.969578  0.369676  1
  F  F254  1  0.369676  0.973865  0.969578  1
  F  F255  1  0.130324  0.026135  0.469578  1
  F  F256  1  0.473865  0.530422  0.630324  1
  F  F257  1  0.630324  0.473865  0.530422  1
  F  F258  1  0.526135  0.030422  0.869676  1
  F  F259  1  0.026135  0.469578  0.130324  1
  F  F260  1  0.869676  0.526135  0.030422  1
  F  F261  1  0.469578  0.130324  0.026135  1
  F  F262  1  0.030422  0.869676  0.526135  1
  F  F263  1  0.530422  0.630324  0.473865  1
  F  F264  1  0.021453  0.631863  0.472579  1
  F  F265  1  0.472579  0.021453  0.631863  1
  F  F266  1  0.631863  0.472579  0.021453  1
  F  F267  1  0.868137  0.527421  0.521453  1
  F  F268  1  0.972579  0.478547  0.368137  1
  F  F269  1  0.368137  0.972579  0.478547  1
  F  F270  1  0.027421  0.978547  0.131863  1
  F  F271  1  0.527421  0.521453  0.868137  1
  F  F272  1  0.131863  0.027421  0.978547  1
  F  F273  1  0.521453  0.868137  0.527421  1
  F  F274  1  0.978547  0.131863  0.027421  1
  F  F275  1  0.478547  0.368137  0.972579  1
  F  F276  1  0.978547  0.368137  0.527421  1
  F  F277  1  0.527421  0.978547  0.368137  1
  F  F278  1  0.368137  0.527421  0.978547  1
  F  F279  1  0.131863  0.472579  0.478547  1
  F  F280  1  0.027421  0.521453  0.631863  1
  F  F281  1  0.631863  0.027421  0.521453  1
  F  F282  1  0.972579  0.021453  0.868137  1
  F  F283  1  0.472579  0.478547  0.131863  1
  F  F284  1  0.868137  0.972579  0.021453  1
  F  F285  1  0.478547  0.131863  0.472579  1
  F  F286  1  0.021453  0.868137  0.972579  1
  F  F287  1  0.521453  0.631863  0.027421  1
  Ga  Ga288  1  0.000000  0.500000  0.000000  1
  Ga  Ga289  1  0.000000  0.000000  0.500000  1
  Ga  Ga290  1  0.500000  0.000000  0.000000  1
  Ga  Ga291  1  0.500000  0.500000  0.500000  1
  Ga  Ga292  1  0.000000  0.500000  0.500000  1
  Ga  Ga293  1  0.500000  0.000000  0.500000  1
  Ga  Ga294  1  0.500000  0.500000  0.000000  1
  Ga  Ga295  1  0.000000  0.000000  0.000000  1
