# generated using pymatgen
data_CrCoH18(CN2)6
_symmetry_space_group_name_H-M   'P 1'
_cell_length_a   7.41601102
_cell_length_b   7.41601102
_cell_length_c   7.41601102
_cell_angle_alpha   97.23595281
_cell_angle_beta   97.23595286
_cell_angle_gamma   97.23595280
_symmetry_Int_Tables_number   1
_chemical_formula_structural   CrCoH18(CN2)6
_chemical_formula_sum   'Cr1 Co1 H18 C6 N12'
_cell_volume   397.19969942
_cell_formula_units_Z   1
loop_
 _symmetry_equiv_pos_site_id
 _symmetry_equiv_pos_as_xyz
  1  'x, y, z'
loop_
 _atom_site_type_symbol
 _atom_site_label
 _atom_site_symmetry_multiplicity
 _atom_site_fract_x
 _atom_site_fract_y
 _atom_site_fract_z
 _atom_site_occupancy
  H  H0  1  0.442818  0.641042  0.201798  1
  H  H1  1  0.641042  0.201798  0.442818  1
  H  H2  1  0.201798  0.442818  0.641042  1
  H  H3  1  0.557182  0.358958  0.798202  1
  H  H4  1  0.358958  0.798202  0.557182  1
  H  H5  1  0.798202  0.557182  0.358958  1
  H  H6  1  0.313373  0.439351  0.177309  1
  H  H7  1  0.439351  0.177309  0.313373  1
  H  H8  1  0.177309  0.313373  0.439351  1
  H  H9  1  0.686627  0.560649  0.822691  1
  H  H10  1  0.560649  0.822691  0.686627  1
  H  H11  1  0.822691  0.686627  0.560649  1
  H  H12  1  0.252017  0.619241  0.294497  1
  H  H13  1  0.619241  0.294497  0.252017  1
  H  H14  1  0.747983  0.380759  0.705503  1
  H  H15  1  0.380759  0.705503  0.747983  1
  H  H16  1  0.705503  0.747983  0.380759  1
  H  H17  1  0.294497  0.252017  0.619241  1
  C  C18  1  0.052674  0.755737  0.871517  1
  C  C19  1  0.871517  0.052674  0.755737  1
  C  C20  1  0.128483  0.947326  0.244262  1
  C  C21  1  0.947326  0.244262  0.128483  1
  C  C22  1  0.244262  0.128483  0.947326  1
  C  C23  1  0.755737  0.871517  0.052674  1
  N  N24  1  0.363142  0.554887  0.270233  1
  N  N25  1  0.554887  0.270233  0.363142  1
  N  N26  1  0.270233  0.363142  0.554887  1
  N  N27  1  0.636858  0.445113  0.729767  1
  N  N28  1  0.445113  0.729767  0.636858  1
  N  N29  1  0.729767  0.636858  0.445113  1
  N  N30  1  0.791848  0.081291  0.617155  1
  N  N31  1  0.081291  0.617155  0.791848  1
  N  N32  1  0.617155  0.791848  0.081291  1
  N  N33  1  0.208152  0.918709  0.382845  1
  N  N34  1  0.918709  0.382845  0.208152  1
  N  N35  1  0.382845  0.208152  0.918709  1
  Cr  Cr36  1  0.000000  0.000000  0.000000  1
  Co  Co37  1  0.500000  0.500000  0.500000  1
