# generated using pymatgen
data_K2AlH2OF5
_symmetry_space_group_name_H-M   'P 1'
_cell_length_a   6.21366962
_cell_length_b   6.21724866
_cell_length_c   7.60903589
_cell_angle_alpha   90.00000000
_cell_angle_beta   90.00000000
_cell_angle_gamma   98.60200349
_symmetry_Int_Tables_number   1
_chemical_formula_structural   K2AlH2OF5
_chemical_formula_sum   'K4 Al2 H4 O2 F10'
_cell_volume   290.64511656
_cell_formula_units_Z   2
loop_
 _symmetry_equiv_pos_site_id
 _symmetry_equiv_pos_as_xyz
  1  'x, y, z'
loop_
 _atom_site_type_symbol
 _atom_site_label
 _atom_site_symmetry_multiplicity
 _atom_site_fract_x
 _atom_site_fract_y
 _atom_site_fract_z
 _atom_site_occupancy
  H  H0  1  0.608885  0.607918  0.148075  1
  H  H1  1  0.391115  0.392082  0.648075  1
  H  H2  1  0.391115  0.392082  0.851925  1
  H  H3  1  0.608885  0.607918  0.351925  1
  O  O4  1  0.533710  0.532873  0.250000  1
  O  O5  1  0.466290  0.467127  0.750000  1
  F  F6  1  0.995005  0.994703  0.750000  1
  F  F7  1  0.004995  0.005297  0.250000  1
  F  F8  1  0.191469  0.808630  0.000157  1
  F  F9  1  0.808531  0.191370  0.500157  1
  F  F10  1  0.808531  0.191370  0.999843  1
  F  F11  1  0.191469  0.808630  0.499843  1
  F  F12  1  0.776208  0.776362  0.002286  1
  F  F13  1  0.223792  0.223638  0.502286  1
  F  F14  1  0.223792  0.223638  0.997714  1
  F  F15  1  0.776208  0.776362  0.497714  1
  Al  Al16  1  0.000000  0.000000  0.500000  1
  Al  Al17  1  0.000000  0.000000  0.000000  1
  K  K18  1  0.498009  0.076145  0.250000  1
  K  K19  1  0.501991  0.923855  0.750000  1
  K  K20  1  0.076983  0.497766  0.250000  1
  K  K21  1  0.923017  0.502234  0.750000  1
