# generated using pymatgen
data_K2FeCo(CN)6
_symmetry_space_group_name_H-M   'P 1'
_cell_length_a   7.12626238
_cell_length_b   7.12626238
_cell_length_c   7.12626238
_cell_angle_alpha   60.00000001
_cell_angle_beta   60.00000002
_cell_angle_gamma   60.00000003
_symmetry_Int_Tables_number   1
_chemical_formula_structural   K2FeCo(CN)6
_chemical_formula_sum   'K2 Fe1 Co1 C6 N6'
_cell_volume   255.90008380
_cell_formula_units_Z   1
loop_
 _symmetry_equiv_pos_site_id
 _symmetry_equiv_pos_as_xyz
  1  'x, y, z'
loop_
 _atom_site_type_symbol
 _atom_site_label
 _atom_site_symmetry_multiplicity
 _atom_site_fract_x
 _atom_site_fract_y
 _atom_site_fract_z
 _atom_site_occupancy
  C  C0  1  0.186816  0.813184  0.186816  1
  C  C1  1  0.813184  0.186816  0.813184  1
  C  C2  1  0.186816  0.813184  0.813184  1
  C  C3  1  0.813184  0.813184  0.186816  1
  C  C4  1  0.813184  0.186816  0.186816  1
  C  C5  1  0.186816  0.186816  0.813184  1
  N  N6  1  0.696067  0.696067  0.303933  1
  N  N7  1  0.303933  0.696067  0.696067  1
  N  N8  1  0.696067  0.303933  0.696067  1
  N  N9  1  0.303933  0.696067  0.303933  1
  N  N10  1  0.696067  0.303933  0.303933  1
  N  N11  1  0.303933  0.303933  0.696067  1
  K  K12  1  0.250000  0.250000  0.250000  1
  K  K13  1  0.750000  0.750000  0.750000  1
  Fe  Fe14  1  0.000000  0.000000  0.000000  1
  Co  Co15  1  0.500000  0.500000  0.500000  1
