# generated using pymatgen
data_CsFeP2O7
_symmetry_space_group_name_H-M   'P 1'
_cell_length_a   7.80643977
_cell_length_b   8.51152229
_cell_length_c   10.10894089
_cell_angle_alpha   90.00000000
_cell_angle_beta   90.00000000
_cell_angle_gamma   104.95419387
_symmetry_Int_Tables_number   1
_chemical_formula_structural   CsFeP2O7
_chemical_formula_sum   'Cs4 Fe4 P8 O28'
_cell_volume   648.93705552
_cell_formula_units_Z   4
loop_
 _symmetry_equiv_pos_site_id
 _symmetry_equiv_pos_as_xyz
  1  'x, y, z'
loop_
 _atom_site_type_symbol
 _atom_site_label
 _atom_site_symmetry_multiplicity
 _atom_site_fract_x
 _atom_site_fract_y
 _atom_site_fract_z
 _atom_site_occupancy
  O  O0  1  0.067862  0.267703  0.728602  1
  O  O1  1  0.932139  0.232297  0.228602  1
  O  O2  1  0.932139  0.732297  0.271398  1
  O  O3  1  0.067861  0.767703  0.771398  1
  O  O4  1  0.891094  0.271307  0.934408  1
  O  O5  1  0.108906  0.228694  0.434408  1
  O  O6  1  0.108907  0.728694  0.065592  1
  O  O7  1  0.891094  0.771307  0.565592  1
  O  O8  1  0.179636  0.494400  0.899870  1
  O  O9  1  0.820364  0.005599  0.399870  1
  O  O10  1  0.820364  0.505599  0.100130  1
  O  O11  1  0.179635  0.994400  0.600130  1
  O  O12  1  0.814530  0.793440  0.045724  1
  O  O13  1  0.185470  0.706561  0.545724  1
  O  O14  1  0.185470  0.206561  0.954276  1
  O  O15  1  0.814530  0.293440  0.454276  1
  O  O16  1  0.485969  0.235242  0.499055  1
  O  O17  1  0.514032  0.264758  0.999055  1
  O  O18  1  0.514032  0.764758  0.500945  1
  O  O19  1  0.485967  0.735242  0.000945  1
  O  O20  1  0.593234  0.269874  0.264558  1
  O  O21  1  0.406766  0.230125  0.764558  1
  O  O22  1  0.659868  0.015724  0.080794  1
  O  O23  1  0.593234  0.769874  0.235442  1
  O  O24  1  0.659868  0.515724  0.419206  1
  O  O25  1  0.340133  0.984277  0.919206  1
  O  O26  1  0.340133  0.484277  0.580794  1
  O  O27  1  0.406766  0.730125  0.735442  1
  P  P28  1  0.077646  0.318931  0.874838  1
  P  P29  1  0.922354  0.181068  0.374838  1
  P  P30  1  0.922353  0.681068  0.125162  1
  P  P31  1  0.077647  0.818931  0.625162  1
  P  P32  1  0.630519  0.833495  0.093096  1
  P  P33  1  0.630519  0.333495  0.406904  1
  P  P34  1  0.369482  0.166505  0.906904  1
  P  P35  1  0.369481  0.666505  0.593096  1
  Fe  Fe36  1  0.740587  0.757976  0.398860  1
  Fe  Fe37  1  0.259414  0.242025  0.601140  1
  Fe  Fe38  1  0.259413  0.742025  0.898860  1
  Fe  Fe39  1  0.740587  0.257976  0.101140  1
  Cs  Cs40  1  0.301906  0.461643  0.205713  1
  Cs  Cs41  1  0.698093  0.038358  0.705713  1
  Cs  Cs42  1  0.698093  0.538358  0.794287  1
  Cs  Cs43  1  0.301906  0.961643  0.294287  1
