# generated using pymatgen
data_KEuGeS4
_symmetry_space_group_name_H-M   'P 1'
_cell_length_a   6.77724165
_cell_length_b   6.67436636
_cell_length_c   8.90593405
_cell_angle_alpha   90.00000000
_cell_angle_beta   107.72550296
_cell_angle_gamma   90.00000000
_symmetry_Int_Tables_number   1
_chemical_formula_structural   KEuGeS4
_chemical_formula_sum   'K2 Eu2 Ge2 S8'
_cell_volume   383.72434486
_cell_formula_units_Z   2
loop_
 _symmetry_equiv_pos_site_id
 _symmetry_equiv_pos_as_xyz
  1  'x, y, z'
loop_
 _atom_site_type_symbol
 _atom_site_label
 _atom_site_symmetry_multiplicity
 _atom_site_fract_x
 _atom_site_fract_y
 _atom_site_fract_z
 _atom_site_occupancy
  S  S0  1  0.925221  0.054577  0.066994  1
  S  S1  1  0.074779  0.554577  0.933006  1
  S  S2  1  0.081803  0.502574  0.337604  1
  S  S3  1  0.918197  0.002574  0.662396  1
  S  S4  1  0.521974  0.729271  0.790741  1
  S  S5  1  0.478026  0.229271  0.209259  1
  S  S6  1  0.479297  0.238200  0.773217  1
  S  S7  1  0.520703  0.738200  0.226783  1
  K  K8  1  0.767167  0.483575  0.563924  1
  K  K9  1  0.232833  0.983575  0.436076  1
  Ge  Ge10  1  0.275977  0.500556  0.179459  1
  Ge  Ge11  1  0.724023  0.000556  0.820541  1
  Eu  Eu12  1  0.731806  0.459226  0.055152  1
  Eu  Eu13  1  0.268194  0.959226  0.944848  1
