# generated using pymatgen
data_ZnH2SeO5
_symmetry_space_group_name_H-M   'P 1'
_cell_length_a   5.41962496
_cell_length_b   5.41962496
_cell_length_c   7.75987476
_cell_angle_alpha   106.36164495
_cell_angle_beta   106.36164493
_cell_angle_gamma   98.59556447
_symmetry_Int_Tables_number   1
_chemical_formula_structural   ZnH2SeO5
_chemical_formula_sum   'Zn2 H4 Se2 O10'
_cell_volume   203.25456399
_cell_formula_units_Z   2
loop_
 _symmetry_equiv_pos_site_id
 _symmetry_equiv_pos_as_xyz
  1  'x, y, z'
loop_
 _atom_site_type_symbol
 _atom_site_label
 _atom_site_symmetry_multiplicity
 _atom_site_fract_x
 _atom_site_fract_y
 _atom_site_fract_z
 _atom_site_occupancy
  H  H0  1  0.635341  0.032105  0.204093  1
  H  H1  1  0.467895  0.864659  0.295907  1
  H  H2  1  0.364659  0.967895  0.795907  1
  H  H3  1  0.532105  0.135341  0.704093  1
  O  O4  1  0.810486  0.716545  0.579125  1
  O  O5  1  0.783455  0.689514  0.920875  1
  O  O6  1  0.189514  0.283455  0.420875  1
  O  O7  1  0.216545  0.310486  0.079125  1
  O  O8  1  0.246879  0.687180  0.845041  1
  O  O9  1  0.812820  0.253121  0.654959  1
  O  O10  1  0.753121  0.312820  0.154959  1
  O  O11  1  0.187180  0.746879  0.345041  1
  O  O12  1  0.376727  0.123273  0.750000  1
  O  O13  1  0.623273  0.876727  0.250000  1
  Zn  Zn14  1  0.500000  0.500000  0.000000  1
  Zn  Zn15  1  0.000000  0.000000  0.500000  1
  Se  Se16  1  0.912681  0.587319  0.750000  1
  Se  Se17  1  0.087319  0.412681  0.250000  1
