# generated using pymatgen
data_GdAl7Au3
_symmetry_space_group_name_H-M   'P 1'
_cell_length_a   8.47567112
_cell_length_b   8.47567112
_cell_length_c   8.47567112
_cell_angle_alpha   57.24149883
_cell_angle_beta   57.24149887
_cell_angle_gamma   57.24149881
_symmetry_Int_Tables_number   1
_chemical_formula_structural   GdAl7Au3
_chemical_formula_sum   'Gd2 Al14 Au6'
_cell_volume   403.18291390
_cell_formula_units_Z   2
loop_
 _symmetry_equiv_pos_site_id
 _symmetry_equiv_pos_as_xyz
  1  'x, y, z'
loop_
 _atom_site_type_symbol
 _atom_site_label
 _atom_site_symmetry_multiplicity
 _atom_site_fract_x
 _atom_site_fract_y
 _atom_site_fract_z
 _atom_site_occupancy
  Al  Al0  1  0.647259  0.430277  0.832503  1
  Al  Al1  1  0.430277  0.832503  0.647259  1
  Al  Al2  1  0.832503  0.647259  0.430277  1
  Al  Al3  1  0.667497  0.069723  0.852741  1
  Al  Al4  1  0.069723  0.852741  0.667497  1
  Al  Al5  1  0.852741  0.667497  0.069723  1
  Al  Al6  1  0.352741  0.569723  0.167497  1
  Al  Al7  1  0.569723  0.167497  0.352741  1
  Al  Al8  1  0.250000  0.250000  0.250000  1
  Al  Al9  1  0.750000  0.750000  0.750000  1
  Al  Al10  1  0.147259  0.332503  0.930277  1
  Al  Al11  1  0.930277  0.147259  0.332503  1
  Al  Al12  1  0.332503  0.930277  0.147259  1
  Al  Al13  1  0.167497  0.352741  0.569723  1
  Gd  Gd14  1  0.500000  0.500000  0.500000  1
  Gd  Gd15  1  0.000000  0.000000  0.000000  1
  Au  Au16  1  0.072747  0.750000  0.427253  1
  Au  Au17  1  0.750000  0.427253  0.072747  1
  Au  Au18  1  0.427253  0.072747  0.750000  1
  Au  Au19  1  0.927253  0.250000  0.572747  1
  Au  Au20  1  0.250000  0.572747  0.927253  1
  Au  Au21  1  0.572747  0.927253  0.250000  1
