# generated using pymatgen
data_Bi2(PO4)3
_symmetry_space_group_name_H-M   'P 1'
_cell_length_a   9.14101799
_cell_length_b   12.59667337
_cell_length_c   9.12076589
_cell_angle_alpha   90.00000000
_cell_angle_beta   90.00000000
_cell_angle_gamma   90.69513406
_symmetry_Int_Tables_number   1
_chemical_formula_structural   Bi2(PO4)3
_chemical_formula_sum   'Bi8 P12 O48'
_cell_volume   1050.14622774
_cell_formula_units_Z   4
loop_
 _symmetry_equiv_pos_site_id
 _symmetry_equiv_pos_as_xyz
  1  'x, y, z'
loop_
 _atom_site_type_symbol
 _atom_site_label
 _atom_site_symmetry_multiplicity
 _atom_site_fract_x
 _atom_site_fract_y
 _atom_site_fract_z
 _atom_site_occupancy
  Bi  Bi0  1  0.749860  0.881297  0.537806  1
  Bi  Bi1  1  0.750140  0.618703  0.037806  1
  Bi  Bi2  1  0.249223  0.878449  0.042068  1
  Bi  Bi3  1  0.249860  0.381297  0.962194  1
  Bi  Bi4  1  0.250140  0.118703  0.462194  1
  Bi  Bi5  1  0.749223  0.378449  0.457932  1
  Bi  Bi6  1  0.750777  0.121551  0.957932  1
  Bi  Bi7  1  0.250777  0.621551  0.542068  1
  P  P8  1  0.099026  0.148246  0.106594  1
  P  P9  1  0.460958  0.001535  0.747586  1
  P  P10  1  0.402170  0.652858  0.888292  1
  P  P11  1  0.902170  0.152858  0.611708  1
  P  P12  1  0.539042  0.998465  0.252414  1
  P  P13  1  0.960958  0.501535  0.752414  1
  P  P14  1  0.599026  0.648246  0.393406  1
  P  P15  1  0.400974  0.351754  0.606594  1
  P  P16  1  0.900974  0.851754  0.893406  1
  P  P17  1  0.597830  0.347142  0.111708  1
  P  P18  1  0.097830  0.847142  0.388292  1
  P  P19  1  0.039042  0.498465  0.247586  1
  O  O20  1  0.428151  0.659341  0.384927  1
  O  O21  1  0.071849  0.840659  0.884927  1
  O  O22  1  0.663117  0.717846  0.518676  1
  O  O23  1  0.095883  0.576210  0.367214  1
  O  O24  1  0.141081  0.033613  0.071684  1
  O  O25  1  0.667442  0.937107  0.320244  1
  O  O26  1  0.365711  0.534988  0.909009  1
  O  O27  1  0.641081  0.533613  0.428316  1
  O  O28  1  0.332558  0.062893  0.679756  1
  O  O29  1  0.138689  0.805798  0.232735  1
  O  O30  1  0.336883  0.282154  0.481324  1
  O  O31  1  0.571849  0.340659  0.615073  1
  O  O32  1  0.964619  0.571187  0.133913  1
  O  O33  1  0.035381  0.428813  0.866087  1
  O  O34  1  0.404117  0.923790  0.867214  1
  O  O35  1  0.836883  0.782154  0.018676  1
  O  O36  1  0.434072  0.910739  0.191893  1
  O  O37  1  0.358919  0.466387  0.571684  1
  O  O38  1  0.179907  0.785287  0.510854  1
  O  O39  1  0.065928  0.589261  0.691893  1
  O  O40  1  0.934072  0.410739  0.308107  1
  O  O41  1  0.565928  0.089261  0.808107  1
  O  O42  1  0.347731  0.311723  0.757902  1
  O  O43  1  0.595883  0.076210  0.132786  1
  O  O44  1  0.361310  0.694202  0.732735  1
  O  O45  1  0.152269  0.188277  0.257902  1
  O  O46  1  0.634289  0.465012  0.090991  1
  O  O47  1  0.464619  0.071187  0.366087  1
  O  O48  1  0.163117  0.217846  0.981324  1
  O  O49  1  0.134289  0.965012  0.409009  1
  O  O50  1  0.679907  0.285287  0.989146  1
  O  O51  1  0.904117  0.423790  0.632786  1
  O  O52  1  0.569749  0.673499  0.896470  1
  O  O53  1  0.167442  0.437107  0.179756  1
  O  O54  1  0.930251  0.826501  0.396470  1
  O  O55  1  0.858919  0.966387  0.928316  1
  O  O56  1  0.861310  0.194202  0.767265  1
  O  O57  1  0.652269  0.688277  0.242098  1
  O  O58  1  0.832558  0.562893  0.820244  1
  O  O59  1  0.865711  0.034988  0.590991  1
  O  O60  1  0.847731  0.811723  0.742098  1
  O  O61  1  0.928151  0.159341  0.115073  1
  O  O62  1  0.069749  0.173499  0.603530  1
  O  O63  1  0.820093  0.214713  0.489146  1
  O  O64  1  0.320093  0.714713  0.010854  1
  O  O65  1  0.535381  0.928813  0.633913  1
  O  O66  1  0.430251  0.326501  0.103530  1
  O  O67  1  0.638690  0.305798  0.267265  1
