# generated using pymatgen
data_LaInPd
_symmetry_space_group_name_H-M   'P 1'
_cell_length_a   8.15925929
_cell_length_b   8.15925929
_cell_length_c   4.03957277
_cell_angle_alpha   90.00000000
_cell_angle_beta   90.00000000
_cell_angle_gamma   119.99999997
_symmetry_Int_Tables_number   1
_chemical_formula_structural   LaInPd
_chemical_formula_sum   'La3 In3 Pd3'
_cell_volume   232.89895341
_cell_formula_units_Z   3
loop_
 _symmetry_equiv_pos_site_id
 _symmetry_equiv_pos_as_xyz
  1  'x, y, z'
loop_
 _atom_site_type_symbol
 _atom_site_label
 _atom_site_symmetry_multiplicity
 _atom_site_fract_x
 _atom_site_fract_y
 _atom_site_fract_z
 _atom_site_occupancy
  Pd  Pd0  1  0.666667  0.333333  0.500000  1
  Pd  Pd1  1  0.333333  0.666667  0.500000  1
  Pd  Pd2  1  0.000000  0.000000  0.000000  1
  In  In3  1  0.387497  0.000000  0.000000  1
  In  In4  1  0.612503  0.612503  0.000000  1
  In  In5  1  0.000000  0.387497  0.000000  1
  La  La6  1  0.000000  0.720915  0.500000  1
  La  La7  1  0.279085  0.279085  0.500000  1
  La  La8  1  0.720915  0.000000  0.500000  1
