# generated using pymatgen
data_HfGa2Co
_symmetry_space_group_name_H-M   'P 1'
_cell_length_a   8.13841049
_cell_length_b   9.57253480
_cell_length_c   9.57253480
_cell_angle_alpha   79.58929169
_cell_angle_beta   64.84353113
_cell_angle_gamma   64.84353117
_symmetry_Int_Tables_number   1
_chemical_formula_structural   HfGa2Co
_chemical_formula_sum   'Hf10 Ga20 Co10'
_cell_volume   610.99109576
_cell_formula_units_Z   10
loop_
 _symmetry_equiv_pos_site_id
 _symmetry_equiv_pos_as_xyz
  1  'x, y, z'
loop_
 _atom_site_type_symbol
 _atom_site_label
 _atom_site_symmetry_multiplicity
 _atom_site_fract_x
 _atom_site_fract_y
 _atom_site_fract_z
 _atom_site_occupancy
  Co  Co0  1  0.819810  0.000000  0.324682  1
  Co  Co1  1  0.898391  0.500000  0.500000  1
  Co  Co2  1  0.398391  0.500000  0.500000  1
  Co  Co3  1  0.144492  0.000000  0.675318  1
  Co  Co4  1  0.819810  0.324682  0.000000  1
  Co  Co5  1  0.144492  0.675318  0.000000  1
  Co  Co6  1  0.272040  0.215867  0.215867  1
  Co  Co7  1  0.487907  0.784133  0.215867  1
  Co  Co8  1  0.487907  0.215867  0.784133  1
  Co  Co9  1  0.703775  0.784133  0.784133  1
  Ga  Ga10  1  0.798757  0.837630  0.162370  1
  Ga  Ga11  1  0.636387  0.162370  0.162370  1
  Ga  Ga12  1  0.032509  0.616057  0.616057  1
  Ga  Ga13  1  0.648566  0.383943  0.616057  1
  Ga  Ga14  1  0.422709  0.000000  0.738203  1
  Ga  Ga15  1  0.648566  0.616057  0.383943  1
  Ga  Ga16  1  0.264623  0.383943  0.383943  1
  Ga  Ga17  1  0.160913  0.000000  0.261797  1
  Ga  Ga18  1  0.422709  0.738203  0.000000  1
  Ga  Ga19  1  0.160913  0.261797  0.000000  1
  Ga  Ga20  1  0.738477  0.507731  0.789154  1
  Ga  Ga21  1  0.527631  0.210846  0.507731  1
  Ga  Ga22  1  0.246208  0.789154  0.492269  1
  Ga  Ga23  1  0.035362  0.492269  0.210846  1
  Ga  Ga24  1  0.246208  0.492269  0.789154  1
  Ga  Ga25  1  0.527631  0.507731  0.210846  1
  Ga  Ga26  1  0.738477  0.789154  0.507731  1
  Ga  Ga27  1  0.035362  0.210846  0.492269  1
  Ga  Ga28  1  0.961127  0.837630  0.837630  1
  Ga  Ga29  1  0.798757  0.162370  0.837630  1
  Hf  Hf30  1  0.519298  0.000000  0.000000  1
  Hf  Hf31  1  0.053112  0.000000  0.000000  1
  Hf  Hf32  1  0.836152  0.000000  0.598926  1
  Hf  Hf33  1  0.435079  0.401074  0.000000  1
  Hf  Hf34  1  0.836152  0.598926  0.000000  1
  Hf  Hf35  1  0.435079  0.000000  0.401074  1
  Hf  Hf36  1  0.843897  0.280304  0.280304  1
  Hf  Hf37  1  0.124200  0.719696  0.280304  1
  Hf  Hf38  1  0.124200  0.280304  0.719696  1
  Hf  Hf39  1  0.404504  0.719696  0.719696  1
