# generated using pymatgen
data_SrFeP2O7
_symmetry_space_group_name_H-M   'P 1'
_cell_length_a   5.42514218
_cell_length_b   8.39130478
_cell_length_c   12.91671922
_cell_angle_alpha   90.00000000
_cell_angle_beta   90.21390158
_cell_angle_gamma   90.00000000
_symmetry_Int_Tables_number   1
_chemical_formula_structural   SrFeP2O7
_chemical_formula_sum   'Sr4 Fe4 P8 O28'
_cell_volume   588.01690638
_cell_formula_units_Z   4
loop_
 _symmetry_equiv_pos_site_id
 _symmetry_equiv_pos_as_xyz
  1  'x, y, z'
loop_
 _atom_site_type_symbol
 _atom_site_label
 _atom_site_symmetry_multiplicity
 _atom_site_fract_x
 _atom_site_fract_y
 _atom_site_fract_z
 _atom_site_occupancy
  O  O0  1  0.051632  0.619731  0.766635  1
  O  O1  1  0.448369  0.119732  0.733365  1
  O  O2  1  0.948370  0.380269  0.233365  1
  O  O3  1  0.551631  0.880269  0.266635  1
  O  O4  1  0.410390  0.670162  0.470563  1
  O  O5  1  0.089609  0.170162  0.029437  1
  O  O6  1  0.589610  0.329838  0.529437  1
  O  O7  1  0.910391  0.829838  0.970563  1
  O  O8  1  0.740210  0.884295  0.448484  1
  O  O9  1  0.759791  0.384295  0.051516  1
  O  O10  1  0.259790  0.115705  0.551515  1
  O  O11  1  0.240210  0.615705  0.948485  1
  O  O12  1  0.793277  0.687792  0.590502  1
  O  O13  1  0.706721  0.187792  0.909498  1
  O  O14  1  0.206722  0.312207  0.409498  1
  O  O15  1  0.293278  0.812208  0.090503  1
  O  O16  1  0.824166  0.637438  0.151573  1
  O  O17  1  0.675833  0.137439  0.348427  1
  O  O18  1  0.175833  0.362561  0.848427  1
  O  O19  1  0.324167  0.862561  0.651573  1
  O  O20  1  0.664230  0.096589  0.097231  1
  O  O21  1  0.835771  0.596590  0.402770  1
  O  O22  1  0.509683  0.559648  0.792296  1
  O  O23  1  0.164231  0.403411  0.597230  1
  O  O24  1  0.009684  0.940351  0.292296  1
  O  O25  1  0.490316  0.440351  0.207703  1
  O  O26  1  0.990317  0.059648  0.707704  1
  O  O27  1  0.335769  0.903410  0.902770  1
  P  P28  1  0.688807  0.700068  0.480255  1
  P  P29  1  0.811193  0.200068  0.019745  1
  P  P30  1  0.311194  0.299931  0.519746  1
  P  P31  1  0.188806  0.799931  0.980254  1
  P  P32  1  0.249368  0.537248  0.833985  1
  P  P33  1  0.749367  0.962751  0.333985  1
  P  P34  1  0.750632  0.462751  0.166015  1
  P  P35  1  0.250632  0.037249  0.666015  1
  Fe  Fe36  1  0.681318  0.849157  0.105195  1
  Fe  Fe37  1  0.318682  0.150843  0.894804  1
  Fe  Fe38  1  0.818681  0.349157  0.394805  1
  Fe  Fe39  1  0.181318  0.650843  0.605195  1
  Sr  Sr40  1  0.713373  0.836846  0.777756  1
  Sr  Sr41  1  0.786627  0.336846  0.722244  1
  Sr  Sr42  1  0.286626  0.163155  0.222245  1
  Sr  Sr43  1  0.213373  0.663155  0.277756  1
