# generated using pymatgen
data_KSn2Br5
_symmetry_space_group_name_H-M   'P 1'
_cell_length_a   8.47852239
_cell_length_b   8.47852240
_cell_length_c   9.62016663
_cell_angle_alpha   116.14625524
_cell_angle_beta   116.14625529
_cell_angle_gamma   89.99999999
_symmetry_Int_Tables_number   1
_chemical_formula_structural   KSn2Br5
_chemical_formula_sum   'K2 Sn4 Br10'
_cell_volume   540.83836442
_cell_formula_units_Z   2
loop_
 _symmetry_equiv_pos_site_id
 _symmetry_equiv_pos_as_xyz
  1  'x, y, z'
loop_
 _atom_site_type_symbol
 _atom_site_label
 _atom_site_symmetry_multiplicity
 _atom_site_fract_x
 _atom_site_fract_y
 _atom_site_fract_z
 _atom_site_occupancy
  K  K0  1  0.250000  0.250000  0.500000  1
  K  K1  1  0.750000  0.750000  0.500000  1
  Br  Br2  1  0.796434  0.296434  0.267608  1
  Br  Br3  1  0.203566  0.703566  0.732392  1
  Br  Br4  1  0.471175  0.971175  0.267608  1
  Br  Br5  1  0.528825  0.028825  0.732392  1
  Br  Br6  1  0.000000  0.000000  0.000000  1
  Br  Br7  1  0.500000  0.500000  0.000000  1
  Br  Br8  1  0.703566  0.528825  0.732392  1
  Br  Br9  1  0.296434  0.471175  0.267608  1
  Br  Br10  1  0.028825  0.203566  0.732392  1
  Br  Br11  1  0.971175  0.796434  0.267608  1
  Sn  Sn12  1  0.177023  0.677023  0.000000  1
  Sn  Sn13  1  0.822977  0.322977  0.000000  1
  Sn  Sn14  1  0.677023  0.822977  0.000000  1
  Sn  Sn15  1  0.322977  0.177023  0.000000  1
