# generated using pymatgen
data_Cd2P6O17
_symmetry_space_group_name_H-M   'P 1'
_cell_length_a   5.61178216
_cell_length_b   7.71093321
_cell_length_c   18.38817681
_cell_angle_alpha   90.00000000
_cell_angle_beta   90.00000000
_cell_angle_gamma   111.29756474
_symmetry_Int_Tables_number   1
_chemical_formula_structural   Cd2P6O17
_chemical_formula_sum   'Cd4 P12 O34'
_cell_volume   741.35397241
_cell_formula_units_Z   2
loop_
 _symmetry_equiv_pos_site_id
 _symmetry_equiv_pos_as_xyz
  1  'x, y, z'
loop_
 _atom_site_type_symbol
 _atom_site_label
 _atom_site_symmetry_multiplicity
 _atom_site_fract_x
 _atom_site_fract_y
 _atom_site_fract_z
 _atom_site_occupancy
  O  O0  1  0.926180  0.160109  0.987850  1
  O  O1  1  0.573820  0.339891  0.487850  1
  O  O2  1  0.073820  0.839891  0.012150  1
  O  O3  1  0.426180  0.660109  0.512150  1
  O  O4  1  0.542729  0.276185  0.989169  1
  O  O5  1  0.957271  0.223815  0.489169  1
  O  O6  1  0.457271  0.723815  0.010831  1
  O  O7  1  0.042729  0.776185  0.510831  1
  O  O8  1  0.000000  0.500000  0.000000  1
  O  O9  1  0.500000  0.000000  0.500000  1
  O  O10  1  0.851603  0.343037  0.882682  1
  O  O11  1  0.648397  0.156963  0.382682  1
  O  O12  1  0.148397  0.656963  0.117318  1
  O  O13  1  0.351603  0.843037  0.617318  1
  O  O14  1  0.625183  0.578004  0.860999  1
  O  O15  1  0.874817  0.921996  0.360999  1
  O  O16  1  0.855514  0.460295  0.761269  1
  O  O17  1  0.644486  0.039705  0.261269  1
  O  O18  1  0.144486  0.539705  0.238731  1
  O  O19  1  0.355514  0.960295  0.738731  1
  O  O20  1  0.535818  0.469204  0.664866  1
  O  O21  1  0.964182  0.030796  0.164866  1
  O  O22  1  0.464182  0.530796  0.335134  1
  O  O23  1  0.035818  0.969204  0.835134  1
  O  O24  1  0.981550  0.461021  0.630431  1
  O  O25  1  0.518450  0.038979  0.130431  1
  O  O26  1  0.018450  0.538979  0.369569  1
  O  O27  1  0.481550  0.961021  0.869569  1
  O  O28  1  0.930085  0.749317  0.687248  1
  O  O29  1  0.569915  0.750683  0.187248  1
  O  O30  1  0.069915  0.250683  0.312752  1
  O  O31  1  0.430085  0.249317  0.812752  1
  O  O32  1  0.125183  0.078004  0.639001  1
  O  O33  1  0.374817  0.421996  0.139001  1
  P  P34  1  0.812811  0.305235  0.970322  1
  P  P35  1  0.687189  0.194765  0.470322  1
  P  P36  1  0.187189  0.694765  0.029678  1
  P  P37  1  0.312811  0.805235  0.529678  1
  P  P38  1  0.681923  0.418904  0.831825  1
  P  P39  1  0.818077  0.081096  0.331825  1
  P  P40  1  0.318077  0.581096  0.168175  1
  P  P41  1  0.181923  0.918904  0.668175  1
  P  P42  1  0.315199  0.022455  0.821768  1
  P  P43  1  0.184801  0.477545  0.321768  1
  P  P44  1  0.684801  0.977545  0.178232  1
  P  P45  1  0.815199  0.522455  0.678232  1
  Cd  Cd46  1  0.760917  0.856061  0.927058  1
  Cd  Cd47  1  0.739083  0.643939  0.427058  1
  Cd  Cd48  1  0.239083  0.143939  0.072942  1
  Cd  Cd49  1  0.260917  0.356061  0.572942  1
