# generated using pymatgen
data_Ce(Sn3Ru2)2
_symmetry_space_group_name_H-M   'P 1'
_cell_length_a   6.93634565
_cell_length_b   6.93634566
_cell_length_c   6.96259430
_cell_angle_alpha   119.87536917
_cell_angle_beta   119.87536914
_cell_angle_gamma   89.99999996
_symmetry_Int_Tables_number   1
_chemical_formula_structural   Ce(Sn3Ru2)2
_chemical_formula_sum   'Ce1 Sn6 Ru4'
_cell_volume   237.76373328
_cell_formula_units_Z   1
loop_
 _symmetry_equiv_pos_site_id
 _symmetry_equiv_pos_as_xyz
  1  'x, y, z'
loop_
 _atom_site_type_symbol
 _atom_site_label
 _atom_site_symmetry_multiplicity
 _atom_site_fract_x
 _atom_site_fract_y
 _atom_site_fract_z
 _atom_site_occupancy
  Ru  Ru0  1  0.599507  0.599507  0.846877  1
  Ru  Ru1  1  0.247370  0.247370  0.846877  1
  Ru  Ru2  1  0.400493  0.752630  0.153123  1
  Ru  Ru3  1  0.752630  0.400493  0.153123  1
  Sn  Sn4  1  0.500000  0.000000  0.000000  1
  Sn  Sn5  1  0.530173  0.530173  0.409837  1
  Sn  Sn6  1  0.120336  0.469827  0.590163  1
  Sn  Sn7  1  0.469827  0.120336  0.590163  1
  Sn  Sn8  1  0.879664  0.879664  0.409837  1
  Sn  Sn9  1  0.000000  0.500000  0.000000  1
  Ce  Ce10  1  0.000000  0.000000  0.000000  1
