# generated using pymatgen
data_Tl2CuH12(SO7)2
_symmetry_space_group_name_H-M   'P 1'
_cell_length_a   6.29940220
_cell_length_b   9.29256897
_cell_length_c   12.50898267
_cell_angle_alpha   90.00000000
_cell_angle_beta   90.00000000
_cell_angle_gamma   104.61581031
_symmetry_Int_Tables_number   1
_chemical_formula_structural   Tl2CuH12(SO7)2
_chemical_formula_sum   'Tl4 Cu2 H24 S4 O28'
_cell_volume   708.55039581
_cell_formula_units_Z   2
loop_
 _symmetry_equiv_pos_site_id
 _symmetry_equiv_pos_as_xyz
  1  'x, y, z'
loop_
 _atom_site_type_symbol
 _atom_site_label
 _atom_site_symmetry_multiplicity
 _atom_site_fract_x
 _atom_site_fract_y
 _atom_site_fract_z
 _atom_site_occupancy
  H  H0  1  0.303969  0.532482  0.641487  1
  H  H1  1  0.696031  0.967518  0.141487  1
  H  H2  1  0.696031  0.467518  0.358513  1
  H  H3  1  0.303969  0.032482  0.858513  1
  H  H4  1  0.321683  0.399401  0.563492  1
  H  H5  1  0.678317  0.100599  0.063492  1
  H  H6  1  0.921244  0.201039  0.393521  1
  H  H7  1  0.078756  0.298961  0.893521  1
  H  H8  1  0.078756  0.798961  0.606479  1
  H  H9  1  0.921244  0.701039  0.106479  1
  H  H10  1  0.083790  0.731966  0.379140  1
  H  H11  1  0.916210  0.768034  0.879140  1
  H  H12  1  0.916210  0.268034  0.620860  1
  H  H13  1  0.083790  0.231966  0.120860  1
  H  H14  1  0.315928  0.697259  0.410835  1
  H  H15  1  0.684072  0.802741  0.910835  1
  H  H16  1  0.684072  0.302741  0.589165  1
  H  H17  1  0.315928  0.197259  0.089165  1
  H  H18  1  0.002100  0.176685  0.804177  1
  H  H19  1  0.997900  0.323315  0.304177  1
  H  H20  1  0.321683  0.899401  0.936508  1
  H  H21  1  0.678317  0.600599  0.436508  1
  H  H22  1  0.002100  0.676685  0.695823  1
  H  H23  1  0.997900  0.823315  0.195823  1
  O  O24  1  0.840768  0.348760  0.607956  1
  O  O25  1  0.840768  0.848760  0.892044  1
  O  O26  1  0.030837  0.796175  0.122132  1
  O  O27  1  0.969163  0.703825  0.622132  1
  O  O28  1  0.969163  0.203825  0.877868  1
  O  O29  1  0.030837  0.296175  0.377868  1
  O  O30  1  0.283198  0.997683  0.934501  1
  O  O31  1  0.159232  0.151240  0.107956  1
  O  O32  1  0.716802  0.002317  0.065499  1
  O  O33  1  0.283198  0.497683  0.565499  1
  O  O34  1  0.947896  0.861500  0.332448  1
  O  O35  1  0.052104  0.638500  0.832448  1
  O  O36  1  0.052104  0.138500  0.667552  1
  O  O37  1  0.947896  0.361500  0.167552  1
  O  O38  1  0.599753  0.759224  0.425918  1
  O  O39  1  0.400247  0.740776  0.925918  1
  O  O40  1  0.400247  0.240776  0.574082  1
  O  O41  1  0.599753  0.259224  0.074082  1
  O  O42  1  0.758319  0.025647  0.425314  1
  O  O43  1  0.241681  0.474353  0.925314  1
  O  O44  1  0.241681  0.974353  0.574686  1
  O  O45  1  0.758319  0.525647  0.074686  1
  O  O46  1  0.716802  0.502317  0.434501  1
  O  O47  1  0.395716  0.601114  0.760680  1
  O  O48  1  0.395716  0.101114  0.739320  1
  O  O49  1  0.604284  0.398886  0.239320  1
  O  O50  1  0.159232  0.651240  0.392044  1
  O  O51  1  0.604284  0.898886  0.260680  1
  S  S52  1  0.270780  0.611868  0.860450  1
  S  S53  1  0.729220  0.888132  0.360450  1
  S  S54  1  0.729220  0.388132  0.139550  1
  S  S55  1  0.270780  0.111868  0.639550  1
  Cu  Cu56  1  0.000000  0.500000  0.500000  1
  Cu  Cu57  1  0.000000  0.000000  0.000000  1
  Tl  Tl58  1  0.344067  0.125352  0.354151  1
  Tl  Tl59  1  0.655933  0.374648  0.854151  1
  Tl  Tl60  1  0.655933  0.874648  0.645849  1
  Tl  Tl61  1  0.344067  0.625352  0.145849  1
