# generated using pymatgen
data_ErGeIr
_symmetry_space_group_name_H-M   'P 1'
_cell_length_a   4.38048326
_cell_length_b   6.87513076
_cell_length_c   7.47980150
_cell_angle_alpha   90.00000000
_cell_angle_beta   90.00000000
_cell_angle_gamma   90.00000000
_symmetry_Int_Tables_number   1
_chemical_formula_structural   ErGeIr
_chemical_formula_sum   'Er4 Ge4 Ir4'
_cell_volume   225.26465803
_cell_formula_units_Z   4
loop_
 _symmetry_equiv_pos_site_id
 _symmetry_equiv_pos_as_xyz
  1  'x, y, z'
loop_
 _atom_site_type_symbol
 _atom_site_label
 _atom_site_symmetry_multiplicity
 _atom_site_fract_x
 _atom_site_fract_y
 _atom_site_fract_z
 _atom_site_occupancy
  Er  Er0  1  0.750000  0.014512  0.302106  1
  Er  Er1  1  0.250000  0.985488  0.697894  1
  Er  Er2  1  0.750000  0.514512  0.197894  1
  Er  Er3  1  0.250000  0.485488  0.802106  1
  Ge  Ge4  1  0.750000  0.677344  0.579814  1
  Ge  Ge5  1  0.250000  0.322656  0.420186  1
  Ge  Ge6  1  0.750000  0.177344  0.920186  1
  Ge  Ge7  1  0.250000  0.822656  0.079814  1
  Ir  Ir8  1  0.750000  0.790271  0.904411  1
  Ir  Ir9  1  0.250000  0.209729  0.095589  1
  Ir  Ir10  1  0.250000  0.709729  0.404411  1
  Ir  Ir11  1  0.750000  0.290271  0.595589  1
