# generated using pymatgen
data_KCrH18N6(ClO2)4
_symmetry_space_group_name_H-M   'P 1'
_cell_length_a   10.14324337
_cell_length_b   10.14324338
_cell_length_c   10.14324337
_cell_angle_alpha   41.12224478
_cell_angle_beta   41.12224476
_cell_angle_gamma   41.12224476
_symmetry_Int_Tables_number   1
_chemical_formula_structural   KCrH18N6(ClO2)4
_chemical_formula_sum   'K1 Cr1 H18 N6 Cl4 O8'
_cell_volume   407.59545038
_cell_formula_units_Z   1
loop_
 _symmetry_equiv_pos_site_id
 _symmetry_equiv_pos_as_xyz
  1  'x, y, z'
loop_
 _atom_site_type_symbol
 _atom_site_label
 _atom_site_symmetry_multiplicity
 _atom_site_fract_x
 _atom_site_fract_y
 _atom_site_fract_z
 _atom_site_occupancy
  H  H0  1  0.367572  0.759495  0.042782  1
  H  H1  1  0.632427  0.240505  0.957219  1
  H  H2  1  0.240506  0.957219  0.632426  1
  H  H3  1  0.957219  0.632427  0.240506  1
  H  H4  1  0.364293  0.005106  0.841172  1
  H  H5  1  0.005106  0.841173  0.364292  1
  H  H6  1  0.841173  0.364293  0.005106  1
  H  H7  1  0.635708  0.994894  0.158826  1
  H  H8  1  0.994895  0.158827  0.635707  1
  H  H9  1  0.158828  0.635707  0.994894  1
  H  H10  1  0.436853  0.826158  0.796913  1
  H  H11  1  0.826158  0.796912  0.436854  1
  H  H12  1  0.796912  0.436853  0.826158  1
  H  H13  1  0.563147  0.173842  0.203088  1
  H  H14  1  0.173841  0.203088  0.563147  1
  H  H15  1  0.203089  0.563147  0.173841  1
  H  H16  1  0.759494  0.042781  0.367574  1
  H  H17  1  0.042781  0.367573  0.759494  1
  N  N18  1  0.910085  0.327385  0.888580  1
  N  N19  1  0.089914  0.672615  0.111421  1
  N  N20  1  0.888581  0.910085  0.327384  1
  N  N21  1  0.327385  0.888581  0.910086  1
  N  N22  1  0.672616  0.111419  0.089914  1
  N  N23  1  0.111420  0.089915  0.672615  1
  O  O24  1  0.867368  0.867369  0.867368  1
  O  O25  1  0.328172  0.980108  0.300582  1
  O  O26  1  0.132631  0.132631  0.132632  1
  O  O27  1  0.300581  0.328173  0.980106  1
  O  O28  1  0.980108  0.300581  0.328173  1
  O  O29  1  0.671827  0.019892  0.699419  1
  O  O30  1  0.699420  0.671827  0.019892  1
  O  O31  1  0.019893  0.699419  0.671827  1
  Cl  Cl32  1  0.815034  0.815034  0.815034  1
  Cl  Cl33  1  0.184967  0.184966  0.184966  1
  Cl  Cl34  1  0.377831  0.377832  0.377831  1
  Cl  Cl35  1  0.622170  0.622168  0.622169  1
  K  K36  1  0.500001  0.499999  0.500000  1
  Cr  Cr37  1  0.000000  0.000000  0.000000  1
