# generated using pymatgen
data_Ba(BiS2)2
_symmetry_space_group_name_H-M   'P 1'
_cell_length_a   25.78961243
_cell_length_b   25.78961243
_cell_length_c   4.16478218
_cell_angle_alpha   90.00000000
_cell_angle_beta   90.00000000
_cell_angle_gamma   120.00000000
_symmetry_Int_Tables_number   1
_chemical_formula_structural   Ba(BiS2)2
_chemical_formula_sum   'Ba12 Bi24 S48'
_cell_volume   2398.90226925
_cell_formula_units_Z   12
loop_
 _symmetry_equiv_pos_site_id
 _symmetry_equiv_pos_as_xyz
  1  'x, y, z'
loop_
 _atom_site_type_symbol
 _atom_site_label
 _atom_site_symmetry_multiplicity
 _atom_site_fract_x
 _atom_site_fract_y
 _atom_site_fract_z
 _atom_site_occupancy
  S  S0  1  0.936501  0.861482  0.750000  1
  S  S1  1  0.075020  0.936501  0.250000  1
  S  S2  1  0.861482  0.924980  0.250000  1
  S  S3  1  0.138518  0.075020  0.750000  1
  S  S4  1  0.924980  0.063499  0.750000  1
  S  S5  1  0.063499  0.138518  0.250000  1
  S  S6  1  0.693759  0.807737  0.750000  1
  S  S7  1  0.886022  0.693759  0.250000  1
  S  S8  1  0.807737  0.113978  0.250000  1
  S  S9  1  0.192263  0.886022  0.750000  1
  S  S10  1  0.113978  0.306241  0.750000  1
  S  S11  1  0.306241  0.192263  0.250000  1
  S  S12  1  0.343689  0.752131  0.750000  1
  S  S13  1  0.591558  0.343689  0.250000  1
  S  S14  1  0.752131  0.408442  0.250000  1
  S  S15  1  0.247869  0.591558  0.750000  1
  S  S16  1  0.408442  0.656311  0.750000  1
  S  S17  1  0.656311  0.247869  0.250000  1
  S  S18  1  0.367341  0.997749  0.750000  1
  S  S19  1  0.369592  0.367341  0.250000  1
  S  S20  1  0.547247  0.852854  0.750000  1
  S  S21  1  0.997749  0.630408  0.250000  1
  S  S22  1  0.630408  0.632659  0.750000  1
  S  S23  1  0.632659  0.002251  0.250000  1
  S  S24  1  0.749796  0.968510  0.750000  1
  S  S25  1  0.781287  0.749796  0.250000  1
  S  S26  1  0.968510  0.218713  0.250000  1
  S  S27  1  0.031490  0.781287  0.750000  1
  S  S28  1  0.218713  0.250204  0.750000  1
  S  S29  1  0.250204  0.031490  0.250000  1
  S  S30  1  0.910037  0.455062  0.750000  1
  S  S31  1  0.454976  0.910037  0.250000  1
  S  S32  1  0.455062  0.545024  0.250000  1
  S  S33  1  0.544938  0.454976  0.750000  1
  S  S34  1  0.545024  0.089963  0.750000  1
  S  S35  1  0.089963  0.544938  0.250000  1
  S  S36  1  0.174672  0.448741  0.250000  1
  S  S37  1  0.725931  0.174672  0.750000  1
  S  S38  1  0.448741  0.274069  0.750000  1
  S  S39  1  0.551259  0.725931  0.250000  1
  S  S40  1  0.274069  0.825328  0.250000  1
  S  S41  1  0.825328  0.551259  0.750000  1
  S  S42  1  0.452753  0.147146  0.250000  1
  S  S43  1  0.305608  0.452753  0.750000  1
  S  S44  1  0.147146  0.694392  0.750000  1
  S  S45  1  0.852854  0.305608  0.250000  1
  S  S46  1  0.694392  0.547247  0.250000  1
  S  S47  1  0.002251  0.369592  0.750000  1
  Ba  Ba48  1  0.772135  0.651436  0.750000  1
  Ba  Ba49  1  0.120699  0.772135  0.250000  1
  Ba  Ba50  1  0.651436  0.879301  0.250000  1
  Ba  Ba51  1  0.348564  0.120699  0.750000  1
  Ba  Ba52  1  0.879301  0.227865  0.750000  1
  Ba  Ba53  1  0.227865  0.348564  0.250000  1
  Ba  Ba54  1  0.678512  0.445593  0.750000  1
  Ba  Ba55  1  0.232919  0.678512  0.250000  1
  Ba  Ba56  1  0.445593  0.767081  0.250000  1
  Ba  Ba57  1  0.554407  0.232919  0.750000  1
  Ba  Ba58  1  0.767081  0.321488  0.750000  1
  Ba  Ba59  1  0.321488  0.554407  0.250000  1
  Bi  Bi60  1  0.152972  0.977358  0.750000  1
  Bi  Bi61  1  0.175614  0.152972  0.250000  1
  Bi  Bi62  1  0.977358  0.824386  0.250000  1
  Bi  Bi63  1  0.022642  0.175614  0.750000  1
  Bi  Bi64  1  0.824386  0.847028  0.750000  1
  Bi  Bi65  1  0.847028  0.022642  0.250000  1
  Bi  Bi66  1  0.541209  0.949969  0.750000  1
  Bi  Bi67  1  0.591239  0.541209  0.250000  1
  Bi  Bi68  1  0.949969  0.408761  0.250000  1
  Bi  Bi69  1  0.050031  0.591239  0.750000  1
  Bi  Bi70  1  0.408761  0.458791  0.750000  1
  Bi  Bi71  1  0.458791  0.050031  0.250000  1
  Bi  Bi72  1  0.352675  0.855977  0.750000  1
  Bi  Bi73  1  0.496699  0.352675  0.250000  1
  Bi  Bi74  1  0.855977  0.503301  0.250000  1
  Bi  Bi75  1  0.144023  0.496699  0.750000  1
  Bi  Bi76  1  0.503301  0.647325  0.750000  1
  Bi  Bi77  1  0.647325  0.144023  0.250000  1
  Bi  Bi78  1  0.726765  0.057896  0.750000  1
  Bi  Bi79  1  0.668869  0.726765  0.250000  1
  Bi  Bi80  1  0.057896  0.331131  0.250000  1
  Bi  Bi81  1  0.942104  0.668869  0.750000  1
  Bi  Bi82  1  0.331131  0.273235  0.750000  1
  Bi  Bi83  1  0.273235  0.942104  0.250000  1
