# generated using pymatgen
data_NaBiF6
_symmetry_space_group_name_H-M   'P 1'
_cell_length_a   6.11148565
_cell_length_b   6.11148511
_cell_length_c   6.11148509
_cell_angle_alpha   52.69177309
_cell_angle_beta   52.69177663
_cell_angle_gamma   52.69177780
_symmetry_Int_Tables_number   1
_chemical_formula_structural   NaBiF6
_chemical_formula_sum   'Na1 Bi1 F6'
_cell_volume   133.73225032
_cell_formula_units_Z   1
loop_
 _symmetry_equiv_pos_site_id
 _symmetry_equiv_pos_as_xyz
  1  'x, y, z'
loop_
 _atom_site_type_symbol
 _atom_site_label
 _atom_site_symmetry_multiplicity
 _atom_site_fract_x
 _atom_site_fract_y
 _atom_site_fract_z
 _atom_site_occupancy
  Na  Na0  1  0.500000  0.500000  0.500000  1
  Bi  Bi1  1  0.000000  0.000000  0.000000  1
  F  F2  1  0.377776  0.764973  0.085403  1
  F  F3  1  0.085403  0.377776  0.764973  1
  F  F4  1  0.764973  0.085403  0.377776  1
  F  F5  1  0.622224  0.235027  0.914597  1
  F  F6  1  0.914597  0.622224  0.235027  1
  F  F7  1  0.235027  0.914597  0.622224  1
