# generated using pymatgen
data_Ni3AgP3(HO6)2
_symmetry_space_group_name_H-M   'P 1'
_cell_length_a   6.51309607
_cell_length_b   8.53959419
_cell_length_c   8.53959419
_cell_angle_alpha   91.11938446
_cell_angle_beta   106.49159345
_cell_angle_gamma   106.49159337
_symmetry_Int_Tables_number   1
_chemical_formula_structural   Ni3AgP3(HO6)2
_chemical_formula_sum   'Ni6 Ag2 P6 H4 O24'
_cell_volume   434.09344724
_cell_formula_units_Z   2
loop_
 _symmetry_equiv_pos_site_id
 _symmetry_equiv_pos_as_xyz
  1  'x, y, z'
loop_
 _atom_site_type_symbol
 _atom_site_label
 _atom_site_symmetry_multiplicity
 _atom_site_fract_x
 _atom_site_fract_y
 _atom_site_fract_z
 _atom_site_occupancy
  H  H0  1  0.308114  0.107486  0.122340  1
  H  H1  1  0.191886  0.877660  0.892514  1
  H  H2  1  0.691886  0.892514  0.877660  1
  H  H3  1  0.808114  0.122340  0.107486  1
  O  O4  1  0.342918  0.044361  0.231122  1
  O  O5  1  0.157082  0.768878  0.955639  1
  O  O6  1  0.657082  0.955639  0.768878  1
  O  O7  1  0.842918  0.231122  0.044361  1
  O  O8  1  0.104543  0.662641  0.662533  1
  O  O9  1  0.395457  0.337467  0.337359  1
  O  O10  1  0.895457  0.337359  0.337467  1
  O  O11  1  0.604543  0.662533  0.662641  1
  O  O12  1  0.191499  0.100326  0.463427  1
  O  O13  1  0.308501  0.536573  0.899674  1
  O  O14  1  0.733237  0.786447  0.997632  1
  O  O15  1  0.766763  0.002368  0.213553  1
  O  O16  1  0.266763  0.213553  0.002368  1
  O  O17  1  0.233237  0.997632  0.786447  1
  O  O18  1  0.536474  0.709084  0.220663  1
  O  O19  1  0.963526  0.779337  0.290916  1
  O  O20  1  0.463526  0.290916  0.779337  1
  O  O21  1  0.036474  0.220663  0.709084  1
  O  O22  1  0.886105  0.484422  0.830877  1
  O  O23  1  0.613895  0.169123  0.515578  1
  O  O24  1  0.113895  0.515578  0.169123  1
  O  O25  1  0.386105  0.830877  0.484422  1
  O  O26  1  0.691499  0.463427  0.100326  1
  O  O27  1  0.808501  0.899674  0.536573  1
  P  P28  1  0.386987  0.165018  0.391254  1
  P  P29  1  0.113013  0.608746  0.834982  1
  P  P30  1  0.613013  0.834982  0.608746  1
  P  P31  1  0.886987  0.391254  0.165018  1
  P  P32  1  0.250000  0.181248  0.818752  1
  P  P33  1  0.750000  0.818752  0.181248  1
  Ni  Ni34  1  0.122559  0.874928  0.549954  1
  Ni  Ni35  1  0.377441  0.450046  0.125072  1
  Ni  Ni36  1  0.877441  0.125072  0.450046  1
  Ni  Ni37  1  0.622559  0.549954  0.874928  1
  Ni  Ni38  1  0.250000  0.775216  0.224784  1
  Ni  Ni39  1  0.750000  0.224784  0.775216  1
  Ag  Ag40  1  0.250000  0.460430  0.539570  1
  Ag  Ag41  1  0.750000  0.539570  0.460430  1
