# generated using pymatgen
data_RbTlF4
_symmetry_space_group_name_H-M   'P 1'
_cell_length_a   6.38006901
_cell_length_b   8.46302656
_cell_length_c   8.56571705
_cell_angle_alpha   90.00000000
_cell_angle_beta   90.00000000
_cell_angle_gamma   90.00000000
_symmetry_Int_Tables_number   1
_chemical_formula_structural   RbTlF4
_chemical_formula_sum   'Rb4 Tl4 F16'
_cell_volume   462.50326660
_cell_formula_units_Z   4
loop_
 _symmetry_equiv_pos_site_id
 _symmetry_equiv_pos_as_xyz
  1  'x, y, z'
loop_
 _atom_site_type_symbol
 _atom_site_label
 _atom_site_symmetry_multiplicity
 _atom_site_fract_x
 _atom_site_fract_y
 _atom_site_fract_z
 _atom_site_occupancy
  F  F0  1  0.699143  0.422944  0.579046  1
  F  F1  1  0.300857  0.577056  0.079046  1
  F  F2  1  0.300857  0.922944  0.579046  1
  F  F3  1  0.699143  0.077056  0.079046  1
  F  F4  1  0.299390  0.570440  0.444874  1
  F  F5  1  0.700610  0.429560  0.944874  1
  F  F6  1  0.700610  0.070440  0.444874  1
  F  F7  1  0.299390  0.929560  0.944874  1
  F  F8  1  0.137421  0.252630  0.015447  1
  F  F9  1  0.862579  0.747370  0.515447  1
  F  F10  1  0.862579  0.752630  0.015447  1
  F  F11  1  0.137421  0.247370  0.515447  1
  F  F12  1  0.885966  0.025105  0.763211  1
  F  F13  1  0.114033  0.974895  0.263211  1
  F  F14  1  0.114033  0.525105  0.763211  1
  F  F15  1  0.885966  0.474895  0.263211  1
  Rb  Rb16  1  0.488908  0.190336  0.763675  1
  Rb  Rb17  1  0.511092  0.809664  0.263675  1
  Rb  Rb18  1  0.511092  0.690336  0.763675  1
  Rb  Rb19  1  0.488908  0.309664  0.263675  1
  Tl  Tl20  1  0.999717  0.002702  0.013747  1
  Tl  Tl21  1  0.000283  0.997298  0.513747  1
  Tl  Tl22  1  0.000283  0.502702  0.013747  1
  Tl  Tl23  1  0.999717  0.497298  0.513747  1
