# generated using pymatgen
data_Bi2Se2Cl7
_symmetry_space_group_name_H-M   'P 1'
_cell_length_a   10.52050530
_cell_length_b   10.97531868
_cell_length_c   10.97531868
_cell_angle_alpha   90.00000000
_cell_angle_beta   90.00000000
_cell_angle_gamma   90.00000000
_symmetry_Int_Tables_number   1
_chemical_formula_structural   Bi2Se2Cl7
_chemical_formula_sum   'Bi8 Se8 Cl28'
_cell_volume   1267.27503098
_cell_formula_units_Z   4
loop_
 _symmetry_equiv_pos_site_id
 _symmetry_equiv_pos_as_xyz
  1  'x, y, z'
loop_
 _atom_site_type_symbol
 _atom_site_label
 _atom_site_symmetry_multiplicity
 _atom_site_fract_x
 _atom_site_fract_y
 _atom_site_fract_z
 _atom_site_occupancy
  Cl  Cl0  1  0.328097  0.250000  0.250000  1
  Cl  Cl1  1  0.671903  0.750000  0.750000  1
  Cl  Cl2  1  0.500000  0.250000  0.750000  1
  Cl  Cl3  1  0.500000  0.750000  0.250000  1
  Cl  Cl4  1  0.440201  0.948250  0.637705  1
  Cl  Cl5  1  0.440201  0.862295  0.948250  1
  Cl  Cl6  1  0.440201  0.637705  0.551750  1
  Cl  Cl7  1  0.440201  0.551750  0.862295  1
  Cl  Cl8  1  0.559799  0.051750  0.362295  1
  Cl  Cl9  1  0.559799  0.137705  0.051750  1
  Cl  Cl10  1  0.559799  0.362295  0.448250  1
  Cl  Cl11  1  0.559799  0.448250  0.137705  1
  Cl  Cl12  1  0.226615  0.983023  0.378308  1
  Cl  Cl13  1  0.226615  0.121692  0.983023  1
  Cl  Cl14  1  0.226615  0.378308  0.516977  1
  Cl  Cl15  1  0.226615  0.516977  0.121692  1
  Cl  Cl16  1  0.854508  0.604478  0.150313  1
  Cl  Cl17  1  0.854508  0.349687  0.604478  1
  Cl  Cl18  1  0.854508  0.150313  0.895522  1
  Cl  Cl19  1  0.854508  0.895522  0.349687  1
  Cl  Cl20  1  0.145492  0.395522  0.849687  1
  Cl  Cl21  1  0.145492  0.650313  0.395522  1
  Cl  Cl22  1  0.145492  0.849687  0.104478  1
  Cl  Cl23  1  0.145492  0.104478  0.650313  1
  Cl  Cl24  1  0.773385  0.483023  0.878308  1
  Cl  Cl25  1  0.773385  0.621692  0.483023  1
  Cl  Cl26  1  0.773385  0.878308  0.016977  1
  Cl  Cl27  1  0.773385  0.016977  0.621692  1
  Se  Se28  1  0.892268  0.170682  0.378260  1
  Se  Se29  1  0.892268  0.121740  0.170682  1
  Se  Se30  1  0.892268  0.378260  0.329318  1
  Se  Se31  1  0.892268  0.329318  0.121740  1
  Se  Se32  1  0.107732  0.829318  0.621740  1
  Se  Se33  1  0.107732  0.878260  0.829318  1
  Se  Se34  1  0.107732  0.621740  0.670682  1
  Se  Se35  1  0.107732  0.670682  0.878260  1
  Bi  Bi36  1  0.349590  0.140429  0.517054  1
  Bi  Bi37  1  0.349590  0.982946  0.140429  1
  Bi  Bi38  1  0.349590  0.517054  0.359571  1
  Bi  Bi39  1  0.349590  0.359571  0.982946  1
  Bi  Bi40  1  0.650410  0.859571  0.482946  1
  Bi  Bi41  1  0.650410  0.017054  0.859571  1
  Bi  Bi42  1  0.650410  0.482946  0.640429  1
  Bi  Bi43  1  0.650410  0.640429  0.017054  1
