# generated using pymatgen
data_Ta4P4S29
_symmetry_space_group_name_H-M   'P 1'
_cell_length_a   14.11829858
_cell_length_b   15.91845230
_cell_length_c   15.91845230
_cell_angle_alpha   90.00000000
_cell_angle_beta   90.00000000
_cell_angle_gamma   90.00000000
_symmetry_Int_Tables_number   1
_chemical_formula_structural   Ta4P4S29
_chemical_formula_sum   'Ta16 P16 S116'
_cell_volume   3577.53625068
_cell_formula_units_Z   4
loop_
 _symmetry_equiv_pos_site_id
 _symmetry_equiv_pos_as_xyz
  1  'x, y, z'
loop_
 _atom_site_type_symbol
 _atom_site_label
 _atom_site_symmetry_multiplicity
 _atom_site_fract_x
 _atom_site_fract_y
 _atom_site_fract_z
 _atom_site_occupancy
  P  P0  1  0.920358  0.183307  0.507233  1
  P  P1  1  0.670358  0.992767  0.683307  1
  P  P2  1  0.170358  0.007233  0.316693  1
  P  P3  1  0.420358  0.816693  0.492767  1
  P  P4  1  0.329642  0.683307  0.992767  1
  P  P5  1  0.829642  0.316693  0.007233  1
  P  P6  1  0.079642  0.507233  0.183307  1
  P  P7  1  0.579642  0.492767  0.816693  1
  P  P8  1  0.421517  0.183751  0.505833  1
  P  P9  1  0.171517  0.994167  0.683751  1
  P  P10  1  0.671517  0.005833  0.316249  1
  P  P11  1  0.921517  0.816249  0.494167  1
  P  P12  1  0.828483  0.683751  0.994167  1
  P  P13  1  0.328483  0.316249  0.005833  1
  P  P14  1  0.578483  0.505833  0.183751  1
  P  P15  1  0.078483  0.494167  0.816249  1
  S  S16  1  0.957937  0.257428  0.023464  1
  S  S17  1  0.707937  0.476536  0.757428  1
  S  S18  1  0.207937  0.523464  0.242572  1
  S  S19  1  0.457937  0.742572  0.976536  1
  S  S20  1  0.292063  0.757428  0.476536  1
  S  S21  1  0.792063  0.242572  0.523464  1
  S  S22  1  0.042063  0.023464  0.257428  1
  S  S23  1  0.542063  0.976536  0.742572  1
  S  S24  1  0.455824  0.255098  0.022212  1
  S  S25  1  0.205824  0.477788  0.755098  1
  S  S26  1  0.705824  0.522212  0.244902  1
  S  S27  1  0.955824  0.744902  0.977788  1
  S  S28  1  0.794176  0.755098  0.477788  1
  S  S29  1  0.294176  0.244902  0.522212  1
  S  S30  1  0.544176  0.022212  0.255098  1
  S  S31  1  0.044176  0.977788  0.744902  1
  S  S32  1  0.031027  0.254065  0.462903  1
  S  S33  1  0.781027  0.037097  0.754065  1
  S  S34  1  0.281027  0.962903  0.245935  1
  S  S35  1  0.531027  0.745935  0.537097  1
  S  S36  1  0.218973  0.754065  0.037097  1
  S  S37  1  0.718973  0.245935  0.962903  1
  S  S38  1  0.968973  0.462903  0.254065  1
  S  S39  1  0.468973  0.537097  0.745935  1
  S  S40  1  0.533937  0.252364  0.461403  1
  S  S41  1  0.283936  0.038597  0.752364  1
  S  S42  1  0.783937  0.961403  0.247636  1
  S  S43  1  0.033937  0.747636  0.538597  1
  S  S44  1  0.716063  0.752364  0.038597  1
  S  S45  1  0.216063  0.247636  0.961403  1
  S  S46  1  0.466064  0.461403  0.252364  1
  S  S47  1  0.966063  0.538597  0.747636  1
  S  S48  1  0.185682  0.124835  0.368421  1
  S  S49  1  0.935682  0.131579  0.624835  1
  S  S50  1  0.435682  0.868421  0.375165  1
  S  S51  1  0.685682  0.875165  0.631579  1
  S  S52  1  0.064318  0.624835  0.131579  1
  S  S53  1  0.564318  0.375165  0.868421  1
  S  S54  1  0.814318  0.368421  0.124835  1
  S  S55  1  0.314318  0.631579  0.875165  1
  S  S56  1  0.686040  0.123557  0.367870  1
  S  S57  1  0.436040  0.132130  0.623557  1
  S  S58  1  0.936040  0.867870  0.376443  1
  S  S59  1  0.186040  0.876443  0.632130  1
  S  S60  1  0.563960  0.623557  0.132130  1
  S  S61  1  0.063960  0.376443  0.867870  1
  S  S62  1  0.313960  0.367870  0.123557  1
  S  S63  1  0.813960  0.632130  0.876443  1
  S  S64  1  0.077343  0.416143  0.089498  1
  S  S65  1  0.827343  0.410502  0.916143  1
  S  S66  1  0.327343  0.589498  0.083857  1
  S  S67  1  0.577343  0.583857  0.910502  1
  S  S68  1  0.172657  0.916143  0.410502  1
  S  S69  1  0.672657  0.083857  0.589498  1
  S  S70  1  0.922657  0.089498  0.416143  1
  S  S71  1  0.422657  0.910502  0.583857  1
  S  S72  1  0.577603  0.415111  0.089461  1
  S  S73  1  0.327603  0.410539  0.915111  1
  S  S74  1  0.827603  0.589461  0.084889  1
  S  S75  1  0.077603  0.584889  0.910539  1
  S  S76  1  0.672397  0.915111  0.410539  1
  S  S77  1  0.172397  0.084889  0.589461  1
  S  S78  1  0.422397  0.089461  0.415111  1
  S  S79  1  0.922397  0.910539  0.584889  1
  S  S80  1  0.110299  0.215041  0.180820  1
  S  S81  1  0.860299  0.319180  0.715041  1
  S  S82  1  0.360299  0.680820  0.284959  1
  S  S83  1  0.610299  0.784959  0.819180  1
  S  S84  1  0.139701  0.715041  0.319180  1
  S  S85  1  0.639701  0.284959  0.680820  1
  S  S86  1  0.889701  0.180820  0.215041  1
  S  S87  1  0.389701  0.819180  0.784959  1
  S  S88  1  0.610297  0.214253  0.179315  1
  S  S89  1  0.360297  0.320685  0.714253  1
  S  S90  1  0.860297  0.679315  0.285747  1
  S  S91  1  0.110297  0.785747  0.820685  1
  S  S92  1  0.639703  0.714253  0.320685  1
  S  S93  1  0.139703  0.285747  0.679315  1
  S  S94  1  0.389703  0.179315  0.214253  1
  S  S95  1  0.889703  0.820685  0.785747  1
  S  S96  1  0.114216  0.302374  0.274755  1
  S  S97  1  0.864216  0.225245  0.802374  1
  S  S98  1  0.364216  0.774755  0.197626  1
  S  S99  1  0.614216  0.697626  0.725245  1
  S  S100  1  0.135784  0.802374  0.225245  1
  S  S101  1  0.635784  0.197626  0.774755  1
  S  S102  1  0.885784  0.274755  0.302374  1
  S  S103  1  0.385784  0.725245  0.697626  1
  S  S104  1  0.613873  0.301348  0.273379  1
  S  S105  1  0.363873  0.226621  0.801348  1
  S  S106  1  0.863873  0.773379  0.198652  1
  S  S107  1  0.113873  0.698652  0.726621  1
  S  S108  1  0.636127  0.801348  0.226621  1
  S  S109  1  0.136127  0.198652  0.773379  1
  S  S110  1  0.386127  0.273379  0.301348  1
  S  S111  1  0.886127  0.726621  0.698652  1
  S  S112  1  0.652000  0.553688  0.529078  1
  S  S113  1  0.402000  0.970922  0.053688  1
  S  S114  1  0.902000  0.029078  0.946312  1
  S  S115  1  0.152000  0.446312  0.470922  1
  S  S116  1  0.598000  0.053688  0.970922  1
  S  S117  1  0.098000  0.946312  0.029078  1
  S  S118  1  0.348000  0.529078  0.553688  1
  S  S119  1  0.848000  0.470922  0.446312  1
  S  S120  1  0.449042  0.445296  0.511070  1
  S  S121  1  0.199042  0.988930  0.945296  1
  S  S122  1  0.699042  0.011070  0.054704  1
  S  S123  1  0.949042  0.554704  0.488930  1
  S  S124  1  0.800958  0.945296  0.988930  1
  S  S125  1  0.300958  0.054704  0.011070  1
  S  S126  1  0.550958  0.511070  0.445296  1
  S  S127  1  0.050958  0.488930  0.554704  1
  S  S128  1  0.000000  0.041714  0.041714  1
  S  S129  1  0.750000  0.458286  0.541714  1
  S  S130  1  0.250000  0.541714  0.458286  1
  S  S131  1  0.500000  0.958286  0.958286  1
  Ta  Ta132  1  0.775127  0.178416  0.671044  1
  Ta  Ta133  1  0.525127  0.828956  0.678416  1
  Ta  Ta134  1  0.025127  0.171044  0.321584  1
  Ta  Ta135  1  0.275127  0.821584  0.328956  1
  Ta  Ta136  1  0.474873  0.678416  0.828956  1
  Ta  Ta137  1  0.974873  0.321584  0.171044  1
  Ta  Ta138  1  0.224873  0.671044  0.178416  1
  Ta  Ta139  1  0.724873  0.328956  0.821584  1
  Ta  Ta140  1  0.275973  0.179849  0.669723  1
  Ta  Ta141  1  0.025973  0.830277  0.679849  1
  Ta  Ta142  1  0.525973  0.169723  0.320151  1
  Ta  Ta143  1  0.775973  0.820151  0.330277  1
  Ta  Ta144  1  0.974027  0.679849  0.830277  1
  Ta  Ta145  1  0.474027  0.320151  0.169723  1
  Ta  Ta146  1  0.724027  0.669723  0.179849  1
  Ta  Ta147  1  0.224027  0.330277  0.820151  1
