# generated using pymatgen
data_H11NF8
_symmetry_space_group_name_H-M   'P 1'
_cell_length_a   6.91579105
_cell_length_b   7.69297119
_cell_length_c   14.61477034
_cell_angle_alpha   90.00000000
_cell_angle_beta   102.98747943
_cell_angle_gamma   90.00000000
_symmetry_Int_Tables_number   1
_chemical_formula_structural   H11NF8
_chemical_formula_sum   'H44 N4 F32'
_cell_volume   757.65901827
_cell_formula_units_Z   4
loop_
 _symmetry_equiv_pos_site_id
 _symmetry_equiv_pos_as_xyz
  1  'x, y, z'
loop_
 _atom_site_type_symbol
 _atom_site_label
 _atom_site_symmetry_multiplicity
 _atom_site_fract_x
 _atom_site_fract_y
 _atom_site_fract_z
 _atom_site_occupancy
  H  H0  1  0.893377  0.484670  0.847335  1
  H  H1  1  0.606623  0.984670  0.652665  1
  H  H2  1  0.106623  0.515330  0.152665  1
  H  H3  1  0.393377  0.015330  0.347335  1
  H  H4  1  0.024644  0.617376  0.792798  1
  H  H5  1  0.475356  0.117376  0.707202  1
  H  H6  1  0.975356  0.382624  0.207202  1
  H  H7  1  0.524644  0.882624  0.292798  1
  H  H8  1  0.796815  0.675695  0.804175  1
  H  H9  1  0.703185  0.175695  0.695825  1
  H  H10  1  0.203185  0.324305  0.195825  1
  H  H11  1  0.296815  0.824305  0.304175  1
  H  H12  1  0.989732  0.669195  0.899986  1
  H  H13  1  0.510268  0.169195  0.600014  1
  H  H14  1  0.010268  0.330805  0.100014  1
  H  H15  1  0.489732  0.830805  0.399986  1
  H  H16  1  0.515245  0.602447  0.150369  1
  H  H17  1  0.984755  0.102447  0.349631  1
  H  H18  1  0.484755  0.397553  0.849631  1
  H  H19  1  0.270737  0.994388  0.831466  1
  H  H20  1  0.015245  0.897553  0.650369  1
  H  H21  1  0.856340  0.170571  0.461809  1
  H  H22  1  0.356340  0.329429  0.961808  1
  H  H23  1  0.143660  0.829429  0.538192  1
  H  H24  1  0.881584  0.182563  0.946657  1
  H  H25  1  0.618416  0.682563  0.553343  1
  H  H26  1  0.118416  0.817437  0.053343  1
  H  H27  1  0.381584  0.317437  0.446657  1
  H  H28  1  0.730708  0.926480  0.938187  1
  H  H29  1  0.769292  0.426480  0.561813  1
  H  H30  1  0.269292  0.073520  0.061813  1
  H  H31  1  0.230708  0.573520  0.438187  1
  H  H32  1  0.429831  0.830624  0.926881  1
  H  H33  1  0.070169  0.330624  0.573119  1
  H  H34  1  0.570169  0.169376  0.073119  1
  H  H35  1  0.929831  0.669376  0.426881  1
  H  H36  1  0.571502  0.302737  0.265768  1
  H  H37  1  0.928498  0.802737  0.234232  1
  H  H38  1  0.428498  0.697263  0.734232  1
  H  H39  1  0.071502  0.197263  0.765768  1
  H  H40  1  0.770737  0.505612  0.331466  1
  H  H41  1  0.729263  0.005612  0.168534  1
  H  H42  1  0.229263  0.494388  0.668534  1
  H  H43  1  0.643660  0.670571  0.038192  1
  N  N44  1  0.926368  0.612339  0.836149  1
  N  N45  1  0.573632  0.112339  0.663851  1
  N  N46  1  0.073632  0.387661  0.163851  1
  N  N47  1  0.426368  0.887661  0.336149  1
  F  F48  1  0.422638  0.615827  0.191200  1
  F  F49  1  0.077362  0.115827  0.308800  1
  F  F50  1  0.577362  0.384173  0.808800  1
  F  F51  1  0.922638  0.884173  0.691200  1
  F  F52  1  0.657982  0.575817  0.085846  1
  F  F53  1  0.842018  0.075817  0.414154  1
  F  F54  1  0.342018  0.424183  0.914154  1
  F  F55  1  0.157982  0.924183  0.585846  1
  F  F56  1  0.937722  0.295594  0.969318  1
  F  F57  1  0.562278  0.795594  0.530682  1
  F  F58  1  0.062278  0.704406  0.030682  1
  F  F59  1  0.437722  0.204406  0.469318  1
  F  F60  1  0.811464  0.007026  0.907449  1
  F  F61  1  0.688536  0.507026  0.592551  1
  F  F62  1  0.188536  0.992974  0.092551  1
  F  F63  1  0.311464  0.492974  0.407449  1
  F  F64  1  0.608171  0.808439  0.971264  1
  F  F65  1  0.891829  0.308439  0.528736  1
  F  F66  1  0.391829  0.191561  0.028736  1
  F  F67  1  0.108171  0.691561  0.471264  1
  F  F68  1  0.282141  0.856389  0.890330  1
  F  F69  1  0.217859  0.356389  0.609670  1
  F  F70  1  0.717859  0.143611  0.109670  1
  F  F71  1  0.782141  0.643611  0.390330  1
  F  F72  1  0.265978  0.099197  0.788424  1
  F  F73  1  0.234022  0.599197  0.711576  1
  F  F74  1  0.734022  0.900803  0.211576  1
  F  F75  1  0.765978  0.400803  0.288424  1
  F  F76  1  0.952599  0.269978  0.749944  1
  F  F77  1  0.547401  0.769978  0.750056  1
  F  F78  1  0.047401  0.730022  0.250056  1
  F  F79  1  0.452599  0.230022  0.249944  1
