# generated using pymatgen
data_CrHgH18N6Cl5
_symmetry_space_group_name_H-M   'P 1'
_cell_length_a   16.30488292
_cell_length_b   16.30488295
_cell_length_c   16.30488279
_cell_angle_alpha   60.00000034
_cell_angle_beta   60.00000028
_cell_angle_gamma   60.00000149
_symmetry_Int_Tables_number   1
_chemical_formula_structural   CrHgH18N6Cl5
_chemical_formula_sum   'Cr8 Hg8 H144 N48 Cl40'
_cell_volume   3065.05350452
_cell_formula_units_Z   8
loop_
 _symmetry_equiv_pos_site_id
 _symmetry_equiv_pos_as_xyz
  1  'x, y, z'
loop_
 _atom_site_type_symbol
 _atom_site_label
 _atom_site_symmetry_multiplicity
 _atom_site_fract_x
 _atom_site_fract_y
 _atom_site_fract_z
 _atom_site_occupancy
  H  H0  1  0.997433  0.927359  0.187090  1
  H  H1  1  0.572641  0.312910  0.111882  1
  H  H2  1  0.111882  0.502567  0.572641  1
  H  H3  1  0.572641  0.111882  0.502567  1
  H  H4  1  0.312910  0.502567  0.111882  1
  H  H5  1  0.312910  0.111882  0.572641  1
  H  H6  1  0.111882  0.312910  0.502567  1
  H  H7  1  0.187090  0.997433  0.927359  1
  H  H8  1  0.927359  0.187090  0.997433  1
  H  H9  1  0.388118  0.997433  0.187090  1
  H  H10  1  0.927359  0.388118  0.187090  1
  H  H11  1  0.388118  0.927359  0.997433  1
  H  H12  1  0.187090  0.927359  0.388118  1
  H  H13  1  0.997433  0.187090  0.388118  1
  H  H14  1  0.997433  0.388118  0.927359  1
  H  H15  1  0.111882  0.572641  0.312910  1
  H  H16  1  0.502567  0.111882  0.312910  1
  H  H17  1  0.502567  0.572641  0.111882  1
  H  H18  1  0.572641  0.502567  0.312910  1
  H  H19  1  0.312910  0.572641  0.502567  1
  H  H20  1  0.502567  0.312910  0.572641  1
  H  H21  1  0.187090  0.388118  0.997433  1
  H  H22  1  0.388118  0.187090  0.927359  1
  H  H23  1  0.927359  0.997433  0.388118  1
  H  H24  1  0.002567  0.072641  0.812910  1
  H  H25  1  0.427359  0.687090  0.888118  1
  H  H26  1  0.888118  0.497433  0.427359  1
  H  H27  1  0.427359  0.888118  0.497433  1
  H  H28  1  0.687090  0.497433  0.888118  1
  H  H29  1  0.687090  0.888118  0.427359  1
  H  H30  1  0.888118  0.687090  0.497433  1
  H  H31  1  0.812910  0.002567  0.072641  1
  H  H32  1  0.072641  0.812910  0.002567  1
  H  H33  1  0.611882  0.002567  0.812910  1
  H  H34  1  0.072641  0.611882  0.812910  1
  H  H35  1  0.611882  0.072641  0.002567  1
  H  H36  1  0.812910  0.072641  0.611882  1
  H  H37  1  0.002567  0.812910  0.611882  1
  H  H38  1  0.002567  0.611882  0.072641  1
  H  H39  1  0.888118  0.427359  0.687090  1
  H  H40  1  0.497433  0.888118  0.687090  1
  H  H41  1  0.497433  0.427359  0.888118  1
  H  H42  1  0.427359  0.497433  0.687090  1
  H  H43  1  0.687090  0.427359  0.497433  1
  H  H44  1  0.497433  0.687090  0.427359  1
  H  H45  1  0.812910  0.611882  0.002567  1
  H  H46  1  0.611882  0.812910  0.072641  1
  H  H47  1  0.072641  0.002567  0.611882  1
  H  H48  1  0.880718  0.979214  0.188897  1
  H  H49  1  0.520786  0.311103  0.048829  1
  H  H50  1  0.048829  0.619282  0.520786  1
  H  H51  1  0.520786  0.048829  0.619282  1
  H  H52  1  0.311103  0.619282  0.048829  1
  H  H53  1  0.311103  0.048829  0.520786  1
  H  H54  1  0.048829  0.311103  0.619282  1
  H  H55  1  0.188897  0.880718  0.979214  1
  H  H56  1  0.979214  0.188897  0.880718  1
  H  H57  1  0.451171  0.880718  0.188897  1
  H  H58  1  0.979214  0.451171  0.188897  1
  H  H59  1  0.451171  0.979214  0.880718  1
  H  H60  1  0.188897  0.979214  0.451171  1
  H  H61  1  0.880718  0.188897  0.451171  1
  H  H62  1  0.880718  0.451171  0.979214  1
  H  H63  1  0.048829  0.520786  0.311103  1
  H  H64  1  0.619282  0.048829  0.311103  1
  H  H65  1  0.619282  0.520786  0.048829  1
  H  H66  1  0.520786  0.619282  0.311103  1
  H  H67  1  0.311103  0.520786  0.619282  1
  H  H68  1  0.619282  0.311103  0.520786  1
  H  H69  1  0.188897  0.451171  0.880718  1
  H  H70  1  0.451171  0.188897  0.979214  1
  H  H71  1  0.979214  0.880718  0.451171  1
  H  H72  1  0.119282  0.020786  0.811103  1
  H  H73  1  0.479214  0.688897  0.951171  1
  H  H74  1  0.951171  0.380718  0.479214  1
  H  H75  1  0.479214  0.951171  0.380718  1
  H  H76  1  0.688897  0.380718  0.951171  1
  H  H77  1  0.688897  0.951171  0.479214  1
  H  H78  1  0.951171  0.688897  0.380718  1
  H  H79  1  0.811103  0.119282  0.020786  1
  H  H80  1  0.020786  0.811103  0.119282  1
  H  H81  1  0.548829  0.119282  0.811103  1
  H  H82  1  0.020786  0.548829  0.811103  1
  H  H83  1  0.548829  0.020786  0.119282  1
  H  H84  1  0.811103  0.020786  0.548829  1
  H  H85  1  0.119282  0.811103  0.548829  1
  H  H86  1  0.119282  0.548829  0.020786  1
  H  H87  1  0.951171  0.479214  0.688897  1
  H  H88  1  0.380718  0.951171  0.688897  1
  H  H89  1  0.380718  0.479214  0.951171  1
  H  H90  1  0.479214  0.380718  0.688897  1
  H  H91  1  0.688897  0.479214  0.380718  1
  H  H92  1  0.380718  0.688897  0.479214  1
  H  H93  1  0.811103  0.548829  0.119282  1
  H  H94  1  0.548829  0.811103  0.020786  1
  H  H95  1  0.020786  0.119282  0.548829  1
  H  H96  1  0.943116  0.051164  0.159465  1
  H  H97  1  0.448836  0.340535  0.153746  1
  H  H98  1  0.153746  0.556884  0.448836  1
  H  H99  1  0.448836  0.153746  0.556884  1
  H  H100  1  0.340535  0.556884  0.153746  1
  H  H101  1  0.340535  0.153746  0.448836  1
  H  H102  1  0.153746  0.340535  0.556884  1
  H  H103  1  0.159465  0.943116  0.051164  1
  H  H104  1  0.051164  0.159465  0.943116  1
  H  H105  1  0.346254  0.943116  0.159465  1
  H  H106  1  0.051164  0.346254  0.159465  1
  H  H107  1  0.346254  0.051164  0.943116  1
  H  H108  1  0.159465  0.051164  0.346254  1
  H  H109  1  0.943116  0.159465  0.346254  1
  H  H110  1  0.943116  0.346254  0.051164  1
  H  H111  1  0.153746  0.448836  0.340535  1
  H  H112  1  0.556884  0.153746  0.340535  1
  H  H113  1  0.556884  0.448836  0.153746  1
  H  H114  1  0.448836  0.556884  0.340535  1
  H  H115  1  0.340535  0.448836  0.556884  1
  H  H116  1  0.556884  0.340535  0.448836  1
  H  H117  1  0.159465  0.346254  0.943116  1
  H  H118  1  0.346254  0.159465  0.051164  1
  H  H119  1  0.051164  0.943116  0.346254  1
  H  H120  1  0.056884  0.948836  0.840535  1
  H  H121  1  0.551164  0.659465  0.846254  1
  H  H122  1  0.846254  0.443116  0.551164  1
  H  H123  1  0.551164  0.846254  0.443116  1
  H  H124  1  0.659465  0.443116  0.846254  1
  H  H125  1  0.659465  0.846254  0.551164  1
  H  H126  1  0.846254  0.659465  0.443116  1
  H  H127  1  0.840535  0.056884  0.948836  1
  H  H128  1  0.948836  0.840535  0.056884  1
  H  H129  1  0.653746  0.056884  0.840535  1
  H  H130  1  0.948836  0.653746  0.840535  1
  H  H131  1  0.653746  0.948836  0.056884  1
  H  H132  1  0.840535  0.948836  0.653746  1
  H  H133  1  0.056884  0.840535  0.653746  1
  H  H134  1  0.056884  0.653746  0.948836  1
  H  H135  1  0.846254  0.551164  0.659465  1
  H  H136  1  0.443116  0.846254  0.659465  1
  H  H137  1  0.443116  0.551164  0.846254  1
  H  H138  1  0.551164  0.443116  0.659465  1
  H  H139  1  0.659465  0.551164  0.443116  1
  H  H140  1  0.443116  0.659465  0.551164  1
  H  H141  1  0.840535  0.653746  0.056884  1
  H  H142  1  0.653746  0.840535  0.948836  1
  H  H143  1  0.948836  0.056884  0.653746  1
  N  N144  1  0.949713  0.989757  0.150259  1
  N  N145  1  0.510243  0.349741  0.089729  1
  N  N146  1  0.089729  0.550287  0.510243  1
  N  N147  1  0.510243  0.089729  0.550287  1
  N  N148  1  0.349741  0.550287  0.089729  1
  N  N149  1  0.349741  0.089729  0.510243  1
  N  N150  1  0.089729  0.349741  0.550287  1
  N  N151  1  0.150259  0.949713  0.989757  1
  N  N152  1  0.989757  0.150259  0.949713  1
  N  N153  1  0.410271  0.949713  0.150259  1
  N  N154  1  0.989757  0.410271  0.150259  1
  N  N155  1  0.410271  0.989757  0.949713  1
  N  N156  1  0.150259  0.989757  0.410271  1
  N  N157  1  0.949713  0.150259  0.410271  1
  N  N158  1  0.949713  0.410271  0.989757  1
  N  N159  1  0.089729  0.510243  0.349741  1
  N  N160  1  0.550287  0.089729  0.349741  1
  N  N161  1  0.550287  0.510243  0.089729  1
  N  N162  1  0.510243  0.550287  0.349741  1
  N  N163  1  0.349741  0.510243  0.550287  1
  N  N164  1  0.550287  0.349741  0.510243  1
  N  N165  1  0.150259  0.410271  0.949713  1
  N  N166  1  0.410271  0.150259  0.989757  1
  N  N167  1  0.989757  0.949713  0.410271  1
  N  N168  1  0.050287  0.010243  0.849741  1
  N  N169  1  0.489757  0.650259  0.910271  1
  N  N170  1  0.910271  0.449713  0.489757  1
  N  N171  1  0.489757  0.910271  0.449713  1
  N  N172  1  0.650259  0.449713  0.910271  1
  N  N173  1  0.650259  0.910271  0.489757  1
  N  N174  1  0.910271  0.650259  0.449713  1
  N  N175  1  0.849741  0.050287  0.010243  1
  N  N176  1  0.010243  0.849741  0.050287  1
  N  N177  1  0.589729  0.050287  0.849741  1
  N  N178  1  0.010243  0.589729  0.849741  1
  N  N179  1  0.589729  0.010243  0.050287  1
  N  N180  1  0.849741  0.010243  0.589729  1
  N  N181  1  0.050287  0.849741  0.589729  1
  N  N182  1  0.050287  0.589729  0.010243  1
  N  N183  1  0.910271  0.489757  0.650259  1
  N  N184  1  0.449713  0.910271  0.650259  1
  N  N185  1  0.449713  0.489757  0.910271  1
  N  N186  1  0.489757  0.449713  0.650259  1
  N  N187  1  0.650259  0.489757  0.449713  1
  N  N188  1  0.449713  0.650259  0.489757  1
  N  N189  1  0.849741  0.589729  0.050287  1
  N  N190  1  0.589729  0.849741  0.010243  1
  N  N191  1  0.010243  0.050287  0.589729  1
  Cl  Cl192  1  0.186982  0.186982  0.186982  1
  Cl  Cl193  1  0.313018  0.313018  0.560946  1
  Cl  Cl194  1  0.560946  0.313018  0.313018  1
  Cl  Cl195  1  0.313018  0.560946  0.313018  1
  Cl  Cl196  1  0.939054  0.186982  0.186982  1
  Cl  Cl197  1  0.186982  0.939054  0.186982  1
  Cl  Cl198  1  0.186982  0.186982  0.939054  1
  Cl  Cl199  1  0.313018  0.313018  0.313018  1
  Cl  Cl200  1  0.813018  0.813018  0.813018  1
  Cl  Cl201  1  0.686982  0.686982  0.439054  1
  Cl  Cl202  1  0.439054  0.686982  0.686982  1
  Cl  Cl203  1  0.686982  0.439054  0.686982  1
  Cl  Cl204  1  0.060946  0.813018  0.813018  1
  Cl  Cl205  1  0.813018  0.060946  0.813018  1
  Cl  Cl206  1  0.813018  0.813018  0.060946  1
  Cl  Cl207  1  0.686982  0.686982  0.686982  1
  Cl  Cl208  1  0.250000  0.419383  0.080617  1
  Cl  Cl209  1  0.080617  0.419383  0.750000  1
  Cl  Cl210  1  0.750000  0.250000  0.080617  1
  Cl  Cl211  1  0.080617  0.750000  0.250000  1
  Cl  Cl212  1  0.419383  0.250000  0.750000  1
  Cl  Cl213  1  0.419383  0.750000  0.080617  1
  Cl  Cl214  1  0.750000  0.419383  0.250000  1
  Cl  Cl215  1  0.080617  0.250000  0.419383  1
  Cl  Cl216  1  0.419383  0.080617  0.250000  1
  Cl  Cl217  1  0.250000  0.080617  0.750000  1
  Cl  Cl218  1  0.250000  0.750000  0.419383  1
  Cl  Cl219  1  0.750000  0.080617  0.419383  1
  Cl  Cl220  1  0.750000  0.580617  0.919383  1
  Cl  Cl221  1  0.919383  0.580617  0.250000  1
  Cl  Cl222  1  0.250000  0.750000  0.919383  1
  Cl  Cl223  1  0.919383  0.250000  0.750000  1
  Cl  Cl224  1  0.580617  0.750000  0.250000  1
  Cl  Cl225  1  0.580617  0.250000  0.919383  1
  Cl  Cl226  1  0.250000  0.580617  0.750000  1
  Cl  Cl227  1  0.919383  0.750000  0.580617  1
  Cl  Cl228  1  0.580617  0.919383  0.750000  1
  Cl  Cl229  1  0.750000  0.919383  0.250000  1
  Cl  Cl230  1  0.750000  0.250000  0.580617  1
  Cl  Cl231  1  0.250000  0.919383  0.580617  1
  Cr  Cr232  1  0.000000  0.000000  0.000000  1
  Cr  Cr233  1  0.500000  0.500000  0.000000  1
  Cr  Cr234  1  0.000000  0.500000  0.500000  1
  Cr  Cr235  1  0.500000  0.000000  0.500000  1
  Cr  Cr236  1  0.500000  0.000000  0.000000  1
  Cr  Cr237  1  0.000000  0.500000  0.000000  1
  Cr  Cr238  1  0.000000  0.000000  0.500000  1
  Cr  Cr239  1  0.500000  0.500000  0.500000  1
  Hg  Hg240  1  0.250000  0.250000  0.250000  1
  Hg  Hg241  1  0.250000  0.250000  0.750000  1
  Hg  Hg242  1  0.750000  0.250000  0.250000  1
  Hg  Hg243  1  0.250000  0.750000  0.250000  1
  Hg  Hg244  1  0.750000  0.750000  0.750000  1
  Hg  Hg245  1  0.750000  0.750000  0.250000  1
  Hg  Hg246  1  0.250000  0.750000  0.750000  1
  Hg  Hg247  1  0.750000  0.250000  0.750000  1
