# generated using pymatgen
data_MgH4(ClO)2
_symmetry_space_group_name_H-M   'P 1'
_cell_length_a   3.70305407
_cell_length_b   5.84716508
_cell_length_c   5.84716508
_cell_angle_alpha   92.98257774
_cell_angle_beta   100.29935327
_cell_angle_gamma   100.29935332
_symmetry_Int_Tables_number   1
_chemical_formula_structural   MgH4(ClO)2
_chemical_formula_sum   'Mg1 H4 Cl2 O2'
_cell_volume   122.09561728
_cell_formula_units_Z   1
loop_
 _symmetry_equiv_pos_site_id
 _symmetry_equiv_pos_as_xyz
  1  'x, y, z'
loop_
 _atom_site_type_symbol
 _atom_site_label
 _atom_site_symmetry_multiplicity
 _atom_site_fract_x
 _atom_site_fract_y
 _atom_site_fract_z
 _atom_site_occupancy
  H  H0  1  0.851125  0.220059  0.599036  1
  H  H1  1  0.148875  0.400964  0.779941  1
  H  H2  1  0.148875  0.779941  0.400964  1
  H  H3  1  0.851125  0.599036  0.220059  1
  O  O4  1  1.000000  0.241097  0.758903  1
  O  O5  1  0.000000  0.758903  0.241097  1
  Mg  Mg6  1  0.000000  0.000000  0.000000  1
  Cl  Cl7  1  0.382506  0.773239  0.773239  1
  Cl  Cl8  1  0.617494  0.226761  0.226761  1
