# generated using pymatgen
data_TbGeRh
_symmetry_space_group_name_H-M   'P 1'
_cell_length_a   4.43286808
_cell_length_b   6.99290360
_cell_length_c   7.45350190
_cell_angle_alpha   90.00000000
_cell_angle_beta   90.00000000
_cell_angle_gamma   90.00000000
_symmetry_Int_Tables_number   1
_chemical_formula_structural   TbGeRh
_chemical_formula_sum   'Tb4 Ge4 Rh4'
_cell_volume   231.04826677
_cell_formula_units_Z   4
loop_
 _symmetry_equiv_pos_site_id
 _symmetry_equiv_pos_as_xyz
  1  'x, y, z'
loop_
 _atom_site_type_symbol
 _atom_site_label
 _atom_site_symmetry_multiplicity
 _atom_site_fract_x
 _atom_site_fract_y
 _atom_site_fract_z
 _atom_site_occupancy
  Ge  Ge0  1  0.750000  0.189453  0.413697  1
  Ge  Ge1  1  0.250000  0.810547  0.586303  1
  Ge  Ge2  1  0.750000  0.689453  0.086303  1
  Ge  Ge3  1  0.250000  0.310547  0.913697  1
  Rh  Rh4  1  0.750000  0.804667  0.413456  1
  Rh  Rh5  1  0.250000  0.195333  0.586544  1
  Rh  Rh6  1  0.750000  0.304667  0.086544  1
  Rh  Rh7  1  0.250000  0.695333  0.913456  1
  Tb  Tb8  1  0.750000  0.015359  0.799661  1
  Tb  Tb9  1  0.250000  0.984641  0.200339  1
  Tb  Tb10  1  0.750000  0.515359  0.700339  1
  Tb  Tb11  1  0.250000  0.484640  0.299661  1
