# generated using pymatgen
data_P2H8O9
_symmetry_space_group_name_H-M   'P 1'
_cell_length_a   7.53541276
_cell_length_b   7.98883601
_cell_length_c   13.05573139
_cell_angle_alpha   90.00000000
_cell_angle_beta   90.00000000
_cell_angle_gamma   109.66923924
_symmetry_Int_Tables_number   1
_chemical_formula_structural   P2H8O9
_chemical_formula_sum   'P8 H32 O36'
_cell_volume   740.08552395
_cell_formula_units_Z   4
loop_
 _symmetry_equiv_pos_site_id
 _symmetry_equiv_pos_as_xyz
  1  'x, y, z'
loop_
 _atom_site_type_symbol
 _atom_site_label
 _atom_site_symmetry_multiplicity
 _atom_site_fract_x
 _atom_site_fract_y
 _atom_site_fract_z
 _atom_site_occupancy
  H  H0  1  0.128978  0.910151  0.407927  1
  H  H1  1  0.871022  0.589849  0.907927  1
  H  H2  1  0.871022  0.089849  0.592073  1
  H  H3  1  0.128978  0.410151  0.092073  1
  H  H4  1  0.600833  0.583359  0.300338  1
  H  H5  1  0.399167  0.916641  0.800338  1
  H  H6  1  0.399167  0.416641  0.699662  1
  H  H7  1  0.600833  0.083359  0.199662  1
  H  H8  1  0.447884  0.792693  0.371191  1
  H  H9  1  0.552116  0.707307  0.871191  1
  H  H10  1  0.552116  0.207307  0.628809  1
  H  H11  1  0.447884  0.292693  0.128809  1
  H  H12  1  0.878419  0.976885  0.398056  1
  H  H13  1  0.121581  0.523115  0.898056  1
  H  H14  1  0.121581  0.023115  0.601944  1
  H  H15  1  0.878419  0.476885  0.101944  1
  H  H16  1  0.955515  0.241507  0.119372  1
  H  H17  1  0.044485  0.258493  0.619372  1
  H  H18  1  0.044485  0.758493  0.880628  1
  H  H19  1  0.955515  0.741507  0.380628  1
  H  H20  1  0.066571  0.414403  0.261001  1
  H  H21  1  0.933429  0.085597  0.761001  1
  H  H22  1  0.933429  0.585597  0.738999  1
  H  H23  1  0.066571  0.914403  0.238999  1
  H  H24  1  0.406462  0.253690  0.391089  1
  H  H25  1  0.593538  0.246309  0.891089  1
  H  H26  1  0.593538  0.746309  0.608911  1
  H  H27  1  0.406462  0.753691  0.108911  1
  H  H28  1  0.733651  0.419806  0.452394  1
  H  H29  1  0.266349  0.080194  0.952394  1
  H  H30  1  0.266349  0.580194  0.547606  1
  H  H31  1  0.733651  0.919806  0.047606  1
  O  O32  1  0.293169  0.912493  0.750337  1
  O  O33  1  0.801392  0.538574  0.488053  1
  O  O34  1  0.801392  0.038574  0.011947  1
  O  O35  1  0.198608  0.461426  0.511947  1
  O  O36  1  0.605260  0.745030  0.098924  1
  O  O37  1  0.394740  0.754970  0.598924  1
  O  O38  1  0.016639  0.368096  0.135977  1
  O  O39  1  0.605260  0.245030  0.401076  1
  O  O40  1  0.801082  0.547148  0.071164  1
  O  O41  1  0.198918  0.952852  0.571164  1
  O  O42  1  0.198918  0.452852  0.928836  1
  O  O43  1  0.801082  0.047148  0.428836  1
  O  O44  1  0.448779  0.421854  0.124139  1
  O  O45  1  0.551221  0.078146  0.624139  1
  O  O46  1  0.551221  0.578146  0.875861  1
  O  O47  1  0.448779  0.921854  0.375861  1
  O  O48  1  0.706831  0.587507  0.250337  1
  O  O49  1  0.198608  0.961426  0.988053  1
  O  O50  1  0.293169  0.412493  0.749663  1
  O  O51  1  0.706831  0.087507  0.249663  1
  O  O52  1  0.273101  0.760231  0.119447  1
  O  O53  1  0.726899  0.739769  0.619447  1
  O  O54  1  0.726899  0.239769  0.880553  1
  O  O55  1  0.273101  0.260231  0.380553  1
  O  O56  1  0.075553  0.947056  0.164193  1
  O  O57  1  0.924447  0.552944  0.664193  1
  O  O58  1  0.924447  0.052944  0.835807  1
  O  O59  1  0.075553  0.447056  0.335807  1
  O  O60  1  0.433607  0.097484  0.131986  1
  O  O61  1  0.566393  0.402516  0.631986  1
  O  O62  1  0.566393  0.902516  0.868014  1
  O  O63  1  0.433607  0.597484  0.368014  1
  O  O64  1  0.016639  0.868096  0.364023  1
  O  O65  1  0.983361  0.631904  0.864023  1
  O  O66  1  0.983361  0.131904  0.635977  1
  O  O67  1  0.394740  0.254970  0.901076  1
  P  P68  1  0.639927  0.079217  0.364232  1
  P  P69  1  0.360073  0.420783  0.864232  1
  P  P70  1  0.360073  0.920783  0.635768  1
  P  P71  1  0.639927  0.579217  0.135768  1
  P  P72  1  0.254349  0.947196  0.102805  1
  P  P73  1  0.745651  0.552804  0.602805  1
  P  P74  1  0.745651  0.052804  0.897195  1
  P  P75  1  0.254349  0.447196  0.397195  1
