# generated using pymatgen
data_In6WO12
_symmetry_space_group_name_H-M   'P 1'
_cell_length_a   6.34693685
_cell_length_b   6.34693685
_cell_length_c   6.34693686
_cell_angle_alpha   99.12455810
_cell_angle_beta   99.12455800
_cell_angle_gamma   99.12455808
_symmetry_Int_Tables_number   1
_chemical_formula_structural   In6WO12
_chemical_formula_sum   'In6 W1 O12'
_cell_volume   244.78099930
_cell_formula_units_Z   1
loop_
 _symmetry_equiv_pos_site_id
 _symmetry_equiv_pos_as_xyz
  1  'x, y, z'
loop_
 _atom_site_type_symbol
 _atom_site_label
 _atom_site_symmetry_multiplicity
 _atom_site_fract_x
 _atom_site_fract_y
 _atom_site_fract_z
 _atom_site_occupancy
  O  O0  1  0.175963  0.595221  0.413974  1
  O  O1  1  0.595221  0.413974  0.175963  1
  O  O2  1  0.413974  0.175963  0.595221  1
  O  O3  1  0.824037  0.404779  0.586026  1
  O  O4  1  0.404779  0.586026  0.824037  1
  O  O5  1  0.586026  0.824037  0.404779  1
  O  O6  1  0.704191  0.041626  0.897140  1
  O  O7  1  0.102860  0.295809  0.958374  1
  O  O8  1  0.958374  0.102860  0.295809  1
  O  O9  1  0.295809  0.958374  0.102860  1
  O  O10  1  0.897140  0.704191  0.041626  1
  O  O11  1  0.041626  0.897140  0.704191  1
  In  In12  1  0.395572  0.859788  0.676238  1
  In  In13  1  0.859788  0.676238  0.395572  1
  In  In14  1  0.676238  0.395572  0.859788  1
  In  In15  1  0.604428  0.140212  0.323762  1
  In  In16  1  0.140212  0.323762  0.604428  1
  In  In17  1  0.323762  0.604428  0.140212  1
  W  W18  1  0.000000  0.000000  0.000000  1
