# generated using pymatgen
data_NaNd2OsO6
_symmetry_space_group_name_H-M   'P 1'
_cell_length_a   5.57089924
_cell_length_b   5.98701323
_cell_length_c   8.04886109
_cell_angle_alpha   90.00000000
_cell_angle_beta   91.03379178
_cell_angle_gamma   90.00000000
_symmetry_Int_Tables_number   1
_chemical_formula_structural   NaNd2OsO6
_chemical_formula_sum   'Na2 Nd4 Os2 O12'
_cell_volume   268.41034916
_cell_formula_units_Z   2
loop_
 _symmetry_equiv_pos_site_id
 _symmetry_equiv_pos_as_xyz
  1  'x, y, z'
loop_
 _atom_site_type_symbol
 _atom_site_label
 _atom_site_symmetry_multiplicity
 _atom_site_fract_x
 _atom_site_fract_y
 _atom_site_fract_z
 _atom_site_occupancy
  O  O0  1  0.837257  0.718399  0.571332  1
  O  O1  1  0.662743  0.218399  0.928668  1
  O  O2  1  0.162743  0.281601  0.428668  1
  O  O3  1  0.337257  0.781601  0.071332  1
  O  O4  1  0.123787  0.052946  0.729987  1
  O  O5  1  0.376213  0.552946  0.770013  1
  O  O6  1  0.876213  0.947054  0.270013  1
  O  O7  1  0.623787  0.447054  0.229987  1
  O  O8  1  0.206685  0.327072  0.053090  1
  O  O9  1  0.293315  0.827072  0.446910  1
  O  O10  1  0.793315  0.672928  0.946910  1
  O  O11  1  0.706685  0.172928  0.553090  1
  Na  Na12  1  0.500000  0.500000  0.500000  1
  Na  Na13  1  0.000000  0.000000  0.000000  1
  Nd  Nd14  1  0.478212  0.071689  0.253823  1
  Nd  Nd15  1  0.021788  0.571689  0.246177  1
  Nd  Nd16  1  0.978212  0.428311  0.753823  1
  Nd  Nd17  1  0.521788  0.928311  0.746177  1
  Os  Os18  1  0.500000  0.500000  0.000000  1
  Os  Os19  1  0.000000  0.000000  0.500000  1
