# generated using pymatgen
data_Sb2IF15
_symmetry_space_group_name_H-M   'P 1'
_cell_length_a   8.67993234
_cell_length_b   10.14969479
_cell_length_c   15.19317162
_cell_angle_alpha   90.00000000
_cell_angle_beta   90.00000000
_cell_angle_gamma   112.53104741
_symmetry_Int_Tables_number   1
_chemical_formula_structural   Sb2IF15
_chemical_formula_sum   'Sb8 I4 F60'
_cell_volume   1236.33327643
_cell_formula_units_Z   4
loop_
 _symmetry_equiv_pos_site_id
 _symmetry_equiv_pos_as_xyz
  1  'x, y, z'
loop_
 _atom_site_type_symbol
 _atom_site_label
 _atom_site_symmetry_multiplicity
 _atom_site_fract_x
 _atom_site_fract_y
 _atom_site_fract_z
 _atom_site_occupancy
  F  F0  1  0.342295  0.391538  0.646921  1
  F  F1  1  0.657705  0.108462  0.146921  1
  F  F2  1  0.657705  0.608462  0.353079  1
  F  F3  1  0.342295  0.891538  0.853079  1
  F  F4  1  0.137920  0.156574  0.556268  1
  F  F5  1  0.862080  0.343426  0.056268  1
  F  F6  1  0.862080  0.843426  0.443732  1
  F  F7  1  0.137920  0.656574  0.943732  1
  F  F8  1  0.229123  0.557552  0.552609  1
  F  F9  1  0.770877  0.942448  0.052609  1
  F  F10  1  0.770877  0.442448  0.447391  1
  F  F11  1  0.229123  0.057552  0.947391  1
  F  F12  1  0.264105  0.908570  0.514875  1
  F  F13  1  0.735895  0.591430  0.014875  1
  F  F14  1  0.735895  0.091430  0.485125  1
  F  F15  1  0.264105  0.408570  0.985125  1
  F  F16  1  0.482143  0.813302  0.543399  1
  F  F17  1  0.517857  0.686698  0.043399  1
  F  F18  1  0.517857  0.186698  0.456601  1
  F  F19  1  0.482143  0.313302  0.956601  1
  F  F20  1  0.416993  0.981428  0.658595  1
  F  F21  1  0.583007  0.518572  0.158595  1
  F  F22  1  0.583007  0.018572  0.341405  1
  F  F23  1  0.416993  0.481428  0.841405  1
  F  F24  1  0.408953  0.740514  0.700782  1
  F  F25  1  0.591047  0.759486  0.200782  1
  F  F26  1  0.591047  0.259486  0.299218  1
  F  F27  1  0.408953  0.240514  0.799218  1
  F  F28  1  0.748314  0.900671  0.839355  1
  F  F29  1  0.251686  0.599329  0.339355  1
  F  F30  1  0.251686  0.099329  0.160645  1
  F  F31  1  0.748314  0.400671  0.660645  1
  F  F32  1  0.810422  0.941670  0.654999  1
  F  F33  1  0.189578  0.558330  0.154999  1
  F  F34  1  0.189578  0.058330  0.345001  1
  F  F35  1  0.810422  0.441670  0.845001  1
  F  F36  1  0.081204  0.864876  0.686314  1
  F  F37  1  0.918796  0.635124  0.186314  1
  F  F38  1  0.918796  0.135124  0.313686  1
  F  F39  1  0.081204  0.364876  0.813686  1
  F  F40  1  0.056066  0.073834  0.780252  1
  F  F41  1  0.943934  0.426166  0.280252  1
  F  F42  1  0.943934  0.926166  0.219748  1
  F  F43  1  0.056066  0.573834  0.719748  1
  F  F44  1  0.777102  0.688743  0.739789  1
  F  F45  1  0.222898  0.811257  0.239789  1
  F  F46  1  0.222898  0.311257  0.260211  1
  F  F47  1  0.777102  0.188743  0.760211  1
  F  F48  1  0.010877  0.824999  0.859880  1
  F  F49  1  0.989123  0.675001  0.359880  1
  F  F50  1  0.989123  0.175001  0.140120  1
  F  F51  1  0.010877  0.324999  0.640120  1
  F  F52  1  0.026257  0.834834  0.034677  1
  F  F53  1  0.973743  0.665166  0.534677  1
  F  F54  1  0.973743  0.165166  0.965323  1
  F  F55  1  0.026257  0.334834  0.465323  1
  F  F56  1  0.361246  0.886665  0.039245  1
  F  F57  1  0.638754  0.613335  0.539245  1
  F  F58  1  0.638754  0.113335  0.960755  1
  F  F59  1  0.361246  0.386665  0.460755  1
  Sb  Sb60  1  0.198685  0.355669  0.548693  1
  Sb  Sb61  1  0.801315  0.144331  0.048693  1
  Sb  Sb62  1  0.801315  0.644331  0.451307  1
  Sb  Sb63  1  0.198685  0.855669  0.951307  1
  Sb  Sb64  1  0.899714  0.385958  0.745522  1
  Sb  Sb65  1  0.100286  0.114042  0.245522  1
  Sb  Sb66  1  0.100286  0.614042  0.254478  1
  Sb  Sb67  1  0.899714  0.885958  0.754478  1
  I  I68  1  0.300998  0.303352  0.889228  1
  I  I69  1  0.699002  0.196648  0.389228  1
  I  I70  1  0.699002  0.696648  0.110772  1
  I  I71  1  0.300998  0.803352  0.610772  1
