# generated using pymatgen
data_FeGeO3
_symmetry_space_group_name_H-M   'P 1'
_cell_length_a   5.27522887
_cell_length_b   6.79454112
_cell_length_c   6.79454112
_cell_angle_alpha   86.37441433
_cell_angle_beta   81.39104362
_cell_angle_gamma   81.39104369
_symmetry_Int_Tables_number   1
_chemical_formula_structural   FeGeO3
_chemical_formula_sum   'Fe4 Ge4 O12'
_cell_volume   237.87046373
_cell_formula_units_Z   4
loop_
 _symmetry_equiv_pos_site_id
 _symmetry_equiv_pos_as_xyz
  1  'x, y, z'
loop_
 _atom_site_type_symbol
 _atom_site_label
 _atom_site_symmetry_multiplicity
 _atom_site_fract_x
 _atom_site_fract_y
 _atom_site_fract_z
 _atom_site_occupancy
  O  O0  1  0.587742  0.294041  0.425095  1
  O  O1  1  0.912259  0.574905  0.705959  1
  O  O2  1  0.412260  0.705959  0.574905  1
  O  O3  1  0.087741  0.425094  0.294042  1
  O  O4  1  0.120295  0.144109  0.623510  1
  O  O5  1  0.379704  0.376490  0.855890  1
  O  O6  1  0.879704  0.855890  0.376489  1
  O  O7  1  0.620295  0.623510  0.144110  1
  O  O8  1  0.859763  0.208957  0.028876  1
  O  O9  1  0.640238  0.971124  0.791043  1
  O  O10  1  0.359761  0.028877  0.208957  1
  O  O11  1  0.140239  0.791043  0.971124  1
  Fe  Fe12  1  0.750001  0.907790  0.092209  1
  Fe  Fe13  1  0.250001  0.092210  0.907791  1
  Fe  Fe14  1  0.750001  0.270972  0.729028  1
  Fe  Fe15  1  0.250001  0.729027  0.270972  1
  Ge  Ge16  1  0.785624  0.393152  0.208542  1
  Ge  Ge17  1  0.714376  0.791457  0.606848  1
  Ge  Ge18  1  0.214375  0.606848  0.791458  1
  Ge  Ge19  1  0.285624  0.208542  0.393152  1
