# generated using pymatgen
data_RbV3(SeO6)2
_symmetry_space_group_name_H-M   'P 1'
_cell_length_a   7.16851245
_cell_length_b   7.16851246
_cell_length_c   12.09522617
_cell_angle_alpha   90.00000000
_cell_angle_beta   90.00000000
_cell_angle_gamma   119.99999998
_symmetry_Int_Tables_number   1
_chemical_formula_structural   RbV3(SeO6)2
_chemical_formula_sum   'Rb2 V6 Se4 O24'
_cell_volume   538.27314566
_cell_formula_units_Z   2
loop_
 _symmetry_equiv_pos_site_id
 _symmetry_equiv_pos_as_xyz
  1  'x, y, z'
loop_
 _atom_site_type_symbol
 _atom_site_label
 _atom_site_symmetry_multiplicity
 _atom_site_fract_x
 _atom_site_fract_y
 _atom_site_fract_z
 _atom_site_occupancy
  O  O0  1  0.749218  0.875203  0.678103  1
  O  O1  1  0.874015  0.749218  0.178103  1
  O  O2  1  0.875203  0.125985  0.178103  1
  O  O3  1  0.124797  0.874015  0.678103  1
  O  O4  1  0.125985  0.250782  0.678103  1
  O  O5  1  0.250782  0.124797  0.178103  1
  O  O6  1  0.541343  0.082838  0.732335  1
  O  O7  1  0.458505  0.541343  0.232335  1
  O  O8  1  0.082838  0.541495  0.232335  1
  O  O9  1  0.917162  0.458505  0.732335  1
  O  O10  1  0.541495  0.458657  0.732335  1
  O  O11  1  0.458657  0.917162  0.232335  1
  O  O12  1  0.200862  0.788246  0.049538  1
  O  O13  1  0.412616  0.200862  0.549538  1
  O  O14  1  0.788246  0.587384  0.549538  1
  O  O15  1  0.211754  0.412616  0.049538  1
  O  O16  1  0.587384  0.799138  0.049538  1
  O  O17  1  0.799138  0.211754  0.549538  1
  O  O18  1  0.122926  0.868810  0.362277  1
  O  O19  1  0.254116  0.122926  0.862277  1
  O  O20  1  0.868810  0.745884  0.862277  1
  O  O21  1  0.131190  0.254116  0.362277  1
  O  O22  1  0.745884  0.877074  0.362277  1
  O  O23  1  0.877074  0.131190  0.862277  1
  V  V24  1  0.126542  0.332940  0.208342  1
  V  V25  1  0.206398  0.873458  0.208342  1
  V  V26  1  0.332940  0.206398  0.708342  1
  V  V27  1  0.873458  0.667060  0.708342  1
  V  V28  1  0.667060  0.793602  0.208342  1
  V  V29  1  0.793602  0.126542  0.708342  1
  Se  Se30  1  0.000000  0.000000  0.423463  1
  Se  Se31  1  0.333333  0.666667  0.989949  1
  Se  Se32  1  0.666667  0.333333  0.489949  1
  Se  Se33  1  0.000000  0.000000  0.923463  1
  Rb  Rb34  1  0.333333  0.666667  0.541512  1
  Rb  Rb35  1  0.666667  0.333333  0.041512  1
