# generated using pymatgen
data_KCrH18N6(ClO2)4
_symmetry_space_group_name_H-M   'P 1'
_cell_length_a   10.08894219
_cell_length_b   10.08894220
_cell_length_c   10.08894219
_cell_angle_alpha   41.67667073
_cell_angle_beta   41.67667075
_cell_angle_gamma   41.67667070
_symmetry_Int_Tables_number   1
_chemical_formula_structural   KCrH18N6(ClO2)4
_chemical_formula_sum   'K1 Cr1 H18 N6 Cl4 O8'
_cell_volume   410.43652798
_cell_formula_units_Z   1
loop_
 _symmetry_equiv_pos_site_id
 _symmetry_equiv_pos_as_xyz
  1  'x, y, z'
loop_
 _atom_site_type_symbol
 _atom_site_label
 _atom_site_symmetry_multiplicity
 _atom_site_fract_x
 _atom_site_fract_y
 _atom_site_fract_z
 _atom_site_occupancy
  H  H0  1  0.200644  0.972813  0.635197  1
  H  H1  1  0.364803  0.027187  0.799356  1
  H  H2  1  0.027187  0.799356  0.364803  1
  H  H3  1  0.799356  0.364803  0.027187  1
  H  H4  1  0.799356  0.027187  0.364803  1
  H  H5  1  0.027187  0.364803  0.799356  1
  H  H6  1  0.364803  0.799356  0.027187  1
  H  H7  1  0.635197  0.972813  0.200644  1
  H  H8  1  0.972813  0.200644  0.635197  1
  H  H9  1  0.200644  0.635197  0.972813  1
  H  H10  1  0.811257  0.811257  0.433014  1
  H  H11  1  0.635197  0.200644  0.972813  1
  H  H12  1  0.433014  0.811257  0.811257  1
  H  H13  1  0.566986  0.188743  0.188743  1
  H  H14  1  0.188743  0.188743  0.566986  1
  H  H15  1  0.188743  0.566986  0.188743  1
  H  H16  1  0.972813  0.635197  0.200644  1
  H  H17  1  0.811257  0.433014  0.811257  1
  N  N18  1  0.325245  0.899854  0.899854  1
  N  N19  1  0.100146  0.100146  0.674755  1
  N  N20  1  0.899854  0.325245  0.899854  1
  N  N21  1  0.899854  0.899854  0.325245  1
  N  N22  1  0.674755  0.100146  0.100146  1
  N  N23  1  0.100146  0.674755  0.100146  1
  O  O24  1  0.867539  0.867539  0.867539  1
  O  O25  1  0.314256  0.981458  0.314256  1
  O  O26  1  0.132461  0.132461  0.132461  1
  O  O27  1  0.314256  0.314256  0.981458  1
  O  O28  1  0.981458  0.314256  0.314256  1
  O  O29  1  0.018542  0.685744  0.685744  1
  O  O30  1  0.685744  0.018542  0.685744  1
  O  O31  1  0.685744  0.685744  0.018542  1
  Cl  Cl32  1  0.814813  0.814813  0.814813  1
  Cl  Cl33  1  0.185187  0.185187  0.185187  1
  Cl  Cl34  1  0.377750  0.377750  0.377750  1
  Cl  Cl35  1  0.622250  0.622250  0.622250  1
  K  K36  1  0.500000  0.500000  0.500000  1
  Cr  Cr37  1  0.000000  0.000000  0.000000  1
