# generated using pymatgen
data_In9(CuSe4)4
_symmetry_space_group_name_H-M   'P 1'
_cell_length_a   11.85099381
_cell_length_b   11.85099381
_cell_length_c   11.85099381
_cell_angle_alpha   90.00000000
_cell_angle_beta   90.00000000
_cell_angle_gamma   90.00000000
_symmetry_Int_Tables_number   1
_chemical_formula_structural   In9(CuSe4)4
_chemical_formula_sum   'In18 Cu8 Se32'
_cell_volume   1664.42531997
_cell_formula_units_Z   2
loop_
 _symmetry_equiv_pos_site_id
 _symmetry_equiv_pos_as_xyz
  1  'x, y, z'
loop_
 _atom_site_type_symbol
 _atom_site_label
 _atom_site_symmetry_multiplicity
 _atom_site_fract_x
 _atom_site_fract_y
 _atom_site_fract_z
 _atom_site_occupancy
  Cu  Cu0  1  0.229486  0.229486  0.229486  1
  Cu  Cu1  1  0.770514  0.229486  0.770514  1
  Cu  Cu2  1  0.770514  0.770514  0.229486  1
  Cu  Cu3  1  0.229486  0.770514  0.770514  1
  Cu  Cu4  1  0.757493  0.757493  0.757493  1
  Cu  Cu5  1  0.242507  0.757493  0.242507  1
  Cu  Cu6  1  0.242507  0.242507  0.757493  1
  Cu  Cu7  1  0.757493  0.242507  0.242507  1
  Se  Se8  1  0.881503  0.649168  0.881503  1
  Se  Se9  1  0.881503  0.881503  0.649168  1
  Se  Se10  1  0.118497  0.350832  0.881503  1
  Se  Se11  1  0.350832  0.118497  0.881503  1
  Se  Se12  1  0.118497  0.649168  0.118497  1
  Se  Se13  1  0.649168  0.118497  0.118497  1
  Se  Se14  1  0.881503  0.118497  0.350832  1
  Se  Se15  1  0.118497  0.881503  0.350832  1
  Se  Se16  1  0.649168  0.881503  0.881503  1
  Se  Se17  1  0.350832  0.881503  0.118497  1
  Se  Se18  1  0.881503  0.350832  0.118497  1
  Se  Se19  1  0.120140  0.879860  0.879860  1
  Se  Se20  1  0.118497  0.118497  0.649168  1
  Se  Se21  1  0.638639  0.638639  0.130955  1
  Se  Se22  1  0.361361  0.869045  0.638639  1
  Se  Se23  1  0.869045  0.361361  0.638639  1
  Se  Se24  1  0.361361  0.130955  0.361361  1
  Se  Se25  1  0.130955  0.361361  0.361361  1
  Se  Se26  1  0.120140  0.120140  0.120140  1
  Se  Se27  1  0.879860  0.120140  0.879860  1
  Se  Se28  1  0.879860  0.879860  0.120140  1
  Se  Se29  1  0.635217  0.364783  0.364783  1
  Se  Se30  1  0.635217  0.635217  0.635217  1
  Se  Se31  1  0.364783  0.635217  0.364783  1
  Se  Se32  1  0.364783  0.364783  0.635217  1
  Se  Se33  1  0.361361  0.638639  0.869045  1
  Se  Se34  1  0.361361  0.361361  0.130955  1
  Se  Se35  1  0.638639  0.130955  0.638639  1
  Se  Se36  1  0.638639  0.869045  0.361361  1
  Se  Se37  1  0.869045  0.638639  0.361361  1
  Se  Se38  1  0.130955  0.638639  0.638639  1
  Se  Se39  1  0.638639  0.361361  0.869045  1
  In  In40  1  0.239507  0.500000  0.500000  1
  In  In41  1  0.230806  0.000000  0.500000  1
  In  In42  1  0.769194  0.500000  0.000000  1
  In  In43  1  0.500000  0.000000  0.769194  1
  In  In44  1  0.000000  0.769194  0.500000  1
  In  In45  1  0.500000  0.000000  0.230806  1
  In  In46  1  0.000000  0.230806  0.500000  1
  In  In47  1  0.500000  0.230806  0.000000  1
  In  In48  1  0.500000  0.769194  0.000000  1
  In  In49  1  0.000000  0.500000  0.769194  1
  In  In50  1  0.000000  0.500000  0.230806  1
  In  In51  1  0.769194  0.000000  0.500000  1
  In  In52  1  0.230806  0.500000  0.000000  1
  In  In53  1  0.500000  0.239507  0.500000  1
  In  In54  1  0.500000  0.760494  0.500000  1
  In  In55  1  0.500000  0.500000  0.760494  1
  In  In56  1  0.500000  0.500000  0.239507  1
  In  In57  1  0.760494  0.500000  0.500000  1
