# generated using pymatgen
data_Ba3Si5O13
_symmetry_space_group_name_H-M   'P 1'
_cell_length_a   4.78093584
_cell_length_b   14.03799116
_cell_length_c   20.51382932
_cell_angle_alpha   98.68637180
_cell_angle_beta   90.00000000
_cell_angle_gamma   90.00000000
_symmetry_Int_Tables_number   1
_chemical_formula_structural   Ba3Si5O13
_chemical_formula_sum   'Ba12 Si20 O52'
_cell_volume   1360.98832701
_cell_formula_units_Z   4
loop_
 _symmetry_equiv_pos_site_id
 _symmetry_equiv_pos_as_xyz
  1  'x, y, z'
loop_
 _atom_site_type_symbol
 _atom_site_label
 _atom_site_symmetry_multiplicity
 _atom_site_fract_x
 _atom_site_fract_y
 _atom_site_fract_z
 _atom_site_occupancy
  O  O0  1  0.148646  0.785426  0.497198  1
  O  O1  1  0.648646  0.714574  0.502802  1
  O  O2  1  0.851354  0.214574  0.502802  1
  O  O3  1  0.351354  0.285426  0.497198  1
  O  O4  1  0.734088  0.904825  0.479640  1
  O  O5  1  0.234088  0.595175  0.520360  1
  O  O6  1  0.265912  0.095175  0.520360  1
  O  O7  1  0.765912  0.404825  0.479640  1
  O  O8  1  0.809754  0.854448  0.596966  1
  O  O9  1  0.309754  0.645552  0.403034  1
  O  O10  1  0.190246  0.145552  0.403034  1
  O  O11  1  0.690246  0.354448  0.596966  1
  O  O12  1  0.736350  0.729115  0.687288  1
  O  O13  1  0.236350  0.770885  0.312712  1
  O  O14  1  0.263650  0.270885  0.312712  1
  O  O15  1  0.763650  0.229115  0.687288  1
  O  O16  1  0.148667  0.856996  0.699971  1
  O  O17  1  0.648667  0.643004  0.300029  1
  O  O18  1  0.851333  0.143004  0.300029  1
  O  O19  1  0.351333  0.356996  0.699971  1
  O  O20  1  0.250042  0.013166  0.790227  1
  O  O21  1  0.647683  0.926742  0.713827  1
  O  O22  1  0.352317  0.073258  0.286173  1
  O  O23  1  0.852317  0.426742  0.713827  1
  O  O24  1  0.256005  0.038762  0.666219  1
  O  O25  1  0.756005  0.461238  0.333781  1
  O  O26  1  0.743995  0.961238  0.333781  1
  O  O27  1  0.243995  0.538762  0.666219  1
  O  O28  1  0.278988  0.868938  0.866010  1
  O  O29  1  0.778988  0.631062  0.133990  1
  O  O30  1  0.721012  0.131062  0.133990  1
  O  O31  1  0.221012  0.368938  0.866010  1
  O  O32  1  0.716116  0.661378  0.980129  1
  O  O33  1  0.216116  0.838622  0.019871  1
  O  O34  1  0.283884  0.338622  0.019871  1
  O  O35  1  0.783884  0.161378  0.980129  1
  O  O36  1  0.774159  0.678635  0.851804  1
  O  O37  1  0.274159  0.821365  0.148196  1
  O  O38  1  0.225841  0.321365  0.148196  1
  O  O39  1  0.725841  0.178635  0.851804  1
  O  O40  1  0.113817  0.560673  0.914771  1
  O  O41  1  0.613817  0.939327  0.085229  1
  O  O42  1  0.886183  0.439327  0.085229  1
  O  O43  1  0.386183  0.060673  0.914771  1
  O  O44  1  0.617202  0.503429  0.886687  1
  O  O45  1  0.117202  0.996571  0.113313  1
  O  O46  1  0.382798  0.496571  0.113313  1
  O  O47  1  0.882798  0.003429  0.886687  1
  O  O48  1  0.249958  0.513166  0.790227  1
  O  O49  1  0.749958  0.986834  0.209773  1
  O  O50  1  0.750042  0.486834  0.209773  1
  O  O51  1  0.147683  0.573258  0.286173  1
  Si  Si52  1  0.822165  0.817542  0.516847  1
  Si  Si53  1  0.322165  0.682458  0.483153  1
  Si  Si54  1  0.177835  0.182458  0.483153  1
  Si  Si55  1  0.677835  0.317542  0.516847  1
  Si  Si56  1  0.822880  0.834376  0.674127  1
  Si  Si57  1  0.322880  0.665624  0.325873  1
  Si  Si58  1  0.177120  0.165624  0.325873  1
  Si  Si59  1  0.677120  0.334376  0.674127  1
  Si  Si60  1  0.318377  0.961419  0.713948  1
  Si  Si61  1  0.818377  0.538581  0.286052  1
  Si  Si62  1  0.681623  0.038581  0.286052  1
  Si  Si63  1  0.181623  0.461419  0.713948  1
  Si  Si64  1  0.208818  0.979494  0.863474  1
  Si  Si65  1  0.708818  0.520506  0.136526  1
  Si  Si66  1  0.791182  0.020506  0.136526  1
  Si  Si67  1  0.291182  0.479494  0.863474  1
  Si  Si68  1  0.707518  0.107375  0.906802  1
  Si  Si69  1  0.207518  0.392625  0.093198  1
  Si  Si70  1  0.292482  0.892625  0.093198  1
  Si  Si71  1  0.792482  0.607375  0.906802  1
  Ba  Ba72  1  0.752129  0.564918  0.592413  1
  Ba  Ba73  1  0.252129  0.935082  0.407587  1
  Ba  Ba74  1  0.247871  0.435082  0.407587  1
  Ba  Ba75  1  0.747871  0.064918  0.592413  1
  Ba  Ba76  1  0.295096  0.706613  0.774062  1
  Ba  Ba77  1  0.795096  0.793387  0.225938  1
  Ba  Ba78  1  0.704904  0.293387  0.225938  1
  Ba  Ba79  1  0.204904  0.206613  0.774062  1
  Ba  Ba80  1  0.725053  0.843678  0.948961  1
  Ba  Ba81  1  0.225053  0.656322  0.051039  1
  Ba  Ba82  1  0.274947  0.156322  0.051039  1
  Ba  Ba83  1  0.774947  0.343678  0.948961  1
