# generated using pymatgen
data_FeCu2GeS4
_symmetry_space_group_name_H-M   'P 1'
_cell_length_a   5.33060580
_cell_length_b   5.33060580
_cell_length_c   6.47608035
_cell_angle_alpha   114.30293982
_cell_angle_beta   114.30293987
_cell_angle_gamma   90.00000006
_symmetry_Int_Tables_number   1
_chemical_formula_structural   FeCu2GeS4
_chemical_formula_sum   'Fe1 Cu2 Ge1 S4'
_cell_volume   149.63846410
_cell_formula_units_Z   1
loop_
 _symmetry_equiv_pos_site_id
 _symmetry_equiv_pos_as_xyz
  1  'x, y, z'
loop_
 _atom_site_type_symbol
 _atom_site_label
 _atom_site_symmetry_multiplicity
 _atom_site_fract_x
 _atom_site_fract_y
 _atom_site_fract_z
 _atom_site_occupancy
  S  S0  1  0.624615  0.624615  0.748191  1
  S  S1  1  0.876424  0.375385  0.251809  1
  S  S2  1  0.375385  0.876424  0.251809  1
  S  S3  1  0.123576  0.123576  0.748191  1
  Fe  Fe4  1  0.000000  0.000000  0.000000  1
  Cu  Cu5  1  0.250000  0.750000  0.500000  1
  Cu  Cu6  1  0.750000  0.250000  0.500000  1
  Ge  Ge7  1  0.500000  0.500000  0.000000  1
