# generated using pymatgen
data_MnBiO3
_symmetry_space_group_name_H-M   'P 1'
_cell_length_a   5.60645462
_cell_length_b   9.75764103
_cell_length_c   9.83468878
_cell_angle_alpha   108.11176108
_cell_angle_beta   90.00000000
_cell_angle_gamma   90.00000000
_symmetry_Int_Tables_number   1
_chemical_formula_structural   MnBiO3
_chemical_formula_sum   'Mn8 Bi8 O24'
_cell_volume   511.35667607
_cell_formula_units_Z   8
loop_
 _symmetry_equiv_pos_site_id
 _symmetry_equiv_pos_as_xyz
  1  'x, y, z'
loop_
 _atom_site_type_symbol
 _atom_site_label
 _atom_site_symmetry_multiplicity
 _atom_site_fract_x
 _atom_site_fract_y
 _atom_site_fract_z
 _atom_site_occupancy
  Mn  Mn0  1  0.760643  0.750057  0.999994  1
  Mn  Mn1  1  0.738899  0.250010  0.500047  1
  Mn  Mn2  1  0.749791  0.999689  0.750030  1
  Mn  Mn3  1  0.260643  0.249943  0.000006  1
  Mn  Mn4  1  0.238899  0.749990  0.499953  1
  Mn  Mn5  1  0.249791  0.000311  0.249970  1
  Mn  Mn6  1  0.749699  0.500270  0.249987  1
  Mn  Mn7  1  0.249699  0.499730  0.750013  1
  Bi  Bi8  1  0.213627  0.884875  0.874356  1
  Bi  Bi9  1  0.286557  0.385023  0.374413  1
  Bi  Bi10  1  0.713444  0.384990  0.874373  1
  Bi  Bi11  1  0.786634  0.885056  0.374380  1
  Bi  Bi12  1  0.786557  0.614977  0.625587  1
  Bi  Bi13  1  0.213444  0.615010  0.125627  1
  Bi  Bi14  1  0.713627  0.115125  0.125644  1
  Bi  Bi15  1  0.286634  0.114944  0.625620  1
  O  O16  1  0.961549  0.409659  0.635174  1
  O  O17  1  0.538623  0.404260  0.088955  1
  O  O18  1  0.687993  0.160551  0.670648  1
  O  O19  1  0.537690  0.910162  0.134858  1
  O  O20  1  0.960849  0.903738  0.589002  1
  O  O21  1  0.311758  0.161400  0.170938  1
  O  O22  1  0.960687  0.596392  0.410947  1
  O  O23  1  0.461681  0.909598  0.635097  1
  O  O24  1  0.537635  0.589955  0.865085  1
  O  O25  1  0.187993  0.839449  0.329352  1
  O  O26  1  0.460687  0.403608  0.589053  1
  O  O27  1  0.311646  0.338714  0.829226  1
  O  O28  1  0.811758  0.838600  0.829062  1
  O  O29  1  0.461549  0.590341  0.364826  1
  O  O30  1  0.961681  0.090402  0.364903  1
  O  O31  1  0.811646  0.661286  0.170774  1
  O  O32  1  0.037635  0.410045  0.134915  1
  O  O33  1  0.538516  0.095445  0.911051  1
  O  O34  1  0.687978  0.339521  0.329536  1
  O  O35  1  0.460849  0.096262  0.410998  1
  O  O36  1  0.038623  0.595740  0.911045  1
  O  O37  1  0.038516  0.904555  0.088949  1
  O  O38  1  0.187978  0.660479  0.670464  1
  O  O39  1  0.037690  0.089838  0.865142  1
