# generated using pymatgen
data_Fe7S8
_symmetry_space_group_name_H-M   'P 1'
_cell_length_a   6.64482158
_cell_length_b   6.64482158
_cell_length_c   15.77436323
_cell_angle_alpha   90.00000000
_cell_angle_beta   90.00000000
_cell_angle_gamma   120.00000007
_symmetry_Int_Tables_number   1
_chemical_formula_structural   Fe7S8
_chemical_formula_sum   'Fe21 S24'
_cell_volume   603.18303271
_cell_formula_units_Z   3
loop_
 _symmetry_equiv_pos_site_id
 _symmetry_equiv_pos_as_xyz
  1  'x, y, z'
loop_
 _atom_site_type_symbol
 _atom_site_label
 _atom_site_symmetry_multiplicity
 _atom_site_fract_x
 _atom_site_fract_y
 _atom_site_fract_z
 _atom_site_occupancy
  S  S0  1  0.164357  0.330181  0.090569  1
  S  S1  1  0.669819  0.834176  0.423902  1
  S  S2  1  0.165824  0.835643  0.757236  1
  S  S3  1  0.159464  0.834486  0.066030  1
  S  S4  1  0.165514  0.324978  0.399363  1
  S  S5  1  0.675022  0.840536  0.732696  1
  S  S6  1  0.645252  0.326258  0.088842  1
  S  S7  1  0.673742  0.318994  0.422176  1
  S  S8  1  0.681006  0.354748  0.755509  1
  S  S9  1  0.642647  0.803981  0.088663  1
  S  S10  1  0.196019  0.838666  0.421996  1
  S  S11  1  0.161334  0.357353  0.755330  1
  S  S12  1  0.317229  0.143429  0.254650  1
  S  S13  1  0.856571  0.173800  0.587983  1
  S  S14  1  0.826200  0.682771  0.921317  1
  S  S15  1  0.313858  0.649495  0.248190  1
  S  S16  1  0.350505  0.664363  0.581523  1
  S  S17  1  0.335637  0.686142  0.914856  1
  S  S18  1  0.818795  0.647354  0.251611  1
  S  S19  1  0.352646  0.171441  0.584944  1
  S  S20  1  0.828559  0.181205  0.918277  1
  S  S21  1  0.806104  0.139714  0.228944  1
  S  S22  1  0.860286  0.666390  0.562277  1
  S  S23  1  0.333610  0.193896  0.895610  1
  Fe  Fe24  1  0.479365  0.472454  0.179676  1
  Fe  Fe25  1  0.527546  1.006912  0.513010  1
  Fe  Fe26  1  -0.006912  0.520635  0.846343  1
  Fe  Fe27  1  0.432732  0.962957  0.162409  1
  Fe  Fe28  1  0.037043  0.469774  0.495743  1
  Fe  Fe29  1  0.530226  0.567268  0.829076  1
  Fe  Fe30  1  0.012495  0.962165  0.162205  1
  Fe  Fe31  1  0.037835  0.050330  0.495538  1
  Fe  Fe32  1  0.949670  0.987505  0.828872  1
  Fe  Fe33  1  0.010129  0.541716  0.153835  1
  Fe  Fe34  1  0.458284  0.468413  0.487169  1
  Fe  Fe35  1  0.531587  0.989871  0.820502  1
  Fe  Fe36  1  0.527372  0.002155  0.334398  1
  Fe  Fe37  1  0.997845  0.525217  0.667732  1
  Fe  Fe38  1  0.474783  0.472628  1.001065  1
  Fe  Fe39  1  0.952038  0.000034  0.324962  1
  Fe  Fe40  1  0.999966  0.952003  0.658295  1
  Fe  Fe41  1  0.047997  0.047962  0.991629  1
  Fe  Fe42  1  0.955294  0.430264  0.319716  1
  Fe  Fe43  1  0.569736  0.525030  0.653049  1
  Fe  Fe44  1  0.474970  0.044706  0.986383  1
