# generated using pymatgen
data_Nd3S2Br5
_symmetry_space_group_name_H-M   'P 1'
_cell_length_a   6.92728895
_cell_length_b   7.25648069
_cell_length_c   22.78728322
_cell_angle_alpha   90.00000000
_cell_angle_beta   90.00000000
_cell_angle_gamma   90.00000000
_symmetry_Int_Tables_number   1
_chemical_formula_structural   Nd3S2Br5
_chemical_formula_sum   'Nd12 S8 Br20'
_cell_volume   1145.46519402
_cell_formula_units_Z   4
loop_
 _symmetry_equiv_pos_site_id
 _symmetry_equiv_pos_as_xyz
  1  'x, y, z'
loop_
 _atom_site_type_symbol
 _atom_site_label
 _atom_site_symmetry_multiplicity
 _atom_site_fract_x
 _atom_site_fract_y
 _atom_site_fract_z
 _atom_site_occupancy
  S  S0  1  0.698233  0.833831  0.825506  1
  S  S1  1  0.198233  0.666169  0.325506  1
  S  S2  1  0.698233  0.833831  0.674494  1
  S  S3  1  0.301767  0.166169  0.174494  1
  S  S4  1  0.801767  0.333831  0.825506  1
  S  S5  1  0.801767  0.333831  0.674494  1
  S  S6  1  0.301767  0.166169  0.325506  1
  S  S7  1  0.198233  0.666169  0.174494  1
  Br  Br8  1  0.635380  0.829559  0.250000  1
  Br  Br9  1  0.135380  0.670441  0.750000  1
  Br  Br10  1  0.864620  0.329559  0.250000  1
  Br  Br11  1  0.364620  0.170441  0.750000  1
  Br  Br12  1  0.348619  0.478855  0.619895  1
  Br  Br13  1  0.348619  0.478855  0.880105  1
  Br  Br14  1  0.848619  0.021145  0.380105  1
  Br  Br15  1  0.151381  0.978855  0.880105  1
  Br  Br16  1  0.651381  0.521145  0.119895  1
  Br  Br17  1  0.651381  0.521145  0.380105  1
  Br  Br18  1  0.151381  0.978855  0.619895  1
  Br  Br19  1  0.848619  0.021145  0.119895  1
  Br  Br20  1  0.166566  0.678059  0.021122  1
  Br  Br21  1  0.666566  0.821941  0.978878  1
  Br  Br22  1  0.333434  0.178059  0.478878  1
  Br  Br23  1  0.833434  0.321941  0.521122  1
  Br  Br24  1  0.833434  0.321941  0.978878  1
  Br  Br25  1  0.333434  0.178059  0.021122  1
  Br  Br26  1  0.666566  0.821941  0.521122  1
  Br  Br27  1  0.166566  0.678059  0.478878  1
  Nd  Nd28  1  0.054980  0.380202  0.396254  1
  Nd  Nd29  1  0.554980  0.119798  0.603746  1
  Nd  Nd30  1  0.445020  0.880202  0.103746  1
  Nd  Nd31  1  0.945020  0.619798  0.896254  1
  Nd  Nd32  1  0.945020  0.619798  0.603746  1
  Nd  Nd33  1  0.445020  0.880202  0.396254  1
  Nd  Nd34  1  0.554980  0.119798  0.896254  1
  Nd  Nd35  1  0.054980  0.380202  0.103746  1
  Nd  Nd36  1  0.943220  0.047153  0.750000  1
  Nd  Nd37  1  0.443220  0.452847  0.250000  1
  Nd  Nd38  1  0.556780  0.547153  0.750000  1
  Nd  Nd39  1  0.056780  0.952847  0.250000  1
