# generated using pymatgen
data_MoO2
_symmetry_space_group_name_H-M   'P 1'
_cell_length_a   6.43488416
_cell_length_b   6.43488433
_cell_length_c   6.43488361
_cell_angle_alpha   59.99999677
_cell_angle_beta   59.99999590
_cell_angle_gamma   60.00000217
_symmetry_Int_Tables_number   1
_chemical_formula_structural   MoO2
_chemical_formula_sum   'Mo4 O8'
_cell_volume   188.41139264
_cell_formula_units_Z   4
loop_
 _symmetry_equiv_pos_site_id
 _symmetry_equiv_pos_as_xyz
  1  'x, y, z'
loop_
 _atom_site_type_symbol
 _atom_site_label
 _atom_site_symmetry_multiplicity
 _atom_site_fract_x
 _atom_site_fract_y
 _atom_site_fract_z
 _atom_site_occupancy
  O  O0  1  0.727784  0.727784  0.316648  1
  O  O1  1  0.727784  0.727784  0.727785  1
  O  O2  1  0.272216  0.272217  0.683351  1
  O  O3  1  0.272218  0.683351  0.272216  1
  O  O4  1  0.272216  0.272217  0.272216  1
  O  O5  1  0.683352  0.272217  0.272215  1
  O  O6  1  0.316649  0.727784  0.727786  1
  O  O7  1  0.727785  0.316647  0.727784  1
  Mo  Mo8  1  0.499999  0.500001  0.500001  1
  Mo  Mo9  1  0.500001  1.000000  0.500000  1
  Mo  Mo10  1  0.000001  0.500001  0.500000  1
  Mo  Mo11  1  0.499999  0.500001  0.999999  1
