# generated using pymatgen
data_InAsF6
_symmetry_space_group_name_H-M   'P 1'
_cell_length_a   5.12970275
_cell_length_b   5.12970275
_cell_length_c   5.12970275
_cell_angle_alpha   96.24151878
_cell_angle_beta   96.24151884
_cell_angle_gamma   96.24151876
_symmetry_Int_Tables_number   1
_chemical_formula_structural   InAsF6
_chemical_formula_sum   'In1 As1 F6'
_cell_volume   132.39066045
_cell_formula_units_Z   1
loop_
 _symmetry_equiv_pos_site_id
 _symmetry_equiv_pos_as_xyz
  1  'x, y, z'
loop_
 _atom_site_type_symbol
 _atom_site_label
 _atom_site_symmetry_multiplicity
 _atom_site_fract_x
 _atom_site_fract_y
 _atom_site_fract_z
 _atom_site_occupancy
  F  F0  1  0.702808  0.417727  0.775662  1
  F  F1  1  0.417727  0.775662  0.702808  1
  F  F2  1  0.224338  0.297192  0.582273  1
  F  F3  1  0.582273  0.224338  0.297192  1
  F  F4  1  0.297192  0.582273  0.224338  1
  F  F5  1  0.775662  0.702808  0.417727  1
  As  As6  1  0.500000  0.500000  0.500000  1
  In  In7  1  0.000000  0.000000  0.000000  1
