# generated using pymatgen
data_KCuCl3
_symmetry_space_group_name_H-M   'P 1'
_cell_length_a   4.27680597
_cell_length_b   8.96519415
_cell_length_c   13.88051056
_cell_angle_alpha   90.00000000
_cell_angle_beta   90.00000000
_cell_angle_gamma   100.14528772
_symmetry_Int_Tables_number   1
_chemical_formula_structural   KCuCl3
_chemical_formula_sum   'K4 Cu4 Cl12'
_cell_volume   523.89050203
_cell_formula_units_Z   4
loop_
 _symmetry_equiv_pos_site_id
 _symmetry_equiv_pos_as_xyz
  1  'x, y, z'
loop_
 _atom_site_type_symbol
 _atom_site_label
 _atom_site_symmetry_multiplicity
 _atom_site_fract_x
 _atom_site_fract_y
 _atom_site_fract_z
 _atom_site_occupancy
  Cl  Cl0  1  0.662354  0.321811  0.991020  1
  Cl  Cl1  1  0.832503  0.964655  0.098245  1
  Cl  Cl2  1  0.832503  0.464655  0.401755  1
  Cl  Cl3  1  0.167497  0.035345  0.901755  1
  Cl  Cl4  1  0.722307  0.739850  0.801528  1
  Cl  Cl5  1  0.277693  0.760150  0.301528  1
  Cl  Cl6  1  0.277693  0.260150  0.198472  1
  Cl  Cl7  1  0.337646  0.178189  0.491020  1
  Cl  Cl8  1  0.337646  0.678189  0.008980  1
  Cl  Cl9  1  0.662354  0.821811  0.508980  1
  Cl  Cl10  1  0.722307  0.239850  0.698472  1
  Cl  Cl11  1  0.167497  0.535345  0.598245  1
  K  K12  1  0.220688  0.441285  0.832480  1
  K  K13  1  0.779312  0.058715  0.332480  1
  K  K14  1  0.779312  0.558715  0.167520  1
  K  K15  1  0.220688  0.941285  0.667520  1
  Cu  Cu16  1  0.757636  0.345096  0.549767  1
  Cu  Cu17  1  0.242364  0.154904  0.049767  1
  Cu  Cu18  1  0.242364  0.654904  0.450233  1
  Cu  Cu19  1  0.757636  0.845096  0.950233  1
