# generated using pymatgen
data_WBr5
_symmetry_space_group_name_H-M   'P 1'
_cell_length_a   6.46925022
_cell_length_b   14.15930121
_cell_length_c   14.15930120
_cell_angle_alpha   85.77884334
_cell_angle_beta   89.80895735
_cell_angle_gamma   89.80895735
_symmetry_Int_Tables_number   1
_chemical_formula_structural   WBr5
_chemical_formula_sum   'W6 Br30'
_cell_volume   1293.46121211
_cell_formula_units_Z   6
loop_
 _symmetry_equiv_pos_site_id
 _symmetry_equiv_pos_as_xyz
  1  'x, y, z'
loop_
 _atom_site_type_symbol
 _atom_site_label
 _atom_site_symmetry_multiplicity
 _atom_site_fract_x
 _atom_site_fract_y
 _atom_site_fract_z
 _atom_site_occupancy
  Br  Br0  1  0.262343  0.333135  0.526678  1
  Br  Br1  1  0.737657  0.473322  0.666865  1
  Br  Br2  1  0.737657  0.666865  0.473322  1
  Br  Br3  1  0.262343  0.526678  0.333135  1
  Br  Br4  1  0.715432  0.196302  0.572836  1
  Br  Br5  1  0.284568  0.427164  0.803698  1
  Br  Br6  1  0.779930  0.047815  0.047815  1
  Br  Br7  1  0.220070  0.952185  0.952185  1
  Br  Br8  1  0.765864  0.239946  0.861786  1
  Br  Br9  1  0.234136  0.138214  0.760054  1
  Br  Br10  1  0.234136  0.760054  0.138214  1
  Br  Br11  1  0.765864  0.861786  0.239946  1
  Br  Br12  1  0.215761  0.192171  1.000688  1
  Br  Br13  1  0.784239  -0.000688  0.807829  1
  Br  Br14  1  0.784239  0.807829  -0.000688  1
  Br  Br15  1  0.215761  1.000688  0.192171  1
  Br  Br16  1  0.263553  0.285843  0.285843  1
  Br  Br17  1  0.736447  0.714157  0.714157  1
  Br  Br18  1  0.249987  0.471020  0.092626  1
  Br  Br19  1  0.750013  0.907374  0.528980  1
  Br  Br20  1  0.750013  0.528980  0.907374  1
  Br  Br21  1  0.249987  0.092626  0.471020  1
  Br  Br22  1  0.700549  0.333008  0.140500  1
  Br  Br23  1  0.299451  0.859500  0.666992  1
  Br  Br24  1  0.299451  0.666992  0.859500  1
  Br  Br25  1  0.700549  0.140500  0.333008  1
  Br  Br26  1  0.697879  0.380686  0.380686  1
  Br  Br27  1  0.302121  0.619314  0.619314  1
  Br  Br28  1  0.715432  0.572836  0.196302  1
  Br  Br29  1  0.284568  0.803698  0.427164  1
  W  W30  1  0.480887  0.226451  0.440065  1
  W  W31  1  0.519113  0.559935  0.773549  1
  W  W32  1  0.519113  0.773549  0.559935  1
  W  W33  1  0.480887  0.440065  0.226451  1
  W  W34  1  0.000000  0.893471  0.106529  1
  W  W35  1  0.000000  0.106529  0.893471  1
