# generated using pymatgen
data_Cs2Pd(IBr2)2
_symmetry_space_group_name_H-M   'P 1'
_cell_length_a   7.54933028
_cell_length_b   7.54933027
_cell_length_c   7.78646742
_cell_angle_alpha   106.65461403
_cell_angle_beta   108.83621305
_cell_angle_gamma   111.80136810
_symmetry_Int_Tables_number   1
_chemical_formula_structural   Cs2Pd(IBr2)2
_chemical_formula_sum   'Cs2 Pd1 I2 Br4'
_cell_volume   345.72905545
_cell_formula_units_Z   1
loop_
 _symmetry_equiv_pos_site_id
 _symmetry_equiv_pos_as_xyz
  1  'x, y, z'
loop_
 _atom_site_type_symbol
 _atom_site_label
 _atom_site_symmetry_multiplicity
 _atom_site_fract_x
 _atom_site_fract_y
 _atom_site_fract_z
 _atom_site_occupancy
  Br  Br0  1  0.989954  0.777080  0.181464  1
  Br  Br1  1  0.010046  0.222920  0.818536  1
  Br  Br2  1  0.404383  0.191510  0.181464  1
  Br  Br3  1  0.595617  0.808490  0.818536  1
  Pd  Pd4  1  0.000000  0.000000  0.000000  1
  I  I5  1  0.006074  0.343087  0.349161  1
  I  I6  1  0.993926  0.656913  0.650839  1
  Cs  Cs7  1  0.521656  0.754231  0.275887  1
  Cs  Cs8  1  0.478344  0.245769  0.724113  1
