# generated using pymatgen
data_AsClF8
_symmetry_space_group_name_H-M   'P 1'
_cell_length_a   5.75131492
_cell_length_b   5.75131492
_cell_length_c   10.76970726
_cell_angle_alpha   72.19761465
_cell_angle_beta   72.19761462
_cell_angle_gamma   86.81237271
_symmetry_Int_Tables_number   1
_chemical_formula_structural   AsClF8
_chemical_formula_sum   'As2 Cl2 F16'
_cell_volume   322.65565888
_cell_formula_units_Z   2
loop_
 _symmetry_equiv_pos_site_id
 _symmetry_equiv_pos_as_xyz
  1  'x, y, z'
loop_
 _atom_site_type_symbol
 _atom_site_label
 _atom_site_symmetry_multiplicity
 _atom_site_fract_x
 _atom_site_fract_y
 _atom_site_fract_z
 _atom_site_occupancy
  F  F0  1  0.128438  0.071139  0.332773  1
  F  F1  1  0.428861  0.371562  0.167227  1
  F  F2  1  0.871562  0.928861  0.667227  1
  F  F3  1  0.571139  0.628438  0.832773  1
  F  F4  1  0.764174  0.793549  0.024994  1
  F  F5  1  0.706451  0.735826  0.475006  1
  F  F6  1  0.235826  0.206451  0.975006  1
  F  F7  1  0.293549  0.264174  0.524994  1
  F  F8  1  0.184044  0.903196  0.853457  1
  F  F9  1  0.596804  0.315956  0.646543  1
  F  F10  1  0.815956  0.096804  0.146543  1
  F  F11  1  0.403196  0.684044  0.353457  1
  F  F12  1  0.876150  0.225433  0.890010  1
  F  F13  1  0.274567  0.623850  0.609990  1
  F  F14  1  0.123850  0.774567  0.109990  1
  F  F15  1  0.725433  0.376150  0.390010  1
  Cl  Cl16  1  0.584074  0.915926  0.750000  1
  Cl  Cl17  1  0.415926  0.084074  0.250000  1
  As  As18  1  0.000000  0.000000  0.000000  1
  As  As19  1  0.500000  0.500000  0.500000  1
