# generated using pymatgen
data_Mo(RhO3)2
_symmetry_space_group_name_H-M   'P 1'
_cell_length_a   4.61995337
_cell_length_b   4.61995337
_cell_length_c   9.45194391
_cell_angle_alpha   90.00000000
_cell_angle_beta   90.00000000
_cell_angle_gamma   90.00000000
_symmetry_Int_Tables_number   1
_chemical_formula_structural   Mo(RhO3)2
_chemical_formula_sum   'Mo2 Rh4 O12'
_cell_volume   201.74199914
_cell_formula_units_Z   2
loop_
 _symmetry_equiv_pos_site_id
 _symmetry_equiv_pos_as_xyz
  1  'x, y, z'
loop_
 _atom_site_type_symbol
 _atom_site_label
 _atom_site_symmetry_multiplicity
 _atom_site_fract_x
 _atom_site_fract_y
 _atom_site_fract_z
 _atom_site_occupancy
  O  O0  1  0.694170  0.694170  0.664873  1
  O  O1  1  0.305830  0.305830  0.664873  1
  O  O2  1  0.694170  0.694170  0.335126  1
  O  O3  1  0.194169  0.805831  0.164874  1
  O  O4  1  0.805831  0.194169  0.164874  1
  O  O5  1  0.805831  0.194169  0.835126  1
  O  O6  1  0.303536  0.303536  0.000000  1
  O  O7  1  0.196463  0.803537  0.500000  1
  O  O8  1  0.803537  0.196463  0.500000  1
  O  O9  1  0.194169  0.805831  0.835126  1
  O  O10  1  0.305830  0.305830  0.335126  1
  O  O11  1  0.696464  0.696464  0.000000  1
  Mo  Mo12  1  0.000000  0.000000  0.000000  1
  Mo  Mo13  1  0.500001  0.500001  0.500000  1
  Rh  Rh14  1  0.000000  0.000000  0.332287  1
  Rh  Rh15  1  0.500001  0.500001  0.832287  1
  Rh  Rh16  1  0.500001  0.500001  0.167713  1
  Rh  Rh17  1  0.000000  0.000000  0.667712  1
