# generated using pymatgen
data_Yb2CdS4
_symmetry_space_group_name_H-M   'P 1'
_cell_length_a   8.02389587
_cell_length_b   8.02389586
_cell_length_c   8.02389587
_cell_angle_alpha   60.00000002
_cell_angle_beta   60.00000003
_cell_angle_gamma   60.00000001
_symmetry_Int_Tables_number   1
_chemical_formula_structural   Yb2CdS4
_chemical_formula_sum   'Yb4 Cd2 S8'
_cell_volume   365.29258267
_cell_formula_units_Z   2
loop_
 _symmetry_equiv_pos_site_id
 _symmetry_equiv_pos_as_xyz
  1  'x, y, z'
loop_
 _atom_site_type_symbol
 _atom_site_label
 _atom_site_symmetry_multiplicity
 _atom_site_fract_x
 _atom_site_fract_y
 _atom_site_fract_z
 _atom_site_occupancy
  S  S0  1  0.745119  0.745119  0.745119  1
  S  S1  1  0.254881  0.254881  0.735358  1
  S  S2  1  0.254881  0.735358  0.254881  1
  S  S3  1  0.735358  0.254881  0.254881  1
  S  S4  1  0.745119  0.264642  0.745119  1
  S  S5  1  0.264642  0.745119  0.745119  1
  S  S6  1  0.254881  0.254881  0.254881  1
  S  S7  1  0.745119  0.745119  0.264642  1
  Cd  Cd8  1  0.125000  0.125000  0.125000  1
  Cd  Cd9  1  0.875000  0.875000  0.875000  1
  Yb  Yb10  1  0.500000  0.500000  0.000000  1
  Yb  Yb11  1  0.500000  0.500000  0.500000  1
  Yb  Yb12  1  0.000000  0.500000  0.500000  1
  Yb  Yb13  1  0.500000  0.000000  0.500000  1
