# generated using pymatgen
data_Ta6S
_symmetry_space_group_name_H-M   'P 1'
_cell_length_a   5.31681997
_cell_length_b   7.60082216
_cell_length_c   13.40364163
_cell_angle_alpha   85.60170942
_cell_angle_beta   78.56039430
_cell_angle_gamma   69.52779468
_symmetry_Int_Tables_number   1
_chemical_formula_structural   Ta6S
_chemical_formula_sum   'Ta24 S4'
_cell_volume   497.36298365
_cell_formula_units_Z   4
loop_
 _symmetry_equiv_pos_site_id
 _symmetry_equiv_pos_as_xyz
  1  'x, y, z'
loop_
 _atom_site_type_symbol
 _atom_site_label
 _atom_site_symmetry_multiplicity
 _atom_site_fract_x
 _atom_site_fract_y
 _atom_site_fract_z
 _atom_site_occupancy
  S  S0  1  0.524459  0.238532  0.543570  1
  S  S1  1  0.306561  0.261468  0.956430  1
  S  S2  1  0.475541  0.761468  0.456430  1
  S  S3  1  0.693439  0.738532  0.043570  1
  Ta  Ta4  1  0.001851  0.224209  0.454016  1
  Ta  Ta5  1  0.680076  0.275791  0.045984  1
  Ta  Ta6  1  0.998149  0.775791  0.545984  1
  Ta  Ta7  1  0.319924  0.724209  0.954016  1
  Ta  Ta8  1  0.400636  0.467570  0.405582  1
  Ta  Ta9  1  0.273788  0.032430  0.094418  1
  Ta  Ta10  1  0.599364  0.532430  0.594418  1
  Ta  Ta11  1  0.726212  0.967570  0.905582  1
  Ta  Ta12  1  0.818151  0.897691  0.173698  1
  Ta  Ta13  1  0.889540  0.602309  0.326302  1
  Ta  Ta14  1  0.181849  0.102309  0.826302  1
  Ta  Ta15  1  0.110460  0.397691  0.673698  1
  Ta  Ta16  1  0.641894  0.024665  0.396936  1
  Ta  Ta17  1  0.063495  0.475335  0.103064  1
  Ta  Ta18  1  0.358106  0.975335  0.603064  1
  Ta  Ta19  1  0.936505  0.524665  0.896936  1
  Ta  Ta20  1  0.212711  0.894710  0.317214  1
  Ta  Ta21  1  0.424635  0.605290  0.182786  1
  Ta  Ta22  1  0.787289  0.105290  0.682786  1
  Ta  Ta23  1  0.575365  0.394710  0.817214  1
  Ta  Ta24  1  0.159403  0.743468  0.751713  1
  Ta  Ta25  1  0.654584  0.756532  0.748287  1
  Ta  Ta26  1  0.840597  0.256532  0.248287  1
  Ta  Ta27  1  0.345416  0.243468  0.251713  1
