# generated using pymatgen
data_Sb2F7
_symmetry_space_group_name_H-M   'P 1'
_cell_length_a   4.89412935
_cell_length_b   11.04066482
_cell_length_c   11.05304039
_cell_angle_alpha   90.00000000
_cell_angle_beta   90.00000000
_cell_angle_gamma   95.80397895
_symmetry_Int_Tables_number   1
_chemical_formula_structural   Sb2F7
_chemical_formula_sum   'Sb8 F28'
_cell_volume   594.18320427
_cell_formula_units_Z   4
loop_
 _symmetry_equiv_pos_site_id
 _symmetry_equiv_pos_as_xyz
  1  'x, y, z'
loop_
 _atom_site_type_symbol
 _atom_site_label
 _atom_site_symmetry_multiplicity
 _atom_site_fract_x
 _atom_site_fract_y
 _atom_site_fract_z
 _atom_site_occupancy
  Sb  Sb0  1  0.202173  0.768525  0.561102  1
  Sb  Sb1  1  0.566626  0.476002  0.750000  1
  Sb  Sb2  1  0.797827  0.231475  0.061102  1
  Sb  Sb3  1  0.797827  0.231475  0.438898  1
  Sb  Sb4  1  0.433374  0.523998  0.250000  1
  Sb  Sb5  1  0.108151  0.077293  0.750000  1
  Sb  Sb6  1  0.891849  0.922707  0.250000  1
  Sb  Sb7  1  0.202173  0.768525  0.938898  1
  F  F8  1  0.223517  0.592765  0.374524  1
  F  F9  1  0.769661  0.050417  0.088880  1
  F  F10  1  0.310542  0.332526  0.750000  1
  F  F11  1  0.180031  0.055692  0.250000  1
  F  F12  1  0.134263  0.843723  0.125730  1
  F  F13  1  0.769661  0.050417  0.411120  1
  F  F14  1  0.679642  0.222031  0.250000  1
  F  F15  1  0.776483  0.407235  0.625475  1
  F  F16  1  0.588503  0.786724  0.518591  1
  F  F17  1  0.865737  0.156277  0.874270  1
  F  F18  1  0.177366  0.379772  0.250000  1
  F  F19  1  0.355229  0.548501  0.627145  1
  F  F20  1  0.230339  0.949583  0.588880  1
  F  F21  1  0.134263  0.843723  0.374270  1
  F  F22  1  0.230339  0.949583  0.911120  1
  F  F23  1  0.819969  0.944308  0.750000  1
  F  F24  1  0.865737  0.156277  0.625730  1
  F  F25  1  0.355229  0.548501  0.872855  1
  F  F26  1  0.223517  0.592765  0.125475  1
  F  F27  1  0.411497  0.213276  0.018591  1
  F  F28  1  0.588503  0.786724  0.981409  1
  F  F29  1  0.644771  0.451499  0.127145  1
  F  F30  1  0.644771  0.451499  0.372855  1
  F  F31  1  0.822634  0.620228  0.750000  1
  F  F32  1  0.776483  0.407235  0.874525  1
  F  F33  1  0.689458  0.667474  0.250000  1
  F  F34  1  0.320358  0.777969  0.750000  1
  F  F35  1  0.411497  0.213276  0.481409  1
