# generated using pymatgen
data_UO3
_symmetry_space_group_name_H-M   'P 1'
_cell_length_a   5.24846082
_cell_length_b   5.54243707
_cell_length_c   7.56825163
_cell_angle_alpha   90.00000000
_cell_angle_beta   90.00000000
_cell_angle_gamma   90.00000000
_symmetry_Int_Tables_number   1
_chemical_formula_structural   UO3
_chemical_formula_sum   'U4 O12'
_cell_volume   220.15486824
_cell_formula_units_Z   4
loop_
 _symmetry_equiv_pos_site_id
 _symmetry_equiv_pos_as_xyz
  1  'x, y, z'
loop_
 _atom_site_type_symbol
 _atom_site_label
 _atom_site_symmetry_multiplicity
 _atom_site_fract_x
 _atom_site_fract_y
 _atom_site_fract_z
 _atom_site_occupancy
  O  O0  1  0.666373  0.117697  0.822245  1
  O  O1  1  0.166373  0.882303  0.677755  1
  O  O2  1  0.833627  0.617697  0.177755  1
  O  O3  1  0.333627  0.382303  0.322245  1
  O  O4  1  0.681673  0.867031  0.502501  1
  O  O5  1  0.181673  0.132969  0.997499  1
  O  O6  1  0.818327  0.367031  0.497499  1
  O  O7  1  0.318327  0.632969  0.002501  1
  O  O8  1  0.782995  0.608838  0.844296  1
  O  O9  1  0.282995  0.391162  0.655704  1
  O  O10  1  0.717005  0.108838  0.155704  1
  O  O11  1  0.217005  0.891162  0.344296  1
  U  U12  1  0.033679  0.628084  0.434264  1
  U  U13  1  0.533679  0.371916  0.065736  1
  U  U14  1  0.466321  0.128084  0.565736  1
  U  U15  1  0.966321  0.871916  0.934264  1
