# generated using pymatgen
data_PuH8(SO6)2
_symmetry_space_group_name_H-M   'P 1'
_cell_length_a   5.76885015
_cell_length_b   11.14309450
_cell_length_c   14.66933159
_cell_angle_alpha   90.00000000
_cell_angle_beta   90.00000000
_cell_angle_gamma   90.00000000
_symmetry_Int_Tables_number   1
_chemical_formula_structural   PuH8(SO6)2
_chemical_formula_sum   'Pu4 H32 S8 O48'
_cell_volume   942.98633039
_cell_formula_units_Z   4
loop_
 _symmetry_equiv_pos_site_id
 _symmetry_equiv_pos_as_xyz
  1  'x, y, z'
loop_
 _atom_site_type_symbol
 _atom_site_label
 _atom_site_symmetry_multiplicity
 _atom_site_fract_x
 _atom_site_fract_y
 _atom_site_fract_z
 _atom_site_occupancy
  H  H0  1  0.698389  0.444286  0.596338  1
  H  H1  1  0.198389  0.555714  0.903662  1
  H  H2  1  0.301611  0.944286  0.403662  1
  H  H3  1  0.801611  0.055714  0.096338  1
  H  H4  1  0.301611  0.555714  0.403662  1
  H  H5  1  0.801611  0.444286  0.096338  1
  H  H6  1  0.698389  0.055714  0.596338  1
  H  H7  1  0.198389  0.944286  0.903662  1
  H  H8  1  0.625863  0.373676  0.507686  1
  H  H9  1  0.125863  0.626324  0.992314  1
  H  H10  1  0.374137  0.873676  0.492314  1
  H  H11  1  0.874137  0.126324  0.007686  1
  H  H12  1  0.374137  0.626324  0.492314  1
  H  H13  1  0.874137  0.373676  0.007686  1
  H  H14  1  0.625863  0.126324  0.507686  1
  H  H15  1  0.125863  0.873676  0.992314  1
  H  H16  1  0.149663  0.321265  0.487012  1
  H  H17  1  0.649663  0.678735  0.012988  1
  H  H18  1  0.850337  0.821265  0.512988  1
  H  H19  1  0.350337  0.178735  0.987012  1
  H  H20  1  0.850337  0.678735  0.512988  1
  H  H21  1  0.350337  0.321265  0.987012  1
  H  H22  1  0.149663  0.178735  0.487012  1
  H  H23  1  0.649663  0.821265  0.012988  1
  H  H24  1  0.041618  0.319927  0.827299  1
  H  H25  1  0.541618  0.680073  0.672701  1
  H  H26  1  0.958382  0.819927  0.172701  1
  H  H27  1  0.458382  0.180073  0.327299  1
  H  H28  1  0.958382  0.680073  0.172701  1
  H  H29  1  0.458382  0.319927  0.327299  1
  H  H30  1  0.041618  0.180073  0.827299  1
  H  H31  1  0.541618  0.819927  0.672701  1
  O  O32  1  0.605199  0.375314  0.575013  1
  O  O33  1  0.105199  0.624686  0.924987  1
  O  O34  1  0.394801  0.875314  0.424987  1
  O  O35  1  0.894801  0.124686  0.075013  1
  O  O36  1  0.394801  0.624686  0.424987  1
  O  O37  1  0.894801  0.375314  0.075013  1
  O  O38  1  0.605199  0.124686  0.575013  1
  O  O39  1  0.105199  0.875314  0.924987  1
  O  O40  1  0.871516  0.750000  0.196508  1
  O  O41  1  0.371516  0.250000  0.303492  1
  O  O42  1  0.128484  0.250000  0.803492  1
  O  O43  1  0.628484  0.750000  0.696508  1
  O  O44  1  0.816382  0.750000  0.474343  1
  O  O45  1  0.316382  0.250000  0.025657  1
  O  O46  1  0.183618  0.250000  0.525657  1
  O  O47  1  0.683618  0.750000  0.974343  1
  O  O48  1  0.826549  0.396206  0.894268  1
  O  O49  1  0.326549  0.603794  0.605732  1
  O  O50  1  0.173451  0.896206  0.105732  1
  O  O51  1  0.673451  0.103794  0.394268  1
  O  O52  1  0.173451  0.603794  0.105732  1
  O  O53  1  0.673451  0.396206  0.394268  1
  O  O54  1  0.826549  0.103794  0.894268  1
  O  O55  1  0.326549  0.896206  0.605732  1
  O  O56  1  0.408257  0.432679  0.907463  1
  O  O57  1  0.908257  0.567321  0.592537  1
  O  O58  1  0.591743  0.932679  0.092537  1
  O  O59  1  0.091743  0.067321  0.407463  1
  O  O60  1  0.591743  0.567321  0.092537  1
  O  O61  1  0.091743  0.432679  0.407463  1
  O  O62  1  0.408257  0.067321  0.907463  1
  O  O63  1  0.908257  0.932679  0.592537  1
  O  O64  1  0.148742  0.422625  0.669251  1
  O  O65  1  0.648742  0.577375  0.830749  1
  O  O66  1  0.851258  0.922625  0.330749  1
  O  O67  1  0.351258  0.077375  0.169251  1
  O  O68  1  0.851258  0.577375  0.330749  1
  O  O69  1  0.351258  0.422625  0.169251  1
  O  O70  1  0.148742  0.077375  0.669251  1
  O  O71  1  0.648742  0.922625  0.830749  1
  O  O72  1  0.587038  0.383407  0.760415  1
  O  O73  1  0.087038  0.616593  0.739585  1
  O  O74  1  0.412962  0.883407  0.239585  1
  O  O75  1  0.912962  0.116593  0.260415  1
  O  O76  1  0.412962  0.616593  0.239585  1
  O  O77  1  0.912962  0.383407  0.260415  1
  O  O78  1  0.587038  0.116593  0.760415  1
  O  O79  1  0.087038  0.883407  0.739585  1
  S  S80  1  0.617450  0.445959  0.850466  1
  S  S81  1  0.117450  0.554041  0.649534  1
  S  S82  1  0.382550  0.945959  0.149534  1
  S  S83  1  0.882550  0.054041  0.350466  1
  S  S84  1  0.382550  0.554041  0.149534  1
  S  S85  1  0.882550  0.445959  0.350466  1
  S  S86  1  0.617450  0.054041  0.850466  1
  S  S87  1  0.117450  0.945959  0.649534  1
  Pu  Pu88  1  0.625976  0.750000  0.329033  1
  Pu  Pu89  1  0.125976  0.250000  0.170967  1
  Pu  Pu90  1  0.374024  0.250000  0.670967  1
  Pu  Pu91  1  0.874024  0.750000  0.829033  1
