# generated using pymatgen
data_Cr3GeC
_symmetry_space_group_name_H-M   'P 1'
_cell_length_a   2.87628912
_cell_length_b   5.35980905
_cell_length_c   7.64981812
_cell_angle_alpha   90.00000000
_cell_angle_beta   90.00000000
_cell_angle_gamma   105.56432810
_symmetry_Int_Tables_number   1
_chemical_formula_structural   Cr3GeC
_chemical_formula_sum   'Cr6 Ge2 C2'
_cell_volume   113.60775144
_cell_formula_units_Z   2
loop_
 _symmetry_equiv_pos_site_id
 _symmetry_equiv_pos_as_xyz
  1  'x, y, z'
loop_
 _atom_site_type_symbol
 _atom_site_label
 _atom_site_symmetry_multiplicity
 _atom_site_fract_x
 _atom_site_fract_y
 _atom_site_fract_z
 _atom_site_occupancy
  C  C0  1  0.500000  0.000000  0.500000  1
  C  C1  1  0.500000  0.000000  0.000000  1
  Cr  Cr2  1  0.125079  0.250159  0.546489  1
  Cr  Cr3  1  0.530798  0.061596  0.250000  1
  Cr  Cr4  1  0.469202  0.938404  0.750000  1
  Cr  Cr5  1  0.125079  0.250159  0.953511  1
  Cr  Cr6  1  0.874921  0.749841  0.046489  1
  Cr  Cr7  1  0.874921  0.749841  0.453511  1
  Ge  Ge8  1  0.238694  0.477388  0.250000  1
  Ge  Ge9  1  0.761306  0.522612  0.750000  1
