# generated using pymatgen
data_Cu4P2O9
_symmetry_space_group_name_H-M   'P 1'
_cell_length_a   6.38098051
_cell_length_b   8.15510383
_cell_length_c   13.63420194
_cell_angle_alpha   90.00000000
_cell_angle_beta   90.00000000
_cell_angle_gamma   90.00000000
_symmetry_Int_Tables_number   1
_chemical_formula_structural   Cu4P2O9
_chemical_formula_sum   'Cu16 P8 O36'
_cell_volume   709.49058237
_cell_formula_units_Z   4
loop_
 _symmetry_equiv_pos_site_id
 _symmetry_equiv_pos_as_xyz
  1  'x, y, z'
loop_
 _atom_site_type_symbol
 _atom_site_label
 _atom_site_symmetry_multiplicity
 _atom_site_fract_x
 _atom_site_fract_y
 _atom_site_fract_z
 _atom_site_occupancy
  O  O0  1  0.250000  0.202135  0.906226  1
  O  O1  1  0.750000  0.797865  0.093774  1
  O  O2  1  0.250000  0.702135  0.593774  1
  O  O3  1  0.750000  0.297865  0.406226  1
  O  O4  1  0.550378  0.887896  0.651236  1
  O  O5  1  0.050378  0.112104  0.348764  1
  O  O6  1  0.949622  0.387896  0.848764  1
  O  O7  1  0.449622  0.612104  0.151236  1
  O  O8  1  0.449622  0.112104  0.348764  1
  O  O9  1  0.949622  0.887896  0.651236  1
  O  O10  1  0.050378  0.612104  0.151236  1
  O  O11  1  0.550378  0.387896  0.848764  1
  O  O12  1  0.250000  0.902667  0.244514  1
  O  O13  1  0.750000  0.097333  0.755486  1
  O  O14  1  0.452596  0.914591  0.862555  1
  O  O15  1  0.250000  0.402667  0.255486  1
  O  O16  1  0.250000  0.881650  0.430322  1
  O  O17  1  0.750000  0.118350  0.569678  1
  O  O18  1  0.250000  0.381650  0.069678  1
  O  O19  1  0.750000  0.618350  0.930322  1
  O  O20  1  0.547404  0.085409  0.137445  1
  O  O21  1  0.047404  0.914591  0.862555  1
  O  O22  1  0.952596  0.585409  0.362555  1
  O  O23  1  0.452596  0.414591  0.637445  1
  O  O24  1  0.750000  0.834570  0.410248  1
  O  O25  1  0.250000  0.165430  0.589752  1
  O  O26  1  0.750000  0.334570  0.089752  1
  O  O27  1  0.250000  0.665430  0.910248  1
  O  O28  1  0.750000  0.590077  0.524442  1
  O  O29  1  0.250000  0.409923  0.475558  1
  O  O30  1  0.750000  0.090077  0.975558  1
  O  O31  1  0.250000  0.909923  0.024442  1
  O  O32  1  0.547404  0.585409  0.362555  1
  O  O33  1  0.047404  0.414591  0.637445  1
  O  O34  1  0.952596  0.085409  0.137445  1
  O  O35  1  0.750000  0.597333  0.744514  1
  P  P36  1  0.750000  0.649943  0.415164  1
  P  P37  1  0.250000  0.350057  0.584836  1
  P  P38  1  0.750000  0.149943  0.084836  1
  P  P39  1  0.250000  0.850057  0.915164  1
  P  P40  1  0.750000  0.496764  0.843182  1
  P  P41  1  0.250000  0.503236  0.156818  1
  P  P42  1  0.750000  0.996764  0.656818  1
  P  P43  1  0.250000  0.003236  0.343182  1
  Cu  Cu44  1  0.250000  0.144898  0.052065  1
  Cu  Cu45  1  0.750000  0.855102  0.947935  1
  Cu  Cu46  1  0.250000  0.644898  0.447935  1
  Cu  Cu47  1  0.750000  0.355102  0.552065  1
  Cu  Cu48  1  0.250000  0.437169  0.912082  1
  Cu  Cu49  1  0.750000  0.562831  0.087918  1
  Cu  Cu50  1  0.250000  0.937169  0.587918  1
  Cu  Cu51  1  0.750000  0.062831  0.412082  1
  Cu  Cu52  1  0.992767  0.647326  0.657116  1
  Cu  Cu53  1  0.492767  0.352674  0.342884  1
  Cu  Cu54  1  0.507233  0.147326  0.842884  1
  Cu  Cu55  1  0.007233  0.852674  0.157116  1
  Cu  Cu56  1  0.007233  0.352674  0.342884  1
  Cu  Cu57  1  0.507233  0.647326  0.657116  1
  Cu  Cu58  1  0.492767  0.852674  0.157116  1
  Cu  Cu59  1  0.992767  0.147326  0.842884  1
