# generated using pymatgen
data_PuPd
_symmetry_space_group_name_H-M   'P 1'
_cell_length_a   4.21557194
_cell_length_b   6.78122429
_cell_length_c   4.90714829
_cell_angle_alpha   90.00000000
_cell_angle_beta   90.00000000
_cell_angle_gamma   90.00000000
_symmetry_Int_Tables_number   1
_chemical_formula_structural   PuPd
_chemical_formula_sum   'Pu4 Pd4'
_cell_volume   140.27936659
_cell_formula_units_Z   4
loop_
 _symmetry_equiv_pos_site_id
 _symmetry_equiv_pos_as_xyz
  1  'x, y, z'
loop_
 _atom_site_type_symbol
 _atom_site_label
 _atom_site_symmetry_multiplicity
 _atom_site_fract_x
 _atom_site_fract_y
 _atom_site_fract_z
 _atom_site_occupancy
  Pd  Pd0  1  0.250000  0.636771  0.001191  1
  Pd  Pd1  1  0.750000  0.363229  0.998809  1
  Pd  Pd2  1  0.750000  0.136771  0.498809  1
  Pd  Pd3  1  0.250000  0.863229  0.501191  1
  Pu  Pu4  1  0.250000  0.093870  0.000270  1
  Pu  Pu5  1  0.750000  0.906130  0.999730  1
  Pu  Pu6  1  0.750000  0.593870  0.499730  1
  Pu  Pu7  1  0.250000  0.406130  0.500270  1
