# generated using pymatgen
data_Al10Ge2O19
_symmetry_space_group_name_H-M   'P 1'
_cell_length_a   5.92535560
_cell_length_b   7.83298588
_cell_length_c   15.70865174
_cell_angle_alpha   90.00000000
_cell_angle_beta   100.87118992
_cell_angle_gamma   90.00000000
_symmetry_Int_Tables_number   1
_chemical_formula_structural   Al10Ge2O19
_chemical_formula_sum   'Al20 Ge4 O38'
_cell_volume   716.00473991
_cell_formula_units_Z   2
loop_
 _symmetry_equiv_pos_site_id
 _symmetry_equiv_pos_as_xyz
  1  'x, y, z'
loop_
 _atom_site_type_symbol
 _atom_site_label
 _atom_site_symmetry_multiplicity
 _atom_site_fract_x
 _atom_site_fract_y
 _atom_site_fract_z
 _atom_site_occupancy
  O  O0  1  0.929721  0.525365  0.859442  1
  O  O1  1  0.070279  0.025365  0.140558  1
  O  O2  1  0.196826  0.444945  0.393653  1
  O  O3  1  0.803174  0.944945  0.606347  1
  O  O4  1  0.424533  0.554452  0.849065  1
  O  O5  1  0.575467  0.054452  0.150935  1
  O  O6  1  0.783317  0.294466  0.063666  1
  O  O7  1  0.216683  0.794466  0.936334  1
  O  O8  1  0.280349  0.294466  0.063666  1
  O  O9  1  0.719651  0.794466  0.936334  1
  O  O10  1  0.531373  0.285149  0.553810  1
  O  O11  1  0.468627  0.785149  0.446190  1
  O  O12  1  0.022437  0.285149  0.553810  1
  O  O13  1  0.977563  0.785149  0.446190  1
  O  O14  1  0.592951  0.696542  0.695207  1
  O  O15  1  0.407049  0.196542  0.304793  1
  O  O16  1  0.102256  0.696542  0.695207  1
  O  O17  1  0.897744  0.196542  0.304793  1
  O  O18  1  0.344317  0.721895  0.180785  1
  O  O19  1  0.655683  0.221895  0.819215  1
  O  O20  1  0.836467  0.721895  0.180785  1
  O  O21  1  0.163533  0.221895  0.819215  1
  O  O22  1  0.974410  0.085603  0.948819  1
  O  O23  1  0.025590  0.585603  0.051181  1
  O  O24  1  0.843283  0.385895  0.686567  1
  O  O25  1  0.156717  0.885895  0.313433  1
  O  O26  1  0.346684  0.414821  0.693369  1
  O  O27  1  0.653316  0.914821  0.306631  1
  O  O28  1  0.597892  0.423749  0.195784  1
  O  O29  1  0.402108  0.923749  0.804216  1
  O  O30  1  0.097769  0.436960  0.195539  1
  O  O31  1  0.902231  0.936960  0.804461  1
  O  O32  1  0.782120  0.595356  0.564241  1
  O  O33  1  0.217880  0.095356  0.435759  1
  O  O34  1  0.274752  0.545432  0.549504  1
  O  O35  1  0.725248  0.045432  0.450496  1
  O  O36  1  0.525951  0.578036  0.051902  1
  O  O37  1  0.474049  0.078036  0.948098  1
  Al  Al38  1  0.184031  0.010591  0.881718  1
  Al  Al39  1  0.815969  0.510591  0.118282  1
  Al  Al40  1  0.697687  0.010591  0.881718  1
  Al  Al41  1  0.302313  0.510591  0.118282  1
  Al  Al42  1  0.027712  0.167841  0.055423  1
  Al  Al43  1  0.972288  0.667841  0.944577  1
  Al  Al44  1  0.523455  0.182629  0.046910  1
  Al  Al45  1  0.476545  0.682629  0.953090  1
  Al  Al46  1  0.776319  0.154555  0.552638  1
  Al  Al47  1  0.223681  0.654555  0.447362  1
  Al  Al48  1  0.855255  0.822100  0.710509  1
  Al  Al49  1  0.144745  0.322100  0.289491  1
  Al  Al50  1  0.598888  0.837069  0.197777  1
  Al  Al51  1  0.401112  0.337069  0.802223  1
  Al  Al52  1  0.097968  0.837312  0.195935  1
  Al  Al53  1  0.902032  0.337312  0.804065  1
  Al  Al54  1  0.568493  0.486017  0.630198  1
  Al  Al55  1  0.431507  0.986017  0.369802  1
  Al  Al56  1  0.061705  0.486017  0.630198  1
  Al  Al57  1  0.938295  0.986017  0.369802  1
  Ge  Ge58  1  0.617812  0.216099  0.235624  1
  Ge  Ge59  1  0.382188  0.716099  0.764376  1
  Ge  Ge60  1  0.754838  0.797460  0.509676  1
  Ge  Ge61  1  0.245162  0.297460  0.490324  1
