# generated using pymatgen
data_Zr5P7Pd9
_symmetry_space_group_name_H-M   'P 1'
_cell_length_a   3.86210928
_cell_length_b   6.53469584
_cell_length_c   13.69095479
_cell_angle_alpha   103.80688267
_cell_angle_beta   90.00000000
_cell_angle_gamma   90.00000000
_symmetry_Int_Tables_number   1
_chemical_formula_structural   Zr5P7Pd9
_chemical_formula_sum   'Zr5 P7 Pd9'
_cell_volume   335.54451162
_cell_formula_units_Z   1
loop_
 _symmetry_equiv_pos_site_id
 _symmetry_equiv_pos_as_xyz
  1  'x, y, z'
loop_
 _atom_site_type_symbol
 _atom_site_label
 _atom_site_symmetry_multiplicity
 _atom_site_fract_x
 _atom_site_fract_y
 _atom_site_fract_z
 _atom_site_occupancy
  P  P0  1  0.500000  0.029240  0.287920  1
  P  P1  1  0.000000  0.878658  0.000000  1
  P  P2  1  0.000000  0.178359  0.572090  1
  P  P3  1  0.000000  0.606269  0.427910  1
  P  P4  1  0.500000  0.310973  0.863007  1
  P  P5  1  0.500000  0.741319  0.712080  1
  P  P6  1  0.500000  0.447966  0.136993  1
  Zr  Zr7  1  0.500000  0.450274  0.543409  1
  Zr  Zr8  1  0.500000  0.906865  0.456591  1
  Zr  Zr9  1  0.000000  0.478154  0.000000  1
  Zr  Zr10  1  0.000000  0.004893  0.822664  1
  Zr  Zr11  1  0.000000  0.182230  0.177336  1
  Pd  Pd12  1  0.000000  0.497212  0.723454  1
  Pd  Pd13  1  0.000000  0.773758  0.276546  1
  Pd  Pd14  1  0.500000  0.123956  0.000000  1
  Pd  Pd15  1  0.000000  0.810908  0.606458  1
  Pd  Pd16  1  0.500000  0.452792  0.317369  1
  Pd  Pd17  1  0.500000  0.135423  0.682631  1
  Pd  Pd18  1  0.500000  0.804025  0.116549  1
  Pd  Pd19  1  0.500000  0.687475  0.883451  1
  Pd  Pd20  1  0.000000  0.204450  0.393542  1
