# generated using pymatgen
data_CaAsPt
_symmetry_space_group_name_H-M   'P 1'
_cell_length_a   4.22848830
_cell_length_b   4.22848830
_cell_length_c   22.37882099
_cell_angle_alpha   95.42111653
_cell_angle_beta   95.42111654
_cell_angle_gamma   90.00000000
_symmetry_Int_Tables_number   1
_chemical_formula_structural   CaAsPt
_chemical_formula_sum   'Ca6 As6 Pt6'
_cell_volume   396.54833348
_cell_formula_units_Z   6
loop_
 _symmetry_equiv_pos_site_id
 _symmetry_equiv_pos_as_xyz
  1  'x, y, z'
loop_
 _atom_site_type_symbol
 _atom_site_label
 _atom_site_symmetry_multiplicity
 _atom_site_fract_x
 _atom_site_fract_y
 _atom_site_fract_z
 _atom_site_occupancy
  Ca  Ca0  1  0.999560  0.999560  0.999119  1
  Ca  Ca1  1  0.749560  0.249560  0.499119  1
  Ca  Ca2  1  0.165836  0.165836  0.331672  1
  Ca  Ca3  1  0.915836  0.415836  0.831672  1
  Ca  Ca4  1  0.833047  0.833047  0.666094  1
  Ca  Ca5  1  0.583047  0.083047  0.166094  1
  As  As6  1  0.693672  0.693672  0.387344  1
  As  As7  1  0.277140  0.777140  0.554281  1
  As  As8  1  0.527140  0.527140  0.054281  1
  As  As9  1  0.443672  0.943672  0.887344  1
  As  As10  1  0.109990  0.609990  0.219980  1
  As  As11  1  0.359990  0.359990  0.719980  1
  Pt  Pt12  1  0.388205  0.888205  0.776409  1
  Pt  Pt13  1  0.638205  0.638205  0.276409  1
  Pt  Pt14  1  0.472045  0.472045  0.944090  1
  Pt  Pt15  1  0.054505  0.554505  0.109010  1
  Pt  Pt16  1  0.304505  0.304505  0.609010  1
  Pt  Pt17  1  0.222045  0.722045  0.444090  1
