# generated using pymatgen
data_NbSeF9
_symmetry_space_group_name_H-M   'P 1'
_cell_length_a   9.14132002
_cell_length_b   9.14132002
_cell_length_c   9.14132002
_cell_angle_alpha   93.27253641
_cell_angle_beta   93.27253642
_cell_angle_gamma   93.27253647
_symmetry_Int_Tables_number   1
_chemical_formula_structural   NbSeF9
_chemical_formula_sum   'Nb4 Se4 F36'
_cell_volume   759.99686901
_cell_formula_units_Z   4
loop_
 _symmetry_equiv_pos_site_id
 _symmetry_equiv_pos_as_xyz
  1  'x, y, z'
loop_
 _atom_site_type_symbol
 _atom_site_label
 _atom_site_symmetry_multiplicity
 _atom_site_fract_x
 _atom_site_fract_y
 _atom_site_fract_z
 _atom_site_occupancy
  F  F0  1  0.574524  0.499463  0.091747  1
  F  F1  1  0.499463  0.091747  0.574524  1
  F  F2  1  0.091747  0.574524  0.499463  1
  F  F3  1  0.876357  0.051135  0.170862  1
  F  F4  1  0.051135  0.170862  0.876357  1
  F  F5  1  0.170862  0.876357  0.051135  1
  F  F6  1  0.710414  0.794263  0.148275  1
  F  F7  1  0.794263  0.148275  0.710414  1
  F  F8  1  0.647385  0.408824  0.553132  1
  F  F9  1  0.553132  0.647385  0.408824  1
  F  F10  1  0.408824  0.553132  0.647385  1
  F  F11  1  0.812587  0.671978  0.577516  1
  F  F12  1  0.577516  0.812587  0.671978  1
  F  F13  1  0.671978  0.577516  0.812587  1
  F  F14  1  0.256389  0.639410  0.199375  1
  F  F15  1  0.199375  0.256389  0.639410  1
  F  F16  1  0.639410  0.199375  0.256389  1
  F  F17  1  0.408890  0.732378  0.961855  1
  F  F18  1  0.961855  0.408890  0.732378  1
  F  F19  1  0.732378  0.961855  0.408890  1
  F  F20  1  0.239525  0.816494  0.528400  1
  F  F21  1  0.528400  0.239525  0.816494  1
  F  F22  1  0.816494  0.528400  0.239525  1
  F  F23  1  0.001598  0.794169  0.376043  1
  F  F24  1  0.376043  0.001598  0.794169  1
  F  F25  1  0.794169  0.376043  0.001598  1
  F  F26  1  0.239196  0.470572  0.938923  1
  F  F27  1  0.938923  0.239196  0.470572  1
  F  F28  1  0.470572  0.938923  0.239196  1
  F  F29  1  0.001587  0.621266  0.025252  1
  F  F30  1  0.025252  0.001587  0.621266  1
  F  F31  1  0.621266  0.025252  0.001587  1
  F  F32  1  0.298319  0.172041  0.080435  1
  F  F33  1  0.080435  0.298319  0.172041  1
  F  F34  1  0.172041  0.080435  0.298319  1
  F  F35  1  0.148275  0.710414  0.794263  1
  Se  Se36  1  0.060170  0.754463  0.552786  1
  Se  Se37  1  0.552786  0.060170  0.754463  1
  Se  Se38  1  0.754463  0.552786  0.060170  1
  Se  Se39  1  0.119844  0.119844  0.119844  1
  Nb  Nb40  1  0.214998  0.668181  0.998916  1
  Nb  Nb41  1  0.998916  0.214998  0.668181  1
  Nb  Nb42  1  0.668181  0.998916  0.214998  1
  Nb  Nb43  1  0.603963  0.603963  0.603963  1
