# generated using pymatgen
data_CoH4(BrO)2
_symmetry_space_group_name_H-M   'P 1'
_cell_length_a   3.81121302
_cell_length_b   5.91791171
_cell_length_c   5.91791171
_cell_angle_alpha   95.30576068
_cell_angle_beta   97.57344448
_cell_angle_gamma   97.57344450
_symmetry_Int_Tables_number   1
_chemical_formula_structural   CoH4(BrO)2
_chemical_formula_sum   'Co1 H4 Br2 O2'
_cell_volume   130.33455473
_cell_formula_units_Z   1
loop_
 _symmetry_equiv_pos_site_id
 _symmetry_equiv_pos_as_xyz
  1  'x, y, z'
loop_
 _atom_site_type_symbol
 _atom_site_label
 _atom_site_symmetry_multiplicity
 _atom_site_fract_x
 _atom_site_fract_y
 _atom_site_fract_z
 _atom_site_occupancy
  H  H0  1  0.855621  0.210937  0.614405  1
  H  H1  1  0.144379  0.385596  0.789062  1
  H  H2  1  0.855620  0.614404  0.210938  1
  H  H3  1  0.144381  0.789063  0.385595  1
  O  O4  1  0.999999  0.767926  0.232074  1
  O  O5  1  1.000000  0.232074  0.767926  1
  Co  Co6  1  0.000000  0.000000  0.000000  1
  Br  Br7  1  0.408741  0.762775  0.762774  1
  Br  Br8  1  0.591258  0.237225  0.237226  1
