# generated using pymatgen
data_KBiP2S7
_symmetry_space_group_name_H-M   'P 1'
_cell_length_a   9.23819848
_cell_length_b   9.77734704
_cell_length_c   12.74412392
_cell_angle_alpha   90.00000000
_cell_angle_beta   90.00000000
_cell_angle_gamma   90.42117973
_symmetry_Int_Tables_number   1
_chemical_formula_structural   KBiP2S7
_chemical_formula_sum   'K4 Bi4 P8 S28'
_cell_volume   1151.08281662
_cell_formula_units_Z   4
loop_
 _symmetry_equiv_pos_site_id
 _symmetry_equiv_pos_as_xyz
  1  'x, y, z'
loop_
 _atom_site_type_symbol
 _atom_site_label
 _atom_site_symmetry_multiplicity
 _atom_site_fract_x
 _atom_site_fract_y
 _atom_site_fract_z
 _atom_site_occupancy
  P  P0  1  0.983079  0.227788  0.391266  1
  P  P1  1  0.516921  0.772212  0.891266  1
  P  P2  1  0.016921  0.772212  0.608734  1
  P  P3  1  0.483079  0.227788  0.108734  1
  P  P4  1  0.697963  0.679159  0.465828  1
  P  P5  1  0.802037  0.320841  0.965828  1
  P  P6  1  0.302037  0.320841  0.534172  1
  P  P7  1  0.197963  0.679159  0.034172  1
  S  S8  1  0.155274  0.655396  0.188768  1
  S  S9  1  0.344726  0.344604  0.688768  1
  S  S10  1  0.844726  0.344604  0.811232  1
  S  S11  1  0.655274  0.655396  0.311232  1
  S  S12  1  0.109607  0.123844  0.289076  1
  S  S13  1  0.390393  0.876156  0.789076  1
  S  S14  1  0.890393  0.876156  0.710924  1
  S  S15  1  0.609607  0.123844  0.210924  1
  S  S16  1  0.930238  0.174015  0.031366  1
  S  S17  1  0.569762  0.825985  0.531366  1
  S  S18  1  0.069762  0.825985  0.968634  1
  S  S19  1  0.430238  0.174015  0.468634  1
  S  S20  1  0.430579  0.410024  0.175318  1
  S  S21  1  0.069421  0.589976  0.675318  1
  S  S22  1  0.569421  0.589976  0.824682  1
  S  S23  1  0.930579  0.410024  0.324682  1
  S  S24  1  0.184389  0.502748  0.949615  1
  S  S25  1  0.315611  0.497252  0.449615  1
  S  S26  1  0.815611  0.497252  0.050385  1
  S  S27  1  0.684389  0.502748  0.550385  1
  S  S28  1  0.082779  0.248788  0.542511  1
  S  S29  1  0.417221  0.751212  0.042511  1
  S  S30  1  0.917221  0.751212  0.457489  1
  S  S31  1  0.582779  0.248788  0.957489  1
  S  S32  1  0.297429  0.133630  0.057681  1
  S  S33  1  0.202571  0.866370  0.557681  1
  S  S34  1  0.702571  0.866370  0.942319  1
  S  S35  1  0.797429  0.133630  0.442319  1
  K  K36  1  0.373994  0.888162  0.311649  1
  K  K37  1  0.126006  0.111838  0.811649  1
  K  K38  1  0.626006  0.111838  0.688351  1
  K  K39  1  0.873994  0.888162  0.188351  1
  Bi  Bi40  1  0.626399  0.348314  0.363021  1
  Bi  Bi41  1  0.873601  0.651686  0.863021  1
  Bi  Bi42  1  0.373601  0.651686  0.636979  1
  Bi  Bi43  1  0.126399  0.348314  0.136979  1
