# generated using pymatgen
data_Rb3TlO3
_symmetry_space_group_name_H-M   'P 1'
_cell_length_a   7.27962794
_cell_length_b   7.94390875
_cell_length_c   11.73498507
_cell_angle_alpha   94.02542595
_cell_angle_beta   90.00000000
_cell_angle_gamma   90.00000000
_symmetry_Int_Tables_number   1
_chemical_formula_structural   Rb3TlO3
_chemical_formula_sum   'Rb12 Tl4 O12'
_cell_volume   676.94477666
_cell_formula_units_Z   4
loop_
 _symmetry_equiv_pos_site_id
 _symmetry_equiv_pos_as_xyz
  1  'x, y, z'
loop_
 _atom_site_type_symbol
 _atom_site_label
 _atom_site_symmetry_multiplicity
 _atom_site_fract_x
 _atom_site_fract_y
 _atom_site_fract_z
 _atom_site_occupancy
  O  O0  1  0.934458  0.310662  0.195683  1
  O  O1  1  0.960831  0.108384  0.895179  1
  O  O2  1  0.460831  0.891616  0.604821  1
  O  O3  1  0.364997  0.259393  0.037463  1
  O  O4  1  0.864997  0.740607  0.462537  1
  O  O5  1  0.635003  0.740607  0.962537  1
  O  O6  1  0.135003  0.259393  0.537463  1
  O  O7  1  0.565542  0.310662  0.695683  1
  O  O8  1  0.039169  0.891616  0.104821  1
  O  O9  1  0.065542  0.689338  0.804317  1
  O  O10  1  0.434458  0.689338  0.304317  1
  O  O11  1  0.539169  0.108384  0.395179  1
  Rb  Rb12  1  0.868470  0.062924  0.655936  1
  Rb  Rb13  1  0.631530  0.062924  0.155936  1
  Rb  Rb14  1  0.177127  0.645337  0.577460  1
  Rb  Rb15  1  0.301157  0.368969  0.310220  1
  Rb  Rb16  1  0.801157  0.631031  0.189780  1
  Rb  Rb17  1  0.698843  0.631031  0.689780  1
  Rb  Rb18  1  0.198843  0.368969  0.810220  1
  Rb  Rb19  1  0.322873  0.645337  0.077460  1
  Rb  Rb20  1  0.822873  0.354663  0.422540  1
  Rb  Rb21  1  0.677127  0.354663  0.922540  1
  Rb  Rb22  1  0.368470  0.937076  0.844064  1
  Rb  Rb23  1  0.131530  0.937076  0.344064  1
  Tl  Tl24  1  0.406865  0.166460  0.569201  1
  Tl  Tl25  1  0.593135  0.833540  0.430799  1
  Tl  Tl26  1  0.093135  0.166460  0.069201  1
  Tl  Tl27  1  0.906865  0.833540  0.930799  1
