# generated using pymatgen
data_S2N2Cl
_symmetry_space_group_name_H-M   'P 1'
_cell_length_a   7.06391064
_cell_length_b   9.98600673
_cell_length_c   13.83735012
_cell_angle_alpha   109.73824438
_cell_angle_beta   90.00000000
_cell_angle_gamma   90.00000000
_symmetry_Int_Tables_number   1
_chemical_formula_structural   S2N2Cl
_chemical_formula_sum   'S16 N16 Cl8'
_cell_volume   918.74039951
_cell_formula_units_Z   8
loop_
 _symmetry_equiv_pos_site_id
 _symmetry_equiv_pos_as_xyz
  1  'x, y, z'
loop_
 _atom_site_type_symbol
 _atom_site_label
 _atom_site_symmetry_multiplicity
 _atom_site_fract_x
 _atom_site_fract_y
 _atom_site_fract_z
 _atom_site_occupancy
  S  S0  1  0.538418  0.385393  0.650861  1
  S  S1  1  0.300819  0.740845  0.071973  1
  S  S2  1  0.635154  0.344577  0.289360  1
  S  S3  1  0.961582  0.885393  0.150861  1
  S  S4  1  0.260049  0.425921  0.774792  1
  S  S5  1  0.760049  0.074079  0.725208  1
  S  S6  1  0.199181  0.240845  0.571973  1
  S  S7  1  0.364846  0.655423  0.710640  1
  S  S8  1  0.739951  0.574079  0.225208  1
  S  S9  1  0.699181  0.259155  0.928027  1
  S  S10  1  0.038418  0.114607  0.849139  1
  S  S11  1  0.864846  0.844577  0.789360  1
  S  S12  1  0.135154  0.155423  0.210640  1
  S  S13  1  0.461582  0.614607  0.349139  1
  S  S14  1  0.239951  0.925921  0.274792  1
  S  S15  1  0.800819  0.759155  0.428027  1
  N  N16  1  0.596029  0.704853  0.444187  1
  N  N17  1  0.041305  0.947989  0.835934  1
  N  N18  1  0.879480  0.664866  0.317801  1
  N  N19  1  0.120520  0.335134  0.682199  1
  N  N20  1  0.620520  0.164866  0.817801  1
  N  N21  1  0.740932  0.406969  0.210646  1
  N  N22  1  0.958695  0.052011  0.164066  1
  N  N23  1  0.541305  0.552011  0.664066  1
  N  N24  1  0.240932  0.093031  0.289354  1
  N  N25  1  0.379480  0.835134  0.182199  1
  N  N26  1  0.403971  0.295147  0.555813  1
  N  N27  1  0.759068  0.906969  0.710646  1
  N  N28  1  0.096029  0.795147  0.055813  1
  N  N29  1  0.259068  0.593031  0.789354  1
  N  N30  1  0.458695  0.447989  0.335934  1
  N  N31  1  0.903971  0.204853  0.944187  1
  Cl  Cl32  1  0.749501  0.474332  0.910272  1
  Cl  Cl33  1  0.750499  0.974332  0.410272  1
  Cl  Cl34  1  0.249501  0.025668  0.589728  1
  Cl  Cl35  1  0.250499  0.525668  0.089728  1
  Cl  Cl36  1  0.834563  0.372119  0.415939  1
  Cl  Cl37  1  0.334563  0.127881  0.084061  1
  Cl  Cl38  1  0.165437  0.627881  0.584061  1
  Cl  Cl39  1  0.665437  0.872119  0.915939  1
