# generated using pymatgen
data_Co2PH2CO7
_symmetry_space_group_name_H-M   'P 1'
_cell_length_a   4.83179145
_cell_length_b   7.98214967
_cell_length_c   14.23294211
_cell_angle_alpha   96.20133442
_cell_angle_beta   90.00000000
_cell_angle_gamma   90.00000000
_symmetry_Int_Tables_number   1
_chemical_formula_structural   Co2PH2CO7
_chemical_formula_sum   'Co8 P4 H8 C4 O28'
_cell_volume   545.72515070
_cell_formula_units_Z   4
loop_
 _symmetry_equiv_pos_site_id
 _symmetry_equiv_pos_as_xyz
  1  'x, y, z'
loop_
 _atom_site_type_symbol
 _atom_site_label
 _atom_site_symmetry_multiplicity
 _atom_site_fract_x
 _atom_site_fract_y
 _atom_site_fract_z
 _atom_site_occupancy
  H  H0  1  0.245433  0.890481  0.021459  1
  H  H1  1  0.745433  0.609519  0.478541  1
  H  H2  1  0.754567  0.109519  0.978541  1
  H  H3  1  0.254567  0.390481  0.521459  1
  H  H4  1  0.007254  0.750073  0.030819  1
  H  H5  1  0.507254  0.749927  0.469181  1
  H  H6  1  0.992746  0.249927  0.969181  1
  H  H7  1  0.492746  0.250073  0.530819  1
  C  C8  1  0.118667  0.939017  0.508058  1
  C  C9  1  0.618667  0.560983  0.991942  1
  C  C10  1  0.881333  0.060983  0.491942  1
  C  C11  1  0.381333  0.439017  0.008058  1
  O  O12  1  0.300526  0.493999  0.304311  1
  O  O13  1  0.800526  0.006001  0.195689  1
  O  O14  1  0.699474  0.506001  0.695689  1
  O  O15  1  0.199474  0.993999  0.804311  1
  O  O16  1  0.864197  0.449473  0.400607  1
  O  O17  1  0.364197  0.050527  0.099393  1
  O  O18  1  0.135803  0.550527  0.599393  1
  O  O19  1  0.635803  0.949473  0.900607  1
  O  O20  1  0.840515  0.380704  0.226022  1
  O  O21  1  0.340515  0.119296  0.273978  1
  O  O22  1  0.159485  0.619296  0.773978  1
  O  O23  1  0.659485  0.880704  0.726022  1
  O  O24  1  0.871180  0.679242  0.286838  1
  O  O25  1  0.371180  0.820758  0.213162  1
  O  O26  1  0.128820  0.320758  0.713162  1
  O  O27  1  0.628820  0.179242  0.786838  1
  O  O28  1  0.351769  0.290841  0.487530  1
  O  O29  1  0.851769  0.209159  0.012470  1
  O  O30  1  0.648231  0.709159  0.512470  1
  O  O31  1  0.148231  0.790841  0.987530  1
  O  O32  1  0.314967  0.425152  0.093549  1
  O  O33  1  0.814967  0.074848  0.406451  1
  O  O34  1  0.685033  0.574848  0.906451  1
  O  O35  1  0.185033  0.925152  0.593549  1
  O  O36  1  0.269015  0.363066  0.935220  1
  O  O37  1  0.769015  0.136934  0.564780  1
  O  O38  1  0.730985  0.636934  0.064780  1
  O  O39  1  0.230985  0.863066  0.435220  1
  P  P40  1  0.519894  0.002977  0.807140  1
  P  P41  1  0.019894  0.497023  0.692860  1
  P  P42  1  0.480106  0.997023  0.192860  1
  P  P43  1  0.980106  0.502977  0.307140  1
  Co  Co44  1  0.970524  0.802081  0.860325  1
  Co  Co45  1  0.470524  0.697919  0.639675  1
  Co  Co46  1  0.029476  0.197919  0.139675  1
  Co  Co47  1  0.529476  0.302081  0.360325  1
  Co  Co48  1  0.960245  0.085775  0.695061  1
  Co  Co49  1  0.460245  0.414225  0.804939  1
  Co  Co50  1  0.039755  0.914225  0.304939  1
  Co  Co51  1  0.539755  0.585775  0.195061  1
