# generated using pymatgen
data_Gd4B3C4
_symmetry_space_group_name_H-M   'P 1'
_cell_length_a   3.56307216
_cell_length_b   3.68002578
_cell_length_c   11.91446419
_cell_angle_alpha   92.96004801
_cell_angle_beta   96.44908907
_cell_angle_gamma   90.36264679
_symmetry_Int_Tables_number   1
_chemical_formula_structural   Gd4B3C4
_chemical_formula_sum   'Gd4 B3 C4'
_cell_volume   155.01752413
_cell_formula_units_Z   1
loop_
 _symmetry_equiv_pos_site_id
 _symmetry_equiv_pos_as_xyz
  1  'x, y, z'
loop_
 _atom_site_type_symbol
 _atom_site_label
 _atom_site_symmetry_multiplicity
 _atom_site_fract_x
 _atom_site_fract_y
 _atom_site_fract_z
 _atom_site_occupancy
  B  B0  1  0.253253  0.512988  0.541631  1
  B  B1  1  0.746747  0.487012  0.458369  1
  B  B2  1  0.000000  0.000000  0.000000  1
  C  C3  1  0.306605  0.536082  0.668156  1
  C  C4  1  0.116130  0.928928  0.119397  1
  C  C5  1  0.883870  0.071072  0.880603  1
  C  C6  1  0.693395  0.463918  0.331844  1
  Gd  Gd7  1  0.385734  0.563091  0.864111  1
  Gd  Gd8  1  0.614266  0.436909  0.135889  1
  Gd  Gd9  1  0.800627  0.030843  0.650190  1
  Gd  Gd10  1  0.199373  0.969157  0.349810  1
