# generated using pymatgen
data_LaCrHO5
_symmetry_space_group_name_H-M   'P 1'
_cell_length_a   4.78338947
_cell_length_b   7.10527150
_cell_length_c   13.28796678
_cell_angle_alpha   90.00000000
_cell_angle_beta   90.00000000
_cell_angle_gamma   107.34395405
_symmetry_Int_Tables_number   1
_chemical_formula_structural   LaCrHO5
_chemical_formula_sum   'La4 Cr4 H4 O20'
_cell_volume   431.08769213
_cell_formula_units_Z   4
loop_
 _symmetry_equiv_pos_site_id
 _symmetry_equiv_pos_as_xyz
  1  'x, y, z'
loop_
 _atom_site_type_symbol
 _atom_site_label
 _atom_site_symmetry_multiplicity
 _atom_site_fract_x
 _atom_site_fract_y
 _atom_site_fract_z
 _atom_site_occupancy
  H  H0  1  0.278952  0.001333  0.852353  1
  H  H1  1  0.221048  0.498667  0.352353  1
  H  H2  1  0.721048  0.998667  0.147647  1
  H  H3  1  0.778952  0.501333  0.647647  1
  O  O4  1  0.323362  0.052878  0.920719  1
  O  O5  1  0.176638  0.447122  0.420719  1
  O  O6  1  0.676638  0.947122  0.079281  1
  O  O7  1  0.823362  0.552878  0.579281  1
  O  O8  1  0.233347  0.553321  0.929992  1
  O  O9  1  0.266653  0.946679  0.429992  1
  O  O10  1  0.766653  0.446679  0.070008  1
  O  O11  1  0.733347  0.053321  0.570008  1
  O  O12  1  0.435081  0.678931  0.738601  1
  O  O13  1  0.064919  0.821069  0.238601  1
  O  O14  1  0.564919  0.321069  0.261399  1
  O  O15  1  0.935081  0.178931  0.761399  1
  O  O16  1  0.657424  0.430663  0.839650  1
  O  O17  1  0.842576  0.069337  0.339650  1
  O  O18  1  0.342576  0.569337  0.160350  1
  O  O19  1  0.157424  0.930663  0.660350  1
  O  O20  1  0.780500  0.807298  0.902962  1
  O  O21  1  0.719500  0.692702  0.402962  1
  O  O22  1  0.219500  0.192702  0.097038  1
  O  O23  1  0.280500  0.307298  0.597038  1
  Cr  Cr24  1  0.027547  0.118022  0.648804  1
  Cr  Cr25  1  0.472453  0.381978  0.148804  1
  Cr  Cr26  1  0.972453  0.881978  0.351196  1
  Cr  Cr27  1  0.527547  0.618022  0.851196  1
  La  La28  1  0.864740  0.200811  0.943232  1
  La  La29  1  0.635260  0.299189  0.443232  1
  La  La30  1  0.135260  0.799189  0.056768  1
  La  La31  1  0.364740  0.700811  0.556768  1
