# generated using pymatgen
data_Cs4BiSbCl12
_symmetry_space_group_name_H-M   'P 1'
_cell_length_a   10.84433787
_cell_length_b   10.84433788
_cell_length_c   13.31879386
_cell_angle_alpha   114.02320530
_cell_angle_beta   114.02320533
_cell_angle_gamma   90.00000003
_symmetry_Int_Tables_number   1
_chemical_formula_structural   Cs4BiSbCl12
_chemical_formula_sum   'Cs8 Bi2 Sb2 Cl24'
_cell_volume   1280.65136642
_cell_formula_units_Z   2
loop_
 _symmetry_equiv_pos_site_id
 _symmetry_equiv_pos_as_xyz
  1  'x, y, z'
loop_
 _atom_site_type_symbol
 _atom_site_label
 _atom_site_symmetry_multiplicity
 _atom_site_fract_x
 _atom_site_fract_y
 _atom_site_fract_z
 _atom_site_occupancy
  Cl  Cl0  1  0.870492  0.372409  0.740985  1
  Cl  Cl1  1  0.627591  0.129508  0.759015  1
  Cl  Cl2  1  0.749639  0.999639  0.499279  1
  Cl  Cl3  1  0.999639  0.749639  0.999279  1
  Cl  Cl4  1  0.250361  0.000361  0.500721  1
  Cl  Cl5  1  0.000361  0.250361  0.000721  1
  Cl  Cl6  1  0.486073  0.736073  0.972147  1
  Cl  Cl7  1  0.736073  0.486073  0.472147  1
  Cl  Cl8  1  0.513927  0.263927  0.027853  1
  Cl  Cl9  1  0.263927  0.513927  0.527853  1
  Cl  Cl10  1  0.375499  0.848945  0.750999  1
  Cl  Cl11  1  0.402053  0.375499  0.250999  1
  Cl  Cl12  1  0.131424  0.129508  0.759015  1
  Cl  Cl13  1  0.624501  0.151055  0.249001  1
  Cl  Cl14  1  0.624501  0.597947  0.249001  1
  Cl  Cl15  1  0.597947  0.624501  0.749001  1
  Cl  Cl16  1  0.151055  0.624501  0.749001  1
  Cl  Cl17  1  0.375499  0.402053  0.750999  1
  Cl  Cl18  1  0.848945  0.375499  0.250999  1
  Cl  Cl19  1  0.868576  0.870492  0.240985  1
  Cl  Cl20  1  0.372409  0.870492  0.240985  1
  Cl  Cl21  1  0.129508  0.627591  0.259015  1
  Cl  Cl22  1  0.129508  0.131424  0.259015  1
  Cl  Cl23  1  0.870492  0.868576  0.740985  1
  Sb  Sb24  1  0.375000  0.625000  0.750000  1
  Sb  Sb25  1  0.625000  0.375000  0.250000  1
  Cs  Cs26  1  0.219638  0.000000  0.000000  1
  Cs  Cs27  1  0.000000  0.219638  0.500000  1
  Cs  Cs28  1  0.219638  0.500000  0.000000  1
  Cs  Cs29  1  0.500000  0.219638  0.500000  1
  Cs  Cs30  1  0.780362  0.500000  0.000000  1
  Cs  Cs31  1  0.500000  0.780362  0.500000  1
  Cs  Cs32  1  0.780362  0.000000  0.000000  1
  Cs  Cs33  1  0.000000  0.780362  0.500000  1
  Bi  Bi34  1  0.875000  0.125000  0.750000  1
  Bi  Bi35  1  0.125000  0.875000  0.250000  1
