# generated using pymatgen
data_Li2CoPO4F
_symmetry_space_group_name_H-M   'P 1'
_cell_length_a   5.34514715
_cell_length_b   5.37691578
_cell_length_c   7.49755772
_cell_angle_alpha   71.38907392
_cell_angle_beta   71.25143300
_cell_angle_gamma   94.02533522
_symmetry_Int_Tables_number   1
_chemical_formula_structural   Li2CoPO4F
_chemical_formula_sum   'Li4 Co2 P2 O8 F2'
_cell_volume   189.76107763
_cell_formula_units_Z   2
loop_
 _symmetry_equiv_pos_site_id
 _symmetry_equiv_pos_as_xyz
  1  'x, y, z'
loop_
 _atom_site_type_symbol
 _atom_site_label
 _atom_site_symmetry_multiplicity
 _atom_site_fract_x
 _atom_site_fract_y
 _atom_site_fract_z
 _atom_site_occupancy
  Li  Li0  1  0.853753  0.458611  0.111729  1
  Li  Li1  1  0.481021  0.831630  0.861121  1
  Li  Li2  1  0.512793  0.051733  0.477845  1
  Li  Li3  1  0.220827  0.548484  0.705872  1
  O  O4  1  0.714631  0.194768  0.632606  1
  O  O5  1  0.283448  0.769567  0.418321  1
  O  O6  1  0.683775  0.671746  0.651250  1
  O  O7  1  0.853593  0.335000  0.883638  1
  O  O8  1  0.143531  0.676166  0.144546  1
  O  O9  1  0.629405  0.739850  0.096451  1
  O  O10  1  0.318196  0.326417  0.373508  1
  O  O11  1  0.354263  0.274005  0.907077  1
  F  F12  1  0.172702  0.884719  0.751545  1
  F  F13  1  0.854809  0.107416  0.272369  1
  P  P14  1  0.339834  0.628569  0.261904  1
  P  P15  1  0.654902  0.366749  0.767837  1
  Co  Co16  1  0.991991  0.999651  0.019778  1
  Co  Co17  1  0.008644  0.003288  0.504012  1
