# generated using pymatgen
data_SrH2I2O7
_symmetry_space_group_name_H-M   'P 1'
_cell_length_a   7.87759989
_cell_length_b   7.87759989
_cell_length_c   7.66337241
_cell_angle_alpha   100.63330605
_cell_angle_beta   109.32426039
_cell_angle_gamma   119.90612162
_symmetry_Int_Tables_number   1
_chemical_formula_structural   SrH2I2O7
_chemical_formula_sum   'Sr2 H4 I4 O14'
_cell_volume   351.71619257
_cell_formula_units_Z   2
loop_
 _symmetry_equiv_pos_site_id
 _symmetry_equiv_pos_as_xyz
  1  'x, y, z'
loop_
 _atom_site_type_symbol
 _atom_site_label
 _atom_site_symmetry_multiplicity
 _atom_site_fract_x
 _atom_site_fract_y
 _atom_site_fract_z
 _atom_site_occupancy
  H  H0  1  0.101633  0.293727  0.362738  1
  H  H1  1  0.930989  0.238895  0.137262  1
  H  H2  1  0.898367  0.706273  0.637262  1
  H  H3  1  0.069011  0.761105  0.862738  1
  O  O4  1  0.088631  0.338631  0.250000  1
  O  O5  1  0.911369  0.661369  0.750000  1
  O  O6  1  0.730782  0.094003  0.494833  1
  O  O7  1  0.599170  0.735950  0.005168  1
  O  O8  1  0.269218  0.905997  0.505167  1
  O  O9  1  0.400830  0.264050  0.994833  1
  O  O10  1  0.172250  0.242578  0.585968  1
  O  O11  1  0.656610  0.086282  0.914032  1
  O  O12  1  0.827750  0.757422  0.414032  1
  O  O13  1  0.343390  0.913718  0.085968  1
  O  O14  1  0.094409  0.422414  0.874807  1
  O  O15  1  0.547607  0.719602  0.625193  1
  O  O16  1  0.905591  0.577586  0.125193  1
  O  O17  1  0.452393  0.280398  0.374807  1
  Sr  Sr18  1  0.589990  0.339990  0.750000  1
  Sr  Sr19  1  0.410010  0.660010  0.250000  1
  I  I20  1  0.458715  0.786155  0.800429  1
  I  I21  1  0.985726  0.158286  0.699571  1
  I  I22  1  0.014274  0.841714  0.300429  1
  I  I23  1  0.541285  0.213845  0.199571  1
