# generated using pymatgen
data_Na5AuSe12
_symmetry_space_group_name_H-M   'P 1'
_cell_length_a   7.22520873
_cell_length_b   8.47155516
_cell_length_c   17.20048471
_cell_angle_alpha   90.00000000
_cell_angle_beta   90.00000000
_cell_angle_gamma   106.54008156
_symmetry_Int_Tables_number   1
_chemical_formula_structural   Na5AuSe12
_chemical_formula_sum   'Na10 Au2 Se24'
_cell_volume   1009.25539917
_cell_formula_units_Z   2
loop_
 _symmetry_equiv_pos_site_id
 _symmetry_equiv_pos_as_xyz
  1  'x, y, z'
loop_
 _atom_site_type_symbol
 _atom_site_label
 _atom_site_symmetry_multiplicity
 _atom_site_fract_x
 _atom_site_fract_y
 _atom_site_fract_z
 _atom_site_occupancy
  Na  Na0  1  0.222540  0.349069  0.353363  1
  Na  Na1  1  0.777460  0.650931  0.853363  1
  Na  Na2  1  0.220133  0.017747  0.937935  1
  Na  Na3  1  0.779867  0.982253  0.437935  1
  Na  Na4  1  0.706850  0.441678  0.070907  1
  Na  Na5  1  0.293150  0.558322  0.570907  1
  Na  Na6  1  0.336455  0.286811  0.761390  1
  Na  Na7  1  0.663545  0.713189  0.261390  1
  Na  Na8  1  0.121232  0.102724  0.139018  1
  Na  Na9  1  0.878768  0.897276  0.639018  1
  Se  Se10  1  0.990276  0.423951  0.787698  1
  Se  Se11  1  0.048704  0.212252  0.545832  1
  Se  Se12  1  0.611779  0.081047  0.720472  1
  Se  Se13  1  0.388221  0.918953  0.220472  1
  Se  Se14  1  0.951751  0.246776  0.980980  1
  Se  Se15  1  0.048249  0.753224  0.480980  1
  Se  Se16  1  0.575005  0.893785  0.911415  1
  Se  Se17  1  0.009724  0.576049  0.287698  1
  Se  Se18  1  0.783601  0.517441  0.448935  1
  Se  Se19  1  0.424995  0.106215  0.411415  1
  Se  Se20  1  0.365443  0.832037  0.751934  1
  Se  Se21  1  0.634557  0.167963  0.251934  1
  Se  Se22  1  0.216399  0.482559  0.948935  1
  Se  Se23  1  0.394415  0.422068  0.187723  1
  Se  Se24  1  0.844210  0.435858  0.661936  1
  Se  Se25  1  0.155790  0.564142  0.161936  1
  Se  Se26  1  0.687901  0.904646  0.043623  1
  Se  Se27  1  0.312099  0.095354  0.543623  1
  Se  Se28  1  0.096465  0.934630  0.780743  1
  Se  Se29  1  0.903535  0.065370  0.280743  1
  Se  Se30  1  0.474091  0.362804  0.927847  1
  Se  Se31  1  0.525909  0.637196  0.427847  1
  Se  Se32  1  0.605585  0.577932  0.687723  1
  Se  Se33  1  0.951296  0.787748  0.045832  1
  Au  Au34  1  0.783763  0.158947  0.850128  1
  Au  Au35  1  0.216237  0.841053  0.350128  1
