# generated using pymatgen
data_BaSb2
_symmetry_space_group_name_H-M   'P 1'
_cell_length_a   4.46957081
_cell_length_b   11.75878758
_cell_length_c   12.66201371
_cell_angle_alpha   100.06333133
_cell_angle_beta   90.00000000
_cell_angle_gamma   90.00000000
_symmetry_Int_Tables_number   1
_chemical_formula_structural   BaSb2
_chemical_formula_sum   'Ba6 Sb12'
_cell_volume   655.23590469
_cell_formula_units_Z   6
loop_
 _symmetry_equiv_pos_site_id
 _symmetry_equiv_pos_as_xyz
  1  'x, y, z'
loop_
 _atom_site_type_symbol
 _atom_site_label
 _atom_site_symmetry_multiplicity
 _atom_site_fract_x
 _atom_site_fract_y
 _atom_site_fract_z
 _atom_site_occupancy
  Sb  Sb0  1  0.250000  0.054662  0.450044  1
  Sb  Sb1  1  0.750000  0.945338  0.549956  1
  Sb  Sb2  1  0.250000  0.070278  0.050884  1
  Sb  Sb3  1  0.750000  0.929722  0.949116  1
  Sb  Sb4  1  0.250000  0.406625  0.771879  1
  Sb  Sb5  1  0.750000  0.593375  0.228121  1
  Sb  Sb6  1  0.750000  0.254598  0.274133  1
  Sb  Sb7  1  0.250000  0.745402  0.725867  1
  Sb  Sb8  1  0.750000  0.600680  0.630273  1
  Sb  Sb9  1  0.250000  0.399320  0.369727  1
  Sb  Sb10  1  0.750000  0.291807  0.866908  1
  Sb  Sb11  1  0.250000  0.708193  0.133092  1
  Ba  Ba12  1  0.250000  0.058946  0.766870  1
  Ba  Ba13  1  0.750000  0.941054  0.233130  1
  Ba  Ba14  1  0.250000  0.714765  0.439581  1
  Ba  Ba15  1  0.750000  0.285235  0.560419  1
  Ba  Ba16  1  0.250000  0.379617  0.088466  1
  Ba  Ba17  1  0.750000  0.620383  0.911534  1
