# generated using pymatgen
data_Si2H6O
_symmetry_space_group_name_H-M   'P 1'
_cell_length_a   4.90599633
_cell_length_b   7.95355354
_cell_length_c   13.61344265
_cell_angle_alpha   90.00000000
_cell_angle_beta   90.00000000
_cell_angle_gamma   90.00000000
_symmetry_Int_Tables_number   1
_chemical_formula_structural   Si2H6O
_chemical_formula_sum   'Si8 H24 O4'
_cell_volume   531.19795450
_cell_formula_units_Z   4
loop_
 _symmetry_equiv_pos_site_id
 _symmetry_equiv_pos_as_xyz
  1  'x, y, z'
loop_
 _atom_site_type_symbol
 _atom_site_label
 _atom_site_symmetry_multiplicity
 _atom_site_fract_x
 _atom_site_fract_y
 _atom_site_fract_z
 _atom_site_occupancy
  Si  Si0  1  0.227215  0.490801  0.047654  1
  Si  Si1  1  0.727215  0.009199  0.952346  1
  Si  Si2  1  0.772785  0.990801  0.452346  1
  Si  Si3  1  0.272785  0.509199  0.547654  1
  Si  Si4  1  0.461803  0.282134  0.223541  1
  Si  Si5  1  0.961803  0.217866  0.776459  1
  Si  Si6  1  0.538197  0.782134  0.276459  1
  Si  Si7  1  0.038197  0.717866  0.723541  1
  O  O8  1  0.361596  0.443811  0.155613  1
  O  O9  1  0.861596  0.056189  0.844387  1
  O  O10  1  0.638404  0.943811  0.344387  1
  O  O11  1  0.138404  0.556189  0.655613  1
  H  H12  1  0.041953  0.353181  0.013818  1
  H  H13  1  0.541953  0.146819  0.986182  1
  H  H14  1  0.958047  0.853181  0.486182  1
  H  H15  1  0.458047  0.646819  0.513818  1
  H  H16  1  0.070350  0.649903  0.059025  1
  H  H17  1  0.570350  0.850097  0.940975  1
  H  H18  1  0.929650  0.149903  0.440975  1
  H  H19  1  0.429650  0.350097  0.559025  1
  H  H20  1  0.448608  0.514330  0.973872  1
  H  H21  1  0.948608  0.985670  0.026128  1
  H  H22  1  0.551392  0.014330  0.526128  1
  H  H23  1  0.051392  0.485670  0.473872  1
  H  H24  1  0.756302  0.248734  0.204713  1
  H  H25  1  0.256302  0.251266  0.795287  1
  H  H26  1  0.243698  0.748734  0.295287  1
  H  H27  1  0.743698  0.751266  0.704713  1
  H  H28  1  0.420188  0.328928  0.328398  1
  H  H29  1  0.920188  0.171072  0.671602  1
  H  H30  1  0.579812  0.828928  0.171602  1
  H  H31  1  0.079812  0.671072  0.828398  1
  H  H32  1  0.297226  0.130704  0.198153  1
  H  H33  1  0.797226  0.369296  0.801847  1
  H  H34  1  0.702774  0.630704  0.301847  1
  H  H35  1  0.202774  0.869296  0.698153  1
