# generated using pymatgen
data_Rb2SnTe5
_symmetry_space_group_name_H-M   'P 1'
_cell_length_a   8.91831152
_cell_length_b   8.91831191
_cell_length_c   10.06220424
_cell_angle_alpha   116.30560719
_cell_angle_beta   116.30560839
_cell_angle_gamma   90.00000182
_symmetry_Int_Tables_number   1
_chemical_formula_structural   Rb2SnTe5
_chemical_formula_sum   'Rb4 Sn2 Te10'
_cell_volume   623.63656171
_cell_formula_units_Z   2
loop_
 _symmetry_equiv_pos_site_id
 _symmetry_equiv_pos_as_xyz
  1  'x, y, z'
loop_
 _atom_site_type_symbol
 _atom_site_label
 _atom_site_symmetry_multiplicity
 _atom_site_fract_x
 _atom_site_fract_y
 _atom_site_fract_z
 _atom_site_occupancy
  Rb  Rb0  1  0.245717  0.245717  0.491434  1
  Rb  Rb1  1  0.745717  0.745717  0.491434  1
  Rb  Rb2  1  0.995001  0.995001  0.990003  1
  Rb  Rb3  1  0.495001  0.495001  0.990003  1
  Sn  Sn4  1  0.747090  0.247090  0.494181  1
  Sn  Sn5  1  0.247090  0.747090  0.494181  1
  Te  Te6  1  0.460052  0.960052  0.267725  1
  Te  Te7  1  0.307673  0.460052  0.267725  1
  Te  Te8  1  0.960052  0.807673  0.267725  1
  Te  Te9  1  0.807673  0.307673  0.267725  1
  Te  Te10  1  0.186468  0.686468  0.720604  1
  Te  Te11  1  0.034137  0.186468  0.720604  1
  Te  Te12  1  0.686468  0.534137  0.720604  1
  Te  Te13  1  0.534137  0.034137  0.720604  1
  Te  Te14  1  0.496962  0.996962  0.993923  1
  Te  Te15  1  0.996962  0.496962  0.993923  1
