# generated using pymatgen
data_Li2VPCO7
_symmetry_space_group_name_H-M   'P 1'
_cell_length_a   5.02001335
_cell_length_b   6.40459385
_cell_length_c   8.61637108
_cell_angle_alpha   90.00000000
_cell_angle_beta   86.34568170
_cell_angle_gamma   90.00000000
_symmetry_Int_Tables_number   1
_chemical_formula_structural   Li2VPCO7
_chemical_formula_sum   'Li4 V2 P2 C2 O14'
_cell_volume   276.46294748
_cell_formula_units_Z   2
loop_
 _symmetry_equiv_pos_site_id
 _symmetry_equiv_pos_as_xyz
  1  'x, y, z'
loop_
 _atom_site_type_symbol
 _atom_site_label
 _atom_site_symmetry_multiplicity
 _atom_site_fract_x
 _atom_site_fract_y
 _atom_site_fract_z
 _atom_site_occupancy
  Li  Li0  1  0.771234  0.002700  0.782887  1
  Li  Li1  1  0.228762  0.997299  0.217111  1
  Li  Li2  1  0.228762  0.502701  0.217111  1
  Li  Li3  1  0.771234  0.497300  0.782887  1
  C  C4  1  0.733999  0.750000  0.059670  1
  C  C5  1  0.266001  0.250000  0.940331  1
  O  O6  1  0.173430  0.942376  0.675490  1
  O  O7  1  0.970281  0.750000  0.116340  1
  O  O8  1  0.467225  0.250000  0.831041  1
  O  O9  1  0.532776  0.750000  0.168959  1
  O  O10  1  0.173430  0.557625  0.675490  1
  O  O11  1  0.170199  0.750000  0.417097  1
  O  O12  1  0.029720  0.250000  0.883661  1
  O  O13  1  0.826572  0.442375  0.324510  1
  O  O14  1  0.826572  0.057625  0.324510  1
  O  O15  1  0.410950  0.250000  0.435869  1
  O  O16  1  0.696533  0.750000  0.916285  1
  O  O17  1  0.303468  0.250000  0.083715  1
  O  O18  1  0.589051  0.750000  0.564132  1
  O  O19  1  0.829802  0.250000  0.582904  1
  P  P20  1  0.719480  0.250000  0.417563  1
  P  P21  1  0.280520  0.750000  0.582437  1
  V  V22  1  0.795987  0.750000  0.344088  1
  V  V23  1  0.204012  0.250000  0.655911  1
