# generated using pymatgen
data_K(BH)5
_symmetry_space_group_name_H-M   'P 1'
_cell_length_a   6.81208797
_cell_length_b   11.26391196
_cell_length_c   13.15385809
_cell_angle_alpha   90.00000000
_cell_angle_beta   92.91882968
_cell_angle_gamma   90.00000000
_symmetry_Int_Tables_number   1
_chemical_formula_structural   K(BH)5
_chemical_formula_sum   'K8 B40 H40'
_cell_volume   1007.99612148
_cell_formula_units_Z   8
loop_
 _symmetry_equiv_pos_site_id
 _symmetry_equiv_pos_as_xyz
  1  'x, y, z'
loop_
 _atom_site_type_symbol
 _atom_site_label
 _atom_site_symmetry_multiplicity
 _atom_site_fract_x
 _atom_site_fract_y
 _atom_site_fract_z
 _atom_site_occupancy
  H  H0  1  0.980927  0.886041  0.837903  1
  H  H1  1  0.519073  0.386041  0.662097  1
  H  H2  1  0.019073  0.113959  0.162097  1
  H  H3  1  0.480927  0.613959  0.337903  1
  H  H4  1  0.521831  0.705948  0.063032  1
  H  H5  1  0.978169  0.205948  0.436968  1
  H  H6  1  0.478169  0.294052  0.936968  1
  H  H7  1  0.021831  0.794052  0.563032  1
  H  H8  1  0.294567  0.720519  0.864271  1
  H  H9  1  0.205433  0.220519  0.635729  1
  H  H10  1  0.705433  0.279481  0.135729  1
  H  H11  1  0.794567  0.779481  0.364271  1
  H  H12  1  0.525858  0.578058  0.712578  1
  H  H13  1  0.974142  0.078058  0.787422  1
  H  H14  1  0.474142  0.421942  0.287422  1
  H  H15  1  0.025858  0.921942  0.212578  1
  H  H16  1  0.621555  0.847611  0.704192  1
  H  H17  1  0.878445  0.347611  0.795808  1
  H  H18  1  0.378445  0.152389  0.295808  1
  H  H19  1  0.121555  0.652389  0.204192  1
  H  H20  1  0.992853  0.647175  0.999003  1
  H  H21  1  0.507147  0.147175  0.500997  1
  H  H22  1  0.007147  0.352825  0.000997  1
  H  H23  1  0.492853  0.852825  0.499003  1
  H  H24  1  0.841214  0.897045  0.059272  1
  H  H25  1  0.658786  0.397045  0.440728  1
  H  H26  1  0.158786  0.102955  0.940728  1
  H  H27  1  0.341214  0.602955  0.559272  1
  H  H28  1  0.639648  0.506912  0.931859  1
  H  H29  1  0.860352  0.006912  0.568141  1
  H  H30  1  0.360352  0.493088  0.068141  1
  H  H31  1  0.139648  0.993088  0.431859  1
  H  H32  1  0.502923  0.946814  0.901162  1
  H  H33  1  0.997077  0.446814  0.598838  1
  H  H34  1  0.497077  0.053186  0.098838  1
  H  H35  1  0.002923  0.553186  0.401162  1
  H  H36  1  0.961598  0.635782  0.770951  1
  H  H37  1  0.538402  0.135782  0.729049  1
  H  H38  1  0.038402  0.364218  0.229049  1
  H  H39  1  0.461598  0.864218  0.270951  1
  B  B40  1  0.851312  0.824164  0.867052  1
  B  B41  1  0.648688  0.324164  0.632948  1
  B  B42  1  0.148688  0.175836  0.132948  1
  B  B43  1  0.351312  0.675836  0.367052  1
  B  B44  1  0.471755  0.721128  0.865753  1
  B  B45  1  0.028245  0.221128  0.634247  1
  B  B46  1  0.528245  0.278872  0.134247  1
  B  B47  1  0.971755  0.778872  0.365753  1
  B  B48  1  0.591537  0.641111  0.779014  1
  B  B49  1  0.908463  0.141111  0.720986  1
  B  B50  1  0.408463  0.358889  0.220986  1
  B  B51  1  0.091537  0.858889  0.279014  1
  B  B52  1  0.607288  0.728118  0.987068  1
  B  B53  1  0.892712  0.228118  0.512932  1
  B  B54  1  0.392712  0.271882  0.012932  1
  B  B55  1  0.107288  0.771882  0.487068  1
  B  B56  1  0.598882  0.856470  0.900967  1
  B  B57  1  0.901118  0.356470  0.599033  1
  B  B58  1  0.401118  0.143530  0.099033  1
  B  B59  1  0.098882  0.643530  0.400967  1
  B  B60  1  0.656203  0.607437  0.902147  1
  B  B61  1  0.843797  0.107437  0.597853  1
  B  B62  1  0.343797  0.392563  0.097852  1
  B  B63  1  0.156203  0.892563  0.402147  1
  B  B64  1  0.644136  0.788677  0.780412  1
  B  B65  1  0.855864  0.288677  0.719588  1
  B  B66  1  0.355864  0.211323  0.219588  1
  B  B67  1  0.144136  0.711323  0.280412  1
  B  B68  1  0.858250  0.696848  0.953018  1
  B  B69  1  0.641750  0.196848  0.546982  1
  B  B70  1  0.141750  0.303152  0.046982  1
  B  B71  1  0.358250  0.803152  0.453018  1
  B  B72  1  0.827362  0.675337  0.816903  1
  B  B73  1  0.672638  0.175337  0.683097  1
  B  B74  1  0.172638  0.324663  0.183097  1
  B  B75  1  0.327362  0.824663  0.316903  1
  B  B76  1  0.784592  0.834497  0.990112  1
  B  B77  1  0.715408  0.334497  0.509888  1
  B  B78  1  0.215408  0.165503  0.009888  1
  B  B79  1  0.284592  0.665503  0.490112  1
  K  K80  1  0.733980  0.631369  0.552385  1
  K  K81  1  0.766020  0.131369  0.947615  1
  K  K82  1  0.266020  0.368631  0.447615  1
  K  K83  1  0.233980  0.868631  0.052385  1
  K  K84  1  0.766125  0.533187  0.157798  1
  K  K85  1  0.733875  0.033187  0.342202  1
  K  K86  1  0.233875  0.466813  0.842202  1
  K  K87  1  0.266125  0.966813  0.657798  1
