# generated using pymatgen
data_CuSe2Br
_symmetry_space_group_name_H-M   'P 1'
_cell_length_a   4.99502986
_cell_length_b   7.88665334
_cell_length_c   11.96245180
_cell_angle_alpha   104.16918794
_cell_angle_beta   90.00000000
_cell_angle_gamma   90.00000000
_symmetry_Int_Tables_number   1
_chemical_formula_structural   CuSe2Br
_chemical_formula_sum   'Cu4 Se8 Br4'
_cell_volume   456.91288361
_cell_formula_units_Z   4
loop_
 _symmetry_equiv_pos_site_id
 _symmetry_equiv_pos_as_xyz
  1  'x, y, z'
loop_
 _atom_site_type_symbol
 _atom_site_label
 _atom_site_symmetry_multiplicity
 _atom_site_fract_x
 _atom_site_fract_y
 _atom_site_fract_z
 _atom_site_occupancy
  Cu  Cu0  1  0.637450  0.067228  0.248356  1
  Cu  Cu1  1  0.137450  0.432772  0.251644  1
  Cu  Cu2  1  0.362550  0.932772  0.751644  1
  Cu  Cu3  1  0.862550  0.567228  0.748356  1
  Se  Se4  1  0.034922  0.147063  0.836553  1
  Se  Se5  1  0.534922  0.352937  0.663447  1
  Se  Se6  1  0.965078  0.852937  0.163447  1
  Se  Se7  1  0.465078  0.647063  0.336553  1
  Se  Se8  1  0.804906  0.580075  0.167648  1
  Se  Se9  1  0.304906  0.919925  0.332352  1
  Se  Se10  1  0.195094  0.419925  0.832352  1
  Se  Se11  1  0.695094  0.080075  0.667648  1
  Br  Br12  1  0.611251  0.795495  0.883145  1
  Br  Br13  1  0.111251  0.704505  0.616855  1
  Br  Br14  1  0.388749  0.204505  0.116855  1
  Br  Br15  1  0.888749  0.295495  0.383145  1
