# generated using pymatgen
data_SmFeO3
_symmetry_space_group_name_H-M   'P 1'
_cell_length_a   5.43164338
_cell_length_b   5.69732634
_cell_length_c   7.80027899
_cell_angle_alpha   90.00000000
_cell_angle_beta   90.00000000
_cell_angle_gamma   90.00000000
_symmetry_Int_Tables_number   1
_chemical_formula_structural   SmFeO3
_chemical_formula_sum   'Sm4 Fe4 O12'
_cell_volume   241.38622379
_cell_formula_units_Z   4
loop_
 _symmetry_equiv_pos_site_id
 _symmetry_equiv_pos_as_xyz
  1  'x, y, z'
loop_
 _atom_site_type_symbol
 _atom_site_label
 _atom_site_symmetry_multiplicity
 _atom_site_fract_x
 _atom_site_fract_y
 _atom_site_fract_z
 _atom_site_occupancy
  O  O0  1  0.696621  0.302344  0.446849  1
  O  O1  1  0.196621  0.197656  0.553151  1
  O  O2  1  0.803379  0.802344  0.053151  1
  O  O3  1  0.303379  0.697656  0.946849  1
  O  O4  1  0.303379  0.697656  0.553151  1
  O  O5  1  0.803379  0.802344  0.446849  1
  O  O6  1  0.196621  0.197656  0.946849  1
  O  O7  1  0.696621  0.302344  0.053151  1
  O  O8  1  0.101946  0.467042  0.250000  1
  O  O9  1  0.601947  0.032958  0.750000  1
  O  O10  1  0.398054  0.967042  0.250000  1
  O  O11  1  0.898053  0.532958  0.750000  1
  Fe  Fe12  1  0.000000  0.500000  0.500000  1
  Fe  Fe13  1  0.500000  0.000000  0.500000  1
  Fe  Fe14  1  0.500000  0.000000  0.000000  1
  Fe  Fe15  1  0.000000  0.500000  0.000000  1
  Sm  Sm16  1  0.484035  0.436271  0.750000  1
  Sm  Sm17  1  0.984035  0.063729  0.250000  1
  Sm  Sm18  1  0.015965  0.936271  0.750000  1
  Sm  Sm19  1  0.515965  0.563729  0.250000  1
