# generated using pymatgen
data_Ba(InS2)2
_symmetry_space_group_name_H-M   'P 1'
_cell_length_a   12.87890944
_cell_length_b   12.87890943
_cell_length_c   13.00249114
_cell_angle_alpha   105.36476548
_cell_angle_beta   105.36476549
_cell_angle_gamma   117.70948599
_symmetry_Int_Tables_number   1
_chemical_formula_structural   Ba(InS2)2
_chemical_formula_sum   'Ba8 In16 S32'
_cell_volume   1639.76127918
_cell_formula_units_Z   8
loop_
 _symmetry_equiv_pos_site_id
 _symmetry_equiv_pos_as_xyz
  1  'x, y, z'
loop_
 _atom_site_type_symbol
 _atom_site_label
 _atom_site_symmetry_multiplicity
 _atom_site_fract_x
 _atom_site_fract_y
 _atom_site_fract_z
 _atom_site_occupancy
  S  S0  1  0.812088  0.149365  0.997201  1
  S  S1  1  0.152164  0.314887  0.502799  1
  S  S2  1  0.850635  0.187912  0.502799  1
  S  S3  1  0.685113  0.847836  0.997201  1
  S  S4  1  0.187912  0.850635  0.002799  1
  S  S5  1  0.847836  0.685113  0.497201  1
  S  S6  1  0.149365  0.812088  0.497201  1
  S  S7  1  0.314887  0.152164  0.002799  1
  S  S8  1  0.154987  0.345271  0.002013  1
  S  S9  1  0.343258  0.652974  0.497987  1
  S  S10  1  0.654729  0.845013  0.497987  1
  S  S11  1  0.347026  0.656742  0.002013  1
  S  S12  1  0.845013  0.654729  0.997987  1
  S  S13  1  0.656742  0.347026  0.502013  1
  S  S14  1  0.345271  0.154987  0.502013  1
  S  S15  1  0.652974  0.343258  0.997987  1
  S  S16  1  0.583311  0.083321  0.667798  1
  S  S17  1  0.415523  0.415513  0.832202  1
  S  S18  1  0.916679  0.416689  0.832202  1
  S  S19  1  0.584487  0.584477  0.667798  1
  S  S20  1  0.416689  0.916679  0.332202  1
  S  S21  1  0.584477  0.584487  0.167798  1
  S  S22  1  0.083321  0.583311  0.167798  1
  S  S23  1  0.415513  0.415523  0.332202  1
  S  S24  1  0.915364  0.415222  0.332835  1
  S  S25  1  0.082388  0.082530  0.167165  1
  S  S26  1  0.584778  0.084636  0.167165  1
  S  S27  1  0.917470  0.917612  0.332835  1
  S  S28  1  0.084636  0.584778  0.667165  1
  S  S29  1  0.917612  0.917470  0.832835  1
  S  S30  1  0.415222  0.915364  0.832835  1
  S  S31  1  0.082530  0.082388  0.667165  1
  In  In32  1  0.887912  0.861402  0.998994  1
  In  In33  1  0.862409  0.388918  0.501006  1
  In  In34  1  0.138598  0.112088  0.501006  1
  In  In35  1  0.611082  0.137591  0.998994  1
  In  In36  1  0.112088  0.138598  0.001006  1
  In  In37  1  0.137591  0.611082  0.498994  1
  In  In38  1  0.861402  0.887912  0.498994  1
  In  In39  1  0.388918  0.862409  0.001006  1
  In  In40  1  0.536201  0.643047  0.999967  1
  In  In41  1  0.643080  0.036235  0.500033  1
  In  In42  1  0.356953  0.463799  0.500033  1
  In  In43  1  0.963765  0.356920  0.999967  1
  In  In44  1  0.463799  0.356953  0.000033  1
  In  In45  1  0.356920  0.963765  0.499967  1
  In  In46  1  0.643047  0.536201  0.499967  1
  In  In47  1  0.036235  0.643080  0.000033  1
  Ba  Ba48  1  0.872285  0.622285  0.244570  1
  Ba  Ba49  1  0.377715  0.127715  0.255430  1
  Ba  Ba50  1  0.127715  0.377715  0.755430  1
  Ba  Ba51  1  0.622285  0.872285  0.744570  1
  Ba  Ba52  1  0.625000  0.375000  0.750000  1
  Ba  Ba53  1  0.375000  0.625000  0.250000  1
  Ba  Ba54  1  0.125000  0.875000  0.750000  1
  Ba  Ba55  1  0.875000  0.125000  0.250000  1
