# generated using pymatgen
data_Nb4O5
_symmetry_space_group_name_H-M   'P 1'
_cell_length_a   4.88562692
_cell_length_b   6.78636123
_cell_length_c   6.78636123
_cell_angle_alpha   90.00000000
_cell_angle_beta   90.00000000
_cell_angle_gamma   90.00000000
_symmetry_Int_Tables_number   1
_chemical_formula_structural   Nb4O5
_chemical_formula_sum   'Nb8 O10'
_cell_volume   225.00607598
_cell_formula_units_Z   2
loop_
 _symmetry_equiv_pos_site_id
 _symmetry_equiv_pos_as_xyz
  1  'x, y, z'
loop_
 _atom_site_type_symbol
 _atom_site_label
 _atom_site_symmetry_multiplicity
 _atom_site_fract_x
 _atom_site_fract_y
 _atom_site_fract_z
 _atom_site_occupancy
  O  O0  1  0.749999  0.464018  0.535982  1
  O  O1  1  0.250000  0.964018  0.464018  1
  O  O2  1  0.250000  0.535982  0.035981  1
  O  O3  1  0.749999  0.035981  0.964018  1
  O  O4  1  0.250000  0.535982  0.464018  1
  O  O5  1  0.749999  0.035981  0.535982  1
  O  O6  1  0.749999  0.464018  0.964018  1
  O  O7  1  0.250000  0.964018  0.035981  1
  O  O8  1  0.250000  0.250000  0.750000  1
  O  O9  1  0.749999  0.750000  0.250000  1
  Nb  Nb10  1  0.046004  0.954124  0.750000  1
  Nb  Nb11  1  0.046004  0.545876  0.750000  1
  Nb  Nb12  1  0.546005  0.750000  0.545876  1
  Nb  Nb13  1  0.546005  0.750000  0.954124  1
  Nb  Nb14  1  0.453995  0.250000  0.454124  1
  Nb  Nb15  1  0.953996  0.045876  0.250000  1
  Nb  Nb16  1  0.953996  0.454124  0.250000  1
  Nb  Nb17  1  0.453995  0.250000  0.045876  1
