# generated using pymatgen
data_K3BS3
_symmetry_space_group_name_H-M   'P 1'
_cell_length_a   6.27674013
_cell_length_b   10.32282886
_cell_length_c   12.75391400
_cell_angle_alpha   112.11822252
_cell_angle_beta   90.00000000
_cell_angle_gamma   90.00000000
_symmetry_Int_Tables_number   1
_chemical_formula_structural   K3BS3
_chemical_formula_sum   'K12 B4 S12'
_cell_volume   765.55975013
_cell_formula_units_Z   4
loop_
 _symmetry_equiv_pos_site_id
 _symmetry_equiv_pos_as_xyz
  1  'x, y, z'
loop_
 _atom_site_type_symbol
 _atom_site_label
 _atom_site_symmetry_multiplicity
 _atom_site_fract_x
 _atom_site_fract_y
 _atom_site_fract_z
 _atom_site_occupancy
  B  B0  1  0.871118  0.731641  0.240550  1
  B  B1  1  0.371118  0.268359  0.259450  1
  B  B2  1  0.128882  0.268359  0.759450  1
  B  B3  1  0.628882  0.731641  0.740550  1
  S  S4  1  0.703624  0.578244  0.168583  1
  S  S5  1  0.203624  0.421756  0.331417  1
  S  S6  1  0.296376  0.421756  0.831417  1
  S  S7  1  0.796376  0.578244  0.668583  1
  S  S8  1  0.827985  0.837713  0.391057  1
  S  S9  1  0.327985  0.162287  0.108943  1
  S  S10  1  0.172015  0.162287  0.608943  1
  S  S11  1  0.672015  0.837713  0.891057  1
  S  S12  1  0.425239  0.786813  0.661539  1
  S  S13  1  0.925239  0.213187  0.838461  1
  S  S14  1  0.574761  0.213187  0.338461  1
  S  S15  1  0.074761  0.786813  0.161539  1
  K  K16  1  0.726951  0.531369  0.407906  1
  K  K17  1  0.226951  0.468631  0.092094  1
  K  K18  1  0.273049  0.468631  0.592094  1
  K  K19  1  0.773049  0.531369  0.907906  1
  K  K20  1  0.831973  0.234654  0.110479  1
  K  K21  1  0.331973  0.765346  0.389521  1
  K  K22  1  0.168027  0.765346  0.889521  1
  K  K23  1  0.668027  0.234654  0.610479  1
  K  K24  1  0.555716  0.900658  0.149780  1
  K  K25  1  0.055716  0.099342  0.350220  1
  K  K26  1  0.444284  0.099342  0.850220  1
  K  K27  1  0.944284  0.900658  0.649780  1
