# generated using pymatgen
data_Nb3Br8
_symmetry_space_group_name_H-M   'P 1'
_cell_length_a   14.62985079
_cell_length_b   14.62985033
_cell_length_c   14.62984989
_cell_angle_alpha   28.41440754
_cell_angle_beta   28.41441056
_cell_angle_gamma   28.41440961
_symmetry_Int_Tables_number   1
_chemical_formula_structural   Nb3Br8
_chemical_formula_sum   'Nb6 Br16'
_cell_volume   626.58907509
_cell_formula_units_Z   2
loop_
 _symmetry_equiv_pos_site_id
 _symmetry_equiv_pos_as_xyz
  1  'x, y, z'
loop_
 _atom_site_type_symbol
 _atom_site_label
 _atom_site_symmetry_multiplicity
 _atom_site_fract_x
 _atom_site_fract_y
 _atom_site_fract_z
 _atom_site_occupancy
  Nb  Nb0  1  0.550437  0.146158  0.550437  1
  Nb  Nb1  1  0.550437  0.550437  0.146158  1
  Nb  Nb2  1  0.146158  0.550437  0.550437  1
  Nb  Nb3  1  0.853842  0.449563  0.449563  1
  Nb  Nb4  1  0.449563  0.853842  0.449563  1
  Nb  Nb5  1  0.449563  0.449563  0.853842  1
  Br  Br6  1  0.293367  0.786610  0.293367  1
  Br  Br7  1  0.293367  0.293367  0.786610  1
  Br  Br8  1  0.786610  0.293367  0.293367  1
  Br  Br9  1  0.213390  0.706633  0.706633  1
  Br  Br10  1  0.706633  0.213390  0.706633  1
  Br  Br11  1  0.706633  0.706633  0.213390  1
  Br  Br12  1  0.883243  0.377929  0.883243  1
  Br  Br13  1  0.883243  0.883243  0.377929  1
  Br  Br14  1  0.377929  0.883243  0.883243  1
  Br  Br15  1  0.622071  0.116757  0.116757  1
  Br  Br16  1  0.116757  0.622071  0.116757  1
  Br  Br17  1  0.116757  0.116757  0.622071  1
  Br  Br18  1  0.217528  0.217528  0.217528  1
  Br  Br19  1  0.782472  0.782472  0.782472  1
  Br  Br20  1  0.368481  0.368481  0.368481  1
  Br  Br21  1  0.631519  0.631519  0.631519  1
