# generated using pymatgen
data_LiBeH3
_symmetry_space_group_name_H-M   'P 1'
_cell_length_a   4.39489544
_cell_length_b   4.51740915
_cell_length_c   6.27660672
_cell_angle_alpha   90.00000000
_cell_angle_beta   90.00000000
_cell_angle_gamma   90.00000000
_symmetry_Int_Tables_number   1
_chemical_formula_structural   LiBeH3
_chemical_formula_sum   'Li4 Be4 H12'
_cell_volume   124.61286807
_cell_formula_units_Z   4
loop_
 _symmetry_equiv_pos_site_id
 _symmetry_equiv_pos_as_xyz
  1  'x, y, z'
loop_
 _atom_site_type_symbol
 _atom_site_label
 _atom_site_symmetry_multiplicity
 _atom_site_fract_x
 _atom_site_fract_y
 _atom_site_fract_z
 _atom_site_occupancy
  H  H0  1  0.572341  0.016581  0.750000  1
  H  H1  1  0.072341  0.483419  0.250000  1
  H  H2  1  0.927659  0.516581  0.750000  1
  H  H3  1  0.427659  0.983419  0.250000  1
  H  H4  1  0.292113  0.707225  0.536930  1
  H  H5  1  0.792113  0.792775  0.463070  1
  H  H6  1  0.207887  0.207225  0.963070  1
  H  H7  1  0.707887  0.292775  0.036930  1
  H  H8  1  0.292113  0.707225  0.963070  1
  H  H9  1  0.792113  0.792775  0.036930  1
  H  H10  1  0.207887  0.207225  0.536930  1
  H  H11  1  0.707887  0.292775  0.463070  1
  Li  Li12  1  0.489993  0.450501  0.750000  1
  Li  Li13  1  0.989993  0.049499  0.250000  1
  Li  Li14  1  0.010007  0.950501  0.750000  1
  Li  Li15  1  0.510007  0.549499  0.250000  1
  Be  Be16  1  0.500000  0.000000  0.000000  1
  Be  Be17  1  0.000000  0.500000  0.000000  1
  Be  Be18  1  0.000000  0.500000  0.500000  1
  Be  Be19  1  0.500000  0.000000  0.500000  1
