# generated using pymatgen
data_K3NO4
_symmetry_space_group_name_H-M   'P 1'
_cell_length_a   5.76886199
_cell_length_b   8.06607703
_cell_length_c   11.04817286
_cell_angle_alpha   90.00000000
_cell_angle_beta   90.00000000
_cell_angle_gamma   90.00000000
_symmetry_Int_Tables_number   1
_chemical_formula_structural   K3NO4
_chemical_formula_sum   'K12 N4 O16'
_cell_volume   514.09452068
_cell_formula_units_Z   4
loop_
 _symmetry_equiv_pos_site_id
 _symmetry_equiv_pos_as_xyz
  1  'x, y, z'
loop_
 _atom_site_type_symbol
 _atom_site_label
 _atom_site_symmetry_multiplicity
 _atom_site_fract_x
 _atom_site_fract_y
 _atom_site_fract_z
 _atom_site_occupancy
  K  K0  1  0.626227  0.750000  0.931443  1
  K  K1  1  0.126227  0.250000  0.568557  1
  K  K2  1  0.373773  0.250000  0.068557  1
  K  K3  1  0.873773  0.750000  0.431443  1
  K  K4  1  0.175411  0.991915  0.855962  1
  K  K5  1  0.675411  0.008085  0.644038  1
  K  K6  1  0.824589  0.491915  0.144038  1
  K  K7  1  0.324589  0.508085  0.355962  1
  K  K8  1  0.824589  0.008085  0.144038  1
  K  K9  1  0.324589  0.991915  0.355962  1
  K  K10  1  0.175411  0.508085  0.855962  1
  K  K11  1  0.675411  0.491915  0.644038  1
  N  N12  1  0.285598  0.750000  0.616935  1
  N  N13  1  0.785598  0.250000  0.883065  1
  N  N14  1  0.714402  0.250000  0.383065  1
  N  N15  1  0.214402  0.750000  0.116935  1
  O  O16  1  0.447213  0.750000  0.520576  1
  O  O17  1  0.947213  0.250000  0.979424  1
  O  O18  1  0.552787  0.250000  0.479424  1
  O  O19  1  0.052787  0.750000  0.020576  1
  O  O20  1  0.406983  0.750000  0.727008  1
  O  O21  1  0.906983  0.250000  0.772992  1
  O  O22  1  0.593017  0.250000  0.272992  1
  O  O23  1  0.093017  0.750000  0.227008  1
  O  O24  1  0.147784  0.892856  0.608688  1
  O  O25  1  0.647784  0.107144  0.891312  1
  O  O26  1  0.852216  0.392856  0.391312  1
  O  O27  1  0.352216  0.607144  0.108688  1
  O  O28  1  0.852216  0.107144  0.391312  1
  O  O29  1  0.352216  0.892856  0.108688  1
  O  O30  1  0.147784  0.607144  0.608688  1
  O  O31  1  0.647784  0.392856  0.891312  1
