# generated using pymatgen
data_IrBr3
_symmetry_space_group_name_H-M   'P 1'
_cell_length_a   6.48184894
_cell_length_b   6.47685424
_cell_length_c   6.97408188
_cell_angle_alpha   81.41625751
_cell_angle_beta   72.64570236
_cell_angle_gamma   59.97448686
_symmetry_Int_Tables_number   1
_chemical_formula_structural   IrBr3
_chemical_formula_sum   'Ir2 Br6'
_cell_volume   241.95531704
_cell_formula_units_Z   2
loop_
 _symmetry_equiv_pos_site_id
 _symmetry_equiv_pos_as_xyz
  1  'x, y, z'
loop_
 _atom_site_type_symbol
 _atom_site_label
 _atom_site_symmetry_multiplicity
 _atom_site_fract_x
 _atom_site_fract_y
 _atom_site_fract_z
 _atom_site_occupancy
  Br  Br0  1  0.567129  0.354283  0.791067  1
  Br  Br1  1  0.078588  0.354283  0.208933  1
  Br  Br2  1  0.787062  0.000000  0.209010  1
  Br  Br3  1  0.212938  0.000000  0.790990  1
  Br  Br4  1  0.921412  0.645718  0.791067  1
  Br  Br5  1  0.432871  0.645718  0.208933  1
  Ir  Ir6  1  0.833284  0.333432  0.000000  1
  Ir  Ir7  1  0.166716  0.666568  0.000000  1
