# generated using pymatgen
data_Ba(PO3)2
_symmetry_space_group_name_H-M   'P 1'
_cell_length_a   4.56339725
_cell_length_b   8.52342663
_cell_length_c   13.67318522
_cell_angle_alpha   90.00000000
_cell_angle_beta   90.00000000
_cell_angle_gamma   90.00000000
_symmetry_Int_Tables_number   1
_chemical_formula_structural   Ba(PO3)2
_chemical_formula_sum   'Ba4 P8 O24'
_cell_volume   531.82922669
_cell_formula_units_Z   4
loop_
 _symmetry_equiv_pos_site_id
 _symmetry_equiv_pos_as_xyz
  1  'x, y, z'
loop_
 _atom_site_type_symbol
 _atom_site_label
 _atom_site_symmetry_multiplicity
 _atom_site_fract_x
 _atom_site_fract_y
 _atom_site_fract_z
 _atom_site_occupancy
  O  O0  1  0.782422  0.914917  0.368951  1
  O  O1  1  0.282422  0.085083  0.131049  1
  O  O2  1  0.717578  0.414917  0.631049  1
  O  O3  1  0.217578  0.585083  0.868951  1
  O  O4  1  0.748549  0.623254  0.491497  1
  O  O5  1  0.248549  0.376746  0.008503  1
  O  O6  1  0.751451  0.123254  0.508503  1
  O  O7  1  0.251451  0.876746  0.991497  1
  O  O8  1  0.790312  0.634990  0.239712  1
  O  O9  1  0.290312  0.365010  0.260288  1
  O  O10  1  0.709688  0.134990  0.760288  1
  O  O11  1  0.209688  0.865010  0.739712  1
  O  O12  1  0.610884  0.705908  0.666284  1
  O  O13  1  0.110884  0.294092  0.833716  1
  O  O14  1  0.889116  0.205908  0.333716  1
  O  O15  1  0.389116  0.794092  0.166284  1
  O  O16  1  0.113228  0.614363  0.634833  1
  O  O17  1  0.613228  0.385637  0.865167  1
  O  O18  1  0.386772  0.114363  0.365167  1
  O  O19  1  0.886772  0.885637  0.134833  1
  O  O20  1  0.272792  0.870549  0.553050  1
  O  O21  1  0.772792  0.129451  0.946950  1
  O  O22  1  0.227208  0.370549  0.446950  1
  O  O23  1  0.727208  0.629451  0.053050  1
  P  P24  1  0.216832  0.922509  0.096639  1
  P  P25  1  0.716832  0.077491  0.403361  1
  P  P26  1  0.283168  0.422509  0.903361  1
  P  P27  1  0.783168  0.577491  0.596639  1
  P  P28  1  0.712442  0.719970  0.147032  1
  P  P29  1  0.212442  0.280030  0.352968  1
  P  P30  1  0.787558  0.219970  0.852968  1
  P  P31  1  0.287558  0.780030  0.647032  1
  Ba  Ba32  1  0.258310  0.698835  0.376622  1
  Ba  Ba33  1  0.758310  0.301165  0.123378  1
  Ba  Ba34  1  0.241690  0.198835  0.623378  1
  Ba  Ba35  1  0.741690  0.801165  0.876622  1
