# generated using pymatgen
data_Sr3Fe2Br2O5
_symmetry_space_group_name_H-M   'P 1'
_cell_length_a   4.01024835
_cell_length_b   4.01024836
_cell_length_c   13.65876308
_cell_angle_alpha   98.44160239
_cell_angle_beta   98.44160240
_cell_angle_gamma   89.99999998
_symmetry_Int_Tables_number   1
_chemical_formula_structural   Sr3Fe2Br2O5
_chemical_formula_sum   'Sr3 Fe2 Br2 O5'
_cell_volume   214.87550291
_cell_formula_units_Z   1
loop_
 _symmetry_equiv_pos_site_id
 _symmetry_equiv_pos_as_xyz
  1  'x, y, z'
loop_
 _atom_site_type_symbol
 _atom_site_label
 _atom_site_symmetry_multiplicity
 _atom_site_fract_x
 _atom_site_fract_y
 _atom_site_fract_z
 _atom_site_occupancy
  O  O0  1  0.081853  0.581853  0.163709  1
  O  O1  1  0.918146  0.418146  0.836291  1
  O  O2  1  0.418146  0.918146  0.836291  1
  O  O3  1  0.499999  0.500000  0.000000  1
  O  O4  1  0.581854  0.081853  0.163709  1
  Fe  Fe5  1  0.428063  0.428061  0.856124  1
  Fe  Fe6  1  0.571937  0.571938  0.143876  1
  Br  Br7  1  0.305724  0.305724  0.611447  1
  Br  Br8  1  0.694276  0.694276  0.388553  1
  Sr  Sr9  1  0.858995  0.858997  0.717991  1
  Sr  Sr10  1  0.141005  0.141005  0.282009  1
  Sr  Sr11  1  0.000000  0.000000  0.000000  1
