# generated using pymatgen
data_HS3N
_symmetry_space_group_name_H-M   'P 1'
_cell_length_a   8.51050045
_cell_length_b   8.79301445
_cell_length_c   13.19236268
_cell_angle_alpha   90.00000000
_cell_angle_beta   90.00000000
_cell_angle_gamma   114.70901617
_symmetry_Int_Tables_number   1
_chemical_formula_structural   HS3N
_chemical_formula_sum   'H8 S24 N8'
_cell_volume   896.83566140
_cell_formula_units_Z   8
loop_
 _symmetry_equiv_pos_site_id
 _symmetry_equiv_pos_as_xyz
  1  'x, y, z'
loop_
 _atom_site_type_symbol
 _atom_site_label
 _atom_site_symmetry_multiplicity
 _atom_site_fract_x
 _atom_site_fract_y
 _atom_site_fract_z
 _atom_site_occupancy
  H  H0  1  0.360533  0.076260  0.539767  1
  H  H1  1  0.139467  0.423740  0.539767  1
  H  H2  1  0.639467  0.923740  0.460233  1
  H  H3  1  0.860533  0.576260  0.460233  1
  H  H4  1  0.585699  0.367090  0.924329  1
  H  H5  1  0.914301  0.132910  0.924329  1
  H  H6  1  0.414301  0.632910  0.075671  1
  H  H7  1  0.085699  0.867090  0.075671  1
  N  N8  1  0.245147  0.977378  0.524082  1
  N  N9  1  0.254853  0.522622  0.524082  1
  N  N10  1  0.754853  0.022622  0.475918  1
  N  N11  1  0.745147  0.477378  0.475918  1
  N  N12  1  0.488508  0.252124  0.939934  1
  N  N13  1  0.011492  0.247876  0.939934  1
  N  N14  1  0.511492  0.747876  0.060066  1
  N  N15  1  0.988508  0.752124  0.060066  1
  S  S16  1  0.669056  0.461687  0.594717  1
  S  S17  1  0.830944  0.038313  0.594717  1
  S  S18  1  0.330944  0.538313  0.405283  1
  S  S19  1  0.169056  0.961687  0.405283  1
  S  S20  1  0.806774  0.380892  0.692540  1
  S  S21  1  0.693226  0.119108  0.692540  1
  S  S22  1  0.193226  0.619108  0.307460  1
  S  S23  1  0.306774  0.880892  0.307460  1
  S  S24  1  0.175188  0.816478  0.608222  1
  S  S25  1  0.324812  0.683522  0.608222  1
  S  S26  1  0.824812  0.183522  0.391778  1
  S  S27  1  0.675188  0.316478  0.391778  1
  S  S28  1  0.384919  0.309524  0.156865  1
  S  S29  1  0.115081  0.190476  0.156865  1
  S  S30  1  0.615081  0.690476  0.843135  1
  S  S31  1  0.884919  0.809524  0.843135  1
  S  S32  1  0.476412  0.182031  0.059364  1
  S  S33  1  0.023588  0.317969  0.059364  1
  S  S34  1  0.523588  0.817969  0.940636  1
  S  S35  1  0.976412  0.682031  0.940636  1
  S  S36  1  0.321233  0.180150  0.856375  1
  S  S37  1  0.178767  0.319850  0.856375  1
  S  S38  1  0.678767  0.819850  0.143625  1
  S  S39  1  0.821233  0.680150  0.143625  1
