# generated using pymatgen
data_LaCl
_symmetry_space_group_name_H-M   'P 1'
_cell_length_a   11.09483430
_cell_length_b   11.09483430
_cell_length_c   11.09483430
_cell_angle_alpha   21.20644163
_cell_angle_beta   21.20644161
_cell_angle_gamma   21.20644159
_symmetry_Int_Tables_number   1
_chemical_formula_structural   LaCl
_chemical_formula_sum   'La2 Cl2'
_cell_volume   156.52680410
_cell_formula_units_Z   2
loop_
 _symmetry_equiv_pos_site_id
 _symmetry_equiv_pos_as_xyz
  1  'x, y, z'
loop_
 _atom_site_type_symbol
 _atom_site_label
 _atom_site_symmetry_multiplicity
 _atom_site_fract_x
 _atom_site_fract_y
 _atom_site_fract_z
 _atom_site_occupancy
  Cl  Cl0  1  0.599210  0.599210  0.599210  1
  Cl  Cl1  1  0.400790  0.400790  0.400790  1
  La  La2  1  0.787383  0.787383  0.787383  1
  La  La3  1  0.212617  0.212617  0.212617  1
