# generated using pymatgen
data_KPHNO2
_symmetry_space_group_name_H-M   'P 1'
_cell_length_a   8.19564138
_cell_length_b   8.19564138
_cell_length_c   8.19564138
_cell_angle_alpha   103.79679192
_cell_angle_beta   103.79679193
_cell_angle_gamma   103.79679198
_symmetry_Int_Tables_number   1
_chemical_formula_structural   KPHNO2
_chemical_formula_sum   'K6 P6 H6 N6 O12'
_cell_volume   493.06676363
_cell_formula_units_Z   6
loop_
 _symmetry_equiv_pos_site_id
 _symmetry_equiv_pos_as_xyz
  1  'x, y, z'
loop_
 _atom_site_type_symbol
 _atom_site_label
 _atom_site_symmetry_multiplicity
 _atom_site_fract_x
 _atom_site_fract_y
 _atom_site_fract_z
 _atom_site_occupancy
  H  H0  1  0.738135  0.431462  0.541619  1
  H  H1  1  0.431462  0.541619  0.738135  1
  H  H2  1  0.541619  0.738135  0.431462  1
  H  H3  1  0.261865  0.568538  0.458381  1
  H  H4  1  0.568538  0.458381  0.261865  1
  H  H5  1  0.458381  0.261865  0.568538  1
  N  N6  1  0.794418  0.552252  0.640998  1
  N  N7  1  0.552252  0.640998  0.794418  1
  N  N8  1  0.640998  0.794418  0.552252  1
  N  N9  1  0.205582  0.447748  0.359002  1
  N  N10  1  0.447748  0.359002  0.205582  1
  N  N11  1  0.359002  0.205582  0.447748  1
  O  O12  1  0.198357  0.359311  0.640851  1
  O  O13  1  0.640851  0.198357  0.359311  1
  O  O14  1  0.359311  0.640851  0.198357  1
  O  O15  1  0.801643  0.640689  0.359149  1
  O  O16  1  0.359149  0.801643  0.640689  1
  O  O17  1  0.640689  0.359149  0.801643  1
  O  O18  1  0.331433  0.015162  0.129238  1
  O  O19  1  0.129238  0.331433  0.015162  1
  O  O20  1  0.015162  0.129238  0.331433  1
  O  O21  1  0.668567  0.984838  0.870762  1
  O  O22  1  0.870762  0.668567  0.984838  1
  O  O23  1  0.984838  0.870762  0.668567  1
  P  P24  1  0.180056  0.278615  0.447561  1
  P  P25  1  0.278615  0.447561  0.180056  1
  P  P26  1  0.447561  0.180056  0.278615  1
  P  P27  1  0.819944  0.721385  0.552439  1
  P  P28  1  0.721385  0.552439  0.819944  1
  P  P29  1  0.552439  0.819944  0.721385  1
  K  K30  1  0.871701  0.173120  0.685269  1
  K  K31  1  0.173120  0.685269  0.871701  1
  K  K32  1  0.685269  0.871701  0.173120  1
  K  K33  1  0.128299  0.826880  0.314731  1
  K  K34  1  0.826880  0.314731  0.128299  1
  K  K35  1  0.314731  0.128299  0.826880  1
