# generated using pymatgen
data_CrCuH18N6Cl5
_symmetry_space_group_name_H-M   'P 1'
_cell_length_a   15.91082321
_cell_length_b   15.91082325
_cell_length_c   15.91082312
_cell_angle_alpha   60.00000028
_cell_angle_beta   60.00000019
_cell_angle_gamma   60.00000022
_symmetry_Int_Tables_number   1
_chemical_formula_structural   CrCuH18N6Cl5
_chemical_formula_sum   'Cr8 Cu8 H144 N48 Cl40'
_cell_volume   2848.15062758
_cell_formula_units_Z   8
loop_
 _symmetry_equiv_pos_site_id
 _symmetry_equiv_pos_as_xyz
  1  'x, y, z'
loop_
 _atom_site_type_symbol
 _atom_site_label
 _atom_site_symmetry_multiplicity
 _atom_site_fract_x
 _atom_site_fract_y
 _atom_site_fract_z
 _atom_site_occupancy
  H  H0  1  0.999238  0.926746  0.190365  1
  H  H1  1  0.573254  0.309635  0.116349  1
  H  H2  1  0.116349  0.500762  0.573254  1
  H  H3  1  0.573254  0.116349  0.500762  1
  H  H4  1  0.309635  0.500762  0.116349  1
  H  H5  1  0.309635  0.116349  0.573254  1
  H  H6  1  0.116349  0.309635  0.500762  1
  H  H7  1  0.190365  0.999238  0.926746  1
  H  H8  1  0.926746  0.190365  0.999238  1
  H  H9  1  0.383651  0.999238  0.190365  1
  H  H10  1  0.926746  0.383651  0.190365  1
  H  H11  1  0.383651  0.926746  0.999238  1
  H  H12  1  0.190365  0.926746  0.383651  1
  H  H13  1  0.999238  0.190365  0.383651  1
  H  H14  1  0.999238  0.383651  0.926746  1
  H  H15  1  0.116349  0.573254  0.309635  1
  H  H16  1  0.500762  0.116349  0.309635  1
  H  H17  1  0.500762  0.573254  0.116349  1
  H  H18  1  0.573254  0.500762  0.309635  1
  H  H19  1  0.309635  0.573254  0.500762  1
  H  H20  1  0.500762  0.309635  0.573254  1
  H  H21  1  0.190365  0.383651  0.999238  1
  H  H22  1  0.383651  0.190365  0.926746  1
  H  H23  1  0.926746  0.999238  0.383651  1
  H  H24  1  0.000762  0.073254  0.809635  1
  H  H25  1  0.426746  0.690365  0.883651  1
  H  H26  1  0.883651  0.499238  0.426746  1
  H  H27  1  0.426746  0.883651  0.499238  1
  H  H28  1  0.690365  0.499238  0.883651  1
  H  H29  1  0.690365  0.883651  0.426746  1
  H  H30  1  0.883651  0.690365  0.499238  1
  H  H31  1  0.809635  0.000762  0.073254  1
  H  H32  1  0.073254  0.809635  0.000762  1
  H  H33  1  0.616349  0.000762  0.809635  1
  H  H34  1  0.073254  0.616349  0.809635  1
  H  H35  1  0.616349  0.073254  0.000762  1
  H  H36  1  0.809635  0.073254  0.616349  1
  H  H37  1  0.000762  0.809635  0.616349  1
  H  H38  1  0.000762  0.616349  0.073254  1
  H  H39  1  0.883651  0.426746  0.690365  1
  H  H40  1  0.499238  0.883651  0.690365  1
  H  H41  1  0.499238  0.426746  0.883651  1
  H  H42  1  0.426746  0.499238  0.690365  1
  H  H43  1  0.690365  0.426746  0.499238  1
  H  H44  1  0.499238  0.690365  0.426746  1
  H  H45  1  0.809635  0.616349  0.000762  1
  H  H46  1  0.616349  0.809635  0.073254  1
  H  H47  1  0.073254  0.000762  0.616349  1
  H  H48  1  0.879194  0.975795  0.193803  1
  H  H49  1  0.524205  0.306197  0.048792  1
  H  H50  1  0.048792  0.620806  0.524205  1
  H  H51  1  0.524205  0.048792  0.620806  1
  H  H52  1  0.306197  0.620806  0.048792  1
  H  H53  1  0.306197  0.048792  0.524205  1
  H  H54  1  0.048792  0.306197  0.620806  1
  H  H55  1  0.193803  0.879194  0.975795  1
  H  H56  1  0.975795  0.193803  0.879194  1
  H  H57  1  0.451208  0.879194  0.193803  1
  H  H58  1  0.975795  0.451208  0.193803  1
  H  H59  1  0.451208  0.975795  0.879194  1
  H  H60  1  0.193803  0.975795  0.451208  1
  H  H61  1  0.879194  0.193803  0.451208  1
  H  H62  1  0.879194  0.451208  0.975795  1
  H  H63  1  0.048792  0.524205  0.306197  1
  H  H64  1  0.620806  0.048792  0.306197  1
  H  H65  1  0.620806  0.524205  0.048792  1
  H  H66  1  0.524205  0.620806  0.306197  1
  H  H67  1  0.306197  0.524205  0.620806  1
  H  H68  1  0.620806  0.306197  0.524205  1
  H  H69  1  0.193803  0.451208  0.879194  1
  H  H70  1  0.451208  0.193803  0.975795  1
  H  H71  1  0.975795  0.879194  0.451208  1
  H  H72  1  0.120806  0.024205  0.806197  1
  H  H73  1  0.475795  0.693803  0.951208  1
  H  H74  1  0.951208  0.379194  0.475795  1
  H  H75  1  0.475795  0.951208  0.379194  1
  H  H76  1  0.693803  0.379194  0.951208  1
  H  H77  1  0.693803  0.951208  0.475795  1
  H  H78  1  0.951208  0.693803  0.379194  1
  H  H79  1  0.806197  0.120806  0.024205  1
  H  H80  1  0.024205  0.806197  0.120806  1
  H  H81  1  0.548792  0.120806  0.806197  1
  H  H82  1  0.024205  0.548792  0.806197  1
  H  H83  1  0.548792  0.024205  0.120806  1
  H  H84  1  0.806197  0.024205  0.548792  1
  H  H85  1  0.120806  0.806197  0.548792  1
  H  H86  1  0.120806  0.548792  0.024205  1
  H  H87  1  0.951208  0.475795  0.693803  1
  H  H88  1  0.379194  0.951208  0.693803  1
  H  H89  1  0.379194  0.475795  0.951208  1
  H  H90  1  0.475795  0.379194  0.693803  1
  H  H91  1  0.693803  0.475795  0.379194  1
  H  H92  1  0.379194  0.693803  0.475795  1
  H  H93  1  0.806197  0.548792  0.120806  1
  H  H94  1  0.548792  0.806197  0.024205  1
  H  H95  1  0.024205  0.120806  0.548792  1
  H  H96  1  0.938979  0.053209  0.163516  1
  H  H97  1  0.446791  0.336484  0.155704  1
  H  H98  1  0.155704  0.561021  0.446791  1
  H  H99  1  0.446791  0.155704  0.561021  1
  H  H100  1  0.336484  0.561021  0.155704  1
  H  H101  1  0.336484  0.155704  0.446791  1
  H  H102  1  0.155704  0.336484  0.561021  1
  H  H103  1  0.163516  0.938979  0.053209  1
  H  H104  1  0.053209  0.163516  0.938979  1
  H  H105  1  0.344296  0.938979  0.163516  1
  H  H106  1  0.053209  0.344296  0.163516  1
  H  H107  1  0.344296  0.053209  0.938979  1
  H  H108  1  0.163516  0.053209  0.344296  1
  H  H109  1  0.938979  0.163516  0.344296  1
  H  H110  1  0.938979  0.344296  0.053209  1
  H  H111  1  0.155704  0.446791  0.336484  1
  H  H112  1  0.561021  0.155704  0.336484  1
  H  H113  1  0.561021  0.446791  0.155704  1
  H  H114  1  0.446791  0.561021  0.336484  1
  H  H115  1  0.336484  0.446791  0.561021  1
  H  H116  1  0.561021  0.336484  0.446791  1
  H  H117  1  0.163516  0.344296  0.938979  1
  H  H118  1  0.344296  0.163516  0.053209  1
  H  H119  1  0.053209  0.938979  0.344296  1
  H  H120  1  0.061021  0.946791  0.836484  1
  H  H121  1  0.553209  0.663516  0.844296  1
  H  H122  1  0.844296  0.438979  0.553209  1
  H  H123  1  0.553209  0.844296  0.438979  1
  H  H124  1  0.663516  0.438979  0.844296  1
  H  H125  1  0.663516  0.844296  0.553209  1
  H  H126  1  0.844296  0.663516  0.438979  1
  H  H127  1  0.836484  0.061021  0.946791  1
  H  H128  1  0.946791  0.836484  0.061021  1
  H  H129  1  0.655704  0.061021  0.836484  1
  H  H130  1  0.946791  0.655704  0.836484  1
  H  H131  1  0.655704  0.946791  0.061021  1
  H  H132  1  0.836484  0.946791  0.655704  1
  H  H133  1  0.061021  0.836484  0.655704  1
  H  H134  1  0.061021  0.655704  0.946791  1
  H  H135  1  0.844296  0.553209  0.663516  1
  H  H136  1  0.438979  0.844296  0.663516  1
  H  H137  1  0.438979  0.553209  0.844296  1
  H  H138  1  0.553209  0.438979  0.663516  1
  H  H139  1  0.663516  0.553209  0.438979  1
  H  H140  1  0.438979  0.663516  0.553209  1
  H  H141  1  0.836484  0.655704  0.061021  1
  H  H142  1  0.655704  0.836484  0.946791  1
  H  H143  1  0.946791  0.061021  0.655704  1
  N  N144  1  0.948488  0.989102  0.153822  1
  N  N145  1  0.510898  0.346178  0.091412  1
  N  N146  1  0.091412  0.551512  0.510898  1
  N  N147  1  0.510898  0.091412  0.551512  1
  N  N148  1  0.346178  0.551512  0.091412  1
  N  N149  1  0.346178  0.091412  0.510898  1
  N  N150  1  0.091412  0.346178  0.551512  1
  N  N151  1  0.153822  0.948488  0.989102  1
  N  N152  1  0.989102  0.153822  0.948488  1
  N  N153  1  0.408588  0.948488  0.153822  1
  N  N154  1  0.989102  0.408588  0.153822  1
  N  N155  1  0.408588  0.989102  0.948488  1
  N  N156  1  0.153822  0.989102  0.408588  1
  N  N157  1  0.948488  0.153822  0.408588  1
  N  N158  1  0.948488  0.408588  0.989102  1
  N  N159  1  0.091412  0.510898  0.346178  1
  N  N160  1  0.551512  0.091412  0.346178  1
  N  N161  1  0.551512  0.510898  0.091412  1
  N  N162  1  0.510898  0.551512  0.346178  1
  N  N163  1  0.346178  0.510898  0.551512  1
  N  N164  1  0.551512  0.346178  0.510898  1
  N  N165  1  0.153822  0.408588  0.948488  1
  N  N166  1  0.408588  0.153822  0.989102  1
  N  N167  1  0.989102  0.948488  0.408588  1
  N  N168  1  0.051512  0.010898  0.846178  1
  N  N169  1  0.489102  0.653822  0.908588  1
  N  N170  1  0.908588  0.448488  0.489102  1
  N  N171  1  0.489102  0.908588  0.448488  1
  N  N172  1  0.653822  0.448488  0.908588  1
  N  N173  1  0.653822  0.908588  0.489102  1
  N  N174  1  0.908588  0.653822  0.448488  1
  N  N175  1  0.846178  0.051512  0.010898  1
  N  N176  1  0.010898  0.846178  0.051512  1
  N  N177  1  0.591412  0.051512  0.846178  1
  N  N178  1  0.010898  0.591412  0.846178  1
  N  N179  1  0.591412  0.010898  0.051512  1
  N  N180  1  0.846178  0.010898  0.591412  1
  N  N181  1  0.051512  0.846178  0.591412  1
  N  N182  1  0.051512  0.591412  0.010898  1
  N  N183  1  0.908588  0.489102  0.653822  1
  N  N184  1  0.448488  0.908588  0.653822  1
  N  N185  1  0.448488  0.489102  0.908588  1
  N  N186  1  0.489102  0.448488  0.653822  1
  N  N187  1  0.653822  0.489102  0.448488  1
  N  N188  1  0.448488  0.653822  0.489102  1
  N  N189  1  0.846178  0.591412  0.051512  1
  N  N190  1  0.591412  0.846178  0.010898  1
  N  N191  1  0.010898  0.051512  0.591412  1
  Cl  Cl192  1  0.191061  0.191061  0.191061  1
  Cl  Cl193  1  0.308939  0.308939  0.573184  1
  Cl  Cl194  1  0.573184  0.308939  0.308939  1
  Cl  Cl195  1  0.308939  0.573184  0.308939  1
  Cl  Cl196  1  0.926816  0.191061  0.191061  1
  Cl  Cl197  1  0.191061  0.926816  0.191061  1
  Cl  Cl198  1  0.191061  0.191061  0.926816  1
  Cl  Cl199  1  0.308939  0.308939  0.308939  1
  Cl  Cl200  1  0.808939  0.808939  0.808939  1
  Cl  Cl201  1  0.691061  0.691061  0.426816  1
  Cl  Cl202  1  0.426816  0.691061  0.691061  1
  Cl  Cl203  1  0.691061  0.426816  0.691061  1
  Cl  Cl204  1  0.073184  0.808939  0.808939  1
  Cl  Cl205  1  0.808939  0.073184  0.808939  1
  Cl  Cl206  1  0.808939  0.808939  0.073184  1
  Cl  Cl207  1  0.691061  0.691061  0.691061  1
  Cl  Cl208  1  0.750000  0.096388  0.403612  1
  Cl  Cl209  1  0.403612  0.096388  0.250000  1
  Cl  Cl210  1  0.250000  0.750000  0.403612  1
  Cl  Cl211  1  0.403612  0.250000  0.750000  1
  Cl  Cl212  1  0.096388  0.750000  0.250000  1
  Cl  Cl213  1  0.096388  0.250000  0.403612  1
  Cl  Cl214  1  0.250000  0.096388  0.750000  1
  Cl  Cl215  1  0.403612  0.750000  0.096388  1
  Cl  Cl216  1  0.096388  0.403612  0.750000  1
  Cl  Cl217  1  0.750000  0.403612  0.250000  1
  Cl  Cl218  1  0.750000  0.250000  0.096388  1
  Cl  Cl219  1  0.250000  0.403612  0.096388  1
  Cl  Cl220  1  0.250000  0.903612  0.596388  1
  Cl  Cl221  1  0.596388  0.903612  0.750000  1
  Cl  Cl222  1  0.750000  0.250000  0.596388  1
  Cl  Cl223  1  0.596388  0.750000  0.250000  1
  Cl  Cl224  1  0.903612  0.250000  0.750000  1
  Cl  Cl225  1  0.903612  0.750000  0.596388  1
  Cl  Cl226  1  0.750000  0.903612  0.250000  1
  Cl  Cl227  1  0.596388  0.250000  0.903612  1
  Cl  Cl228  1  0.903612  0.596388  0.250000  1
  Cl  Cl229  1  0.250000  0.596388  0.750000  1
  Cl  Cl230  1  0.250000  0.750000  0.903612  1
  Cl  Cl231  1  0.750000  0.596388  0.903612  1
  Cr  Cr232  1  0.000000  0.000000  0.000000  1
  Cr  Cr233  1  0.500000  0.500000  0.000000  1
  Cr  Cr234  1  0.000000  0.500000  0.500000  1
  Cr  Cr235  1  0.500000  0.000000  0.500000  1
  Cr  Cr236  1  0.500000  0.000000  0.000000  1
  Cr  Cr237  1  0.000000  0.500000  0.000000  1
  Cr  Cr238  1  0.000000  0.000000  0.500000  1
  Cr  Cr239  1  0.500000  0.500000  0.500000  1
  Cu  Cu240  1  0.250000  0.250000  0.250000  1
  Cu  Cu241  1  0.250000  0.250000  0.750000  1
  Cu  Cu242  1  0.750000  0.250000  0.250000  1
  Cu  Cu243  1  0.250000  0.750000  0.250000  1
  Cu  Cu244  1  0.750000  0.750000  0.750000  1
  Cu  Cu245  1  0.750000  0.750000  0.250000  1
  Cu  Cu246  1  0.250000  0.750000  0.750000  1
  Cu  Cu247  1  0.750000  0.250000  0.750000  1
