# generated using pymatgen
data_Sr2NbInO6
_symmetry_space_group_name_H-M   'P 1'
_cell_length_a   5.80499974
_cell_length_b   5.86015813
_cell_length_c   8.22833869
_cell_angle_alpha   90.00000000
_cell_angle_beta   89.93195991
_cell_angle_gamma   90.00000000
_symmetry_Int_Tables_number   1
_chemical_formula_structural   Sr2NbInO6
_chemical_formula_sum   'Sr4 Nb2 In2 O12'
_cell_volume   279.91320893
_cell_formula_units_Z   2
loop_
 _symmetry_equiv_pos_site_id
 _symmetry_equiv_pos_as_xyz
  1  'x, y, z'
loop_
 _atom_site_type_symbol
 _atom_site_label
 _atom_site_symmetry_multiplicity
 _atom_site_fract_x
 _atom_site_fract_y
 _atom_site_fract_z
 _atom_site_occupancy
  O  O0  1  0.575917  0.519707  0.240135  1
  O  O1  1  0.924083  0.019708  0.259865  1
  O  O2  1  0.424083  0.480292  0.759864  1
  O  O3  1  0.075916  0.980292  0.740136  1
  O  O4  1  0.723623  0.795219  0.538491  1
  O  O5  1  0.776378  0.295218  0.961509  1
  O  O6  1  0.276377  0.204782  0.461509  1
  O  O7  1  0.223622  0.704783  0.038491  1
  O  O8  1  0.297121  0.223361  0.041562  1
  O  O9  1  0.202880  0.723361  0.458438  1
  O  O10  1  0.797120  0.276640  0.541562  1
  O  O11  1  0.702881  0.776638  0.958438  1
  Sr  Sr12  1  0.507381  0.033938  0.749250  1
  Sr  Sr13  1  0.992618  0.533938  0.750751  1
  Sr  Sr14  1  0.492619  0.966061  0.250751  1
  Sr  Sr15  1  0.007382  0.466062  0.249250  1
  Nb  Nb16  1  1.000000  0.000000  0.500000  1
  Nb  Nb17  1  0.499999  0.500000  1.000000  1
  In  In18  1  0.500001  0.500000  0.500000  1
  In  In19  1  0.000000  0.000000  0.000000  1
