# generated using pymatgen
data_ZrTe2Br5
_symmetry_space_group_name_H-M   'P 1'
_cell_length_a   9.26186787
_cell_length_b   9.26186787
_cell_length_c   9.59259649
_cell_angle_alpha   106.73605430
_cell_angle_beta   116.61971925
_cell_angle_gamma   103.75008834
_symmetry_Int_Tables_number   1
_chemical_formula_structural   ZrTe2Br5
_chemical_formula_sum   'Zr2 Te4 Br10'
_cell_volume   636.58863620
_cell_formula_units_Z   2
loop_
 _symmetry_equiv_pos_site_id
 _symmetry_equiv_pos_as_xyz
  1  'x, y, z'
loop_
 _atom_site_type_symbol
 _atom_site_label
 _atom_site_symmetry_multiplicity
 _atom_site_fract_x
 _atom_site_fract_y
 _atom_site_fract_z
 _atom_site_occupancy
  Br  Br0  1  0.407848  0.164049  0.914804  1
  Br  Br1  1  0.249245  0.493044  0.085196  1
  Br  Br2  1  0.592152  0.835951  0.085196  1
  Br  Br3  1  0.750755  0.506956  0.914804  1
  Br  Br4  1  0.418813  0.256732  0.329099  1
  Br  Br5  1  0.927633  0.089714  0.670901  1
  Br  Br6  1  0.069268  0.850535  0.919803  1
  Br  Br7  1  0.930732  0.149465  0.080197  1
  Br  Br8  1  0.072367  0.910286  0.329099  1
  Br  Br9  1  0.581187  0.743268  0.670901  1
  Zr  Zr10  1  0.812229  0.812229  0.000000  1
  Zr  Zr11  1  0.187771  0.187771  0.000000  1
  Te  Te12  1  0.831490  0.331490  0.500000  1
  Te  Te13  1  0.168510  0.668510  0.500000  1
  Te  Te14  1  0.811498  0.557450  0.368948  1
  Te  Te15  1  0.188502  0.442550  0.631052  1
