# generated using pymatgen
data_U3Si2C3
_symmetry_space_group_name_H-M   'P 1'
_cell_length_a   3.66556802
_cell_length_b   3.70215179
_cell_length_c   9.84384414
_cell_angle_alpha   100.83865659
_cell_angle_beta   100.73027508
_cell_angle_gamma   90.00000001
_symmetry_Int_Tables_number   1
_chemical_formula_structural   U3Si2C3
_chemical_formula_sum   'U3 Si2 C3'
_cell_volume   128.82368134
_cell_formula_units_Z   1
loop_
 _symmetry_equiv_pos_site_id
 _symmetry_equiv_pos_as_xyz
  1  'x, y, z'
loop_
 _atom_site_type_symbol
 _atom_site_label
 _atom_site_symmetry_multiplicity
 _atom_site_fract_x
 _atom_site_fract_y
 _atom_site_fract_z
 _atom_site_occupancy
  C  C0  1  0.748942  0.248942  0.497884  1
  C  C1  1  0.251058  0.751058  0.502116  1
  C  C2  1  0.000000  0.000000  0.000000  1
  Si  Si3  1  0.096427  0.096427  0.192853  1
  Si  Si4  1  0.903573  0.903573  0.807147  1
  U  U5  1  0.683725  0.683725  0.367449  1
  U  U6  1  0.316275  0.316275  0.632551  1
  U  U7  1  0.500000  0.500000  0.000000  1
