# generated using pymatgen
data_Rb4Cu5Cl9
_symmetry_space_group_name_H-M   'P 1'
_cell_length_a   8.71545647
_cell_length_b   15.39034717
_cell_length_c   15.82467233
_cell_angle_alpha   107.76506158
_cell_angle_beta   90.00000000
_cell_angle_gamma   90.00000000
_symmetry_Int_Tables_number   1
_chemical_formula_structural   Rb4Cu5Cl9
_chemical_formula_sum   'Rb16 Cu20 Cl36'
_cell_volume   2021.40898350
_cell_formula_units_Z   4
loop_
 _symmetry_equiv_pos_site_id
 _symmetry_equiv_pos_as_xyz
  1  'x, y, z'
loop_
 _atom_site_type_symbol
 _atom_site_label
 _atom_site_symmetry_multiplicity
 _atom_site_fract_x
 _atom_site_fract_y
 _atom_site_fract_z
 _atom_site_occupancy
  Cl  Cl0  1  0.313558  0.545556  0.682474  1
  Cl  Cl1  1  0.686442  0.545556  0.182474  1
  Cl  Cl2  1  0.120648  0.521603  0.919102  1
  Cl  Cl3  1  0.879352  0.521603  0.419102  1
  Cl  Cl4  1  0.164439  0.892549  0.810013  1
  Cl  Cl5  1  0.835561  0.892549  0.310013  1
  Cl  Cl6  1  0.315692  0.910200  0.452365  1
  Cl  Cl7  1  0.684308  0.910200  0.952365  1
  Cl  Cl8  1  0.718355  0.167026  0.689804  1
  Cl  Cl9  1  0.281645  0.167026  0.189804  1
  Cl  Cl10  1  0.184126  0.107057  0.694340  1
  Cl  Cl11  1  0.815874  0.107057  0.194340  1
  Cl  Cl12  1  0.004184  0.143426  0.486389  1
  Cl  Cl13  1  0.995816  0.143426  0.986389  1
  Cl  Cl14  1  0.462596  0.108998  0.874703  1
  Cl  Cl15  1  0.537404  0.108998  0.374703  1
  Cl  Cl16  1  0.035086  0.344644  0.703142  1
  Cl  Cl17  1  0.964914  0.344644  0.203142  1
  Cl  Cl18  1  0.442641  0.363759  0.787146  1
  Cl  Cl19  1  0.557359  0.363759  0.287146  1
  Cl  Cl20  1  0.646995  0.385757  0.570420  1
  Cl  Cl21  1  0.353005  0.385757  0.070420  1
  Cl  Cl22  1  0.807988  0.360569  0.926679  1
  Cl  Cl23  1  0.192012  0.360569  0.426679  1
  Cl  Cl24  1  0.823579  0.728249  0.702013  1
  Cl  Cl25  1  0.176421  0.728249  0.202013  1
  Cl  Cl26  1  0.630858  0.747172  0.463019  1
  Cl  Cl27  1  0.369142  0.747172  0.963019  1
  Cl  Cl28  1  0.545324  0.918145  0.675739  1
  Cl  Cl29  1  0.454676  0.918145  0.175739  1
  Cl  Cl30  1  0.952992  0.900722  0.588259  1
  Cl  Cl31  1  0.047008  0.900722  0.088259  1
  Cl  Cl32  1  0.250687  0.718172  0.570133  1
  Cl  Cl33  1  0.749313  0.718172  0.070133  1
  Cl  Cl34  1  0.743155  0.553045  0.811374  1
  Cl  Cl35  1  0.256845  0.553045  0.311374  1
  Cu  Cu36  1  0.626942  0.425580  0.717958  1
  Cu  Cu37  1  0.373058  0.425580  0.217958  1
  Cu  Cu38  1  0.883881  0.428592  0.816866  1
  Cu  Cu39  1  0.116119  0.428592  0.316866  1
  Cu  Cu40  1  0.393030  0.839257  0.558563  1
  Cu  Cu41  1  0.606970  0.839257  0.058563  1
  Cu  Cu42  1  0.150906  0.855784  0.663027  1
  Cu  Cu43  1  0.849094  0.855784  0.163027  1
  Cu  Cu44  1  0.678560  0.298483  0.798598  1
  Cu  Cu45  1  0.321440  0.298483  0.298598  1
  Cu  Cu46  1  0.085018  0.211876  0.121537  1
  Cu  Cu47  1  0.914982  0.211876  0.621537  1
  Cu  Cu48  1  0.354173  0.017025  0.737222  1
  Cu  Cu49  1  0.645827  0.017025  0.237222  1
  Cu  Cu50  1  0.204857  0.976837  0.584233  1
  Cu  Cu51  1  0.795143  0.976837  0.084233  1
  Cu  Cu52  1  0.227345  0.516173  0.796359  1
  Cu  Cu53  1  0.772655  0.516173  0.296359  1
  Cu  Cu54  1  0.744983  0.759733  0.586788  1
  Cu  Cu55  1  0.255017  0.759733  0.086788  1
  Rb  Rb56  1  0.310656  0.001924  0.000727  1
  Rb  Rb57  1  0.689344  0.001924  0.500727  1
  Rb  Rb58  1  0.164459  0.018226  0.301605  1
  Rb  Rb59  1  0.835541  0.018226  0.801605  1
  Rb  Rb60  1  0.474028  0.530852  0.478717  1
  Rb  Rb61  1  0.525972  0.530852  0.978717  1
  Rb  Rb62  1  0.044355  0.517837  0.118136  1
  Rb  Rb63  1  0.955645  0.517837  0.618136  1
  Rb  Rb64  1  0.183677  0.268204  0.885407  1
  Rb  Rb65  1  0.816323  0.268204  0.385407  1
  Rb  Rb66  1  0.345152  0.247109  0.569034  1
  Rb  Rb67  1  0.654848  0.247109  0.069034  1
  Rb  Rb68  1  0.463631  0.750096  0.764803  1
  Rb  Rb69  1  0.536369  0.750096  0.264803  1
  Rb  Rb70  1  0.026554  0.738765  0.400807  1
  Rb  Rb71  1  0.973446  0.738765  0.900807  1
