# generated using pymatgen
data_CsMnP3HO10
_symmetry_space_group_name_H-M   'P 1'
_cell_length_a   6.33479094
_cell_length_b   6.33479094
_cell_length_c   6.60802793
_cell_angle_alpha   73.48174954
_cell_angle_beta   73.48174956
_cell_angle_gamma   87.73630147
_symmetry_Int_Tables_number   1
_chemical_formula_structural   CsMnP3HO10
_chemical_formula_sum   'Cs1 Mn1 P3 H1 O10'
_cell_volume   243.49423626
_cell_formula_units_Z   1
loop_
 _symmetry_equiv_pos_site_id
 _symmetry_equiv_pos_as_xyz
  1  'x, y, z'
loop_
 _atom_site_type_symbol
 _atom_site_label
 _atom_site_symmetry_multiplicity
 _atom_site_fract_x
 _atom_site_fract_y
 _atom_site_fract_z
 _atom_site_occupancy
  H  H0  1  0.248682  0.751318  0.000000  1
  O  O1  1  0.717097  0.412063  0.641730  1
  O  O2  1  0.587937  0.282903  0.358270  1
  O  O3  1  0.197284  0.691880  0.861407  1
  O  O4  1  0.308120  0.802716  0.138593  1
  O  O5  1  0.680283  0.019355  0.023766  1
  O  O6  1  0.980645  0.319717  0.976234  1
  O  O7  1  0.674349  0.653346  0.958962  1
  O  O8  1  0.346654  0.325651  0.041038  1
  O  O9  1  0.589655  0.690587  0.351691  1
  O  O10  1  0.309413  0.410345  0.648309  1
  P  P11  1  0.564608  0.435392  0.500000  1
  P  P12  1  0.203828  0.442550  0.892612  1
  P  P13  1  0.557450  0.796172  0.107388  1
  Mn  Mn14  1  0.664371  0.335629  0.000000  1
  Cs  Cs15  1  0.998923  0.001077  0.500000  1
