# generated using pymatgen
data_Rb2CoH12(SO7)2
_symmetry_space_group_name_H-M   'P 1'
_cell_length_a   6.32026638
_cell_length_b   9.27201764
_cell_length_c   12.57969753
_cell_angle_alpha   90.00000000
_cell_angle_beta   90.00000000
_cell_angle_gamma   105.30515160
_symmetry_Int_Tables_number   1
_chemical_formula_structural   Rb2CoH12(SO7)2
_chemical_formula_sum   'Rb4 Co2 H24 S4 O28'
_cell_volume   711.04523833
_cell_formula_units_Z   2
loop_
 _symmetry_equiv_pos_site_id
 _symmetry_equiv_pos_as_xyz
  1  'x, y, z'
loop_
 _atom_site_type_symbol
 _atom_site_label
 _atom_site_symmetry_multiplicity
 _atom_site_fract_x
 _atom_site_fract_y
 _atom_site_fract_z
 _atom_site_occupancy
  H  H0  1  0.322338  0.527211  0.642952  1
  H  H1  1  0.677661  0.972788  0.142952  1
  H  H2  1  0.677662  0.472789  0.357048  1
  H  H3  1  0.322340  0.027212  0.857048  1
  H  H4  1  0.330695  0.395054  0.564508  1
  H  H5  1  0.669304  0.104946  0.064508  1
  H  H6  1  0.923135  0.224067  0.401942  1
  H  H7  1  0.076865  0.275933  0.901942  1
  H  H8  1  0.076864  0.775933  0.598057  1
  H  H9  1  0.923135  0.724067  0.098058  1
  H  H10  1  0.087586  0.743157  0.371563  1
  H  H11  1  0.912415  0.756843  0.871564  1
  H  H12  1  0.912415  0.256844  0.628436  1
  H  H13  1  0.087585  0.243157  0.128436  1
  H  H14  1  0.320197  0.716234  0.405750  1
  H  H15  1  0.679804  0.783766  0.905751  1
  H  H16  1  0.679804  0.283767  0.594250  1
  H  H17  1  0.320196  0.216234  0.094250  1
  H  H18  1  0.013293  0.150307  0.813319  1
  H  H19  1  0.986708  0.349692  0.313319  1
  H  H20  1  0.330695  0.895054  0.935493  1
  H  H21  1  0.669305  0.604946  0.435492  1
  H  H22  1  0.013293  0.650308  0.686681  1
  H  H23  1  0.986707  0.849692  0.186681  1
  O  O24  1  0.834239  0.834363  0.886402  1
  O  O25  1  0.834239  0.334363  0.613598  1
  O  O26  1  0.018022  0.826643  0.111917  1
  O  O27  1  0.981977  0.673357  0.611918  1
  O  O28  1  0.981978  0.173357  0.888083  1
  O  O29  1  0.018023  0.326642  0.388083  1
  O  O30  1  0.292952  0.992502  0.931974  1
  O  O31  1  0.165761  0.165636  0.113598  1
  O  O32  1  0.707048  0.007498  0.068026  1
  O  O33  1  0.292952  0.492502  0.568026  1
  O  O34  1  0.942874  0.873905  0.322067  1
  O  O35  1  0.057127  0.626095  0.822067  1
  O  O36  1  0.057126  0.126095  0.677933  1
  O  O37  1  0.942874  0.373904  0.177933  1
  O  O38  1  0.608573  0.774401  0.427219  1
  O  O39  1  0.391428  0.725599  0.927219  1
  O  O40  1  0.391427  0.225598  0.572782  1
  O  O41  1  0.608572  0.274401  0.072782  1
  O  O42  1  0.773600  0.041832  0.421777  1
  O  O43  1  0.226399  0.458167  0.921777  1
  O  O44  1  0.226400  0.958167  0.578223  1
  O  O45  1  0.773599  0.541833  0.078223  1
  O  O46  1  0.590774  0.910842  0.264400  1
  O  O47  1  0.409226  0.589159  0.764400  1
  O  O48  1  0.409226  0.089158  0.735599  1
  O  O49  1  0.590775  0.410842  0.235600  1
  O  O50  1  0.165760  0.665637  0.386402  1
  O  O51  1  0.707047  0.507498  0.431974  1
  S  S52  1  0.269234  0.598299  0.858533  1
  S  S53  1  0.730765  0.901701  0.358533  1
  S  S54  1  0.269233  0.098299  0.641468  1
  S  S55  1  0.730766  0.401700  0.141468  1
  Co  Co56  1  0.000001  0.500000  0.500000  1
  Co  Co57  1  0.000000  0.000000  0.000000  1
  Rb  Rb58  1  0.343884  0.129558  0.350403  1
  Rb  Rb59  1  0.656116  0.370443  0.850403  1
  Rb  Rb60  1  0.656117  0.870443  0.649597  1
  Rb  Rb61  1  0.343882  0.629557  0.149597  1
