# generated using pymatgen
data_B20H26O
_symmetry_space_group_name_H-M   'P 1'
_cell_length_a   7.69224542
_cell_length_b   10.39757649
_cell_length_c   13.41078592
_cell_angle_alpha   95.94792625
_cell_angle_beta   106.66606887
_cell_angle_gamma   90.00000000
_symmetry_Int_Tables_number   1
_chemical_formula_structural   B20H26O
_chemical_formula_sum   'B40 H52 O2'
_cell_volume   1021.51771916
_cell_formula_units_Z   2
loop_
 _symmetry_equiv_pos_site_id
 _symmetry_equiv_pos_as_xyz
  1  'x, y, z'
loop_
 _atom_site_type_symbol
 _atom_site_label
 _atom_site_symmetry_multiplicity
 _atom_site_fract_x
 _atom_site_fract_y
 _atom_site_fract_z
 _atom_site_occupancy
  H  H0  1  0.809487  0.241301  0.667499  1
  H  H1  1  0.141989  0.258699  0.332501  1
  H  H2  1  0.190513  0.758699  0.332501  1
  H  H3  1  0.858011  0.741301  0.667499  1
  H  H4  1  0.588479  0.150939  0.683752  1
  H  H5  1  0.904726  0.349061  0.316248  1
  H  H6  1  0.411521  0.849061  0.316248  1
  H  H7  1  0.095274  0.650939  0.683752  1
  H  H8  1  0.675612  0.191451  0.848129  1
  H  H9  1  0.827483  0.308549  0.151871  1
  H  H10  1  0.324388  0.808549  0.151871  1
  H  H11  1  0.172517  0.691451  0.848129  1
  H  H12  1  0.893779  0.277242  0.834484  1
  H  H13  1  0.059295  0.222758  0.165516  1
  H  H14  1  0.106221  0.722758  0.165516  1
  H  H15  1  0.940705  0.777242  0.834484  1
  H  H16  1  0.875262  0.411756  0.633628  1
  H  H17  1  0.241634  0.088244  0.366372  1
  H  H18  1  0.124738  0.588244  0.366372  1
  H  H19  1  0.758366  0.911756  0.633628  1
  H  H20  1  0.501121  0.175025  0.385081  1
  H  H21  1  0.116040  0.324975  0.614919  1
  H  H22  1  0.498879  0.824975  0.614919  1
  H  H23  1  0.883960  0.675025  0.385081  1
  H  H24  1  0.328598  0.184026  0.664536  1
  H  H25  1  0.664063  0.315974  0.335464  1
  H  H26  1  0.671402  0.815974  0.335464  1
  H  H27  1  0.335937  0.684026  0.664536  1
  H  H28  1  0.461675  0.238029  0.900392  1
  H  H29  1  0.561282  0.261971  0.099608  1
  H  H30  1  0.538325  0.761971  0.099608  1
  H  H31  1  0.438718  0.738029  0.900392  1
  H  H32  1  0.017792  0.452041  0.871221  1
  H  H33  1  0.146572  0.047959  0.128779  1
  H  H34  1  0.982208  0.547959  0.128779  1
  H  H35  1  0.853428  0.952041  0.871221  1
  H  H36  1  0.447474  0.432184  0.575006  1
  H  H37  1  0.872468  0.067816  0.424994  1
  H  H38  1  0.552526  0.567816  0.424994  1
  H  H39  1  0.127532  0.932184  0.575006  1
  H  H40  1  0.343915  0.446893  0.773274  1
  H  H41  1  0.570640  0.053107  0.226726  1
  H  H42  1  0.049302  0.092187  0.754933  1
  H  H43  1  0.294370  0.407813  0.245067  1
  H  H44  1  0.950698  0.907813  0.245067  1
  H  H45  1  0.705630  0.592187  0.754933  1
  H  H46  1  0.278067  0.008304  0.951903  1
  H  H47  1  0.326164  0.491696  0.048097  1
  H  H48  1  0.721933  0.991696  0.048097  1
  H  H49  1  0.673836  0.508304  0.951903  1
  H  H50  1  0.429360  0.946893  0.773274  1
  H  H51  1  0.656085  0.553107  0.226726  1
  B  B52  1  0.781172  0.374253  0.682332  1
  B  B53  1  0.098840  0.125747  0.317668  1
  B  B54  1  0.218828  0.625747  0.317668  1
  B  B55  1  0.901160  0.874253  0.682332  1
  B  B56  1  0.635286  0.237987  0.634426  1
  B  B57  1  0.000860  0.262013  0.365574  1
  B  B58  1  0.364714  0.762013  0.365574  1
  B  B59  1  0.999140  0.737987  0.634426  1
  B  B60  1  0.467464  0.245779  0.699857  1
  B  B61  1  0.767607  0.254221  0.300143  1
  B  B62  1  0.532536  0.754221  0.300143  1
  B  B63  1  0.232393  0.745779  0.699857  1
  B  B64  1  0.554078  0.276671  0.851493  1
  B  B65  1  0.702585  0.223329  0.148507  1
  B  B66  1  0.445922  0.723329  0.148507  1
  B  B67  1  0.297415  0.776671  0.851493  1
  B  B68  1  0.796548  0.291320  0.909249  1
  B  B69  1  0.887299  0.208680  0.090751  1
  B  B70  1  0.203452  0.708680  0.090751  1
  B  B71  1  0.112701  0.791320  0.909249  1
  B  B72  1  0.871466  0.400774  0.833284  1
  B  B73  1  0.038181  0.099226  0.166716  1
  B  B74  1  0.128534  0.599226  0.166716  1
  B  B75  1  0.961819  0.900774  0.833284  1
  B  B76  1  0.538528  0.382976  0.648461  1
  B  B77  1  0.890067  0.117024  0.351539  1
  B  B78  1  0.461472  0.617024  0.351539  1
  B  B79  1  0.109933  0.882976  0.648461  1
  B  B80  1  0.484408  0.400246  0.769834  1
  B  B81  1  0.714575  0.099754  0.230166  1
  B  B82  1  0.515592  0.599754  0.230166  1
  B  B83  1  0.285425  0.900246  0.769834  1
  B  B84  1  0.676631  0.429994  0.880761  1
  B  B85  1  0.795870  0.070006  0.119239  1
  B  B86  1  0.323369  0.570006  0.119239  1
  B  B87  1  0.204130  0.929994  0.880761  1
  B  B88  1  0.681953  0.479436  0.759540  1
  B  B89  1  0.922413  0.020564  0.240460  1
  B  B90  1  0.318047  0.520564  0.240460  1
  B  B91  1  0.077587  0.979436  0.759540  1
  O  O92  1  0.904422  0.250000  0.000000  1
  O  O93  1  0.095578  0.750000  0.000000  1
