# generated using pymatgen
data_LiBi2(PO4)3
_symmetry_space_group_name_H-M   'P 1'
_cell_length_a   9.17112896
_cell_length_b   12.95110120
_cell_length_c   9.25915537
_cell_angle_alpha   90.00000000
_cell_angle_beta   90.00000000
_cell_angle_gamma   89.49558037
_symmetry_Int_Tables_number   1
_chemical_formula_structural   LiBi2(PO4)3
_chemical_formula_sum   'Li4 Bi8 P12 O48'
_cell_volume   1099.72484998
_cell_formula_units_Z   4
loop_
 _symmetry_equiv_pos_site_id
 _symmetry_equiv_pos_as_xyz
  1  'x, y, z'
loop_
 _atom_site_type_symbol
 _atom_site_label
 _atom_site_symmetry_multiplicity
 _atom_site_fract_x
 _atom_site_fract_y
 _atom_site_fract_z
 _atom_site_occupancy
  Li  Li0  1  0.792851  0.180045  0.270266  1
  Li  Li1  1  0.211361  0.179973  0.771993  1
  Li  Li2  1  0.292851  0.680045  0.229734  1
  Li  Li3  1  0.711361  0.679973  0.728007  1
  Bi  Bi4  1  0.750812  0.888812  0.533022  1
  Bi  Bi5  1  0.760920  0.611579  0.055966  1
  Bi  Bi6  1  0.251025  0.622281  0.558856  1
  Bi  Bi7  1  0.241860  0.883288  0.028194  1
  Bi  Bi8  1  0.250812  0.388812  0.966978  1
  Bi  Bi9  1  0.751025  0.122281  0.941144  1
  Bi  Bi10  1  0.741860  0.383288  0.471806  1
  Bi  Bi11  1  0.260920  0.111579  0.444034  1
  P  P12  1  0.386248  0.344939  0.598812  1
  P  P13  1  0.556122  0.004540  0.246390  1
  P  P14  1  0.886248  0.844939  0.901188  1
  P  P15  1  0.056122  0.504540  0.253610  1
  P  P16  1  0.602148  0.651584  0.405351  1
  P  P17  1  0.106781  0.848679  0.396599  1
  P  P18  1  0.947772  0.497541  0.756364  1
  P  P19  1  0.907716  0.150123  0.597894  1
  P  P20  1  0.407716  0.650123  0.902106  1
  P  P21  1  0.102148  0.151584  0.094649  1
  P  P22  1  0.447772  0.997541  0.743636  1
  P  P23  1  0.606781  0.348679  0.103401  1
  O  O24  1  0.037689  0.560762  0.649831  1
  O  O25  1  0.641989  0.544961  0.465385  1
  O  O26  1  0.667590  0.678099  0.255704  1
  O  O27  1  0.345600  0.454819  0.553988  1
  O  O28  1  0.816139  0.812791  0.752719  1
  O  O29  1  0.136536  0.966526  0.407412  1
  O  O30  1  0.662944  0.305299  0.249650  1
  O  O31  1  0.034927  0.434768  0.869900  1
  O  O32  1  0.674641  0.289090  0.976840  1
  O  O33  1  0.479465  0.075539  0.361574  1
  O  O34  1  0.168644  0.224844  0.975405  1
  O  O35  1  0.316139  0.312791  0.747281  1
  O  O36  1  0.534927  0.934768  0.630100  1
  O  O37  1  0.162944  0.805299  0.250350  1
  O  O38  1  0.346500  0.080205  0.667868  1
  O  O39  1  0.579332  0.656875  0.903682  1
  O  O40  1  0.167590  0.178099  0.244296  1
  O  O41  1  0.163241  0.579413  0.327663  1
  O  O42  1  0.936404  0.835608  0.393678  1
  O  O43  1  0.668644  0.724844  0.524595  1
  O  O44  1  0.537689  0.060762  0.850169  1
  O  O45  1  0.315634  0.275891  0.478105  1
  O  O46  1  0.643555  0.916894  0.324762  1
  O  O47  1  0.868184  0.195048  0.746554  1
  O  O48  1  0.436404  0.335608  0.106322  1
  O  O49  1  0.141989  0.044961  0.034615  1
  O  O50  1  0.663241  0.079413  0.172337  1
  O  O51  1  0.951204  0.450666  0.355224  1
  O  O52  1  0.841764  0.213109  0.471278  1
  O  O53  1  0.851595  0.417178  0.680606  1
  O  O54  1  0.451204  0.950666  0.144776  1
  O  O55  1  0.174641  0.789090  0.523160  1
  O  O56  1  0.815634  0.775891  0.021895  1
  O  O57  1  0.079332  0.156875  0.596318  1
  O  O58  1  0.341764  0.713109  0.028722  1
  O  O59  1  0.636536  0.466526  0.092588  1
  O  O60  1  0.935563  0.168041  0.107385  1
  O  O61  1  0.845599  0.954819  0.946012  1
  O  O62  1  0.551903  0.326581  0.608810  1
  O  O63  1  0.051903  0.826581  0.891190  1
  O  O64  1  0.368184  0.695048  0.753446  1
  O  O65  1  0.859826  0.036706  0.585078  1
  O  O66  1  0.143555  0.416894  0.175238  1
  O  O67  1  0.979465  0.575539  0.138426  1
  O  O68  1  0.359826  0.536706  0.914922  1
  O  O69  1  0.846500  0.580205  0.832132  1
  O  O70  1  0.351595  0.917178  0.819394  1
  O  O71  1  0.435563  0.668041  0.392615  1
