# generated using pymatgen
data_Ce3Co4Sn13
_symmetry_space_group_name_H-M   'P 1'
_cell_length_a   9.61427813
_cell_length_b   9.61427813
_cell_length_c   9.61427813
_cell_angle_alpha   90.00000000
_cell_angle_beta   90.00000000
_cell_angle_gamma   90.00000000
_symmetry_Int_Tables_number   1
_chemical_formula_structural   Ce3Co4Sn13
_chemical_formula_sum   'Ce6 Co8 Sn26'
_cell_volume   888.68949161
_cell_formula_units_Z   2
loop_
 _symmetry_equiv_pos_site_id
 _symmetry_equiv_pos_as_xyz
  1  'x, y, z'
loop_
 _atom_site_type_symbol
 _atom_site_label
 _atom_site_symmetry_multiplicity
 _atom_site_fract_x
 _atom_site_fract_y
 _atom_site_fract_z
 _atom_site_occupancy
  Co  Co0  1  0.250000  0.250000  0.250000  1
  Co  Co1  1  0.750000  0.250000  0.250000  1
  Co  Co2  1  0.250000  0.250000  0.750000  1
  Co  Co3  1  0.250000  0.750000  0.250000  1
  Co  Co4  1  0.750000  0.750000  0.750000  1
  Co  Co5  1  0.250000  0.750000  0.750000  1
  Co  Co6  1  0.750000  0.750000  0.250000  1
  Co  Co7  1  0.750000  0.250000  0.750000  1
  Sn  Sn8  1  0.500000  0.342850  0.196585  1
  Sn  Sn9  1  0.803415  0.500000  0.342850  1
  Sn  Sn10  1  0.196585  0.500000  0.342850  1
  Sn  Sn11  1  0.657150  0.196585  0.500000  1
  Sn  Sn12  1  0.342850  0.196585  0.500000  1
  Sn  Sn13  1  0.500000  0.657150  0.803415  1
  Sn  Sn14  1  0.000000  0.000000  0.000000  1
  Sn  Sn15  1  0.500000  0.500000  0.500000  1
  Sn  Sn16  1  0.000000  0.303415  0.157150  1
  Sn  Sn17  1  0.500000  0.342850  0.803415  1
  Sn  Sn18  1  0.500000  0.657150  0.196585  1
  Sn  Sn19  1  0.657150  0.803415  0.500000  1
  Sn  Sn20  1  0.342850  0.803415  0.500000  1
  Sn  Sn21  1  0.196585  0.500000  0.657150  1
  Sn  Sn22  1  0.803415  0.500000  0.657150  1
  Sn  Sn23  1  0.157150  0.000000  0.303415  1
  Sn  Sn24  1  0.303415  0.157150  0.000000  1
  Sn  Sn25  1  0.696585  0.842850  0.000000  1
  Sn  Sn26  1  0.157150  0.000000  0.696585  1
  Sn  Sn27  1  0.696585  0.157150  0.000000  1
  Sn  Sn28  1  0.842850  0.000000  0.303415  1
  Sn  Sn29  1  0.842850  0.000000  0.696585  1
  Sn  Sn30  1  0.303415  0.842850  0.000000  1
  Sn  Sn31  1  0.000000  0.696585  0.842850  1
  Sn  Sn32  1  0.000000  0.303415  0.842850  1
  Sn  Sn33  1  0.000000  0.696585  0.157150  1
  Ce  Ce34  1  0.000000  0.250000  0.500000  1
  Ce  Ce35  1  0.000000  0.750000  0.500000  1
  Ce  Ce36  1  0.500000  0.000000  0.750000  1
  Ce  Ce37  1  0.500000  0.000000  0.250000  1
  Ce  Ce38  1  0.750000  0.500000  0.000000  1
  Ce  Ce39  1  0.250000  0.500000  0.000000  1
