# generated using pymatgen
data_LaS
_symmetry_space_group_name_H-M   'P 1'
_cell_length_a   4.07550445
_cell_length_b   4.07550446
_cell_length_c   10.60025981
_cell_angle_alpha   90.00000000
_cell_angle_beta   90.00000000
_cell_angle_gamma   90.01455043
_symmetry_Int_Tables_number   1
_chemical_formula_structural   LaS
_chemical_formula_sum   'La2 S2'
_cell_volume   176.06751738
_cell_formula_units_Z   2
loop_
 _symmetry_equiv_pos_site_id
 _symmetry_equiv_pos_as_xyz
  1  'x, y, z'
loop_
 _atom_site_type_symbol
 _atom_site_label
 _atom_site_symmetry_multiplicity
 _atom_site_fract_x
 _atom_site_fract_y
 _atom_site_fract_z
 _atom_site_occupancy
  S  S0  1  0.747014  0.247014  0.654562  1
  S  S1  1  0.247014  0.747014  0.345438  1
  La  La2  1  0.246986  0.746986  0.621591  1
  La  La3  1  0.746986  0.246986  0.378409  1
