# generated using pymatgen
data_Sc11(AlGe4)2
_symmetry_space_group_name_H-M   'P 1'
_cell_length_a   10.44689422
_cell_length_b   10.44689422
_cell_length_c   10.53890465
_cell_angle_alpha   119.71161354
_cell_angle_beta   119.71161356
_cell_angle_gamma   89.99999997
_symmetry_Int_Tables_number   1
_chemical_formula_structural   Sc11(AlGe4)2
_chemical_formula_sum   'Sc22 Al4 Ge16'
_cell_volume   820.34684307
_cell_formula_units_Z   2
loop_
 _symmetry_equiv_pos_site_id
 _symmetry_equiv_pos_as_xyz
  1  'x, y, z'
loop_
 _atom_site_type_symbol
 _atom_site_label
 _atom_site_symmetry_multiplicity
 _atom_site_fract_x
 _atom_site_fract_y
 _atom_site_fract_z
 _atom_site_occupancy
  Al  Al0  1  0.127140  0.872860  0.000000  1
  Al  Al1  1  0.872860  0.127140  0.000000  1
  Al  Al2  1  0.127140  0.127140  0.000000  1
  Al  Al3  1  0.872860  0.872860  0.000000  1
  Sc  Sc4  1  0.689735  0.941180  0.379470  1
  Sc  Sc5  1  0.941180  0.689735  0.379470  1
  Sc  Sc6  1  0.438290  0.689735  0.379470  1
  Sc  Sc7  1  0.310265  0.058820  0.620530  1
  Sc  Sc8  1  0.102768  0.438809  0.205535  1
  Sc  Sc9  1  0.766726  0.102768  0.205535  1
  Sc  Sc10  1  0.438809  0.102768  0.205535  1
  Sc  Sc11  1  0.897232  0.561191  0.794465  1
  Sc  Sc12  1  0.897232  0.233274  0.794465  1
  Sc  Sc13  1  0.233274  0.897232  0.794465  1
  Sc  Sc14  1  0.561191  0.897232  0.794465  1
  Sc  Sc15  1  0.102768  0.766726  0.205535  1
  Sc  Sc16  1  0.328300  0.328300  0.000000  1
  Sc  Sc17  1  0.671700  0.328300  0.000000  1
  Sc  Sc18  1  0.328300  0.671700  0.000000  1
  Sc  Sc19  1  0.671700  0.671700  0.000000  1
  Sc  Sc20  1  0.169275  0.169275  0.338550  1
  Sc  Sc21  1  0.830725  0.830725  0.661450  1
  Sc  Sc22  1  0.561710  0.310265  0.620530  1
  Sc  Sc23  1  0.058820  0.310265  0.620530  1
  Sc  Sc24  1  0.310265  0.561710  0.620530  1
  Sc  Sc25  1  0.689735  0.438290  0.379470  1
  Ge  Ge26  1  0.374460  0.374460  0.341206  1
  Ge  Ge27  1  0.966746  0.374460  0.341206  1
  Ge  Ge28  1  0.374460  0.966746  0.341206  1
  Ge  Ge29  1  0.033254  0.625540  0.658794  1
  Ge  Ge30  1  0.625540  0.033254  0.658794  1
  Ge  Ge31  1  0.033254  0.033254  0.658794  1
  Ge  Ge32  1  0.625540  0.625540  0.658794  1
  Ge  Ge33  1  0.966746  0.966746  0.341206  1
  Ge  Ge34  1  0.147055  0.500000  0.000000  1
  Ge  Ge35  1  0.500000  0.147055  0.000000  1
  Ge  Ge36  1  0.500000  0.852945  0.000000  1
  Ge  Ge37  1  0.852945  0.500000  0.000000  1
  Ge  Ge38  1  0.381986  0.381986  0.763972  1
  Ge  Ge39  1  0.618014  0.618014  0.236028  1
  Ge  Ge40  1  0.250000  0.750000  0.500000  1
  Ge  Ge41  1  0.750000  0.250000  0.500000  1
