# generated using pymatgen
data_FeBiO3
_symmetry_space_group_name_H-M   'P 1'
_cell_length_a   4.07632033
_cell_length_b   4.07632006
_cell_length_c   4.07632007
_cell_angle_alpha   88.46952713
_cell_angle_beta   88.46952697
_cell_angle_gamma   88.46952385
_symmetry_Int_Tables_number   1
_chemical_formula_structural   FeBiO3
_chemical_formula_sum   'Fe1 Bi1 O3'
_cell_volume   67.66248537
_cell_formula_units_Z   1
loop_
 _symmetry_equiv_pos_site_id
 _symmetry_equiv_pos_as_xyz
  1  'x, y, z'
loop_
 _atom_site_type_symbol
 _atom_site_label
 _atom_site_symmetry_multiplicity
 _atom_site_fract_x
 _atom_site_fract_y
 _atom_site_fract_z
 _atom_site_occupancy
  Fe  Fe0  1  0.514385  0.514385  0.514385  1
  Bi  Bi1  1  0.090212  0.090212  0.090212  1
  O  O2  1  0.465779  0.992846  0.465779  1
  O  O3  1  0.992846  0.465779  0.465779  1
  O  O4  1  0.465779  0.465779  0.992846  1
