# generated using pymatgen
data_VO2
_symmetry_space_group_name_H-M   'P 1'
_cell_length_a   3.85210799
_cell_length_b   6.36554453
_cell_length_c   6.36660610
_cell_angle_alpha   84.74219538
_cell_angle_beta   107.60928318
_cell_angle_gamma   107.61232648
_symmetry_Int_Tables_number   1
_chemical_formula_structural   VO2
_chemical_formula_sum   'V4 O8'
_cell_volume   141.82395080
_cell_formula_units_Z   4
loop_
 _symmetry_equiv_pos_site_id
 _symmetry_equiv_pos_as_xyz
  1  'x, y, z'
loop_
 _atom_site_type_symbol
 _atom_site_label
 _atom_site_symmetry_multiplicity
 _atom_site_fract_x
 _atom_site_fract_y
 _atom_site_fract_z
 _atom_site_occupancy
  V  V0  1  0.002821  0.299207  0.706436  1
  V  V1  1  0.997179  0.700793  0.293564  1
  V  V2  1  0.296356  0.293513  0.299200  1
  V  V3  1  0.703644  0.706487  0.700800  1
  O  O4  1  0.844750  0.002433  0.687066  1
  O  O5  1  0.157613  0.312841  0.002384  1
  O  O6  1  0.155250  0.997567  0.312934  1
  O  O7  1  0.842387  0.687159  0.997616  1
  O  O8  1  0.498555  0.647630  0.349480  1
  O  O9  1  0.501445  0.352370  0.650520  1
  O  O10  1  0.850925  0.349540  0.352310  1
  O  O11  1  0.149075  0.650460  0.647690  1
