# generated using pymatgen
data_LiTi2(PO4)3
_symmetry_space_group_name_H-M   'P 1'
_cell_length_a   8.49768968
_cell_length_b   8.44562384
_cell_length_c   8.93544449
_cell_angle_alpha   90.17839944
_cell_angle_beta   118.00570323
_cell_angle_gamma   59.86730314
_symmetry_Int_Tables_number   1
_chemical_formula_structural   LiTi2(PO4)3
_chemical_formula_sum   'Li2 Ti4 P6 O24'
_cell_volume   466.40341084
_cell_formula_units_Z   2
loop_
 _symmetry_equiv_pos_site_id
 _symmetry_equiv_pos_as_xyz
  1  'x, y, z'
loop_
 _atom_site_type_symbol
 _atom_site_label
 _atom_site_symmetry_multiplicity
 _atom_site_fract_x
 _atom_site_fract_y
 _atom_site_fract_z
 _atom_site_occupancy
  Li  Li0  1  0.609828  0.313959  0.858668  1
  Li  Li1  1  0.390172  0.686041  0.141332  1
  O  O2  1  0.995316  0.899498  0.722532  1
  O  O3  1  0.655136  0.840469  0.894491  1
  O  O4  1  0.982716  0.465266  0.810709  1
  O  O5  1  0.728306  0.483073  0.898576  1
  O  O6  1  0.387882  0.757760  0.924938  1
  O  O7  1  0.633392  0.982419  0.432083  1
  O  O8  1  0.810363  0.279537  0.714867  1
  O  O9  1  0.586823  0.638758  0.578870  1
  O  O10  1  0.269758  0.543934  0.787766  1
  O  O11  1  0.223890  0.795806  0.592162  1
  O  O12  1  0.658794  0.813077  0.204081  1
  O  O13  1  0.629371  0.107942  0.738853  1
  O  O14  1  0.370629  0.892058  0.261147  1
  O  O15  1  0.341206  0.186923  0.795919  1
  O  O16  1  0.776110  0.204194  0.407838  1
  O  O17  1  0.730242  0.456066  0.212234  1
  O  O18  1  0.413177  0.361242  0.421130  1
  O  O19  1  0.189637  0.720463  0.285133  1
  O  O20  1  0.366608  0.017581  0.567917  1
  O  O21  1  0.612118  0.242240  0.075062  1
  O  O22  1  0.271694  0.516927  0.101424  1
  O  O23  1  0.017284  0.534734  0.189291  1
  O  O24  1  0.344864  0.159531  0.105509  1
  O  O25  1  0.004684  0.100502  0.277468  1
  P  P26  1  0.776339  0.469969  0.748389  1
  P  P27  1  0.219405  0.749459  0.756262  1
  P  P28  1  0.502218  0.963752  0.252235  1
  P  P29  1  0.497782  0.036248  0.747765  1
  P  P30  1  0.780595  0.250541  0.243738  1
  P  P31  1  0.223661  0.530031  0.251611  1
  Ti  Ti32  1  0.284274  0.352662  0.936540  1
  Ti  Ti33  1  0.284432  0.864288  0.432375  1
  Ti  Ti34  1  0.715568  0.135712  0.567625  1
  Ti  Ti35  1  0.715726  0.647338  0.063460  1
