# generated using pymatgen
data_BaH2Cl2O7
_symmetry_space_group_name_H-M   'P 1'
_cell_length_a   7.58914364
_cell_length_b   7.58914364
_cell_length_c   7.84727420
_cell_angle_alpha   103.29242306
_cell_angle_beta   108.16137108
_cell_angle_gamma   116.10149161
_symmetry_Int_Tables_number   1
_chemical_formula_structural   BaH2Cl2O7
_chemical_formula_sum   'Ba2 H4 Cl4 O14'
_cell_volume   348.14649970
_cell_formula_units_Z   2
loop_
 _symmetry_equiv_pos_site_id
 _symmetry_equiv_pos_as_xyz
  1  'x, y, z'
loop_
 _atom_site_type_symbol
 _atom_site_label
 _atom_site_symmetry_multiplicity
 _atom_site_fract_x
 _atom_site_fract_y
 _atom_site_fract_z
 _atom_site_occupancy
  H  H0  1  0.059533  0.277820  0.365701  1
  H  H1  1  0.912119  0.193832  0.134299  1
  H  H2  1  0.940467  0.722180  0.634299  1
  H  H3  1  0.087881  0.806168  0.865701  1
  O  O4  1  0.057399  0.307399  0.250000  1
  O  O5  1  0.942601  0.692601  0.750000  1
  O  O6  1  0.751854  0.103305  0.529288  1
  O  O7  1  0.574018  0.722566  0.970712  1
  O  O8  1  0.248146  0.896694  0.470712  1
  O  O9  1  0.425982  0.277434  0.029288  1
  O  O10  1  0.140131  0.257428  0.611351  1
  O  O11  1  0.646078  0.028780  0.888649  1
  O  O12  1  0.859869  0.742572  0.388649  1
  O  O13  1  0.353922  0.971220  0.111351  1
  O  O14  1  0.038035  0.369335  0.860054  1
  O  O15  1  0.509281  0.677981  0.639946  1
  O  O16  1  0.961965  0.630665  0.139946  1
  O  O17  1  0.490719  0.322019  0.360054  1
  Cl  Cl18  1  0.512911  0.213068  0.189055  1
  Cl  Cl19  1  0.024013  0.823856  0.310945  1
  Cl  Cl20  1  0.487089  0.786932  0.810945  1
  Cl  Cl21  1  0.975987  0.176144  0.689055  1
  Ba  Ba22  1  0.394810  0.644810  0.250000  1
  Ba  Ba23  1  0.605190  0.355190  0.750000  1
