# generated using pymatgen
data_Ag2TeS3
_symmetry_space_group_name_H-M   'P 1'
_cell_length_a   6.77980420
_cell_length_b   6.77980419
_cell_length_c   8.15177019
_cell_angle_alpha   103.13351840
_cell_angle_beta   103.13351839
_cell_angle_gamma   118.62672752
_symmetry_Int_Tables_number   1
_chemical_formula_structural   Ag2TeS3
_chemical_formula_sum   'Ag4 Te2 S6'
_cell_volume   294.50057598
_cell_formula_units_Z   2
loop_
 _symmetry_equiv_pos_site_id
 _symmetry_equiv_pos_as_xyz
  1  'x, y, z'
loop_
 _atom_site_type_symbol
 _atom_site_label
 _atom_site_symmetry_multiplicity
 _atom_site_fract_x
 _atom_site_fract_y
 _atom_site_fract_z
 _atom_site_occupancy
  S  S0  1  0.937830  0.199051  0.054166  1
  S  S1  1  0.199051  0.937830  0.554166  1
  S  S2  1  0.791747  0.239199  0.515490  1
  S  S3  1  0.239199  0.791747  0.015490  1
  S  S4  1  0.508538  0.582307  0.592793  1
  S  S5  1  0.582307  0.508538  0.092793  1
  Ag  Ag6  1  0.504223  0.069385  0.875461  1
  Ag  Ag7  1  0.827937  0.738280  0.918338  1
  Ag  Ag8  1  0.069385  0.504223  0.375461  1
  Ag  Ag9  1  0.738280  0.827937  0.418338  1
  Te  Te10  1  0.190824  0.408279  0.902753  1
  Te  Te11  1  0.408279  0.190824  0.402753  1
