# generated using pymatgen
data_BNCl2
_symmetry_space_group_name_H-M   'P 1'
_cell_length_a   6.45173071
_cell_length_b   6.45173070
_cell_length_c   6.45173070
_cell_angle_alpha   89.76756068
_cell_angle_beta   89.76756063
_cell_angle_gamma   89.76756072
_symmetry_Int_Tables_number   1
_chemical_formula_structural   BNCl2
_chemical_formula_sum   'B3 N3 Cl6'
_cell_volume   268.54557588
_cell_formula_units_Z   3
loop_
 _symmetry_equiv_pos_site_id
 _symmetry_equiv_pos_as_xyz
  1  'x, y, z'
loop_
 _atom_site_type_symbol
 _atom_site_label
 _atom_site_symmetry_multiplicity
 _atom_site_fract_x
 _atom_site_fract_y
 _atom_site_fract_z
 _atom_site_occupancy
  B  B0  1  0.182660  0.934688  0.877980  1
  B  B1  1  0.877980  0.182660  0.934688  1
  B  B2  1  0.934688  0.877980  0.182660  1
  N  N3  1  0.822707  0.060288  0.114536  1
  N  N4  1  0.114536  0.822707  0.060288  1
  N  N5  1  0.060288  0.114536  0.822707  1
  Cl  Cl6  1  0.397380  0.856814  0.731548  1
  Cl  Cl7  1  0.731548  0.397380  0.856814  1
  Cl  Cl8  1  0.856814  0.731548  0.397380  1
  Cl  Cl9  1  0.610066  0.134044  0.256288  1
  Cl  Cl10  1  0.256288  0.610066  0.134044  1
  Cl  Cl11  1  0.134044  0.256288  0.610066  1
