# generated using pymatgen
data_BiPd
_symmetry_space_group_name_H-M   'P 1'
_cell_length_a   5.75015242
_cell_length_b   5.73430878
_cell_length_c   10.85224061
_cell_angle_alpha   90.00000000
_cell_angle_beta   90.00000000
_cell_angle_gamma   101.10184131
_symmetry_Int_Tables_number   1
_chemical_formula_structural   BiPd
_chemical_formula_sum   'Bi8 Pd8'
_cell_volume   351.13624428
_cell_formula_units_Z   8
loop_
 _symmetry_equiv_pos_site_id
 _symmetry_equiv_pos_as_xyz
  1  'x, y, z'
loop_
 _atom_site_type_symbol
 _atom_site_label
 _atom_site_symmetry_multiplicity
 _atom_site_fract_x
 _atom_site_fract_y
 _atom_site_fract_z
 _atom_site_occupancy
  Pd  Pd0  1  0.175961  0.170454  0.440731  1
  Pd  Pd1  1  0.824039  0.829546  0.940731  1
  Pd  Pd2  1  0.591362  0.597656  0.433481  1
  Pd  Pd3  1  0.408638  0.402344  0.933481  1
  Pd  Pd4  1  0.332225  0.842657  0.264654  1
  Pd  Pd5  1  0.667775  0.157343  0.764654  1
  Pd  Pd6  1  0.912169  0.406266  0.269696  1
  Pd  Pd7  1  0.087831  0.593734  0.769696  1
  Bi  Bi8  1  0.151408  0.113138  0.712798  1
  Bi  Bi9  1  0.848592  0.886862  0.212798  1
  Bi  Bi10  1  0.603173  0.640548  0.707504  1
  Bi  Bi11  1  0.396827  0.359452  0.207504  1
  Bi  Bi12  1  0.656428  0.116697  0.490963  1
  Bi  Bi13  1  0.343572  0.883303  0.990963  1
  Bi  Bi14  1  0.105348  0.649304  0.495071  1
  Bi  Bi15  1  0.894652  0.350696  0.995071  1
