# generated using pymatgen
data_RbGa2P2H5O11
_symmetry_space_group_name_H-M   'P 1'
_cell_length_a   9.76488261
_cell_length_b   9.74515892
_cell_length_c   9.84630505
_cell_angle_alpha   90.00000000
_cell_angle_beta   102.39899830
_cell_angle_gamma   90.00000000
_symmetry_Int_Tables_number   1
_chemical_formula_structural   RbGa2P2H5O11
_chemical_formula_sum   'Rb4 Ga8 P8 H20 O44'
_cell_volume   915.12362922
_cell_formula_units_Z   4
loop_
 _symmetry_equiv_pos_site_id
 _symmetry_equiv_pos_as_xyz
  1  'x, y, z'
loop_
 _atom_site_type_symbol
 _atom_site_label
 _atom_site_symmetry_multiplicity
 _atom_site_fract_x
 _atom_site_fract_y
 _atom_site_fract_z
 _atom_site_occupancy
  H  H0  1  0.768432  0.417588  0.967873  1
  H  H1  1  0.731568  0.917588  0.532127  1
  H  H2  1  0.231568  0.582412  0.032127  1
  H  H3  1  0.268432  0.082412  0.467873  1
  H  H4  1  0.768565  0.364629  0.120884  1
  H  H5  1  0.731435  0.864629  0.379116  1
  H  H6  1  0.231435  0.635371  0.879116  1
  H  H7  1  0.268565  0.135371  0.620884  1
  H  H8  1  0.106779  0.526777  0.176619  1
  H  H9  1  0.393221  0.026777  0.323381  1
  H  H10  1  0.893221  0.473223  0.823381  1
  H  H11  1  0.606779  0.973223  0.676619  1
  H  H12  1  0.945268  0.476203  0.105224  1
  H  H13  1  0.554732  0.976203  0.394776  1
  H  H14  1  0.054732  0.523797  0.894776  1
  H  H15  1  0.445268  0.023797  0.605224  1
  H  H16  1  0.570065  0.703718  0.521909  1
  H  H17  1  0.929935  0.203718  0.978091  1
  H  H18  1  0.429935  0.296282  0.478091  1
  H  H19  1  0.070065  0.796282  0.021909  1
  O  O20  1  0.820075  0.359769  0.043904  1
  O  O21  1  0.679925  0.859769  0.456096  1
  O  O22  1  0.179925  0.640231  0.956096  1
  O  O23  1  0.320075  0.140231  0.543904  1
  O  O24  1  0.006187  0.553669  0.151200  1
  O  O25  1  0.493813  0.053669  0.348800  1
  O  O26  1  0.993813  0.446331  0.848800  1
  O  O27  1  0.506187  0.946331  0.651200  1
  O  O28  1  0.503869  0.643637  0.557304  1
  O  O29  1  0.996131  0.143637  0.942696  1
  O  O30  1  0.496131  0.356363  0.442696  1
  O  O31  1  0.003869  0.856363  0.057304  1
  O  O32  1  0.739733  0.508882  0.511828  1
  O  O33  1  0.760267  0.008882  0.988172  1
  O  O34  1  0.260267  0.491118  0.488172  1
  O  O35  1  0.239733  0.991118  0.011828  1
  O  O36  1  0.787379  0.884037  0.220263  1
  O  O37  1  0.712621  0.384037  0.279737  1
  O  O38  1  0.212621  0.115963  0.779737  1
  O  O39  1  0.287379  0.615963  0.720263  1
  O  O40  1  0.444867  0.412091  0.701416  1
  O  O41  1  0.055133  0.912091  0.798584  1
  O  O42  1  0.555133  0.587909  0.298584  1
  O  O43  1  0.944867  0.087909  0.201416  1
  O  O44  1  0.818306  0.620359  0.316226  1
  O  O45  1  0.681694  0.120359  0.183774  1
  O  O46  1  0.181694  0.379641  0.683774  1
  O  O47  1  0.318306  0.879641  0.816226  1
  O  O48  1  0.722530  0.536722  0.802284  1
  O  O49  1  0.777470  0.036722  0.697716  1
  O  O50  1  0.277470  0.463278  0.197716  1
  O  O51  1  0.222530  0.963278  0.302284  1
  O  O52  1  0.696462  0.280829  0.696501  1
  O  O53  1  0.803538  0.780829  0.803499  1
  O  O54  1  0.303538  0.719171  0.303499  1
  O  O55  1  0.196462  0.219171  0.196501  1
  O  O56  1  0.055507  0.771165  0.339421  1
  O  O57  1  0.444493  0.271165  0.160579  1
  O  O58  1  0.944493  0.228835  0.660579  1
  O  O59  1  0.555507  0.728835  0.839421  1
  O  O60  1  0.759464  0.667785  0.026463  1
  O  O61  1  0.740536  0.167785  0.473537  1
  O  O62  1  0.240536  0.332215  0.973537  1
  O  O63  1  0.259464  0.832215  0.526463  1
  P  P64  1  0.704495  0.527121  0.350090  1
  P  P65  1  0.795505  0.027121  0.149910  1
  P  P66  1  0.295505  0.472879  0.649910  1
  P  P67  1  0.204495  0.972879  0.850090  1
  P  P68  1  0.709847  0.682897  0.867855  1
  P  P69  1  0.790153  0.182897  0.632145  1
  P  P70  1  0.290153  0.317103  0.132145  1
  P  P71  1  0.209847  0.817103  0.367855  1
  Ga  Ga72  1  0.902556  0.727967  0.184895  1
  Ga  Ga73  1  0.597444  0.227967  0.315105  1
  Ga  Ga74  1  0.097444  0.272033  0.815105  1
  Ga  Ga75  1  0.402556  0.772033  0.684895  1
  Ga  Ga76  1  0.611414  0.455008  0.629099  1
  Ga  Ga77  1  0.888586  0.955008  0.870901  1
  Ga  Ga78  1  0.388586  0.544992  0.370901  1
  Ga  Ga79  1  0.111414  0.044992  0.129099  1
  Rb  Rb80  1  0.983245  0.694035  0.600671  1
  Rb  Rb81  1  0.516755  0.194035  0.899329  1
  Rb  Rb82  1  0.016755  0.305965  0.399329  1
  Rb  Rb83  1  0.483245  0.805965  0.100671  1
