# generated using pymatgen
data_LiAlSi2H2O7
_symmetry_space_group_name_H-M   'P 1'
_cell_length_a   5.00688368
_cell_length_b   7.71322896
_cell_length_c   8.73666278
_cell_angle_alpha   114.44590013
_cell_angle_beta   90.13738329
_cell_angle_gamma   90.04608346
_symmetry_Int_Tables_number   1
_chemical_formula_structural   LiAlSi2H2O7
_chemical_formula_sum   'Li2 Al2 Si4 H4 O14'
_cell_volume   307.15441249
_cell_formula_units_Z   2
loop_
 _symmetry_equiv_pos_site_id
 _symmetry_equiv_pos_as_xyz
  1  'x, y, z'
loop_
 _atom_site_type_symbol
 _atom_site_label
 _atom_site_symmetry_multiplicity
 _atom_site_fract_x
 _atom_site_fract_y
 _atom_site_fract_z
 _atom_site_occupancy
  H  H0  1  0.679243  0.464253  0.488656  1
  H  H1  1  0.794324  0.457795  0.322307  1
  H  H2  1  0.175661  0.514095  0.514907  1
  H  H3  1  0.295897  0.532324  0.684298  1
  Li  Li4  1  0.869002  0.123624  0.300093  1
  Li  Li5  1  0.365721  0.857039  0.689200  1
  O  O6  1  0.329908  0.568434  0.591162  1
  O  O7  1  0.185458  0.956813  0.914088  1
  O  O8  1  0.833236  0.674117  0.841166  1
  O  O9  1  0.742225  0.941217  0.736684  1
  O  O10  1  0.889806  0.306692  0.739858  1
  O  O11  1  0.195629  0.972066  0.546621  1
  O  O12  1  0.245477  0.041429  0.267569  1
  O  O13  1  0.708535  0.026106  0.068870  1
  O  O14  1  0.334064  0.335197  0.156914  1
  O  O15  1  0.988826  0.536458  0.063154  1
  O  O16  1  0.393501  0.705267  0.269794  1
  O  O17  1  0.676986  0.017308  0.438821  1
  O  O18  1  0.487575  0.490471  0.945943  1
  O  O19  1  0.831208  0.414111  0.410465  1
  Al  Al20  1  0.873747  0.062966  0.619978  1
  Al  Al21  1  0.367455  0.092582  0.099624  1
  Si  Si22  1  0.302056  0.513275  0.108245  1
  Si  Si23  1  0.374658  0.936449  0.379784  1
  Si  Si24  1  0.802746  0.496963  0.896597  1
  Si  Si25  1  0.867285  0.902531  0.893390  1
