# generated using pymatgen
data_Ba2Bi2O5
_symmetry_space_group_name_H-M   'P 1'
_cell_length_a   6.13685359
_cell_length_b   7.53979790
_cell_length_c   7.68853430
_cell_angle_alpha   90.00000000
_cell_angle_beta   90.00000000
_cell_angle_gamma   98.90405635
_symmetry_Int_Tables_number   1
_chemical_formula_structural   Ba2Bi2O5
_chemical_formula_sum   'Ba4 Bi4 O10'
_cell_volume   351.46615476
_cell_formula_units_Z   2
loop_
 _symmetry_equiv_pos_site_id
 _symmetry_equiv_pos_as_xyz
  1  'x, y, z'
loop_
 _atom_site_type_symbol
 _atom_site_label
 _atom_site_symmetry_multiplicity
 _atom_site_fract_x
 _atom_site_fract_y
 _atom_site_fract_z
 _atom_site_occupancy
  Ba  Ba0  1  0.227079  0.864682  0.074196  1
  Ba  Ba1  1  0.272921  0.135318  0.574196  1
  Ba  Ba2  1  0.772921  0.135318  0.925804  1
  Ba  Ba3  1  0.727079  0.864682  0.425804  1
  Bi  Bi4  1  0.276504  0.366040  0.119991  1
  Bi  Bi5  1  0.223496  0.633960  0.619991  1
  Bi  Bi6  1  0.723496  0.633960  0.880009  1
  Bi  Bi7  1  0.776504  0.366040  0.380009  1
  O  O8  1  0.000000  0.500000  0.000000  1
  O  O9  1  0.500000  0.500000  0.500000  1
  O  O10  1  0.722792  0.812830  0.089688  1
  O  O11  1  0.777208  0.187170  0.589688  1
  O  O12  1  0.277208  0.187170  0.910312  1
  O  O13  1  0.222792  0.812830  0.410312  1
  O  O14  1  0.036053  0.183817  0.255843  1
  O  O15  1  0.463947  0.816183  0.755843  1
  O  O16  1  0.963947  0.816183  0.744157  1
  O  O17  1  0.536053  0.183817  0.244157  1
