# generated using pymatgen
data_U(PO3)4
_symmetry_space_group_name_H-M   'P 1'
_cell_length_a   8.44062688
_cell_length_b   8.48707675
_cell_length_c   8.85756944
_cell_angle_alpha   118.42314031
_cell_angle_beta   118.22883603
_cell_angle_gamma   90.45154352
_symmetry_Int_Tables_number   1
_chemical_formula_structural   U(PO3)4
_chemical_formula_sum   'U2 P8 O24'
_cell_volume   468.90754488
_cell_formula_units_Z   2
loop_
 _symmetry_equiv_pos_site_id
 _symmetry_equiv_pos_as_xyz
  1  'x, y, z'
loop_
 _atom_site_type_symbol
 _atom_site_label
 _atom_site_symmetry_multiplicity
 _atom_site_fract_x
 _atom_site_fract_y
 _atom_site_fract_z
 _atom_site_occupancy
  O  O0  1  0.091392  0.780790  0.906351  1
  O  O1  1  0.785671  0.901589  0.894931  1
  O  O2  1  0.438992  0.701944  0.654506  1
  O  O3  1  0.236070  0.730183  0.355868  1
  O  O4  1  0.804887  0.503961  0.028167  1
  O  O5  1  0.341663  0.627081  0.028875  1
  O  O6  1  0.220750  0.085379  0.893361  1
  O  O7  1  0.546319  0.663604  0.416035  1
  O  O8  1  0.005276  0.477743  0.881209  1
  O  O9  1  0.981888  0.848570  0.415143  1
  O  O10  1  0.144465  0.986373  0.303238  1
  O  O11  1  0.432093  0.132258  0.280917  1
  O  O12  1  0.535635  0.028649  0.954336  1
  O  O13  1  0.621244  0.772159  0.010255  1
  O  O14  1  0.968568  0.254866  0.281687  1
  O  O15  1  0.326205  0.053388  0.655715  1
  O  O16  1  0.667063  0.285193  0.654461  1
  O  O17  1  0.665067  0.964910  0.407101  1
  O  O18  1  0.104034  0.473131  0.655462  1
  O  O19  1  0.265668  0.417301  0.297548  1
  O  O20  1  0.841207  0.531146  0.405500  1
  O  O21  1  0.495848  0.337793  0.009646  1
  O  O22  1  0.779801  0.251864  0.428838  1
  O  O23  1  0.911938  0.210845  0.900627  1
  P  P24  1  0.387294  0.134963  0.886846  1
  P  P25  1  0.610511  0.849680  0.886572  1
  P  P26  1  0.850297  0.369127  0.880617  1
  P  P27  1  0.144505  0.605783  0.881933  1
  P  P28  1  0.156337  0.904834  0.423959  1
  P  P29  1  0.624487  0.143853  0.428319  1
  P  P30  1  0.918342  0.379974  0.428869  1
  P  P31  1  0.378861  0.618863  0.422904  1
  U  U32  1  0.665052  0.657921  0.218822  1
  U  U33  1  0.101270  0.094280  0.091181  1
