# generated using pymatgen
data_PH9C3Br3N
_symmetry_space_group_name_H-M   'P 1'
_cell_length_a   6.41332535
_cell_length_b   11.44464359
_cell_length_c   14.66600521
_cell_angle_alpha   90.00000000
_cell_angle_beta   99.25623821
_cell_angle_gamma   90.00000000
_symmetry_Int_Tables_number   1
_chemical_formula_structural   PH9C3Br3N
_chemical_formula_sum   'P4 H36 C12 Br12 N4'
_cell_volume   1062.44199789
_cell_formula_units_Z   4
loop_
 _symmetry_equiv_pos_site_id
 _symmetry_equiv_pos_as_xyz
  1  'x, y, z'
loop_
 _atom_site_type_symbol
 _atom_site_label
 _atom_site_symmetry_multiplicity
 _atom_site_fract_x
 _atom_site_fract_y
 _atom_site_fract_z
 _atom_site_occupancy
  H  H0  1  0.434053  0.082334  0.828093  1
  H  H1  1  0.065947  0.582334  0.671907  1
  H  H2  1  0.565947  0.917666  0.171907  1
  H  H3  1  0.934053  0.417666  0.328093  1
  H  H4  1  0.357639  0.053692  0.938363  1
  H  H5  1  0.142361  0.553692  0.561637  1
  H  H6  1  0.642361  0.946308  0.061637  1
  H  H7  1  0.857639  0.446308  0.438363  1
  H  H8  1  0.579149  0.145794  0.930670  1
  H  H9  1  0.920851  0.645794  0.569330  1
  H  H10  1  0.420851  0.854206  0.069330  1
  H  H11  1  0.079149  0.354206  0.430670  1
  H  H12  1  0.360597  0.279352  0.757834  1
  H  H13  1  0.495572  0.625631  0.606863  1
  H  H14  1  0.995572  0.874369  0.106863  1
  H  H15  1  0.504428  0.374369  0.393137  1
  H  H16  1  0.052606  0.152621  0.778123  1
  H  H17  1  0.004428  0.125631  0.893137  1
  H  H18  1  0.947394  0.847379  0.221877  1
  H  H19  1  0.552606  0.347379  0.278123  1
  H  H20  1  0.961959  0.268361  0.843492  1
  H  H21  1  0.538041  0.768361  0.656508  1
  H  H22  1  0.038041  0.731639  0.156508  1
  H  H23  1  0.461959  0.231639  0.343492  1
  H  H24  1  0.756780  0.110112  0.324677  1
  H  H25  1  0.743220  0.610112  0.175323  1
  H  H26  1  0.243220  0.889888  0.675323  1
  H  H27  1  0.256780  0.389888  0.824677  1
  H  H28  1  0.020873  0.161373  0.358493  1
  H  H29  1  0.479127  0.661373  0.141507  1
  H  H30  1  0.979127  0.838627  0.641507  1
  H  H31  1  0.520873  0.338627  0.858493  1
  H  H32  1  0.860597  0.220648  0.257834  1
  H  H33  1  0.639403  0.720648  0.242166  1
  H  H34  1  0.139403  0.779352  0.742166  1
  H  H35  1  0.447394  0.652621  0.721877  1
  C  C36  1  0.562666  0.309846  0.347942  1
  C  C37  1  0.937334  0.809846  0.152058  1
  C  C38  1  0.437334  0.690154  0.652058  1
  C  C39  1  0.062666  0.190154  0.847942  1
  C  C40  1  0.359799  0.312734  0.828360  1
  C  C41  1  0.140201  0.812734  0.671640  1
  C  C42  1  0.640201  0.687266  0.171640  1
  C  C43  1  0.859799  0.187266  0.328360  1
  C  C44  1  0.421005  0.119999  0.896289  1
  C  C45  1  0.078995  0.619999  0.603711  1
  C  C46  1  0.578995  0.880001  0.103711  1
  C  C47  1  0.921005  0.380001  0.396289  1
  N  N48  1  0.281534  0.222635  0.886234  1
  N  N49  1  0.218466  0.722635  0.613766  1
  N  N50  1  0.718466  0.777365  0.113766  1
  N  N51  1  0.781534  0.277365  0.386234  1
  P  P52  1  0.736417  0.172851  0.523668  1
  P  P53  1  0.763583  0.672851  0.976332  1
  P  P54  1  0.263583  0.827149  0.476332  1
  P  P55  1  0.236417  0.327149  0.023668  1
  Br  Br56  1  0.852145  0.547319  0.851197  1
  Br  Br57  1  0.352145  0.952681  0.351197  1
  Br  Br58  1  0.147855  0.452681  0.148803  1
  Br  Br59  1  0.647855  0.047319  0.648803  1
  Br  Br60  1  0.176473  0.156328  0.094524  1
  Br  Br61  1  0.323527  0.656328  0.405476  1
  Br  Br62  1  0.823527  0.843672  0.905476  1
  Br  Br63  1  0.676473  0.343672  0.594524  1
  Br  Br64  1  0.590530  0.344502  0.063701  1
  Br  Br65  1  0.909470  0.844502  0.436299  1
  Br  Br66  1  0.409470  0.655498  0.936299  1
  Br  Br67  1  0.090530  0.155498  0.563701  1
