# generated using pymatgen
data_SbXeF9
_symmetry_space_group_name_H-M   'P 1'
_cell_length_a   5.56440815
_cell_length_b   9.02564127
_cell_length_c   15.85542407
_cell_angle_alpha   90.00000000
_cell_angle_beta   90.00000000
_cell_angle_gamma   102.86677687
_symmetry_Int_Tables_number   1
_chemical_formula_structural   SbXeF9
_chemical_formula_sum   'Sb4 Xe4 F36'
_cell_volume   776.30206088
_cell_formula_units_Z   4
loop_
 _symmetry_equiv_pos_site_id
 _symmetry_equiv_pos_as_xyz
  1  'x, y, z'
loop_
 _atom_site_type_symbol
 _atom_site_label
 _atom_site_symmetry_multiplicity
 _atom_site_fract_x
 _atom_site_fract_y
 _atom_site_fract_z
 _atom_site_occupancy
  F  F0  1  0.454322  0.154825  0.364855  1
  F  F1  1  0.045678  0.345175  0.864855  1
  F  F2  1  0.545678  0.845175  0.635145  1
  F  F3  1  0.954322  0.654825  0.135145  1
  F  F4  1  0.066339  0.273232  0.479283  1
  F  F5  1  0.433661  0.226768  0.979283  1
  F  F6  1  0.933661  0.726768  0.520717  1
  F  F7  1  0.566339  0.773232  0.020717  1
  F  F8  1  0.096453  0.664089  0.971097  1
  F  F9  1  0.403547  0.835911  0.471097  1
  F  F10  1  0.903547  0.335911  0.028903  1
  F  F11  1  0.596453  0.164089  0.528903  1
  F  F12  1  0.230000  0.913186  0.870196  1
  F  F13  1  0.270000  0.586814  0.370196  1
  F  F14  1  0.770000  0.086814  0.129804  1
  F  F15  1  0.730000  0.413186  0.629804  1
  F  F16  1  0.859927  0.935266  0.778904  1
  F  F17  1  0.640073  0.564734  0.278904  1
  F  F18  1  0.140073  0.064734  0.221096  1
  F  F19  1  0.359927  0.435266  0.721096  1
  F  F20  1  0.539842  0.699373  0.827722  1
  F  F21  1  0.960158  0.800627  0.327722  1
  F  F22  1  0.460158  0.300627  0.172278  1
  F  F23  1  0.039842  0.199373  0.672278  1
  F  F24  1  0.205563  0.920057  0.063493  1
  F  F25  1  0.294437  0.579943  0.563493  1
  F  F26  1  0.794437  0.079943  0.936507  1
  F  F27  1  0.705563  0.420057  0.436507  1
  F  F28  1  0.426670  0.780488  0.186904  1
  F  F29  1  0.073330  0.719512  0.686904  1
  F  F30  1  0.573330  0.219512  0.813096  1
  F  F31  1  0.926670  0.280488  0.313096  1
  F  F32  1  0.313103  0.516938  0.090149  1
  F  F33  1  0.186897  0.983062  0.590149  1
  F  F34  1  0.686897  0.483062  0.909851  1
  F  F35  1  0.813103  0.016938  0.409851  1
  Sb  Sb36  1  0.764615  0.222044  0.417906  1
  Sb  Sb37  1  0.735385  0.277956  0.917906  1
  Sb  Sb38  1  0.235385  0.777956  0.582094  1
  Sb  Sb39  1  0.264615  0.722044  0.082094  1
  Xe  Xe40  1  0.390580  0.280573  0.636682  1
  Xe  Xe41  1  0.109420  0.219427  0.136682  1
  Xe  Xe42  1  0.609420  0.719427  0.363318  1
  Xe  Xe43  1  0.890580  0.780573  0.863318  1
