# generated using pymatgen
data_URhS3
_symmetry_space_group_name_H-M   'P 1'
_cell_length_a   6.08346926
_cell_length_b   7.10613123
_cell_length_c   8.45104721
_cell_angle_alpha   90.00000000
_cell_angle_beta   90.00000000
_cell_angle_gamma   90.00000000
_symmetry_Int_Tables_number   1
_chemical_formula_structural   URhS3
_chemical_formula_sum   'U4 Rh4 S12'
_cell_volume   365.33818688
_cell_formula_units_Z   4
loop_
 _symmetry_equiv_pos_site_id
 _symmetry_equiv_pos_as_xyz
  1  'x, y, z'
loop_
 _atom_site_type_symbol
 _atom_site_label
 _atom_site_symmetry_multiplicity
 _atom_site_fract_x
 _atom_site_fract_y
 _atom_site_fract_z
 _atom_site_occupancy
  U  U0  1  0.433950  0.125371  0.750000  1
  U  U1  1  0.933950  0.374629  0.250000  1
  U  U2  1  0.566050  0.874629  0.250000  1
  U  U3  1  0.066050  0.625371  0.750000  1
  Rh  Rh4  1  0.500000  0.500000  -0.000000  1
  Rh  Rh5  1  -0.000000  0.000000  0.000000  1
  Rh  Rh6  1  -0.000000  0.000000  0.500000  1
  Rh  Rh7  1  0.500000  0.500000  0.500000  1
  S  S8  1  0.656568  0.179108  0.054280  1
  S  S9  1  0.843432  0.679108  0.445720  1
  S  S10  1  0.843432  0.679108  0.054280  1
  S  S11  1  0.165281  0.057098  0.250000  1
  S  S12  1  0.156568  0.320892  0.554280  1
  S  S13  1  0.334719  0.557098  0.250000  1
  S  S14  1  0.834719  0.942902  0.750000  1
  S  S15  1  0.156568  0.320892  0.945720  1
  S  S16  1  0.343432  0.820892  0.945720  1
  S  S17  1  0.656568  0.179108  0.445720  1
  S  S18  1  0.665281  0.442902  0.750000  1
  S  S19  1  0.343432  0.820892  0.554280  1
