# generated using pymatgen
data_LiSn2(PO4)3
_symmetry_space_group_name_H-M   'P 1'
_cell_length_a   8.52997677
_cell_length_b   9.16473317
_cell_length_c   14.70908275
_cell_angle_alpha   74.42373016
_cell_angle_beta   89.74444727
_cell_angle_gamma   62.10605838
_symmetry_Int_Tables_number   1
_chemical_formula_structural   LiSn2(PO4)3
_chemical_formula_sum   'Li4 Sn8 P12 O48'
_cell_volume   968.99401240
_cell_formula_units_Z   4
loop_
 _symmetry_equiv_pos_site_id
 _symmetry_equiv_pos_as_xyz
  1  'x, y, z'
loop_
 _atom_site_type_symbol
 _atom_site_label
 _atom_site_symmetry_multiplicity
 _atom_site_fract_x
 _atom_site_fract_y
 _atom_site_fract_z
 _atom_site_occupancy
  Li  Li0  1  0.724228  0.874023  0.655993  1
  Li  Li1  1  0.817124  0.123285  0.121594  1
  Li  Li2  1  0.182876  0.876715  0.878406  1
  Li  Li3  1  0.275772  0.125976  0.344007  1
  O  O4  1  0.901323  0.885924  0.423466  1
  O  O5  1  0.935582  0.803504  0.765233  1
  O  O6  1  0.916078  0.576234  0.896736  1
  O  O7  1  0.823485  0.731689  0.569118  1
  O  O8  1  0.735780  0.893628  0.892295  1
  O  O9  1  0.782458  0.796967  0.241255  1
  O  O10  1  0.987075  0.266595  0.871909  1
  O  O11  1  0.895612  0.412325  0.693617  1
  O  O12  1  0.882791  0.430508  0.487360  1
  O  O13  1  0.931649  0.264271  0.065279  1
  O  O14  1  0.995962  0.088083  0.770831  1
  O  O15  1  0.924190  0.202547  0.412389  1
  O  O16  1  0.532651  0.890846  0.735793  1
  O  O17  1  0.564701  0.805959  0.083170  1
  O  O18  1  0.566850  0.734693  0.443207  1
  O  O19  1  0.624809  0.574007  0.010355  1
  O  O20  1  0.598026  0.577497  0.810826  1
  O  O21  1  0.516344  0.724477  0.632911  1
  O  O22  1  0.449808  0.793391  0.271800  1
  O  O23  1  0.399451  0.888084  0.916561  1
  O  O24  1  0.685220  0.263689  0.947207  1
  O  O25  1  0.715979  0.194418  0.252803  1
  O  O26  1  0.599926  0.411606  0.597472  1
  O  O27  1  0.758437  0.087639  0.611688  1
  O  O28  1  0.241563  0.912361  0.388312  1
  O  O29  1  0.400074  0.588394  0.402528  1
  O  O30  1  0.284021  0.805582  0.747197  1
  O  O31  1  0.314780  0.736311  0.052793  1
  O  O32  1  0.600549  0.111916  0.083439  1
  O  O33  1  0.550192  0.206609  0.728200  1
  O  O34  1  0.483656  0.275523  0.367089  1
  O  O35  1  0.401974  0.422503  0.189174  1
  O  O36  1  0.375191  0.425993  0.989645  1
  O  O37  1  0.433150  0.265307  0.556793  1
  O  O38  1  0.435299  0.194041  0.916830  1
  O  O39  1  0.467349  0.109154  0.264207  1
  O  O40  1  0.075810  0.797453  0.587611  1
  O  O41  1  0.004038  0.911917  0.229169  1
  O  O42  1  0.068351  0.735729  0.934721  1
  O  O43  1  0.117209  0.569492  0.512640  1
  O  O44  1  0.104388  0.587675  0.306383  1
  O  O45  1  0.012925  0.733405  0.128091  1
  O  O46  1  0.217542  0.203033  0.758745  1
  O  O47  1  0.264220  0.106372  0.107705  1
  O  O48  1  0.176515  0.268311  0.430882  1
  O  O49  1  0.083922  0.423766  0.103264  1
  O  O50  1  0.064418  0.196496  0.234767  1
  O  O51  1  0.098677  0.114076  0.576534  1
  P  P52  1  0.982635  0.746248  0.521929  1
  P  P53  1  0.977356  0.753028  0.228111  1
  P  P54  1  0.910078  0.752375  0.872364  1
  P  P55  1  0.482951  0.747324  0.732276  1
  P  P56  1  0.480212  0.749216  0.017854  1
  P  P57  1  0.416130  0.752764  0.376380  1
  P  P58  1  0.583870  0.247236  0.623620  1
  P  P59  1  0.519788  0.250784  0.982146  1
  P  P60  1  0.517049  0.252675  0.267724  1
  P  P61  1  0.089922  0.247625  0.127636  1
  P  P62  1  0.022644  0.246972  0.771889  1
  P  P63  1  0.017365  0.253752  0.478071  1
  Sn  Sn64  1  0.787281  0.432077  0.929304  1
  Sn  Sn65  1  0.717327  0.564496  0.570792  1
  Sn  Sn66  1  0.523523  0.947254  0.175038  1
  Sn  Sn67  1  0.972331  0.044172  0.329169  1
  Sn  Sn68  1  0.027669  0.955828  0.670831  1
  Sn  Sn69  1  0.476477  0.052746  0.824962  1
  Sn  Sn70  1  0.282673  0.435504  0.429208  1
  Sn  Sn71  1  0.212719  0.567923  0.070696  1
