# generated using pymatgen
data_TbCl3
_symmetry_space_group_name_H-M   'P 1'
_cell_length_a   3.82281334
_cell_length_b   6.88718208
_cell_length_c   8.57883458
_cell_angle_alpha   90.00000000
_cell_angle_beta   90.00000000
_cell_angle_gamma   106.11290340
_symmetry_Int_Tables_number   1
_chemical_formula_structural   TbCl3
_chemical_formula_sum   'Tb2 Cl6'
_cell_volume   216.99427747
_cell_formula_units_Z   2
loop_
 _symmetry_equiv_pos_site_id
 _symmetry_equiv_pos_as_xyz
  1  'x, y, z'
loop_
 _atom_site_type_symbol
 _atom_site_label
 _atom_site_symmetry_multiplicity
 _atom_site_fract_x
 _atom_site_fract_y
 _atom_site_fract_z
 _atom_site_occupancy
  Cl  Cl0  1  0.158281  0.316563  0.068422  1
  Cl  Cl1  1  0.841719  0.683437  0.931578  1
  Cl  Cl2  1  0.599595  0.199190  0.750000  1
  Cl  Cl3  1  0.400405  0.800810  0.250000  1
  Cl  Cl4  1  0.158281  0.316563  0.431578  1
  Cl  Cl5  1  0.841719  0.683437  0.568422  1
  Tb  Tb6  1  0.759357  0.518715  0.250000  1
  Tb  Tb7  1  0.240643  0.481285  0.750000  1
