# generated using pymatgen
data_KSb4F13
_symmetry_space_group_name_H-M   'P 1'
_cell_length_a   6.40137940
_cell_length_b   7.63984536
_cell_length_c   7.63984536
_cell_angle_alpha   79.89128199
_cell_angle_beta   65.23187981
_cell_angle_gamma   65.23187989
_symmetry_Int_Tables_number   1
_chemical_formula_structural   KSb4F13
_chemical_formula_sum   'K1 Sb4 F13'
_cell_volume   308.05244513
_cell_formula_units_Z   1
loop_
 _symmetry_equiv_pos_site_id
 _symmetry_equiv_pos_as_xyz
  1  'x, y, z'
loop_
 _atom_site_type_symbol
 _atom_site_label
 _atom_site_symmetry_multiplicity
 _atom_site_fract_x
 _atom_site_fract_y
 _atom_site_fract_z
 _atom_site_occupancy
  F  F0  1  0.667036  0.332323  0.866197  1
  F  F1  1  0.466768  0.866197  0.667677  1
  F  F2  1  0.000641  0.133803  0.332323  1
  F  F3  1  0.865556  0.667677  0.133803  1
  F  F4  1  0.237142  0.774402  0.075997  1
  F  F5  1  0.750000  0.500000  0.500000  1
  F  F6  1  0.235159  0.450210  0.281429  1
  F  F7  1  0.483412  0.281429  0.549790  1
  F  F8  1  0.314631  0.718571  0.450210  1
  F  F9  1  0.966798  0.549790  0.718571  1
  F  F10  1  0.087542  0.225598  0.924003  1
  F  F11  1  0.988456  0.924003  0.774402  1
  F  F12  1  0.686861  0.075997  0.225598  1
  K  K13  1  0.500000  0.000000  0.000000  1
  Sb  Sb14  1  0.705113  0.316011  0.280501  1
  Sb  Sb15  1  0.014386  0.280501  0.683989  1
  Sb  Sb16  1  0.978876  0.719499  0.316011  1
  Sb  Sb17  1  0.301625  0.683989  0.719499  1
