# generated using pymatgen
data_ZnH8(NO5)2
_symmetry_space_group_name_H-M   'P 1'
_cell_length_a   5.38794594
_cell_length_b   5.76886516
_cell_length_c   27.32356755
_cell_angle_alpha   90.00000000
_cell_angle_beta   90.00000000
_cell_angle_gamma   112.10530657
_symmetry_Int_Tables_number   1
_chemical_formula_structural   ZnH8(NO5)2
_chemical_formula_sum   'Zn4 H32 N8 O40'
_cell_volume   786.85286422
_cell_formula_units_Z   4
loop_
 _symmetry_equiv_pos_site_id
 _symmetry_equiv_pos_as_xyz
  1  'x, y, z'
loop_
 _atom_site_type_symbol
 _atom_site_label
 _atom_site_symmetry_multiplicity
 _atom_site_fract_x
 _atom_site_fract_y
 _atom_site_fract_z
 _atom_site_occupancy
  H  H0  1  0.901923  0.076242  0.668833  1
  H  H1  1  0.598077  0.423758  0.168833  1
  H  H2  1  0.098077  0.923758  0.331167  1
  H  H3  1  0.401923  0.576242  0.831167  1
  H  H4  1  0.765314  0.168767  0.712462  1
  H  H5  1  0.734686  0.331233  0.212462  1
  H  H6  1  0.234686  0.831233  0.287538  1
  H  H7  1  0.265314  0.668767  0.787538  1
  H  H8  1  0.860182  0.566835  0.559083  1
  H  H9  1  0.639818  0.933165  0.059083  1
  H  H10  1  0.139818  0.433165  0.440917  1
  H  H11  1  0.360182  0.066835  0.940917  1
  H  H12  1  0.009920  0.418555  0.586211  1
  H  H13  1  0.490080  0.081445  0.086211  1
  H  H14  1  0.990080  0.581445  0.413789  1
  H  H15  1  0.509920  0.918555  0.913789  1
  H  H16  1  0.522171  0.770308  0.608826  1
  H  H17  1  0.977829  0.729692  0.108826  1
  H  H18  1  0.477829  0.229692  0.391174  1
  H  H19  1  0.022171  0.270308  0.891174  1
  H  H20  1  0.566219  0.880984  0.553779  1
  H  H21  1  0.933781  0.619016  0.053779  1
  H  H22  1  0.433781  0.119016  0.446221  1
  H  H23  1  0.066219  0.380984  0.946221  1
  H  H24  1  0.198581  0.847576  0.680701  1
  H  H25  1  0.301419  0.652424  0.180701  1
  H  H26  1  0.801419  0.152424  0.319299  1
  H  H27  1  0.698581  0.347576  0.819299  1
  H  H28  1  0.058182  0.798826  0.629323  1
  H  H29  1  0.441818  0.701174  0.129323  1
  H  H30  1  0.941818  0.201174  0.370677  1
  H  H31  1  0.558182  0.298826  0.870677  1
  N  N32  1  0.389927  0.508009  0.704645  1
  N  N33  1  0.110073  0.991991  0.204645  1
  N  N34  1  0.610073  0.491991  0.295355  1
  N  N35  1  0.889927  0.008009  0.795355  1
  N  N36  1  0.264821  0.262405  0.525264  1
  N  N37  1  0.235179  0.237595  0.025264  1
  N  N38  1  0.735179  0.737595  0.474736  1
  N  N39  1  0.764821  0.762405  0.974736  1
  O  O40  1  0.792367  0.176147  0.676583  1
  O  O41  1  0.707633  0.323853  0.176583  1
  O  O42  1  0.207633  0.823853  0.323417  1
  O  O43  1  0.292367  0.676147  0.823417  1
  O  O44  1  0.882431  0.504278  0.592014  1
  O  O45  1  0.617569  0.995722  0.092014  1
  O  O46  1  0.117569  0.495722  0.407986  1
  O  O47  1  0.382431  0.004278  0.907986  1
  O  O48  1  0.589210  0.924233  0.589142  1
  O  O49  1  0.910790  0.575767  0.089142  1
  O  O50  1  0.410790  0.075767  0.410858  1
  O  O51  1  0.089210  0.424233  0.910858  1
  O  O52  1  0.148481  0.935032  0.653085  1
  O  O53  1  0.351519  0.564968  0.153085  1
  O  O54  1  0.851519  0.064968  0.346915  1
  O  O55  1  0.648481  0.435032  0.846915  1
  O  O56  1  0.409517  0.341397  0.730992  1
  O  O57  1  0.090483  0.158603  0.230992  1
  O  O58  1  0.590483  0.658603  0.269008  1
  O  O59  1  0.909517  0.841397  0.769008  1
  O  O60  1  0.310448  0.673865  0.721001  1
  O  O61  1  0.189552  0.826135  0.221001  1
  O  O62  1  0.689552  0.326135  0.278999  1
  O  O63  1  0.810448  0.173865  0.778999  1
  O  O64  1  0.450584  0.517100  0.658268  1
  O  O65  1  0.049416  0.982900  0.158268  1
  O  O66  1  0.549416  0.482900  0.341732  1
  O  O67  1  0.950584  0.017100  0.841732  1
  O  O68  1  0.079292  0.278698  0.499855  1
  O  O69  1  0.420708  0.221302  0.999855  1
  O  O70  1  0.920708  0.721302  0.500145  1
  O  O71  1  0.579292  0.778698  0.000145  1
  O  O72  1  0.459791  0.222251  0.507588  1
  O  O73  1  0.040209  0.277749  0.007588  1
  O  O74  1  0.540209  0.777749  0.492412  1
  O  O75  1  0.959791  0.722251  0.992412  1
  O  O76  1  0.255672  0.291007  0.572373  1
  O  O77  1  0.244328  0.208993  0.072373  1
  O  O78  1  0.744328  0.708993  0.427627  1
  O  O79  1  0.755672  0.791007  0.927627  1
  Zn  Zn80  1  0.527253  0.216848  0.625098  1
  Zn  Zn81  1  0.972747  0.283152  0.125098  1
  Zn  Zn82  1  0.472747  0.783152  0.374902  1
  Zn  Zn83  1  0.027253  0.716848  0.874902  1
