# generated using pymatgen
data_RbLiBr2
_symmetry_space_group_name_H-M   'P 1'
_cell_length_a   4.41820121
_cell_length_b   7.78822634
_cell_length_c   7.98716552
_cell_angle_alpha   90.00000000
_cell_angle_beta   106.05627140
_cell_angle_gamma   90.00000000
_symmetry_Int_Tables_number   1
_chemical_formula_structural   RbLiBr2
_chemical_formula_sum   'Rb2 Li2 Br4'
_cell_volume   264.11668872
_cell_formula_units_Z   2
loop_
 _symmetry_equiv_pos_site_id
 _symmetry_equiv_pos_as_xyz
  1  'x, y, z'
loop_
 _atom_site_type_symbol
 _atom_site_label
 _atom_site_symmetry_multiplicity
 _atom_site_fract_x
 _atom_site_fract_y
 _atom_site_fract_z
 _atom_site_occupancy
  Li  Li0  1  0.893992  0.750000  0.787984  1
  Li  Li1  1  0.106008  0.250000  0.212016  1
  Br  Br2  1  0.306302  0.750000  0.612603  1
  Br  Br3  1  0.693698  0.250000  0.387397  1
  Br  Br4  1  0.000000  0.000000  0.000000  1
  Br  Br5  1  0.000000  0.500000  0.000000  1
  Rb  Rb6  1  0.627328  0.750000  0.254655  1
  Rb  Rb7  1  0.372673  0.250000  0.745345  1
