# generated using pymatgen
data_AsSe6IF6
_symmetry_space_group_name_H-M   'P 1'
_cell_length_a   7.16780798
_cell_length_b   9.33605008
_cell_length_c   10.84504298
_cell_angle_alpha   107.79131601
_cell_angle_beta   90.00000000
_cell_angle_gamma   90.00000000
_symmetry_Int_Tables_number   1
_chemical_formula_structural   AsSe6IF6
_chemical_formula_sum   'As2 Se12 I2 F12'
_cell_volume   691.03160881
_cell_formula_units_Z   2
loop_
 _symmetry_equiv_pos_site_id
 _symmetry_equiv_pos_as_xyz
  1  'x, y, z'
loop_
 _atom_site_type_symbol
 _atom_site_label
 _atom_site_symmetry_multiplicity
 _atom_site_fract_x
 _atom_site_fract_y
 _atom_site_fract_z
 _atom_site_occupancy
  F  F0  1  0.093876  0.671712  0.601037  1
  F  F1  1  0.093876  0.828288  0.898963  1
  F  F2  1  0.906124  0.328288  0.398963  1
  F  F3  1  0.906124  0.171712  0.101037  1
  F  F4  1  0.914288  0.595309  0.391975  1
  F  F5  1  0.914288  0.904691  0.108025  1
  F  F6  1  0.085712  0.404691  0.608025  1
  F  F7  1  0.085712  0.095309  0.891975  1
  F  F8  1  0.786952  0.539420  0.588084  1
  F  F9  1  0.786952  0.960580  0.911916  1
  F  F10  1  0.213048  0.460580  0.411916  1
  F  F11  1  0.213048  0.039420  0.088084  1
  As  As12  1  0.000000  0.000000  0.000000  1
  As  As13  1  0.000000  0.500000  0.500000  1
  Se  Se14  1  0.743460  0.947198  0.615084  1
  Se  Se15  1  0.240490  0.053132  0.609269  1
  Se  Se16  1  0.759510  0.553132  0.109269  1
  Se  Se17  1  0.759510  0.946868  0.390731  1
  Se  Se18  1  0.256540  0.447198  0.115084  1
  Se  Se19  1  0.256540  0.052802  0.384916  1
  Se  Se20  1  0.743460  0.552802  0.884916  1
  Se  Se21  1  0.427524  0.853941  0.616823  1
  Se  Se22  1  0.572476  0.353941  0.116823  1
  Se  Se23  1  0.572476  0.146059  0.383177  1
  Se  Se24  1  0.427524  0.646059  0.883177  1
  Se  Se25  1  0.240490  0.446868  0.890731  1
  I  I26  1  0.278818  0.750000  0.250000  1
  I  I27  1  0.721182  0.250000  0.750000  1
