# generated using pymatgen
data_KY3F10
_symmetry_space_group_name_H-M   'P 1'
_cell_length_a   8.27668056
_cell_length_b   8.27668055
_cell_length_c   8.27668055
_cell_angle_alpha   59.99999997
_cell_angle_beta   59.99999999
_cell_angle_gamma   59.99999999
_symmetry_Int_Tables_number   1
_chemical_formula_structural   KY3F10
_chemical_formula_sum   'K2 Y6 F20'
_cell_volume   400.91617882
_cell_formula_units_Z   2
loop_
 _symmetry_equiv_pos_site_id
 _symmetry_equiv_pos_as_xyz
  1  'x, y, z'
loop_
 _atom_site_type_symbol
 _atom_site_label
 _atom_site_symmetry_multiplicity
 _atom_site_fract_x
 _atom_site_fract_y
 _atom_site_fract_z
 _atom_site_occupancy
  F  F0  1  0.169569  0.500000  0.500000  1
  F  F1  1  0.500000  0.500000  0.169569  1
  F  F2  1  0.169569  0.500000  0.830431  1
  F  F3  1  0.500000  0.169569  0.500000  1
  F  F4  1  0.169569  0.830431  0.500000  1
  F  F5  1  0.830431  0.500000  0.169569  1
  F  F6  1  0.500000  0.830431  0.500000  1
  F  F7  1  0.500000  0.169569  0.830431  1
  F  F8  1  0.111790  0.111790  0.111790  1
  F  F9  1  0.888210  0.888210  0.335371  1
  F  F10  1  0.335371  0.888210  0.888210  1
  F  F11  1  0.888210  0.335371  0.888210  1
  F  F12  1  0.664629  0.111790  0.111790  1
  F  F13  1  0.111790  0.664629  0.111790  1
  F  F14  1  0.111790  0.111790  0.664629  1
  F  F15  1  0.888210  0.888210  0.888210  1
  F  F16  1  0.830431  0.500000  0.500000  1
  F  F17  1  0.500000  0.500000  0.830431  1
  F  F18  1  0.830431  0.169569  0.500000  1
  F  F19  1  0.500000  0.830431  0.169569  1
  K  K20  1  0.750000  0.750000  0.750000  1
  K  K21  1  0.250000  0.250000  0.250000  1
  Y  Y22  1  0.240541  0.759459  0.759459  1
  Y  Y23  1  0.240541  0.759459  0.240541  1
  Y  Y24  1  0.759459  0.240541  0.759459  1
  Y  Y25  1  0.240541  0.240541  0.759459  1
  Y  Y26  1  0.759459  0.759459  0.240541  1
  Y  Y27  1  0.759459  0.240541  0.240541  1
