# generated using pymatgen
data_BaLa2CoS5
_symmetry_space_group_name_H-M   'P 1'
_cell_length_a   7.98881663
_cell_length_b   7.98881662
_cell_length_c   8.80880911
_cell_angle_alpha   116.96564154
_cell_angle_beta   116.96564157
_cell_angle_gamma   89.99999999
_symmetry_Int_Tables_number   1
_chemical_formula_structural   BaLa2CoS5
_chemical_formula_sum   'Ba2 La4 Co2 S10'
_cell_volume   431.36951442
_cell_formula_units_Z   2
loop_
 _symmetry_equiv_pos_site_id
 _symmetry_equiv_pos_as_xyz
  1  'x, y, z'
loop_
 _atom_site_type_symbol
 _atom_site_label
 _atom_site_symmetry_multiplicity
 _atom_site_fract_x
 _atom_site_fract_y
 _atom_site_fract_z
 _atom_site_occupancy
  S  S0  1  0.491592  0.991592  0.275209  1
  S  S1  1  0.216382  0.716382  0.724791  1
  S  S2  1  0.508408  0.008408  0.724791  1
  S  S3  1  0.716382  0.508408  0.724791  1
  S  S4  1  0.008408  0.216382  0.724791  1
  S  S5  1  0.283618  0.491592  0.275209  1
  S  S6  1  0.991592  0.783618  0.275209  1
  S  S7  1  0.783618  0.283618  0.275209  1
  S  S8  1  0.000000  0.000000  0.000000  1
  S  S9  1  0.500000  0.500000  0.000000  1
  Co  Co10  1  0.750000  0.250000  0.500000  1
  Co  Co11  1  0.250000  0.750000  0.500000  1
  Ba  Ba12  1  0.750000  0.750000  0.500000  1
  Ba  Ba13  1  0.250000  0.250000  0.500000  1
  La  La14  1  0.664274  0.835726  0.000000  1
  La  La15  1  0.164274  0.664274  0.000000  1
  La  La16  1  0.835726  0.335726  0.000000  1
  La  La17  1  0.335726  0.164274  0.000000  1
