# generated using pymatgen
data_AgW3Br7
_symmetry_space_group_name_H-M   'P 1'
_cell_length_a   10.06464096
_cell_length_b   10.24130826
_cell_length_c   16.08264862
_cell_angle_alpha   90.00000000
_cell_angle_beta   90.00000000
_cell_angle_gamma   121.08433303
_symmetry_Int_Tables_number   1
_chemical_formula_structural   AgW3Br7
_chemical_formula_sum   'Ag4 W12 Br28'
_cell_volume   1419.68555288
_cell_formula_units_Z   4
loop_
 _symmetry_equiv_pos_site_id
 _symmetry_equiv_pos_as_xyz
  1  'x, y, z'
loop_
 _atom_site_type_symbol
 _atom_site_label
 _atom_site_symmetry_multiplicity
 _atom_site_fract_x
 _atom_site_fract_y
 _atom_site_fract_z
 _atom_site_occupancy
  Br  Br0  1  0.315321  0.659306  0.428991  1
  Br  Br1  1  0.189511  0.343769  0.272696  1
  Br  Br2  1  0.189511  0.843769  0.227304  1
  Br  Br3  1  0.810489  0.656231  0.727304  1
  Br  Br4  1  0.277846  0.510053  0.912858  1
  Br  Br5  1  0.722154  -0.010053  0.412858  1
  Br  Br6  1  0.722154  0.489947  0.087142  1
  Br  Br7  1  0.277846  1.010053  0.587142  1
  Br  Br8  1  0.147104  0.060975  0.858520  1
  Br  Br9  1  0.852896  0.439025  0.358520  1
  Br  Br10  1  0.852896  0.939025  0.141480  1
  Br  Br11  1  0.147104  0.560975  0.641480  1
  Br  Br12  1  0.579132  0.793618  0.614206  1
  Br  Br13  1  0.420868  0.706382  0.114206  1
  Br  Br14  1  0.420868  0.206382  0.385794  1
  Br  Br15  1  0.392014  0.888130  0.809810  1
  Br  Br16  1  0.871115  0.743690  0.495404  1
  Br  Br17  1  0.128885  0.756310  0.995404  1
  Br  Br18  1  0.128885  0.256310  0.504596  1
  Br  Br19  1  0.871115  0.243690  0.004596  1
  Br  Br20  1  0.684679  0.340694  0.571009  1
  Br  Br21  1  0.315321  0.159306  0.071009  1
  Br  Br22  1  0.579132  0.293618  0.885794  1
  Br  Br23  1  0.684679  0.840694  0.928991  1
  Br  Br24  1  0.392014  0.388130  0.690190  1
  Br  Br25  1  0.607986  0.111870  0.190190  1
  Br  Br26  1  0.607986  0.611870  0.309810  1
  Br  Br27  1  0.810489  0.156231  0.772696  1
  Ag  Ag28  1  0.081488  0.913947  0.712533  1
  Ag  Ag29  1  0.918512  0.586053  0.212533  1
  Ag  Ag30  1  0.918512  0.086053  0.287467  1
  Ag  Ag31  1  0.081488  0.413947  0.787467  1
  W  W32  1  0.354185  0.024662  0.940364  1
  W  W33  1  0.593259  0.701799  0.462064  1
  W  W34  1  0.593259  0.201799  0.037936  1
  W  W35  1  0.406741  0.298201  0.537936  1
  W  W36  1  0.406741  0.798201  0.962064  1
  W  W37  1  0.645815  0.475338  0.440364  1
  W  W38  1  0.645815  0.975338  0.059636  1
  W  W39  1  0.354185  0.524662  0.559636  1
  W  W40  1  0.632037  0.066986  0.907196  1
  W  W41  1  0.367963  0.433014  0.407196  1
  W  W42  1  0.367963  0.933014  0.092804  1
  W  W43  1  0.632037  0.566986  0.592804  1
