# generated using pymatgen
data_PdSe
_symmetry_space_group_name_H-M   'P 1'
_cell_length_a   6.84495766
_cell_length_b   6.84495766
_cell_length_c   7.03218554
_cell_angle_alpha   90.00000000
_cell_angle_beta   90.00000000
_cell_angle_gamma   90.00000000
_symmetry_Int_Tables_number   1
_chemical_formula_structural   PdSe
_chemical_formula_sum   'Pd8 Se8'
_cell_volume   329.48212101
_cell_formula_units_Z   8
loop_
 _symmetry_equiv_pos_site_id
 _symmetry_equiv_pos_as_xyz
  1  'x, y, z'
loop_
 _atom_site_type_symbol
 _atom_site_label
 _atom_site_symmetry_multiplicity
 _atom_site_fract_x
 _atom_site_fract_y
 _atom_site_fract_z
 _atom_site_occupancy
  Se  Se0  1  0.194315  0.307385  0.771891  1
  Se  Se1  1  0.692615  0.194315  0.271891  1
  Se  Se2  1  0.307385  0.805685  0.271891  1
  Se  Se3  1  0.805685  0.692615  0.771891  1
  Se  Se4  1  0.805685  0.692615  0.228109  1
  Se  Se5  1  0.307385  0.805685  0.728109  1
  Se  Se6  1  0.692615  0.194315  0.728109  1
  Se  Se7  1  0.194315  0.307385  0.228109  1
  Pd  Pd8  1  0.529927  0.739029  0.000000  1
  Pd  Pd9  1  0.260971  0.529927  0.500000  1
  Pd  Pd10  1  0.739029  0.470073  0.500000  1
  Pd  Pd11  1  0.470073  0.260971  0.000000  1
  Pd  Pd12  1  0.500000  0.000000  0.500000  1
  Pd  Pd13  1  0.000000  0.500000  0.000000  1
  Pd  Pd14  1  0.000000  0.000000  0.750000  1
  Pd  Pd15  1  0.000000  0.000000  0.250000  1
