# generated using pymatgen
data_AlH36C12S6(ClO2)3
_symmetry_space_group_name_H-M   'P 1'
_cell_length_a   9.66530861
_cell_length_b   9.66530860
_cell_length_c   9.66530860
_cell_angle_alpha   66.38609749
_cell_angle_beta   66.38609746
_cell_angle_gamma   66.38609748
_symmetry_Int_Tables_number   1
_chemical_formula_structural   AlH36C12S6(ClO2)3
_chemical_formula_sum   'Al1 H36 C12 S6 Cl3 O6'
_cell_volume   726.37137680
_cell_formula_units_Z   1
loop_
 _symmetry_equiv_pos_site_id
 _symmetry_equiv_pos_as_xyz
  1  'x, y, z'
loop_
 _atom_site_type_symbol
 _atom_site_label
 _atom_site_symmetry_multiplicity
 _atom_site_fract_x
 _atom_site_fract_y
 _atom_site_fract_z
 _atom_site_occupancy
  H  H0  1  0.934944  0.388123  0.198752  1
  H  H1  1  0.999201  0.360531  0.559507  1
  H  H2  1  0.360531  0.559507  0.999201  1
  H  H3  1  0.559507  0.999201  0.360531  1
  H  H4  1  0.000799  0.639469  0.440493  1
  H  H5  1  0.639469  0.440493  0.000799  1
  H  H6  1  0.440493  0.000799  0.639469  1
  H  H7  1  0.953839  0.270780  0.771028  1
  H  H8  1  0.270780  0.771028  0.953839  1
  H  H9  1  0.281001  0.071774  0.959593  1
  H  H10  1  0.959593  0.281001  0.071774  1
  H  H11  1  0.071774  0.959593  0.281001  1
  H  H12  1  0.718999  0.928226  0.040407  1
  H  H13  1  0.040407  0.718999  0.928226  1
  H  H14  1  0.928226  0.040407  0.718999  1
  H  H15  1  0.388123  0.198752  0.934944  1
  H  H16  1  0.969541  0.146123  0.510566  1
  H  H17  1  0.198752  0.934944  0.388123  1
  H  H18  1  0.611877  0.801248  0.065056  1
  H  H19  1  0.065056  0.611877  0.801248  1
  H  H20  1  0.801248  0.065056  0.611877  1
  H  H21  1  0.489434  0.030459  0.853877  1
  H  H22  1  0.853877  0.489434  0.030459  1
  H  H23  1  0.030459  0.853877  0.489434  1
  H  H24  1  0.510566  0.969541  0.146123  1
  H  H25  1  0.146123  0.510566  0.969541  1
  H  H26  1  0.146530  0.524021  0.306525  1
  H  H27  1  0.046161  0.729220  0.228972  1
  H  H28  1  0.729220  0.228972  0.046161  1
  H  H29  1  0.228972  0.046161  0.729220  1
  H  H30  1  0.853470  0.475979  0.693475  1
  H  H31  1  0.475979  0.693475  0.853470  1
  H  H32  1  0.693475  0.853470  0.475979  1
  H  H33  1  0.306525  0.146530  0.524021  1
  H  H34  1  0.524021  0.306525  0.146530  1
  H  H35  1  0.771028  0.953839  0.270780  1
  C  C36  1  0.907406  0.358887  0.672859  1
  C  C37  1  0.358887  0.672859  0.907406  1
  C  C38  1  0.672859  0.907406  0.358887  1
  C  C39  1  0.092594  0.641113  0.327141  1
  C  C40  1  0.641113  0.327141  0.092594  1
  C  C41  1  0.327141  0.092594  0.641113  1
  C  C42  1  0.378845  0.122887  0.881605  1
  C  C43  1  0.877113  0.118395  0.621155  1
  C  C44  1  0.881605  0.378845  0.122887  1
  C  C45  1  0.621155  0.877113  0.118395  1
  C  C46  1  0.122887  0.881605  0.378845  1
  C  C47  1  0.118395  0.621155  0.877113  1
  O  O48  1  0.478415  0.290913  0.587198  1
  O  O49  1  0.521585  0.709087  0.412802  1
  O  O50  1  0.412802  0.521585  0.709087  1
  O  O51  1  0.290913  0.587198  0.478415  1
  O  O52  1  0.587198  0.478415  0.290913  1
  O  O53  1  0.709087  0.412802  0.521585  1
  Al  Al54  1  0.500000  0.500000  0.500000  1
  S  S55  1  0.672911  0.756507  0.296910  1
  S  S56  1  0.756507  0.296910  0.672911  1
  S  S57  1  0.296910  0.672911  0.756507  1
  S  S58  1  0.243493  0.703090  0.327089  1
  S  S59  1  0.327089  0.243493  0.703090  1
  S  S60  1  0.703090  0.327089  0.243493  1
  Cl  Cl61  1  0.746399  0.746399  0.746399  1
  Cl  Cl62  1  0.253601  0.253601  0.253601  1
  Cl  Cl63  1  0.000000  0.000000  0.000000  1
