# generated using pymatgen
data_B3H4
_symmetry_space_group_name_H-M   'P 1'
_cell_length_a   10.24910251
_cell_length_b   11.76406287
_cell_length_c   12.84413531
_cell_angle_alpha   90.00000000
_cell_angle_beta   90.00000000
_cell_angle_gamma   90.00000000
_symmetry_Int_Tables_number   1
_chemical_formula_structural   B3H4
_chemical_formula_sum   'B48 H64'
_cell_volume   1548.63134677
_cell_formula_units_Z   16
loop_
 _symmetry_equiv_pos_site_id
 _symmetry_equiv_pos_as_xyz
  1  'x, y, z'
loop_
 _atom_site_type_symbol
 _atom_site_label
 _atom_site_symmetry_multiplicity
 _atom_site_fract_x
 _atom_site_fract_y
 _atom_site_fract_z
 _atom_site_occupancy
  H  H0  1  0.214800  0.370838  0.762754  1
  H  H1  1  0.785200  0.629162  0.262754  1
  H  H2  1  0.285200  0.870838  0.762754  1
  H  H3  1  0.714800  0.129162  0.262754  1
  H  H4  1  0.150606  0.474940  0.626831  1
  H  H5  1  0.849394  0.525060  0.126831  1
  H  H6  1  0.349394  0.974940  0.626831  1
  H  H7  1  0.650606  0.025060  0.126831  1
  H  H8  1  0.276399  0.570169  0.649982  1
  H  H9  1  0.723601  0.429831  0.149982  1
  H  H10  1  0.223601  0.070169  0.649982  1
  H  H11  1  0.776399  0.929831  0.149982  1
  H  H12  1  0.290506  0.709876  0.932975  1
  H  H13  1  0.709494  0.290124  0.432975  1
  H  H14  1  0.209494  0.209876  0.932975  1
  H  H15  1  0.790506  0.790124  0.432975  1
  H  H16  1  0.477078  0.684102  0.808020  1
  H  H17  1  0.522922  0.315898  0.308020  1
  H  H18  1  0.022922  0.184102  0.808020  1
  H  H19  1  0.977078  0.815898  0.308020  1
  H  H20  1  0.441522  0.480838  0.963980  1
  H  H21  1  0.558478  0.519162  0.463980  1
  H  H22  1  0.058478  0.980838  0.963980  1
  H  H23  1  0.941522  0.019162  0.463980  1
  H  H24  1  0.488332  0.378132  0.567796  1
  H  H25  1  0.511668  0.621868  0.067796  1
  H  H26  1  1.011668  0.878132  0.567796  1
  H  H27  1  0.140478  0.434066  0.963806  1
  H  H28  1  -0.011668  0.121868  0.067796  1
  H  H29  1  0.631692  0.710946  0.340623  1
  H  H30  1  0.131692  0.789054  0.840623  1
  H  H31  1  0.868308  0.210946  0.340623  1
  H  H32  1  0.199310  0.265059  0.647252  1
  H  H33  1  0.800690  0.734941  0.147252  1
  H  H34  1  0.300690  0.765059  0.647252  1
  H  H35  1  0.699310  0.234941  0.147252  1
  H  H36  1  0.265557  0.481183  0.501572  1
  H  H37  1  0.734443  0.518817  1.001572  1
  H  H38  1  0.234443  0.981183  0.501572  1
  H  H39  1  0.765557  0.018817  1.001572  1
  H  H40  1  0.471980  0.600580  0.604569  1
  H  H41  1  0.528020  0.399420  0.104569  1
  H  H42  1  0.028020  0.100580  0.604569  1
  H  H43  1  0.971980  0.899420  0.104569  1
  H  H44  1  0.562942  0.430356  0.780037  1
  H  H45  1  0.437058  0.569644  0.280037  1
  H  H46  1  0.937058  0.930356  0.780037  1
  H  H47  1  0.062942  0.069644  0.280037  1
  H  H48  1  0.494200  0.923735  0.360431  1
  H  H49  1  0.505800  0.076265  0.860431  1
  H  H50  1  0.005800  0.423735  0.360431  1
  H  H51  1  0.994200  0.576265  0.860431  1
  H  H52  1  0.616651  0.702408  0.163029  1
  H  H53  1  0.383349  0.297592  0.663029  1
  H  H54  1  0.883349  0.202408  0.163029  1
  H  H55  1  0.116651  0.797592  0.663029  1
  H  H56  1  0.616081  0.752884  0.494534  1
  H  H57  1  0.383919  0.247116  -0.005466  1
  H  H58  1  0.883919  0.252884  0.494534  1
  H  H59  1  0.116081  0.747116  -0.005466  1
  H  H60  1  0.640478  0.065934  0.463806  1
  H  H61  1  0.359522  0.934066  0.963806  1
  H  H62  1  0.859522  0.565934  0.463806  1
  H  H63  1  0.368308  0.289054  0.840623  1
  B  B64  1  0.411350  0.406818  0.632554  1
  B  B65  1  0.588650  0.593182  0.132554  1
  B  B66  1  0.088650  0.906818  0.632554  1
  B  B67  1  0.911350  0.093182  0.132554  1
  B  B68  1  0.380401  0.502167  0.887259  1
  B  B69  1  0.619599  0.497833  0.387259  1
  B  B70  1  0.119599  0.002167  0.887259  1
  B  B71  1  0.880401  0.997833  0.387259  1
  B  B72  1  0.269027  0.343101  0.666963  1
  B  B73  1  0.730973  0.656899  0.166963  1
  B  B74  1  0.230973  0.843101  0.666963  1
  B  B75  1  0.769027  0.156899  0.166963  1
  B  B76  1  0.262904  0.473400  0.594592  1
  B  B77  1  0.737096  0.526600  0.094592  1
  B  B78  1  0.237096  0.973400  0.594592  1
  B  B79  1  0.762904  0.026600  0.094592  1
  B  B80  1  0.401767  0.553421  0.665083  1
  B  B81  1  0.598233  0.446579  0.165083  1
  B  B82  1  0.098233  0.053421  0.665083  1
  B  B83  1  0.901767  0.946579  0.165083  1
  B  B84  1  0.453411  0.464312  0.769067  1
  B  B85  1  0.546589  0.535688  0.269067  1
  B  B86  1  0.046589  0.964312  0.769067  1
  B  B87  1  0.953411  0.035688  0.269067  1
  B  B88  1  0.209738  0.475681  0.898391  1
  B  B89  1  0.790262  0.524319  0.398391  1
  B  B90  1  0.290262  0.975681  0.898391  1
  B  B91  1  0.709738  0.024319  0.398391  1
  B  B92  1  0.169878  0.718745  0.916096  1
  B  B93  1  0.830122  0.281255  0.416096  1
  B  B94  1  0.330122  0.218745  0.916096  1
  B  B95  1  0.669878  0.781255  0.416096  1
  B  B96  1  0.264001  0.608296  0.868027  1
  B  B97  1  0.735999  0.391704  0.368027  1
  B  B98  1  0.235999  0.108296  0.868027  1
  B  B99  1  0.764001  0.891704  0.368027  1
  B  B100  1  0.404283  0.606393  0.790175  1
  B  B101  1  0.595717  0.393607  0.290175  1
  B  B102  1  0.095717  0.106393  0.790175  1
  B  B103  1  0.904283  0.893607  0.290175  1
  B  B104  1  0.312337  0.384488  0.823854  1
  B  B105  1  0.687663  0.615512  0.323854  1
  B  B106  1  0.187663  0.884488  0.823854  1
  B  B107  1  0.812337  0.115512  0.323854  1
  B  B108  1  0.108652  0.588513  0.868649  1
  B  B109  1  0.891348  0.411487  0.368649  1
  B  B110  1  0.391348  0.088513  0.868649  1
  B  B111  1  0.608652  0.911487  0.368649  1
