# generated using pymatgen
data_NdMnSi
_symmetry_space_group_name_H-M   'P 1'
_cell_length_a   3.98055451
_cell_length_b   3.97510464
_cell_length_c   7.52378669
_cell_angle_alpha   90.00000000
_cell_angle_beta   90.00000000
_cell_angle_gamma   90.00000000
_symmetry_Int_Tables_number   1
_chemical_formula_structural   NdMnSi
_chemical_formula_sum   'Nd2 Mn2 Si2'
_cell_volume   119.04978494
_cell_formula_units_Z   2
loop_
 _symmetry_equiv_pos_site_id
 _symmetry_equiv_pos_as_xyz
  1  'x, y, z'
loop_
 _atom_site_type_symbol
 _atom_site_label
 _atom_site_symmetry_multiplicity
 _atom_site_fract_x
 _atom_site_fract_y
 _atom_site_fract_z
 _atom_site_occupancy
  Si  Si0  1  0.750000  0.750000  0.816313  1
  Si  Si1  1  0.250000  0.250000  0.183687  1
  Mn  Mn2  1  0.750000  0.250000  0.000132  1
  Mn  Mn3  1  0.250000  0.750000  0.999868  1
  Nd  Nd4  1  0.750000  0.750000  0.325573  1
  Nd  Nd5  1  0.250000  0.250000  0.674427  1
