# generated using pymatgen
data_Si3Cl8
_symmetry_space_group_name_H-M   'P 1'
_cell_length_a   12.93189577
_cell_length_b   12.93189577
_cell_length_c   12.93189577
_cell_angle_alpha   60.00000002
_cell_angle_beta   60.00000003
_cell_angle_gamma   60.00000002
_symmetry_Int_Tables_number   1
_chemical_formula_structural   Si3Cl8
_chemical_formula_sum   'Si12 Cl32'
_cell_volume   1529.22570315
_cell_formula_units_Z   4
loop_
 _symmetry_equiv_pos_site_id
 _symmetry_equiv_pos_as_xyz
  1  'x, y, z'
loop_
 _atom_site_type_symbol
 _atom_site_label
 _atom_site_symmetry_multiplicity
 _atom_site_fract_x
 _atom_site_fract_y
 _atom_site_fract_z
 _atom_site_occupancy
  Si  Si0  1  0.000000  0.000000  0.000000  1
  Si  Si1  1  0.500000  0.500000  0.500000  1
  Si  Si2  1  0.175350  0.175350  0.175350  1
  Si  Si3  1  0.675350  0.675350  0.973951  1
  Si  Si4  1  0.973951  0.675350  0.675350  1
  Si  Si5  1  0.675350  0.973951  0.675350  1
  Si  Si6  1  0.473951  0.175350  0.175350  1
  Si  Si7  1  0.175350  0.473951  0.175350  1
  Si  Si8  1  0.175350  0.175350  0.473951  1
  Si  Si9  1  0.675350  0.675350  0.675350  1
  Si  Si10  1  0.250000  0.250000  0.250000  1
  Si  Si11  1  0.750000  0.750000  0.750000  1
  Cl  Cl12  1  0.935795  0.935795  0.935795  1
  Cl  Cl13  1  0.435795  0.435795  0.692614  1
  Cl  Cl14  1  0.692614  0.435795  0.435795  1
  Cl  Cl15  1  0.435795  0.692614  0.435795  1
  Cl  Cl16  1  0.192614  0.935795  0.935795  1
  Cl  Cl17  1  0.935795  0.192614  0.935795  1
  Cl  Cl18  1  0.935795  0.935795  0.192614  1
  Cl  Cl19  1  0.435795  0.435795  0.435795  1
  Cl  Cl20  1  0.991516  0.183158  0.284180  1
  Cl  Cl21  1  0.683158  0.784180  0.041146  1
  Cl  Cl22  1  0.041146  0.491516  0.683158  1
  Cl  Cl23  1  0.683158  0.041146  0.491516  1
  Cl  Cl24  1  0.784180  0.491516  0.041146  1
  Cl  Cl25  1  0.784180  0.041146  0.683158  1
  Cl  Cl26  1  0.041146  0.784180  0.491516  1
  Cl  Cl27  1  0.284180  0.991516  0.183158  1
  Cl  Cl28  1  0.183158  0.284180  0.991516  1
  Cl  Cl29  1  0.541146  0.991516  0.284180  1
  Cl  Cl30  1  0.183158  0.541146  0.284180  1
  Cl  Cl31  1  0.541146  0.183158  0.991516  1
  Cl  Cl32  1  0.284180  0.183158  0.541146  1
  Cl  Cl33  1  0.991516  0.284180  0.541146  1
  Cl  Cl34  1  0.991516  0.541146  0.183158  1
  Cl  Cl35  1  0.284180  0.541146  0.991516  1
  Cl  Cl36  1  0.541146  0.284180  0.183158  1
  Cl  Cl37  1  0.183158  0.991516  0.541146  1
  Cl  Cl38  1  0.041146  0.683158  0.784180  1
  Cl  Cl39  1  0.491516  0.041146  0.784180  1
  Cl  Cl40  1  0.491516  0.683158  0.041146  1
  Cl  Cl41  1  0.683158  0.491516  0.784180  1
  Cl  Cl42  1  0.784180  0.683158  0.491516  1
  Cl  Cl43  1  0.491516  0.784180  0.683158  1
