# generated using pymatgen
data_ZnH2(SeO4)2
_symmetry_space_group_name_H-M   'P 1'
_cell_length_a   5.16589667
_cell_length_b   7.51875368
_cell_length_c   8.78213233
_cell_angle_alpha   90.00000000
_cell_angle_beta   90.00000000
_cell_angle_gamma   97.59218468
_symmetry_Int_Tables_number   1
_chemical_formula_structural   ZnH2(SeO4)2
_chemical_formula_sum   'Zn2 H4 Se4 O16'
_cell_volume   338.11742382
_cell_formula_units_Z   2
loop_
 _symmetry_equiv_pos_site_id
 _symmetry_equiv_pos_as_xyz
  1  'x, y, z'
loop_
 _atom_site_type_symbol
 _atom_site_label
 _atom_site_symmetry_multiplicity
 _atom_site_fract_x
 _atom_site_fract_y
 _atom_site_fract_z
 _atom_site_occupancy
  H  H0  1  0.222313  0.646603  0.009353  1
  H  H1  1  0.277687  0.853397  0.509353  1
  H  H2  1  0.777687  0.353397  0.990647  1
  H  H3  1  0.722313  0.146603  0.490647  1
  O  O4  1  0.295989  0.600199  0.912035  1
  O  O5  1  0.204011  0.899801  0.412035  1
  O  O6  1  0.810004  0.466554  0.644329  1
  O  O7  1  0.689996  0.033446  0.144329  1
  O  O8  1  0.189996  0.533446  0.355671  1
  O  O9  1  0.310004  0.966554  0.855671  1
  O  O10  1  0.267510  0.311070  0.636711  1
  O  O11  1  0.232490  0.188930  0.136711  1
  O  O12  1  0.732490  0.688930  0.363289  1
  O  O13  1  0.767510  0.811070  0.863289  1
  O  O14  1  0.912317  0.228938  0.866433  1
  O  O15  1  0.587683  0.271062  0.366433  1
  O  O16  1  0.087683  0.771062  0.133567  1
  O  O17  1  0.412317  0.728938  0.633567  1
  O  O18  1  0.795989  0.100199  0.587965  1
  O  O19  1  0.704011  0.399801  0.087965  1
  Zn  Zn20  1  0.000000  0.000000  0.000000  1
  Zn  Zn21  1  0.500000  0.500000  0.500000  1
  Se  Se22  1  0.544835  0.212234  0.183763  1
  Se  Se23  1  0.955165  0.287766  0.683763  1
  Se  Se24  1  0.044835  0.712234  0.316237  1
  Se  Se25  1  0.455165  0.787766  0.816237  1
