# generated using pymatgen
data_HoSiRh
_symmetry_space_group_name_H-M   'P 1'
_cell_length_a   4.24095561
_cell_length_b   6.88396675
_cell_length_c   7.40043778
_cell_angle_alpha   90.00000000
_cell_angle_beta   90.00000000
_cell_angle_gamma   90.00000000
_symmetry_Int_Tables_number   1
_chemical_formula_structural   HoSiRh
_chemical_formula_sum   'Ho4 Si4 Rh4'
_cell_volume   216.05280163
_cell_formula_units_Z   4
loop_
 _symmetry_equiv_pos_site_id
 _symmetry_equiv_pos_as_xyz
  1  'x, y, z'
loop_
 _atom_site_type_symbol
 _atom_site_label
 _atom_site_symmetry_multiplicity
 _atom_site_fract_x
 _atom_site_fract_y
 _atom_site_fract_z
 _atom_site_occupancy
  Si  Si0  1  0.250000  0.295308  0.895653  1
  Si  Si1  1  0.750000  0.704692  0.104347  1
  Si  Si2  1  0.250000  0.795308  0.604347  1
  Si  Si3  1  0.750000  0.204692  0.395653  1
  Rh  Rh4  1  0.750000  0.845773  0.430207  1
  Rh  Rh5  1  0.250000  0.154227  0.569793  1
  Rh  Rh6  1  0.750000  0.345773  0.069793  1
  Rh  Rh7  1  0.250000  0.654227  0.930207  1
  Ho  Ho8  1  0.250000  0.499591  0.310146  1
  Ho  Ho9  1  0.750000  0.500409  0.689854  1
  Ho  Ho10  1  0.250000  0.999591  0.189854  1
  Ho  Ho11  1  0.750000  0.000409  0.810146  1
