# generated using pymatgen
data_Mg3B7ClO13
_symmetry_space_group_name_H-M   'P 1'
_cell_length_a   8.64309270
_cell_length_b   8.62880872
_cell_length_c   12.22371966
_cell_angle_alpha   90.00000000
_cell_angle_beta   90.00000000
_cell_angle_gamma   90.00000000
_symmetry_Int_Tables_number   1
_chemical_formula_structural   Mg3B7ClO13
_chemical_formula_sum   'Mg12 B28 Cl4 O52'
_cell_volume   911.64004523
_cell_formula_units_Z   4
loop_
 _symmetry_equiv_pos_site_id
 _symmetry_equiv_pos_as_xyz
  1  'x, y, z'
loop_
 _atom_site_type_symbol
 _atom_site_label
 _atom_site_symmetry_multiplicity
 _atom_site_fract_x
 _atom_site_fract_y
 _atom_site_fract_z
 _atom_site_occupancy
  B  B0  1  0.905844  0.749905  0.572290  1
  B  B1  1  0.094156  0.250095  0.072290  1
  B  B2  1  0.594156  0.749905  0.072290  1
  B  B3  1  0.405844  0.250095  0.572290  1
  B  B4  1  0.957069  0.750861  0.102088  1
  B  B5  1  0.042931  0.249139  0.602088  1
  B  B6  1  0.542931  0.750861  0.602088  1
  B  B7  1  0.457069  0.249139  0.102088  1
  B  B8  1  0.253202  0.096343  0.420026  1
  B  B9  1  0.746798  0.903657  0.920026  1
  B  B10  1  0.246798  0.096343  0.920026  1
  B  B11  1  0.753202  0.903657  0.420026  1
  B  B12  1  0.252797  0.403335  0.419253  1
  B  B13  1  0.747203  0.596665  0.919253  1
  B  B14  1  0.247203  0.403335  0.919253  1
  B  B15  1  0.752797  0.596665  0.419253  1
  B  B16  1  0.502874  0.496238  0.999831  1
  B  B17  1  0.497126  0.503762  0.499831  1
  B  B18  1  0.997126  0.496238  0.499831  1
  B  B19  1  0.002874  0.503762  0.999831  1
  B  B20  1  0.756656  0.753113  0.247393  1
  B  B21  1  0.243344  0.246887  0.747393  1
  B  B22  1  0.743344  0.753113  0.747393  1
  B  B23  1  0.256656  0.246887  0.247393  1
  B  B24  1  0.002023  0.997376  0.000650  1
  B  B25  1  0.997977  0.002624  0.500650  1
  B  B26  1  0.497977  0.997376  0.500650  1
  B  B27  1  0.502023  0.002624  0.000650  1
  O  O28  1  0.544173  0.329864  0.026387  1
  O  O29  1  0.615138  0.671380  0.685980  1
  O  O30  1  0.115138  0.328620  0.685980  1
  O  O31  1  0.884862  0.671380  0.185980  1
  O  O32  1  0.464936  0.089387  0.105012  1
  O  O33  1  0.535064  0.910613  0.605012  1
  O  O34  1  0.035064  0.089387  0.605012  1
  O  O35  1  0.964936  0.910613  0.105012  1
  O  O36  1  0.466744  0.838089  0.022221  1
  O  O37  1  0.533256  0.161911  0.522221  1
  O  O38  1  0.033256  0.838089  0.522221  1
  O  O39  1  0.966744  0.161911  0.022221  1
  O  O40  1  0.640606  0.823712  0.174632  1
  O  O41  1  0.359394  0.176288  0.674632  1
  O  O42  1  0.859394  0.823712  0.674632  1
  O  O43  1  0.140606  0.176288  0.174632  1
  O  O44  1  0.548036  0.591019  0.094149  1
  O  O45  1  0.662852  0.481448  0.478843  1
  O  O46  1  0.951964  0.591019  0.594149  1
  O  O47  1  0.048036  0.408981  0.094149  1
  O  O48  1  0.384862  0.328620  0.185980  1
  O  O49  1  0.455827  0.670136  0.526387  1
  O  O50  1  0.955827  0.329864  0.526387  1
  O  O51  1  0.044173  0.670136  0.026387  1
  O  O52  1  0.230805  0.250383  0.988196  1
  O  O53  1  0.769195  0.749617  0.488196  1
  O  O54  1  0.269195  0.250383  0.488196  1
  O  O55  1  0.730805  0.749617  0.988196  1
  O  O56  1  0.332993  0.972442  0.477443  1
  O  O57  1  0.667007  0.027558  0.977443  1
  O  O58  1  0.167007  0.972442  0.977443  1
  O  O59  1  0.832993  0.027558  0.477443  1
  O  O60  1  0.409486  0.462890  0.401032  1
  O  O61  1  0.590514  0.537110  0.901032  1
  O  O62  1  0.090514  0.462890  0.901032  1
  O  O63  1  0.909486  0.537110  0.401032  1
  O  O64  1  0.326327  0.123895  0.313895  1
  O  O65  1  0.673673  0.876105  0.813895  1
  O  O66  1  0.173673  0.123895  0.813895  1
  O  O67  1  0.826327  0.876105  0.313895  1
  O  O68  1  0.178696  0.364873  0.315420  1
  O  O69  1  0.821304  0.635127  0.815420  1
  O  O70  1  0.321304  0.364873  0.815420  1
  O  O71  1  0.678696  0.635127  0.315420  1
  O  O72  1  0.089488  0.057199  0.405998  1
  O  O73  1  0.910512  0.942801  0.905998  1
  O  O74  1  0.410512  0.057199  0.905998  1
  O  O75  1  0.589488  0.942801  0.405998  1
  O  O76  1  0.162852  0.518552  0.478843  1
  O  O77  1  0.837148  0.481448  0.978843  1
  O  O78  1  0.337148  0.518552  0.978843  1
  O  O79  1  0.451964  0.408981  0.594149  1
  Mg  Mg80  1  0.983746  0.468532  0.250520  1
  Mg  Mg81  1  0.016254  0.531468  0.750520  1
  Mg  Mg82  1  0.516254  0.468532  0.750520  1
  Mg  Mg83  1  0.483746  0.531468  0.250520  1
  Mg  Mg84  1  0.984189  0.031929  0.253439  1
  Mg  Mg85  1  0.015811  0.968071  0.753439  1
  Mg  Mg86  1  0.515811  0.031929  0.753439  1
  Mg  Mg87  1  0.484189  0.968071  0.253439  1
  Mg  Mg88  1  0.759058  0.251381  0.974980  1
  Mg  Mg89  1  0.740942  0.251381  0.474980  1
  Mg  Mg90  1  0.240942  0.748619  0.474980  1
  Mg  Mg91  1  0.259058  0.748619  0.974980  1
  Cl  Cl92  1  0.278483  0.749757  0.263322  1
  Cl  Cl93  1  0.721517  0.250243  0.763322  1
  Cl  Cl94  1  0.221517  0.749757  0.763322  1
  Cl  Cl95  1  0.778483  0.250243  0.263322  1
