# generated using pymatgen
data_Yb2AlB6
_symmetry_space_group_name_H-M   'P 1'
_cell_length_a   3.58568928
_cell_length_b   9.33514900
_cell_length_c   11.50331407
_cell_angle_alpha   89.99973442
_cell_angle_beta   90.00000000
_cell_angle_gamma   90.00000000
_symmetry_Int_Tables_number   1
_chemical_formula_structural   Yb2AlB6
_chemical_formula_sum   'Yb8 Al4 B24'
_cell_volume   385.04978419
_cell_formula_units_Z   4
loop_
 _symmetry_equiv_pos_site_id
 _symmetry_equiv_pos_as_xyz
  1  'x, y, z'
loop_
 _atom_site_type_symbol
 _atom_site_label
 _atom_site_symmetry_multiplicity
 _atom_site_fract_x
 _atom_site_fract_y
 _atom_site_fract_z
 _atom_site_occupancy
  Yb  Yb0  1  -0.000000  0.333486  0.408423  1
  Yb  Yb1  1  0.000000  0.049440  0.614799  1
  Yb  Yb2  1  0.000000  0.166516  0.908426  1
  Yb  Yb3  1  -0.000000  0.549476  0.885219  1
  Yb  Yb4  1  -0.000000  0.666561  0.591558  1
  Yb  Yb5  1  -0.000000  0.833437  0.091564  1
  Yb  Yb6  1  -0.000000  0.450562  0.114801  1
  Yb  Yb7  1  -0.000000  0.950520  0.385212  1
  Al  Al8  1  -0.000000  0.857937  0.821020  1
  Al  Al9  1  -0.000000  0.357953  0.678969  1
  Al  Al10  1  -0.000000  0.142049  0.178973  1
  Al  Al11  1  -0.000000  0.642056  0.321026  1
  B  B12  1  0.500000  0.448820  0.566147  1
  B  B13  1  0.500000  0.359934  0.814597  1
  B  B14  1  0.500000  0.752801  0.923640  1
  B  B15  1  0.500000  0.199984  0.730859  1
  B  B16  1  0.500000  0.247196  0.076381  1
  B  B17  1  0.500000  0.800003  0.269144  1
  B  B18  1  0.500000  0.364600  0.962530  1
  B  B19  1  0.500000  0.747210  0.423635  1
  B  B20  1  0.500000  0.864576  0.537443  1
  B  B21  1  0.500000  0.135410  0.462531  1
  B  B22  1  0.500000  0.015731  0.782867  1
  B  B23  1  0.500000  0.484269  0.282869  1
  B  B24  1  0.500000  0.051180  0.066153  1
  B  B25  1  0.500000  0.984239  0.217123  1
  B  B26  1  0.500000  0.948795  0.933844  1
  B  B27  1  0.500000  0.300018  0.230860  1
  B  B28  1  0.500000  0.699993  0.769138  1
  B  B29  1  0.500000  0.640061  0.185430  1
  B  B30  1  0.500000  0.635414  0.037448  1
  B  B31  1  0.500000  0.551202  0.433845  1
  B  B32  1  0.500000  0.252803  0.576378  1
  B  B33  1  0.500000  0.515764  0.717123  1
  B  B34  1  0.500000  0.859947  0.685428  1
  B  B35  1  0.500000  0.140059  0.314595  1
