# generated using pymatgen
data_K2LiAlH6
_symmetry_space_group_name_H-M   'P 1'
_cell_length_a   5.52610344
_cell_length_b   5.52824898
_cell_length_c   7.82126390
_cell_angle_alpha   90.00000000
_cell_angle_beta   90.00969695
_cell_angle_gamma   90.00000000
_symmetry_Int_Tables_number   1
_chemical_formula_structural   K2LiAlH6
_chemical_formula_sum   'K4 Li2 Al2 H12'
_cell_volume   238.93707246
_cell_formula_units_Z   2
loop_
 _symmetry_equiv_pos_site_id
 _symmetry_equiv_pos_as_xyz
  1  'x, y, z'
loop_
 _atom_site_type_symbol
 _atom_site_label
 _atom_site_symmetry_multiplicity
 _atom_site_fract_x
 _atom_site_fract_y
 _atom_site_fract_z
 _atom_site_occupancy
  H  H0  1  0.728908  0.271155  0.500008  1
  H  H1  1  0.771092  0.771155  0.999992  1
  H  H2  1  0.271092  0.728845  0.499992  1
  H  H3  1  0.228908  0.228845  0.000008  1
  H  H4  1  0.771092  0.228845  0.999992  1
  H  H5  1  0.728908  0.728845  0.500008  1
  H  H6  1  0.228908  0.771155  0.000008  1
  H  H7  1  0.271092  0.271155  0.499992  1
  H  H8  1  0.000017  0.000000  0.228792  1
  H  H9  1  0.499983  0.500000  0.271208  1
  H  H10  1  0.999983  0.000000  0.771208  1
  H  H11  1  0.500017  0.500000  0.728792  1
  Li  Li12  1  0.000000  0.000000  0.500000  1
  Li  Li13  1  0.500000  0.500000  0.000000  1
  Al  Al14  1  0.000000  0.000000  0.000000  1
  Al  Al15  1  0.500000  0.500000  0.500000  1
  K  K16  1  0.499987  0.000000  0.749978  1
  K  K17  1  0.000013  0.500000  0.750022  1
  K  K18  1  0.500013  0.000000  0.250022  1
  K  K19  1  0.999987  0.500000  0.249978  1
