# generated using pymatgen
data_SiBi2O5
_symmetry_space_group_name_H-M   'P 1'
_cell_length_a   5.39235549
_cell_length_b   5.55379852
_cell_length_c   8.18956773
_cell_angle_alpha   109.82068866
_cell_angle_beta   90.00000000
_cell_angle_gamma   90.00000000
_symmetry_Int_Tables_number   1
_chemical_formula_structural   SiBi2O5
_chemical_formula_sum   'Si2 Bi4 O10'
_cell_volume   230.73193983
_cell_formula_units_Z   2
loop_
 _symmetry_equiv_pos_site_id
 _symmetry_equiv_pos_as_xyz
  1  'x, y, z'
loop_
 _atom_site_type_symbol
 _atom_site_label
 _atom_site_symmetry_multiplicity
 _atom_site_fract_x
 _atom_site_fract_y
 _atom_site_fract_z
 _atom_site_occupancy
  O  O0  1  0.487851  0.261346  0.502132  1
  O  O1  1  0.987851  0.738654  0.497868  1
  O  O2  1  0.987851  0.240786  0.502132  1
  O  O3  1  0.487851  0.759214  0.497868  1
  O  O4  1  0.671213  0.733858  0.818617  1
  O  O5  1  0.171213  0.266142  0.181383  1
  O  O6  1  0.466569  0.470141  0.000000  1
  O  O7  1  0.966569  0.529859  0.000000  1
  O  O8  1  0.671213  0.915241  0.181383  1
  O  O9  1  0.171213  0.084759  0.818617  1
  Si  Si10  1  0.695456  0.676926  0.000000  1
  Si  Si11  1  0.195456  0.323074  0.000000  1
  Bi  Bi12  1  0.260924  0.614736  0.668113  1
  Bi  Bi13  1  0.760924  0.385264  0.331887  1
  Bi  Bi14  1  0.760924  0.053377  0.668113  1
  Bi  Bi15  1  0.260924  0.946623  0.331887  1
