# generated using pymatgen
data_Te4Pd9
_symmetry_space_group_name_H-M   'P 1'
_cell_length_a   7.56321597
_cell_length_b   9.03858189
_cell_length_c   14.18898312
_cell_angle_alpha   90.00000000
_cell_angle_beta   90.00000000
_cell_angle_gamma   91.62765166
_symmetry_Int_Tables_number   1
_chemical_formula_structural   Te4Pd9
_chemical_formula_sum   'Te16 Pd36'
_cell_volume   969.57812462
_cell_formula_units_Z   4
loop_
 _symmetry_equiv_pos_site_id
 _symmetry_equiv_pos_as_xyz
  1  'x, y, z'
loop_
 _atom_site_type_symbol
 _atom_site_label
 _atom_site_symmetry_multiplicity
 _atom_site_fract_x
 _atom_site_fract_y
 _atom_site_fract_z
 _atom_site_occupancy
  Pd  Pd0  1  0.793367  0.895057  0.678185  1
  Pd  Pd1  1  0.206633  0.604943  0.178185  1
  Pd  Pd2  1  0.206633  0.104943  0.321815  1
  Pd  Pd3  1  0.793367  0.395057  0.821815  1
  Pd  Pd4  1  0.723751  0.825656  0.305935  1
  Pd  Pd5  1  0.276249  0.674344  0.805935  1
  Pd  Pd6  1  0.276249  0.174344  0.694065  1
  Pd  Pd7  1  0.723751  0.325656  0.194065  1
  Pd  Pd8  1  0.960753  0.611795  0.937542  1
  Pd  Pd9  1  0.039247  0.888205  0.437542  1
  Pd  Pd10  1  0.039247  0.388205  0.062458  1
  Pd  Pd11  1  0.960753  0.111795  0.562458  1
  Pd  Pd12  1  0.889823  0.642965  0.548025  1
  Pd  Pd13  1  0.110177  0.857035  0.048025  1
  Pd  Pd14  1  0.110177  0.357035  0.451975  1
  Pd  Pd15  1  0.889823  0.142965  0.951975  1
  Pd  Pd16  1  0.983928  0.608215  0.349479  1
  Pd  Pd17  1  0.016072  0.891785  0.849479  1
  Pd  Pd18  1  0.016072  0.391785  0.650521  1
  Pd  Pd19  1  0.983928  0.108215  0.150521  1
  Pd  Pd20  1  0.830822  0.638818  0.139873  1
  Pd  Pd21  1  0.169178  0.861182  0.639873  1
  Pd  Pd22  1  0.169178  0.361182  0.860127  1
  Pd  Pd23  1  0.830822  0.138818  0.360127  1
  Pd  Pd24  1  0.655385  0.701660  0.830118  1
  Pd  Pd25  1  0.344615  0.798340  0.330118  1
  Pd  Pd26  1  0.344615  0.298340  0.169882  1
  Pd  Pd27  1  0.655385  0.201660  0.669882  1
  Pd  Pd28  1  0.500267  0.691885  0.631917  1
  Pd  Pd29  1  0.499733  0.808115  0.131917  1
  Pd  Pd30  1  0.499733  0.308115  0.368083  1
  Pd  Pd31  1  0.500267  0.191885  0.868083  1
  Pd  Pd32  1  0.585171  0.606300  0.435357  1
  Pd  Pd33  1  0.414829  0.893700  0.935357  1
  Pd  Pd34  1  0.414829  0.393700  0.564643  1
  Pd  Pd35  1  0.585171  0.106300  0.064643  1
  Te  Te36  1  0.753822  0.853026  0.995961  1
  Te  Te37  1  0.246178  0.646974  0.495961  1
  Te  Te38  1  0.246178  0.146974  0.004039  1
  Te  Te39  1  0.753822  0.353026  0.504039  1
  Te  Te40  1  0.703067  0.888337  0.494978  1
  Te  Te41  1  0.296933  0.611663  0.994978  1
  Te  Te42  1  0.296933  0.111663  0.505022  1
  Te  Te43  1  0.703067  0.388337  0.005022  1
  Te  Te44  1  0.952039  0.641800  0.737395  1
  Te  Te45  1  0.047961  0.858200  0.237395  1
  Te  Te46  1  0.047961  0.358200  0.262605  1
  Te  Te47  1  0.952039  0.141800  0.762605  1
  Te  Te48  1  0.538910  0.567774  0.248237  1
  Te  Te49  1  0.461090  0.932226  0.748237  1
  Te  Te50  1  0.461090  0.432226  0.751763  1
  Te  Te51  1  0.538910  0.067774  0.251763  1
