# generated using pymatgen
data_UTlF5
_symmetry_space_group_name_H-M   'P 1'
_cell_length_a   8.31876004
_cell_length_b   8.42867792
_cell_length_c   13.99732383
_cell_angle_alpha   90.00000000
_cell_angle_beta   90.00000000
_cell_angle_gamma   102.74793424
_symmetry_Int_Tables_number   1
_chemical_formula_structural   UTlF5
_chemical_formula_sum   'U8 Tl8 F40'
_cell_volume   957.24625775
_cell_formula_units_Z   8
loop_
 _symmetry_equiv_pos_site_id
 _symmetry_equiv_pos_as_xyz
  1  'x, y, z'
loop_
 _atom_site_type_symbol
 _atom_site_label
 _atom_site_symmetry_multiplicity
 _atom_site_fract_x
 _atom_site_fract_y
 _atom_site_fract_z
 _atom_site_occupancy
  F  F0  1  0.982789  0.066113  0.898999  1
  F  F1  1  0.017211  0.433887  0.398999  1
  F  F2  1  0.017211  0.933887  0.101001  1
  F  F3  1  0.982789  0.566113  0.601001  1
  F  F4  1  0.526018  0.421081  0.896857  1
  F  F5  1  0.473982  0.078919  0.396857  1
  F  F6  1  0.473982  0.578919  0.103143  1
  F  F7  1  0.526018  0.921081  0.603143  1
  F  F8  1  0.934259  0.113797  0.596709  1
  F  F9  1  0.065741  0.386203  0.096709  1
  F  F10  1  0.065741  0.886203  0.403291  1
  F  F11  1  0.934259  0.613797  0.903291  1
  F  F12  1  0.715472  0.308729  0.311799  1
  F  F13  1  0.284528  0.191271  0.811799  1
  F  F14  1  0.284528  0.691271  0.688201  1
  F  F15  1  0.715472  0.808729  0.188201  1
  F  F16  1  0.530695  0.731249  0.801911  1
  F  F17  1  0.469305  0.768751  0.301911  1
  F  F18  1  0.469305  0.268751  0.198089  1
  F  F19  1  0.530695  0.231249  0.698089  1
  F  F20  1  0.920996  0.824256  0.709066  1
  F  F21  1  0.079004  0.675744  0.209066  1
  F  F22  1  0.079004  0.175744  0.290934  1
  F  F23  1  0.920996  0.324256  0.790934  1
  F  F24  1  0.729906  0.529562  0.738733  1
  F  F25  1  0.270094  0.970438  0.238733  1
  F  F26  1  0.270094  0.470438  0.261267  1
  F  F27  1  0.729906  0.029562  0.761267  1
  F  F28  1  0.773900  0.980487  0.347160  1
  F  F29  1  0.226100  0.519513  0.847160  1
  F  F30  1  0.226100  0.019513  0.652840  1
  F  F31  1  0.773900  0.480487  0.152840  1
  F  F32  1  0.518849  0.489979  0.397864  1
  F  F33  1  0.481151  0.010021  0.897864  1
  F  F34  1  0.481151  0.510021  0.602136  1
  F  F35  1  0.518849  0.989979  0.102136  1
  F  F36  1  0.823707  0.644962  0.317275  1
  F  F37  1  0.176293  0.855038  0.817275  1
  F  F38  1  0.176293  0.355038  0.682725  1
  F  F39  1  0.823707  0.144962  0.182725  1
  Tl  Tl40  1  0.769962  0.779409  0.519828  1
  Tl  Tl41  1  0.230038  0.720591  0.019828  1
  Tl  Tl42  1  0.230038  0.220591  0.480172  1
  Tl  Tl43  1  0.769962  0.279409  0.980172  1
  Tl  Tl44  1  0.724767  0.801917  0.985751  1
  Tl  Tl45  1  0.275233  0.698083  0.485751  1
  Tl  Tl46  1  0.275233  0.198083  0.014249  1
  Tl  Tl47  1  0.724767  0.301917  0.514249  1
  U  U48  1  0.984600  0.902789  0.255569  1
  U  U49  1  0.015400  0.597211  0.755569  1
  U  U50  1  0.015400  0.097211  0.744431  1
  U  U51  1  0.984600  0.402789  0.244431  1
  U  U52  1  0.553215  0.539073  0.246470  1
  U  U53  1  0.446785  0.960927  0.746470  1
  U  U54  1  0.446785  0.460927  0.753530  1
  U  U55  1  0.553215  0.039073  0.253530  1
