# generated using pymatgen
data_K3GeH3S3O2
_symmetry_space_group_name_H-M   'P 1'
_cell_length_a   6.80299076
_cell_length_b   7.54871748
_cell_length_c   10.15410501
_cell_angle_alpha   87.93253961
_cell_angle_beta   81.81377915
_cell_angle_gamma   69.62098673
_symmetry_Int_Tables_number   1
_chemical_formula_structural   K3GeH3S3O2
_chemical_formula_sum   'K6 Ge2 H6 S6 O4'
_cell_volume   483.78247182
_cell_formula_units_Z   2
loop_
 _symmetry_equiv_pos_site_id
 _symmetry_equiv_pos_as_xyz
  1  'x, y, z'
loop_
 _atom_site_type_symbol
 _atom_site_label
 _atom_site_symmetry_multiplicity
 _atom_site_fract_x
 _atom_site_fract_y
 _atom_site_fract_z
 _atom_site_occupancy
  H  H0  1  0.064467  0.059519  0.172116  1
  H  H1  1  0.935533  0.940481  0.827884  1
  H  H2  1  0.059596  0.870944  0.236286  1
  H  H3  1  0.940404  0.129056  0.763714  1
  H  H4  1  0.859959  0.583742  0.376745  1
  H  H5  1  0.140041  0.416258  0.623255  1
  O  O6  1  0.037956  0.003775  0.789616  1
  O  O7  1  0.098224  0.495878  0.705925  1
  O  O8  1  0.901776  0.504122  0.294075  1
  O  O9  1  0.962044  0.996225  0.210384  1
  S  S10  1  0.735401  0.777740  0.911913  1
  S  S11  1  0.264599  0.222260  0.088087  1
  S  S12  1  0.270285  0.201902  0.449896  1
  S  S13  1  0.660219  0.393823  0.743718  1
  S  S14  1  0.339781  0.606177  0.256282  1
  S  S15  1  0.729715  0.798098  0.550104  1
  K  K16  1  0.235648  0.639985  0.947501  1
  K  K17  1  0.764352  0.360015  0.052499  1
  K  K18  1  0.748965  0.238280  0.442327  1
  K  K19  1  0.251035  0.761720  0.557673  1
  K  K20  1  0.605597  0.877572  0.226059  1
  K  K21  1  0.394403  0.122428  0.773941  1
  Ge  Ge22  1  0.805307  0.615387  0.723871  1
  Ge  Ge23  1  0.194693  0.384613  0.276129  1
