# generated using pymatgen
data_TbAg3H6C6(N2O)3
_symmetry_space_group_name_H-M   'P 1'
_cell_length_a   6.77601185
_cell_length_b   6.77601219
_cell_length_c   18.42295688
_cell_angle_alpha   90.00000000
_cell_angle_beta   90.00000000
_cell_angle_gamma   119.99999838
_symmetry_Int_Tables_number   1
_chemical_formula_structural   TbAg3H6C6(N2O)3
_chemical_formula_sum   'Tb2 Ag6 H12 C12 N12 O6'
_cell_volume   732.55174959
_cell_formula_units_Z   2
loop_
 _symmetry_equiv_pos_site_id
 _symmetry_equiv_pos_as_xyz
  1  'x, y, z'
loop_
 _atom_site_type_symbol
 _atom_site_label
 _atom_site_symmetry_multiplicity
 _atom_site_fract_x
 _atom_site_fract_y
 _atom_site_fract_z
 _atom_site_occupancy
  Tb  Tb0  1  0.000000  0.000000  0.250000  1
  Tb  Tb1  1  0.000000  0.000000  0.750000  1
  Ag  Ag2  1  0.500000  0.000000  0.500000  1
  Ag  Ag3  1  0.500000  0.500000  0.000000  1
  Ag  Ag4  1  0.500000  0.000000  0.000000  1
  Ag  Ag5  1  0.500000  0.500000  0.500000  1
  Ag  Ag6  1  0.000000  0.500000  0.000000  1
  Ag  Ag7  1  0.000000  0.500000  0.500000  1
  H  H8  1  0.445925  0.000000  0.207496  1
  H  H9  1  0.445925  0.445925  0.707496  1
  H  H10  1  1.000000  0.554075  0.707496  1
  H  H11  1  0.000000  0.445925  0.292504  1
  H  H12  1  1.000000  0.554075  0.792504  1
  H  H13  1  0.554075  0.554075  0.207496  1
  H  H14  1  0.000000  0.445925  0.207496  1
  H  H15  1  0.445925  0.000000  0.292504  1
  H  H16  1  0.445925  0.445925  0.792504  1
  H  H17  1  0.554075  0.000000  0.792504  1
  H  H18  1  0.554075  0.000000  0.707496  1
  H  H19  1  0.554075  0.554075  0.292504  1
  C  C20  1  0.653543  0.000000  0.096371  1
  C  C21  1  1.000000  0.653543  0.403629  1
  C  C22  1  0.000000  0.346457  0.903629  1
  C  C23  1  0.653543  0.653543  0.596371  1
  C  C24  1  0.346457  0.000000  0.903629  1
  C  C25  1  1.000000  0.653543  0.096371  1
  C  C26  1  0.346457  0.346457  0.403629  1
  C  C27  1  0.653543  0.000000  0.403629  1
  C  C28  1  0.346457  0.000000  0.596371  1
  C  C29  1  0.653543  0.653543  0.903629  1
  C  C30  1  0.000000  0.346457  0.596371  1
  C  C31  1  0.346457  0.346457  0.096371  1
  N  N32  1  0.256315  0.000000  0.650692  1
  N  N33  1  0.000000  0.743685  0.349308  1
  N  N34  1  1.000000  0.256315  0.650692  1
  N  N35  1  0.743685  0.000000  0.150692  1
  N  N36  1  0.743685  0.743685  0.849308  1
  N  N37  1  0.743685  0.743685  0.650692  1
  N  N38  1  0.256315  0.256315  0.349308  1
  N  N39  1  1.000000  0.256315  0.849308  1
  N  N40  1  0.256315  0.256315  0.150692  1
  N  N41  1  0.000000  0.743685  0.150692  1
  N  N42  1  0.743685  0.000000  0.349308  1
  N  N43  1  0.256315  0.000000  0.849308  1
  O  O44  1  0.640275  0.000000  0.750000  1
  O  O45  1  0.640275  0.640275  0.250000  1
  O  O46  1  0.359725  0.359725  0.750000  1
  O  O47  1  0.359725  0.000000  0.250000  1
  O  O48  1  0.000000  0.640275  0.750000  1
  O  O49  1  1.000000  0.359725  0.250000  1
