# generated using pymatgen
data_CaIn4Pd
_symmetry_space_group_name_H-M   'P 1'
_cell_length_a   4.51981835
_cell_length_b   7.64444681
_cell_length_c   8.75471056
_cell_angle_alpha   90.00000000
_cell_angle_beta   104.95950938
_cell_angle_gamma   90.00000000
_symmetry_Int_Tables_number   1
_chemical_formula_structural   CaIn4Pd
_chemical_formula_sum   'Ca2 In8 Pd2'
_cell_volume   292.23668699
_cell_formula_units_Z   2
loop_
 _symmetry_equiv_pos_site_id
 _symmetry_equiv_pos_as_xyz
  1  'x, y, z'
loop_
 _atom_site_type_symbol
 _atom_site_label
 _atom_site_symmetry_multiplicity
 _atom_site_fract_x
 _atom_site_fract_y
 _atom_site_fract_z
 _atom_site_occupancy
  Ca  Ca0  1  0.872458  0.250000  0.744917  1
  Ca  Ca1  1  0.127542  0.750000  0.255083  1
  Pd  Pd2  1  0.227462  0.250000  0.454923  1
  Pd  Pd3  1  0.772538  0.750000  0.545077  1
  In  In4  1  0.682715  0.049698  0.365429  1
  In  In5  1  0.317285  0.950302  0.634571  1
  In  In6  1  0.317285  0.549698  0.634571  1
  In  In7  1  0.682715  0.450302  0.365429  1
  In  In8  1  0.065756  0.250000  0.131512  1
  In  In9  1  0.934244  0.750000  0.868488  1
  In  In10  1  0.500000  0.000000  0.000000  1
  In  In11  1  0.500000  0.500000  0.000000  1
