# generated using pymatgen
data_FeH10N2OF5
_symmetry_space_group_name_H-M   'P 1'
_cell_length_a   7.87680728
_cell_length_b   8.20644022
_cell_length_c   10.74921970
_cell_angle_alpha   90.00000000
_cell_angle_beta   90.00000000
_cell_angle_gamma   90.00000000
_symmetry_Int_Tables_number   1
_chemical_formula_structural   FeH10N2OF5
_chemical_formula_sum   'Fe4 H40 N8 O4 F20'
_cell_volume   694.83545271
_cell_formula_units_Z   4
loop_
 _symmetry_equiv_pos_site_id
 _symmetry_equiv_pos_as_xyz
  1  'x, y, z'
loop_
 _atom_site_type_symbol
 _atom_site_label
 _atom_site_symmetry_multiplicity
 _atom_site_fract_x
 _atom_site_fract_y
 _atom_site_fract_z
 _atom_site_occupancy
  H  H0  1  0.647446  0.617099  0.520918  1
  H  H1  1  0.147445  0.882901  0.979082  1
  H  H2  1  0.852554  0.617099  0.479082  1
  H  H3  1  0.352554  0.882901  0.020918  1
  H  H4  1  0.352554  0.382902  0.479082  1
  H  H5  1  0.852554  0.117099  0.020918  1
  H  H6  1  0.147445  0.382902  0.520918  1
  H  H7  1  0.647446  0.117099  0.979082  1
  H  H8  1  0.900993  0.504284  0.881693  1
  H  H9  1  0.400994  0.995716  0.618308  1
  H  H10  1  0.599006  0.504284  0.118307  1
  H  H11  1  0.099006  0.995716  0.381693  1
  H  H12  1  0.099006  0.495716  0.118307  1
  H  H13  1  0.599006  0.004285  0.381693  1
  H  H14  1  0.400994  0.495716  0.881693  1
  H  H15  1  0.900993  0.004285  0.618308  1
  H  H16  1  0.042126  0.369498  0.816935  1
  H  H17  1  0.542127  0.130502  0.683064  1
  H  H18  1  0.976068  0.441120  0.242678  1
  H  H19  1  0.957874  0.130502  0.316935  1
  H  H20  1  0.957874  0.630502  0.183065  1
  H  H21  1  0.457874  0.869498  0.316935  1
  H  H22  1  0.542127  0.630502  0.816935  1
  H  H23  1  0.042126  0.869498  0.683064  1
  H  H24  1  0.864809  0.420197  0.740730  1
  H  H25  1  0.364809  0.079802  0.759270  1
  H  H26  1  0.635192  0.420197  0.259271  1
  H  H27  1  0.135192  0.079802  0.240730  1
  H  H28  1  0.135192  0.579803  0.259271  1
  H  H29  1  0.635192  0.920197  0.240730  1
  H  H30  1  0.364809  0.579803  0.740730  1
  H  H31  1  0.864809  0.920197  0.759270  1
  H  H32  1  0.023932  0.558880  0.757323  1
  H  H33  1  0.523932  0.941119  0.742678  1
  H  H34  1  0.476068  0.558880  0.242678  1
  H  H35  1  0.976068  0.941119  0.257323  1
  H  H36  1  0.023932  0.058880  0.742678  1
  H  H37  1  0.523932  0.441120  0.757323  1
  H  H38  1  0.476068  0.058880  0.257323  1
  H  H39  1  0.457874  0.369498  0.183065  1
  N  N40  1  0.957768  0.964543  0.700276  1
  N  N41  1  0.957768  0.464542  0.799724  1
  N  N42  1  0.457768  0.035458  0.700276  1
  N  N43  1  0.542233  0.464542  0.200275  1
  N  N44  1  0.457768  0.535458  0.799724  1
  N  N45  1  0.042233  0.035458  0.299725  1
  N  N46  1  0.042233  0.535458  0.200275  1
  N  N47  1  0.542233  0.964543  0.299725  1
  O  O48  1  0.750000  0.049257  0.000000  1
  O  O49  1  0.250000  0.450744  0.500000  1
  O  O50  1  0.250000  0.950743  0.000000  1
  O  O51  1  0.750000  0.549257  0.500000  1
  F  F52  1  0.983090  0.295901  0.557117  1
  F  F53  1  0.483089  0.204100  0.942884  1
  F  F54  1  0.516910  0.295901  0.442884  1
  F  F55  1  0.016910  0.204100  0.057116  1
  F  F56  1  0.016910  0.704099  0.442884  1
  F  F57  1  0.516910  0.795901  0.057116  1
  F  F58  1  0.672690  0.805889  0.823782  1
  F  F59  1  0.983090  0.795901  0.942884  1
  F  F60  1  0.750000  0.063196  0.500000  1
  F  F61  1  0.250000  0.436803  0.000000  1
  F  F62  1  0.250000  0.936803  0.500000  1
  F  F63  1  0.750000  0.563197  0.000000  1
  F  F64  1  0.327311  0.194111  0.176219  1
  F  F65  1  0.672690  0.305888  0.676219  1
  F  F66  1  0.172690  0.194111  0.823782  1
  F  F67  1  0.827311  0.305888  0.323782  1
  F  F68  1  0.172690  0.694111  0.676219  1
  F  F69  1  0.827311  0.805889  0.176219  1
  F  F70  1  0.327311  0.694111  0.323782  1
  F  F71  1  0.483089  0.704099  0.557117  1
  Fe  Fe72  1  0.750000  0.801490  0.000000  1
  Fe  Fe73  1  0.250000  0.698510  0.500000  1
  Fe  Fe74  1  0.250000  0.198510  0.000000  1
  Fe  Fe75  1  0.750000  0.301491  0.500000  1
