# generated using pymatgen
data_Cs3H(SeO4)2
_symmetry_space_group_name_H-M   'P 1'
_cell_length_a   6.42977584
_cell_length_b   6.42977584
_cell_length_c   8.68068559
_cell_angle_alpha   71.30743512
_cell_angle_beta   71.30743517
_cell_angle_gamma   60.85277042
_symmetry_Int_Tables_number   1
_chemical_formula_structural   Cs3H(SeO4)2
_chemical_formula_sum   'Cs3 H1 Se2 O8'
_cell_volume   290.97912564
_cell_formula_units_Z   1
loop_
 _symmetry_equiv_pos_site_id
 _symmetry_equiv_pos_as_xyz
  1  'x, y, z'
loop_
 _atom_site_type_symbol
 _atom_site_label
 _atom_site_symmetry_multiplicity
 _atom_site_fract_x
 _atom_site_fract_y
 _atom_site_fract_z
 _atom_site_occupancy
  H  H0  1  0.500000  0.500000  0.000000  1
  O  O1  1  0.712923  0.712923  0.257606  1
  O  O2  1  0.287077  0.287077  0.742394  1
  O  O3  1  0.603011  0.603011  0.022142  1
  O  O4  1  0.396989  0.396989  0.977858  1
  O  O5  1  0.697391  0.272816  0.309346  1
  O  O6  1  0.727184  0.302609  0.690654  1
  O  O7  1  0.302609  0.727184  0.690654  1
  O  O8  1  0.272816  0.697391  0.309346  1
  Se  Se9  1  0.571074  0.571074  0.234099  1
  Se  Se10  1  0.428926  0.428926  0.765901  1
  Cs  Cs11  1  0.802028  0.802028  0.609949  1
  Cs  Cs12  1  0.197972  0.197972  0.390051  1
  Cs  Cs13  1  0.000000  0.000000  0.000000  1
