# generated using pymatgen
data_CeS2
_symmetry_space_group_name_H-M   'P 1'
_cell_length_a   4.05671022
_cell_length_b   7.98693788
_cell_length_c   16.09305361
_cell_angle_alpha   90.00000000
_cell_angle_beta   90.00000000
_cell_angle_gamma   90.00000000
_symmetry_Int_Tables_number   1
_chemical_formula_structural   CeS2
_chemical_formula_sum   'Ce8 S16'
_cell_volume   521.42608179
_cell_formula_units_Z   8
loop_
 _symmetry_equiv_pos_site_id
 _symmetry_equiv_pos_as_xyz
  1  'x, y, z'
loop_
 _atom_site_type_symbol
 _atom_site_label
 _atom_site_symmetry_multiplicity
 _atom_site_fract_x
 _atom_site_fract_y
 _atom_site_fract_z
 _atom_site_occupancy
  S  S0  1  0.830075  0.599977  0.502885  1
  S  S1  1  0.169925  0.400023  0.002885  1
  S  S2  1  0.669925  0.099977  0.502885  1
  S  S3  1  0.330075  0.900023  0.002885  1
  S  S4  1  0.352998  0.888242  0.502790  1
  S  S5  1  0.647002  0.111758  0.002790  1
  S  S6  1  0.147002  0.388242  0.502790  1
  S  S7  1  0.852998  0.611758  0.002790  1
  S  S8  1  0.759741  0.876225  0.320457  1
  S  S9  1  0.240259  0.123775  0.820457  1
  S  S10  1  0.740259  0.376225  0.320457  1
  S  S11  1  0.259741  0.623775  0.820457  1
  S  S12  1  0.259780  0.626713  0.185211  1
  S  S13  1  0.740220  0.373287  0.685211  1
  S  S14  1  0.240220  0.126713  0.185211  1
  S  S15  1  0.759780  0.873287  0.685211  1
  Ce  Ce16  1  0.776226  0.869981  0.863756  1
  Ce  Ce17  1  0.223774  0.130019  0.363756  1
  Ce  Ce18  1  0.723774  0.369981  0.863756  1
  Ce  Ce19  1  0.276226  0.630019  0.363756  1
  Ce  Ce20  1  0.276557  0.627401  0.641901  1
  Ce  Ce21  1  0.723443  0.372599  0.141901  1
  Ce  Ce22  1  0.223443  0.127401  0.641901  1
  Ce  Ce23  1  0.776557  0.872599  0.141901  1
