# generated using pymatgen
data_Eu(Ni5P3)2
_symmetry_space_group_name_H-M   'P 1'
_cell_length_a   6.38944288
_cell_length_b   8.66426107
_cell_length_c   8.73656839
_cell_angle_alpha   90.00000000
_cell_angle_beta   90.00000000
_cell_angle_gamma   111.63694770
_symmetry_Int_Tables_number   1
_chemical_formula_structural   Eu(Ni5P3)2
_chemical_formula_sum   'Eu2 Ni20 P12'
_cell_volume   449.57584984
_cell_formula_units_Z   2
loop_
 _symmetry_equiv_pos_site_id
 _symmetry_equiv_pos_as_xyz
  1  'x, y, z'
loop_
 _atom_site_type_symbol
 _atom_site_label
 _atom_site_symmetry_multiplicity
 _atom_site_fract_x
 _atom_site_fract_y
 _atom_site_fract_z
 _atom_site_occupancy
  P  P0  1  0.354786  0.209571  0.750000  1
  P  P1  1  0.145214  0.790429  0.250000  1
  P  P2  1  0.590549  0.181098  0.371284  1
  P  P3  1  0.409451  0.818902  0.628716  1
  P  P4  1  0.909451  0.818902  0.871284  1
  P  P5  1  0.090549  0.181098  0.128716  1
  P  P6  1  0.708564  0.417128  0.073262  1
  P  P7  1  0.291436  0.582872  0.926738  1
  P  P8  1  0.791436  0.582872  0.573262  1
  P  P9  1  0.208564  0.417128  0.426738  1
  P  P10  1  0.645214  0.790429  0.250000  1
  P  P11  1  0.854786  0.209571  0.750000  1
  Ni  Ni12  1  0.792843  0.585685  0.289381  1
  Ni  Ni13  1  0.707157  0.414315  0.789381  1
  Ni  Ni14  1  0.587785  0.675571  0.750000  1
  Ni  Ni15  1  0.292843  0.585685  0.210619  1
  Ni  Ni16  1  0.412215  0.324429  0.250000  1
  Ni  Ni17  1  0.087785  0.675571  0.750000  1
  Ni  Ni18  1  0.043420  0.086839  0.881014  1
  Ni  Ni19  1  0.956580  0.913161  0.118986  1
  Ni  Ni20  1  0.456580  0.913161  0.381014  1
  Ni  Ni21  1  0.543420  0.086839  0.618986  1
  Ni  Ni22  1  0.126100  0.654141  0.470105  1
  Ni  Ni23  1  0.471958  0.345859  0.529895  1
  Ni  Ni24  1  0.373900  0.345859  0.970105  1
  Ni  Ni25  1  0.028042  0.654141  0.029895  1
  Ni  Ni26  1  0.873900  0.345859  0.529895  1
  Ni  Ni27  1  0.528042  0.654141  0.470105  1
  Ni  Ni28  1  0.626100  0.654141  0.029895  1
  Ni  Ni29  1  0.971958  0.345859  0.970105  1
  Ni  Ni30  1  0.912215  0.324429  0.250000  1
  Ni  Ni31  1  0.207157  0.414315  0.710619  1
  Eu  Eu32  1  0.000000  0.000000  0.500000  1
  Eu  Eu33  1  0.500000  0.000000  0.000000  1
