# generated using pymatgen
data_MnH8(ClO2)2
_symmetry_space_group_name_H-M   'P 1'
_cell_length_a   6.20306278
_cell_length_b   9.60522841
_cell_length_c   11.19706165
_cell_angle_alpha   90.00000000
_cell_angle_beta   99.23001354
_cell_angle_gamma   90.00000000
_symmetry_Int_Tables_number   1
_chemical_formula_structural   MnH8(ClO2)2
_chemical_formula_sum   'Mn4 H32 Cl8 O16'
_cell_volume   658.50358247
_cell_formula_units_Z   4
loop_
 _symmetry_equiv_pos_site_id
 _symmetry_equiv_pos_as_xyz
  1  'x, y, z'
loop_
 _atom_site_type_symbol
 _atom_site_label
 _atom_site_symmetry_multiplicity
 _atom_site_fract_x
 _atom_site_fract_y
 _atom_site_fract_z
 _atom_site_occupancy
  H  H0  1  0.641235  0.435242  0.137631  1
  H  H1  1  0.858764  0.935242  0.362369  1
  H  H2  1  0.358765  0.564757  0.862369  1
  H  H3  1  0.141236  0.064758  0.637632  1
  H  H4  1  0.697743  0.568406  0.061991  1
  H  H5  1  0.802257  0.068405  0.438009  1
  H  H6  1  0.302257  0.431594  0.938010  1
  H  H7  1  0.197743  0.931594  0.561991  1
  H  H8  1  0.431182  0.427363  0.404792  1
  H  H9  1  0.068819  0.927363  0.095208  1
  H  H10  1  0.568819  0.572637  0.595208  1
  H  H11  1  0.931182  0.072636  0.904793  1
  H  H12  1  0.683202  0.425794  0.389503  1
  H  H13  1  0.816798  0.925794  0.110497  1
  H  H14  1  0.105407  0.645130  0.115789  1
  H  H15  1  0.183202  0.074206  0.889503  1
  H  H16  1  0.972558  0.695678  0.298882  1
  H  H17  1  0.527442  0.195677  0.201118  1
  H  H18  1  0.027443  0.304323  0.701118  1
  H  H19  1  0.472558  0.804323  0.798881  1
  H  H20  1  0.901969  0.702152  0.428610  1
  H  H21  1  0.598031  0.202152  0.071390  1
  H  H22  1  0.098031  0.297847  0.571390  1
  H  H23  1  0.401969  0.797848  0.928609  1
  H  H24  1  0.131042  0.514619  0.199467  1
  H  H25  1  0.368958  0.014620  0.300533  1
  H  H26  1  0.868958  0.485380  0.800533  1
  H  H27  1  0.631042  0.985381  0.699467  1
  H  H28  1  0.605407  0.854871  0.615789  1
  H  H29  1  0.894593  0.354871  0.884211  1
  H  H30  1  0.394593  0.145130  0.384211  1
  H  H31  1  0.316797  0.574207  0.610497  1
  O  O32  1  0.629930  0.537524  0.130824  1
  O  O33  1  0.870070  0.037524  0.369175  1
  O  O34  1  0.370070  0.462476  0.869176  1
  O  O35  1  0.129931  0.962476  0.630825  1
  O  O36  1  0.542517  0.474286  0.366550  1
  O  O37  1  0.957483  0.974287  0.133450  1
  O  O38  1  0.457483  0.525713  0.633450  1
  O  O39  1  0.042517  0.025713  0.866550  1
  O  O40  1  0.859421  0.733535  0.343443  1
  O  O41  1  0.640579  0.233535  0.156557  1
  O  O42  1  0.140579  0.266465  0.656557  1
  O  O43  1  0.359420  0.766465  0.843443  1
  O  O44  1  0.158615  0.615766  0.200670  1
  O  O45  1  0.341385  0.115767  0.299330  1
  O  O46  1  0.658615  0.884234  0.700669  1
  O  O47  1  0.841385  0.384234  0.799330  1
  Cl  Cl48  1  0.463640  0.865821  0.114108  1
  Cl  Cl49  1  0.036360  0.365822  0.385892  1
  Cl  Cl50  1  0.536360  0.134178  0.885892  1
  Cl  Cl51  1  0.963640  0.634179  0.614108  1
  Cl  Cl52  1  0.410647  0.813120  0.440697  1
  Cl  Cl53  1  0.089353  0.313120  0.059302  1
  Cl  Cl54  1  0.910647  0.686880  0.940698  1
  Cl  Cl55  1  0.589353  0.186880  0.559302  1
  Mn  Mn56  1  0.514329  0.672428  0.266360  1
  Mn  Mn57  1  0.985670  0.172429  0.233640  1
  Mn  Mn58  1  0.485671  0.327572  0.733639  1
  Mn  Mn59  1  0.014330  0.827572  0.766360  1
