# generated using pymatgen
data_NbO2
_symmetry_space_group_name_H-M   'P 1'
_cell_length_a   2.95300270
_cell_length_b   5.03109290
_cell_length_c   5.03109290
_cell_angle_alpha   90.00000000
_cell_angle_beta   90.00000000
_cell_angle_gamma   90.00000000
_symmetry_Int_Tables_number   1
_chemical_formula_structural   NbO2
_chemical_formula_sum   'Nb2 O4'
_cell_volume   74.74609655
_cell_formula_units_Z   2
loop_
 _symmetry_equiv_pos_site_id
 _symmetry_equiv_pos_as_xyz
  1  'x, y, z'
loop_
 _atom_site_type_symbol
 _atom_site_label
 _atom_site_symmetry_multiplicity
 _atom_site_fract_x
 _atom_site_fract_y
 _atom_site_fract_z
 _atom_site_occupancy
  O  O0  1  0.000000  0.712235  0.712235  1
  O  O1  1  0.499998  0.787764  0.212236  1
  O  O2  1  0.000000  0.287765  0.287765  1
  O  O3  1  0.499998  0.212236  0.787764  1
  Nb  Nb4  1  0.499998  0.500001  0.500001  1
  Nb  Nb5  1  0.000000  0.000000  0.000000  1
