# generated using pymatgen
data_Rb3GaP2
_symmetry_space_group_name_H-M   'P 1'
_cell_length_a   9.24714579
_cell_length_b   14.92556056
_cell_length_c   25.12701619
_cell_angle_alpha   90.00000000
_cell_angle_beta   90.00000000
_cell_angle_gamma   90.00000000
_symmetry_Int_Tables_number   1
_chemical_formula_structural   Rb3GaP2
_chemical_formula_sum   'Rb48 Ga16 P32'
_cell_volume   3468.00148890
_cell_formula_units_Z   16
loop_
 _symmetry_equiv_pos_site_id
 _symmetry_equiv_pos_as_xyz
  1  'x, y, z'
loop_
 _atom_site_type_symbol
 _atom_site_label
 _atom_site_symmetry_multiplicity
 _atom_site_fract_x
 _atom_site_fract_y
 _atom_site_fract_z
 _atom_site_occupancy
  P  P0  1  0.185658  0.954064  0.334500  1
  P  P1  1  0.685658  0.545936  0.665500  1
  P  P2  1  0.814342  0.454064  0.165500  1
  P  P3  1  0.314342  0.045936  0.834500  1
  P  P4  1  0.814342  0.045936  0.665500  1
  P  P5  1  0.314342  0.454064  0.334500  1
  P  P6  1  0.185658  0.545936  0.834500  1
  P  P7  1  0.685658  0.954064  0.165500  1
  P  P8  1  0.078562  0.681033  0.195683  1
  P  P9  1  0.578562  0.818967  0.804317  1
  P  P10  1  0.921438  0.181033  0.304317  1
  P  P11  1  0.421438  0.318967  0.695683  1
  P  P12  1  0.921438  0.318967  0.804317  1
  P  P13  1  0.421438  0.181033  0.195683  1
  P  P14  1  0.078562  0.818967  0.695683  1
  P  P15  1  0.578562  0.681033  0.304317  1
  P  P16  1  0.675934  0.455790  0.396616  1
  P  P17  1  0.175934  0.044210  0.603384  1
  P  P18  1  0.324066  0.955790  0.103384  1
  P  P19  1  0.824066  0.544210  0.896616  1
  P  P20  1  0.324066  0.544210  0.603384  1
  P  P21  1  0.824066  0.955790  0.396616  1
  P  P22  1  0.675934  0.044210  0.896616  1
  P  P23  1  0.175934  0.455790  0.103384  1
  P  P24  1  0.118993  0.764341  0.455557  1
  P  P25  1  0.618993  0.735659  0.544443  1
  P  P26  1  0.881007  0.264341  0.044443  1
  P  P27  1  0.381007  0.235659  0.955557  1
  P  P28  1  0.881007  0.235659  0.544443  1
  P  P29  1  0.381007  0.264341  0.455557  1
  P  P30  1  0.118993  0.735659  0.955557  1
  P  P31  1  0.618993  0.764341  0.044443  1
  Ga  Ga32  1  0.528525  0.545123  0.341128  1
  Ga  Ga33  1  0.028525  0.954877  0.658872  1
  Ga  Ga34  1  0.471475  0.045123  0.158872  1
  Ga  Ga35  1  0.971475  0.454877  0.841128  1
  Ga  Ga36  1  0.471475  0.454877  0.658872  1
  Ga  Ga37  1  0.971475  0.045123  0.341128  1
  Ga  Ga38  1  0.528525  0.954877  0.841128  1
  Ga  Ga39  1  0.028525  0.545123  0.158872  1
  Ga  Ga40  1  0.049172  0.876833  0.401481  1
  Ga  Ga41  1  0.549172  0.623167  0.598519  1
  Ga  Ga42  1  0.950828  0.376833  0.098519  1
  Ga  Ga43  1  0.450828  0.123167  0.901481  1
  Ga  Ga44  1  0.950828  0.123167  0.598519  1
  Ga  Ga45  1  0.450828  0.376833  0.401481  1
  Ga  Ga46  1  0.049172  0.623167  0.901481  1
  Ga  Ga47  1  0.549172  0.876833  0.098519  1
  Rb  Rb48  1  0.213745  0.682120  0.329942  1
  Rb  Rb49  1  0.713745  0.817880  0.670058  1
  Rb  Rb50  1  0.786255  0.182120  0.170058  1
  Rb  Rb51  1  0.286255  0.317880  0.829942  1
  Rb  Rb52  1  0.786255  0.317880  0.670058  1
  Rb  Rb53  1  0.286255  0.182120  0.329942  1
  Rb  Rb54  1  0.213745  0.817880  0.829942  1
  Rb  Rb55  1  0.713745  0.682120  0.170058  1
  Rb  Rb56  1  0.781292  0.678948  0.428359  1
  Rb  Rb57  1  0.281292  0.821052  0.571641  1
  Rb  Rb58  1  0.218708  0.178948  0.071641  1
  Rb  Rb59  1  0.718708  0.321052  0.928359  1
  Rb  Rb60  1  0.218708  0.321052  0.571641  1
  Rb  Rb61  1  0.718708  0.178948  0.428359  1
  Rb  Rb62  1  0.781292  0.821052  0.928359  1
  Rb  Rb63  1  0.281292  0.678948  0.071641  1
  Rb  Rb64  1  0.890560  0.540285  0.290791  1
  Rb  Rb65  1  0.390560  0.959715  0.709209  1
  Rb  Rb66  1  0.109440  0.040285  0.209209  1
  Rb  Rb67  1  0.609440  0.459715  0.790791  1
  Rb  Rb68  1  0.109440  0.459715  0.709209  1
  Rb  Rb69  1  0.609440  0.040285  0.290791  1
  Rb  Rb70  1  0.890560  0.959715  0.790791  1
  Rb  Rb71  1  0.390560  0.540285  0.209209  1
  Rb  Rb72  1  0.359164  0.594511  0.472776  1
  Rb  Rb73  1  0.859164  0.905489  0.527224  1
  Rb  Rb74  1  0.640836  0.094511  0.027224  1
  Rb  Rb75  1  0.140836  0.405489  0.972776  1
  Rb  Rb76  1  0.640836  0.405489  0.527224  1
  Rb  Rb77  1  0.140836  0.094511  0.472776  1
  Rb  Rb78  1  0.359164  0.905489  0.972776  1
  Rb  Rb79  1  0.859164  0.594511  0.027224  1
  Rb  Rb80  1  0.859426  0.829721  0.275882  1
  Rb  Rb81  1  0.359426  0.670279  0.724118  1
  Rb  Rb82  1  0.140574  0.329721  0.224118  1
  Rb  Rb83  1  0.640574  0.170279  0.775882  1
  Rb  Rb84  1  0.140574  0.170279  0.724118  1
  Rb  Rb85  1  0.640574  0.329721  0.275882  1
  Rb  Rb86  1  0.859426  0.670279  0.775882  1
  Rb  Rb87  1  0.359426  0.829721  0.224118  1
  Rb  Rb88  1  0.459945  0.853003  0.413869  1
  Rb  Rb89  1  0.959945  0.646997  0.586131  1
  Rb  Rb90  1  0.540055  0.353003  0.086131  1
  Rb  Rb91  1  0.040055  0.146997  0.913869  1
  Rb  Rb92  1  0.540055  0.146997  0.586131  1
  Rb  Rb93  1  0.040055  0.353003  0.413869  1
  Rb  Rb94  1  0.459945  0.646997  0.913869  1
  Rb  Rb95  1  0.959945  0.853003  0.086131  1
