# generated using pymatgen
data_Lu(ClO4)3
_symmetry_space_group_name_H-M   'P 1'
_cell_length_a   9.36615371
_cell_length_b   9.36615370
_cell_length_c   9.36615371
_cell_angle_alpha   52.18689353
_cell_angle_beta   52.18689353
_cell_angle_gamma   52.18689355
_symmetry_Int_Tables_number   1
_chemical_formula_structural   Lu(ClO4)3
_chemical_formula_sum   'Lu2 Cl6 O24'
_cell_volume   474.32497001
_cell_formula_units_Z   2
loop_
 _symmetry_equiv_pos_site_id
 _symmetry_equiv_pos_as_xyz
  1  'x, y, z'
loop_
 _atom_site_type_symbol
 _atom_site_label
 _atom_site_symmetry_multiplicity
 _atom_site_fract_x
 _atom_site_fract_y
 _atom_site_fract_z
 _atom_site_occupancy
  O  O0  1  0.883337  0.206452  0.278559  1
  O  O1  1  0.206452  0.278559  0.883337  1
  O  O2  1  0.278559  0.883337  0.206452  1
  O  O3  1  0.778559  0.706452  0.383337  1
  O  O4  1  0.706452  0.383337  0.778559  1
  O  O5  1  0.383337  0.778559  0.706452  1
  O  O6  1  0.626551  0.257080  0.575237  1
  O  O7  1  0.257080  0.575237  0.626551  1
  O  O8  1  0.445625  0.072129  0.506444  1
  O  O9  1  0.506444  0.445625  0.072129  1
  O  O10  1  0.072129  0.506444  0.445625  1
  O  O11  1  0.572129  0.945625  1.006444  1
  O  O12  1  1.006444  0.572129  0.945625  1
  O  O13  1  0.945625  1.006444  0.572129  1
  O  O14  1  0.384724  0.917486  0.850242  1
  O  O15  1  0.850242  0.384724  0.917486  1
  O  O16  1  0.917486  0.850242  0.384724  1
  O  O17  1  0.417486  0.884724  0.350242  1
  O  O18  1  0.350242  0.417486  0.884724  1
  O  O19  1  0.884724  0.350242  0.417486  1
  O  O20  1  0.126551  0.075237  0.757080  1
  O  O21  1  0.757080  0.126551  0.075237  1
  O  O22  1  0.075237  0.757080  0.126551  1
  O  O23  1  0.575237  0.626551  0.257080  1
  Cl  Cl24  1  0.840871  0.195264  0.464138  1
  Cl  Cl25  1  0.195264  0.464138  0.840871  1
  Cl  Cl26  1  0.464138  0.840871  0.195264  1
  Cl  Cl27  1  0.964138  0.695264  0.340871  1
  Cl  Cl28  1  0.695264  0.340871  0.964138  1
  Cl  Cl29  1  0.340871  0.964138  0.695264  1
  Lu  Lu30  1  0.058361  0.058361  0.058361  1
  Lu  Lu31  1  0.558361  0.558361  0.558361  1
