# generated using pymatgen
data_Na3BP2
_symmetry_space_group_name_H-M   'P 1'
_cell_length_a   7.00918006
_cell_length_b   9.16053500
_cell_length_c   9.30551945
_cell_angle_alpha   90.00000000
_cell_angle_beta   90.00000000
_cell_angle_gamma   110.92281908
_symmetry_Int_Tables_number   1
_chemical_formula_structural   Na3BP2
_chemical_formula_sum   'Na12 B4 P8'
_cell_volume   558.09037276
_cell_formula_units_Z   4
loop_
 _symmetry_equiv_pos_site_id
 _symmetry_equiv_pos_as_xyz
  1  'x, y, z'
loop_
 _atom_site_type_symbol
 _atom_site_label
 _atom_site_symmetry_multiplicity
 _atom_site_fract_x
 _atom_site_fract_y
 _atom_site_fract_z
 _atom_site_occupancy
  B  B0  1  0.775155  0.317762  0.171332  1
  B  B1  1  0.224845  0.182238  0.671332  1
  B  B2  1  0.775155  0.817762  0.328668  1
  B  B3  1  0.224845  0.682238  0.828668  1
  Na  Na4  1  0.263781  0.182394  0.286597  1
  Na  Na5  1  0.756681  0.022025  0.069321  1
  Na  Na6  1  0.756681  0.522025  0.430679  1
  Na  Na7  1  0.243319  0.477975  0.569321  1
  Na  Na8  1  0.221745  0.388787  0.972904  1
  Na  Na9  1  0.778255  0.111213  0.472904  1
  Na  Na10  1  0.778255  0.611213  0.027096  1
  Na  Na11  1  0.221745  0.888787  0.527096  1
  Na  Na12  1  0.263781  0.682394  0.213403  1
  Na  Na13  1  0.736219  0.817606  0.713403  1
  Na  Na14  1  0.243319  0.977975  0.930679  1
  Na  Na15  1  0.736219  0.317606  0.786597  1
  P  P16  1  0.553326  0.768349  0.438602  1
  P  P17  1  0.446674  0.731651  0.938602  1
  P  P18  1  0.446674  0.231651  0.561398  1
  P  P19  1  0.553326  0.268349  0.061398  1
  P  P20  1  0.002724  0.364662  0.275508  1
  P  P21  1  0.997276  0.135338  0.775508  1
  P  P22  1  0.997276  0.635338  0.724492  1
  P  P23  1  0.002724  0.864662  0.224492  1
