# generated using pymatgen
data_LiBH
_symmetry_space_group_name_H-M   'P 1'
_cell_length_a   3.08293396
_cell_length_b   5.90884827
_cell_length_c   6.47653084
_cell_angle_alpha   90.00000000
_cell_angle_beta   90.00000000
_cell_angle_gamma   90.00000000
_symmetry_Int_Tables_number   1
_chemical_formula_structural   LiBH
_chemical_formula_sum   'Li4 B4 H4'
_cell_volume   117.98030043
_cell_formula_units_Z   4
loop_
 _symmetry_equiv_pos_site_id
 _symmetry_equiv_pos_as_xyz
  1  'x, y, z'
loop_
 _atom_site_type_symbol
 _atom_site_label
 _atom_site_symmetry_multiplicity
 _atom_site_fract_x
 _atom_site_fract_y
 _atom_site_fract_z
 _atom_site_occupancy
  H  H0  1  0.250000  0.233139  0.529858  1
  H  H1  1  0.250000  0.733139  0.970142  1
  H  H2  1  0.750000  0.766861  0.470142  1
  H  H3  1  0.750000  0.266861  0.029858  1
  Li  Li4  1  0.750000  0.247615  0.710191  1
  Li  Li5  1  0.250000  0.252385  0.210191  1
  Li  Li6  1  0.750000  0.747615  0.789809  1
  Li  Li7  1  0.250000  0.752385  0.289809  1
  B  B8  1  0.250000  0.948385  0.987786  1
  B  B9  1  0.250000  0.448385  0.512214  1
  B  B10  1  0.750000  0.551615  0.487786  1
  B  B11  1  0.750000  0.051615  0.012214  1
