# generated using pymatgen
data_VPO5
_symmetry_space_group_name_H-M   'P 1'
_cell_length_a   7.00279018
_cell_length_b   7.81407401
_cell_length_c   7.58399550
_cell_angle_alpha   90.81345816
_cell_angle_beta   90.20436795
_cell_angle_gamma   119.92642143
_symmetry_Int_Tables_number   1
_chemical_formula_structural   VPO5
_chemical_formula_sum   'V4 P4 O20'
_cell_volume   359.60215341
_cell_formula_units_Z   4
loop_
 _symmetry_equiv_pos_site_id
 _symmetry_equiv_pos_as_xyz
  1  'x, y, z'
loop_
 _atom_site_type_symbol
 _atom_site_label
 _atom_site_symmetry_multiplicity
 _atom_site_fract_x
 _atom_site_fract_y
 _atom_site_fract_z
 _atom_site_occupancy
  O  O0  1  0.167370  0.876678  0.973506  1
  O  O1  1  0.064142  0.642085  0.225658  1
  O  O2  1  0.226601  0.721365  0.649930  1
  O  O3  1  0.279399  0.612238  0.970983  1
  O  O4  1  0.207681  0.386154  0.519013  1
  O  O5  1  0.456359  0.899578  0.188473  1
  O  O6  1  0.053419  0.100767  0.301020  1
  O  O7  1  0.259243  0.240486  0.851926  1
  O  O8  1  0.676351  0.875492  0.465082  1
  O  O9  1  0.552652  0.637030  0.716948  1
  O  O10  1  0.447348  0.362970  0.283052  1
  O  O11  1  0.323649  0.124508  0.534918  1
  O  O12  1  0.740757  0.759514  0.148074  1
  O  O13  1  0.946581  0.899233  0.698980  1
  O  O14  1  0.543641  0.100422  0.811527  1
  O  O15  1  0.792319  0.613846  0.480987  1
  O  O16  1  0.720601  0.387762  0.029017  1
  O  O17  1  0.773399  0.278635  0.350070  1
  O  O18  1  0.935858  0.357915  0.774342  1
  O  O19  1  0.832630  0.123322  0.026494  1
  P  P20  1  0.240221  0.757394  0.087704  1
  P  P21  1  0.256588  0.243668  0.411410  1
  P  P22  1  0.743412  0.756332  0.588590  1
  P  P23  1  0.759779  0.242606  0.912296  1
  V  V24  1  0.242503  0.538465  0.729026  1
  V  V25  1  0.249947  0.044105  0.771855  1
  V  V26  1  0.750053  0.955895  0.228145  1
  V  V27  1  0.757497  0.461535  0.270974  1
