# generated using pymatgen
data_CsI2Br
_symmetry_space_group_name_H-M   'P 1'
_cell_length_a   6.96653659
_cell_length_b   10.01355852
_cell_length_c   11.09661857
_cell_angle_alpha   90.00000000
_cell_angle_beta   90.00000000
_cell_angle_gamma   90.00000000
_symmetry_Int_Tables_number   1
_chemical_formula_structural   CsI2Br
_chemical_formula_sum   'Cs4 I8 Br4'
_cell_volume   774.09813431
_cell_formula_units_Z   4
loop_
 _symmetry_equiv_pos_site_id
 _symmetry_equiv_pos_as_xyz
  1  'x, y, z'
loop_
 _atom_site_type_symbol
 _atom_site_label
 _atom_site_symmetry_multiplicity
 _atom_site_fract_x
 _atom_site_fract_y
 _atom_site_fract_z
 _atom_site_occupancy
  Cs  Cs0  1  0.250000  0.450458  0.167343  1
  Cs  Cs1  1  0.750000  0.549542  0.832657  1
  Cs  Cs2  1  0.750000  0.950458  0.332657  1
  Cs  Cs3  1  0.250000  0.049542  0.667343  1
  I  I4  1  0.250000  0.553030  0.631904  1
  I  I5  1  0.750000  0.446970  0.368096  1
  I  I6  1  0.750000  0.053030  0.868096  1
  I  I7  1  0.250000  0.946970  0.131904  1
  I  I8  1  0.250000  0.732780  0.431336  1
  I  I9  1  0.750000  0.267220  0.568664  1
  I  I10  1  0.750000  0.232780  0.068664  1
  I  I11  1  0.250000  0.767220  0.931336  1
  Br  Br12  1  0.250000  0.374344  0.832870  1
  Br  Br13  1  0.750000  0.625656  0.167130  1
  Br  Br14  1  0.750000  0.874344  0.667130  1
  Br  Br15  1  0.250000  0.125656  0.332870  1
