# generated using pymatgen
data_NdHSO5
_symmetry_space_group_name_H-M   'P 1'
_cell_length_a   4.51612240
_cell_length_b   6.95735162
_cell_length_c   12.54062341
_cell_angle_alpha   90.00000000
_cell_angle_beta   90.00000000
_cell_angle_gamma   106.34451610
_symmetry_Int_Tables_number   1
_chemical_formula_structural   NdHSO5
_chemical_formula_sum   'Nd4 H4 S4 O20'
_cell_volume   378.10560102
_cell_formula_units_Z   4
loop_
 _symmetry_equiv_pos_site_id
 _symmetry_equiv_pos_as_xyz
  1  'x, y, z'
loop_
 _atom_site_type_symbol
 _atom_site_label
 _atom_site_symmetry_multiplicity
 _atom_site_fract_x
 _atom_site_fract_y
 _atom_site_fract_z
 _atom_site_occupancy
  H  H0  1  0.238547  0.521692  0.653788  1
  H  H1  1  0.261453  0.978308  0.153788  1
  H  H2  1  0.761453  0.478308  0.346212  1
  H  H3  1  0.738547  0.021692  0.846212  1
  O  O4  1  0.196804  0.457692  0.583479  1
  O  O5  1  0.303196  0.042308  0.083479  1
  O  O6  1  0.803196  0.542308  0.416521  1
  O  O7  1  0.696804  0.957692  0.916521  1
  O  O8  1  0.636572  0.437301  0.165767  1
  O  O9  1  0.863428  0.062699  0.665767  1
  O  O10  1  0.363428  0.562699  0.834233  1
  O  O11  1  0.136572  0.937301  0.334233  1
  O  O12  1  0.756169  0.780535  0.097627  1
  O  O13  1  0.743831  0.719465  0.597627  1
  O  O14  1  0.243831  0.219465  0.902373  1
  O  O15  1  0.256169  0.280535  0.402373  1
  O  O16  1  0.247965  0.550837  0.069986  1
  O  O17  1  0.252035  0.949163  0.569986  1
  O  O18  1  0.752035  0.449163  0.930014  1
  O  O19  1  0.747965  0.050837  0.430014  1
  O  O20  1  0.410981  0.677229  0.247608  1
  O  O21  1  0.089019  0.822771  0.747608  1
  O  O22  1  0.589019  0.322771  0.752392  1
  O  O23  1  0.910981  0.177229  0.252392  1
  S  S24  1  0.018818  0.110845  0.353216  1
  S  S25  1  0.481182  0.389155  0.853216  1
  S  S26  1  0.981182  0.889154  0.646784  1
  S  S27  1  0.518818  0.610846  0.146784  1
  Nd  Nd28  1  0.361658  0.700282  0.437056  1
  Nd  Nd29  1  0.138342  0.799718  0.937056  1
  Nd  Nd30  1  0.638342  0.299718  0.562944  1
  Nd  Nd31  1  0.861658  0.200282  0.062944  1
