# generated using pymatgen
data_NaFeCl4
_symmetry_space_group_name_H-M   'P 1'
_cell_length_a   6.33539758
_cell_length_b   10.05616305
_cell_length_c   10.55877332
_cell_angle_alpha   90.00000000
_cell_angle_beta   90.00000000
_cell_angle_gamma   90.00000000
_symmetry_Int_Tables_number   1
_chemical_formula_structural   NaFeCl4
_chemical_formula_sum   'Na4 Fe4 Cl16'
_cell_volume   672.69724197
_cell_formula_units_Z   4
loop_
 _symmetry_equiv_pos_site_id
 _symmetry_equiv_pos_as_xyz
  1  'x, y, z'
loop_
 _atom_site_type_symbol
 _atom_site_label
 _atom_site_symmetry_multiplicity
 _atom_site_fract_x
 _atom_site_fract_y
 _atom_site_fract_z
 _atom_site_occupancy
  Na  Na0  1  0.311273  0.785406  0.883085  1
  Na  Na1  1  0.688727  0.714594  0.383085  1
  Na  Na2  1  0.188727  0.285406  0.116915  1
  Na  Na3  1  0.811273  0.214594  0.616915  1
  Cl  Cl4  1  0.576521  0.828276  0.127693  1
  Cl  Cl5  1  0.423479  0.671724  0.627693  1
  Cl  Cl6  1  0.923479  0.328276  0.872307  1
  Cl  Cl7  1  0.076521  0.171724  0.372307  1
  Cl  Cl8  1  0.441723  0.509075  0.966180  1
  Cl  Cl9  1  0.941723  0.490925  0.533820  1
  Cl  Cl10  1  0.058277  0.009075  0.033820  1
  Cl  Cl11  1  0.558277  0.990925  0.466180  1
  Cl  Cl12  1  0.897281  0.685515  0.852762  1
  Cl  Cl13  1  0.397281  0.314485  0.647238  1
  Cl  Cl14  1  0.602719  0.185515  0.147238  1
  Cl  Cl15  1  0.102719  0.814485  0.352762  1
  Cl  Cl16  1  0.074215  0.985575  0.655104  1
  Cl  Cl17  1  0.574215  0.014425  0.844896  1
  Cl  Cl18  1  0.425785  0.485575  0.344896  1
  Cl  Cl19  1  0.925785  0.514425  0.155104  1
  Fe  Fe20  1  0.208275  0.989669  0.461446  1
  Fe  Fe21  1  0.708275  0.010331  0.038554  1
  Fe  Fe22  1  0.291725  0.489669  0.538554  1
  Fe  Fe23  1  0.791725  0.510331  0.961446  1
