# generated using pymatgen
data_La3Si3Cl2
_symmetry_space_group_name_H-M   'P 1'
_cell_length_a   4.24702853
_cell_length_b   9.34011656
_cell_length_c   10.67600965
_cell_angle_alpha   97.73034821
_cell_angle_beta   90.00000000
_cell_angle_gamma   103.14134943
_symmetry_Int_Tables_number   1
_chemical_formula_structural   La3Si3Cl2
_chemical_formula_sum   'La6 Si6 Cl4'
_cell_volume   408.44965755
_cell_formula_units_Z   2
loop_
 _symmetry_equiv_pos_site_id
 _symmetry_equiv_pos_as_xyz
  1  'x, y, z'
loop_
 _atom_site_type_symbol
 _atom_site_label
 _atom_site_symmetry_multiplicity
 _atom_site_fract_x
 _atom_site_fract_y
 _atom_site_fract_z
 _atom_site_occupancy
  Si  Si0  1  0.064260  0.128519  0.050664  1
  Si  Si1  1  0.935740  0.871481  0.949336  1
  Si  Si2  1  0.911556  0.823111  0.723019  1
  Si  Si3  1  0.088444  0.176889  0.276981  1
  Si  Si4  1  0.018840  0.037680  0.611580  1
  Si  Si5  1  0.981160  0.962320  0.388420  1
  Cl  Cl6  1  0.773609  0.547219  0.391456  1
  Cl  Cl7  1  0.226391  0.452781  0.608544  1
  Cl  Cl8  1  0.702825  0.405649  0.873969  1
  Cl  Cl9  1  0.297175  0.594351  0.126031  1
  La  La10  1  0.319595  0.639191  0.851352  1
  La  La11  1  0.680405  0.360809  0.148648  1
  La  La12  1  0.615622  0.231244  0.490466  1
  La  La13  1  0.384378  0.768756  0.509534  1
  La  La14  1  0.535210  0.070420  0.830756  1
  La  La15  1  0.464790  0.929580  0.169244  1
