# generated using pymatgen
data_Ca(Ni2B)6
_symmetry_space_group_name_H-M   'P 1'
_cell_length_a   6.02047017
_cell_length_b   6.02047018
_cell_length_c   6.02047017
_cell_angle_alpha   104.35243018
_cell_angle_beta   104.35243015
_cell_angle_gamma   104.35243014
_symmetry_Int_Tables_number   1
_chemical_formula_structural   Ca(Ni2B)6
_chemical_formula_sum   'Ca1 Ni12 B6'
_cell_volume   193.36586347
_cell_formula_units_Z   1
loop_
 _symmetry_equiv_pos_site_id
 _symmetry_equiv_pos_as_xyz
  1  'x, y, z'
loop_
 _atom_site_type_symbol
 _atom_site_label
 _atom_site_symmetry_multiplicity
 _atom_site_fract_x
 _atom_site_fract_y
 _atom_site_fract_z
 _atom_site_occupancy
  B  B0  1  0.764545  0.764545  0.334812  1
  B  B1  1  0.764545  0.334812  0.764545  1
  B  B2  1  0.334812  0.764545  0.764545  1
  B  B3  1  0.235455  0.665188  0.235455  1
  B  B4  1  0.235455  0.235455  0.665188  1
  B  B5  1  0.665188  0.235455  0.235455  1
  Ca  Ca6  1  0.000000  0.000000  0.000000  1
  Ni  Ni7  1  0.869380  0.500000  0.130620  1
  Ni  Ni8  1  0.456370  0.456370  0.186630  1
  Ni  Ni9  1  0.456370  0.186630  0.456370  1
  Ni  Ni10  1  0.813370  0.543630  0.543630  1
  Ni  Ni11  1  0.543630  0.813370  0.543630  1
  Ni  Ni12  1  0.543630  0.543630  0.813370  1
  Ni  Ni13  1  0.500000  0.130620  0.869380  1
  Ni  Ni14  1  0.130620  0.869380  0.500000  1
  Ni  Ni15  1  0.130620  0.500000  0.869380  1
  Ni  Ni16  1  0.500000  0.869380  0.130620  1
  Ni  Ni17  1  0.869380  0.130620  0.500000  1
  Ni  Ni18  1  0.186630  0.456370  0.456370  1
