# generated using pymatgen
data_AuClO
_symmetry_space_group_name_H-M   'P 1'
_cell_length_a   8.35060333
_cell_length_b   8.35060304
_cell_length_c   8.35060346
_cell_angle_alpha   113.48997247
_cell_angle_beta   113.48997170
_cell_angle_gamma   113.48997853
_symmetry_Int_Tables_number   1
_chemical_formula_structural   AuClO
_chemical_formula_sum   'Au6 Cl6 O6'
_cell_volume   366.77686787
_cell_formula_units_Z   6
loop_
 _symmetry_equiv_pos_site_id
 _symmetry_equiv_pos_as_xyz
  1  'x, y, z'
loop_
 _atom_site_type_symbol
 _atom_site_label
 _atom_site_symmetry_multiplicity
 _atom_site_fract_x
 _atom_site_fract_y
 _atom_site_fract_z
 _atom_site_occupancy
  Au  Au0  1  0.295805  0.415261  0.766208  1
  Au  Au1  1  0.584739  0.233792  0.704195  1
  Au  Au2  1  0.415261  0.766208  0.295805  1
  Au  Au3  1  0.766208  0.295805  0.415261  1
  Au  Au4  1  0.233792  0.704195  0.584739  1
  Au  Au5  1  0.704195  0.584739  0.233792  1
  Cl  Cl6  1  0.869312  0.619642  0.914928  1
  Cl  Cl7  1  0.619642  0.914928  0.869312  1
  Cl  Cl8  1  0.914928  0.869312  0.619642  1
  Cl  Cl9  1  0.130689  0.380358  0.085072  1
  Cl  Cl10  1  0.085072  0.130689  0.380358  1
  Cl  Cl11  1  0.380358  0.085072  0.130689  1
  O  O12  1  0.532397  0.691504  0.129734  1
  O  O13  1  0.308496  0.870266  0.467603  1
  O  O14  1  0.129734  0.532397  0.691504  1
  O  O15  1  0.870266  0.467603  0.308496  1
  O  O16  1  0.691504  0.129734  0.532397  1
  O  O17  1  0.467603  0.308496  0.870266  1
