# generated using pymatgen
data_VO2
_symmetry_space_group_name_H-M   'P 1'
_cell_length_a   5.91991439
_cell_length_b   5.92048956
_cell_length_c   5.93223418
_cell_angle_alpha   120.02864156
_cell_angle_beta   120.02885267
_cell_angle_gamma   89.84004962
_symmetry_Int_Tables_number   1
_chemical_formula_structural   VO2
_chemical_formula_sum   'V4 O8'
_cell_volume   147.09657624
_cell_formula_units_Z   4
loop_
 _symmetry_equiv_pos_site_id
 _symmetry_equiv_pos_as_xyz
  1  'x, y, z'
loop_
 _atom_site_type_symbol
 _atom_site_label
 _atom_site_symmetry_multiplicity
 _atom_site_fract_x
 _atom_site_fract_y
 _atom_site_fract_z
 _atom_site_occupancy
  V  V0  1  0.499986  0.499970  0.000011  1
  V  V1  1  0.999964  0.000012  0.499925  1
  V  V2  1  0.999955  0.499936  0.999969  1
  V  V3  1  0.000082  0.500105  0.500096  1
  O  O4  1  0.760692  0.734372  0.033110  1
  O  O5  1  0.201365  0.737883  0.466616  1
  O  O6  1  0.239282  0.265562  0.966839  1
  O  O7  1  0.227818  0.701257  0.966943  1
  O  O8  1  0.798637  0.262157  0.533388  1
  O  O9  1  0.234364  0.271072  0.532956  1
  O  O10  1  0.765638  0.728949  0.467041  1
  O  O11  1  0.772224  0.298731  0.033111  1
