# generated using pymatgen
data_Cd2P3I
_symmetry_space_group_name_H-M   'P 1'
_cell_length_a   6.30839862
_cell_length_b   6.30839862
_cell_length_c   7.64209475
_cell_angle_alpha   96.28774865
_cell_angle_beta   96.28774869
_cell_angle_gamma   96.65475212
_symmetry_Int_Tables_number   1
_chemical_formula_structural   Cd2P3I
_chemical_formula_sum   'Cd4 P6 I2'
_cell_volume   297.94842259
_cell_formula_units_Z   2
loop_
 _symmetry_equiv_pos_site_id
 _symmetry_equiv_pos_as_xyz
  1  'x, y, z'
loop_
 _atom_site_type_symbol
 _atom_site_label
 _atom_site_symmetry_multiplicity
 _atom_site_fract_x
 _atom_site_fract_y
 _atom_site_fract_z
 _atom_site_occupancy
  P  P0  1  0.941059  0.553241  0.957502  1
  P  P1  1  0.681934  0.592652  0.746996  1
  P  P2  1  0.592652  0.681934  0.246996  1
  P  P3  1  0.553241  0.941059  0.457502  1
  P  P4  1  0.902889  0.812125  0.168694  1
  P  P5  1  0.812125  0.902889  0.668694  1
  Cd  Cd6  1  0.141509  0.853474  0.486801  1
  Cd  Cd7  1  0.640520  0.353344  0.430516  1
  Cd  Cd8  1  0.353344  0.640520  0.930516  1
  Cd  Cd9  1  0.853474  0.141509  0.986801  1
  I  I10  1  0.366139  0.127114  0.955491  1
  I  I11  1  0.127114  0.366139  0.455491  1
