# generated using pymatgen
data_V6PbO11
_symmetry_space_group_name_H-M   'P 1'
_cell_length_a   5.91500814
_cell_length_b   5.91500814
_cell_length_c   13.44829276
_cell_angle_alpha   90.00000000
_cell_angle_beta   90.00000000
_cell_angle_gamma   120.00000001
_symmetry_Int_Tables_number   1
_chemical_formula_structural   V6PbO11
_chemical_formula_sum   'V12 Pb2 O22'
_cell_volume   407.48204732
_cell_formula_units_Z   2
loop_
 _symmetry_equiv_pos_site_id
 _symmetry_equiv_pos_as_xyz
  1  'x, y, z'
loop_
 _atom_site_type_symbol
 _atom_site_label
 _atom_site_symmetry_multiplicity
 _atom_site_fract_x
 _atom_site_fract_y
 _atom_site_fract_z
 _atom_site_occupancy
  O  O0  1  0.333333  0.666666  0.915622  1
  O  O1  1  0.666668  0.333334  0.415622  1
  O  O2  1  0.666668  0.333334  0.084378  1
  O  O3  1  0.333333  0.666666  0.584378  1
  O  O4  1  0.852420  0.704838  0.250000  1
  O  O5  1  0.147581  0.852420  0.750000  1
  O  O6  1  0.704838  0.852420  0.750000  1
  O  O7  1  0.295163  0.147581  0.250000  1
  O  O8  1  0.852419  0.147581  0.250000  1
  O  O9  1  0.147581  0.295162  0.750000  1
  O  O10  1  0.175081  0.824919  0.421269  1
  O  O11  1  0.175082  0.350164  0.421269  1
  O  O12  1  0.649838  0.824919  0.421269  1
  O  O13  1  0.350163  0.175082  0.921269  1
  O  O14  1  0.175082  0.350164  0.078732  1
  O  O15  1  0.824918  0.175082  0.578731  1
  O  O16  1  0.350163  0.175082  0.578731  1
  O  O17  1  0.649838  0.824919  0.078732  1
  O  O18  1  0.824919  0.649837  0.578731  1
  O  O19  1  0.824919  0.649837  0.921269  1
  O  O20  1  0.824918  0.175082  0.921269  1
  O  O21  1  0.175081  0.824919  0.078732  1
  V  V22  1  0.666668  0.333334  0.250000  1
  V  V23  1  0.333333  0.666666  0.750000  1
  V  V24  1  0.000000  0.000000  0.353973  1
  V  V25  1  0.000000  0.000000  0.853973  1
  V  V26  1  0.000000  0.000000  0.646026  1
  V  V27  1  0.000000  0.000000  0.146027  1
  V  V28  1  0.500001  0.000000  0.500000  1
  V  V29  1  0.500001  0.000000  0.000000  1
  V  V30  1  0.999999  0.499999  0.000000  1
  V  V31  1  0.999999  0.499999  0.500000  1
  V  V32  1  0.500000  0.499999  0.500000  1
  V  V33  1  0.500000  0.499999  0.000000  1
  Pb  Pb34  1  0.666668  0.333334  0.750000  1
  Pb  Pb35  1  0.333333  0.666666  0.250000  1
