# generated using pymatgen
data_Sb4S5Cl2
_symmetry_space_group_name_H-M   'P 1'
_cell_length_a   9.56520405
_cell_length_b   11.20718614
_cell_length_c   12.05958025
_cell_angle_alpha   90.00000000
_cell_angle_beta   90.00000000
_cell_angle_gamma   90.00000000
_symmetry_Int_Tables_number   1
_chemical_formula_structural   Sb4S5Cl2
_chemical_formula_sum   'Sb16 S20 Cl8'
_cell_volume   1292.77521161
_cell_formula_units_Z   4
loop_
 _symmetry_equiv_pos_site_id
 _symmetry_equiv_pos_as_xyz
  1  'x, y, z'
loop_
 _atom_site_type_symbol
 _atom_site_label
 _atom_site_symmetry_multiplicity
 _atom_site_fract_x
 _atom_site_fract_y
 _atom_site_fract_z
 _atom_site_occupancy
  S  S0  1  0.941958  0.984394  0.143957  1
  S  S1  1  0.553642  0.189004  0.517422  1
  S  S2  1  0.446358  0.310996  0.017422  1
  S  S3  1  0.946358  0.689004  0.982578  1
  S  S4  1  0.441958  0.015606  0.856043  1
  S  S5  1  0.053642  0.810996  0.482578  1
  S  S6  1  0.058042  0.515606  0.643957  1
  S  S7  1  0.558042  0.484394  0.356043  1
  S  S8  1  0.250000  0.821520  0.030421  1
  S  S9  1  0.750000  0.178480  0.969579  1
  S  S10  1  0.250000  0.321520  0.469579  1
  S  S11  1  0.750000  0.678480  0.530421  1
  S  S12  1  0.946358  0.189004  0.517422  1
  S  S13  1  0.446358  0.810996  0.482578  1
  S  S14  1  0.553642  0.689004  0.982578  1
  S  S15  1  0.053642  0.310996  0.017422  1
  S  S16  1  0.441958  0.515606  0.643957  1
  S  S17  1  0.941958  0.484394  0.356043  1
  S  S18  1  0.058042  0.015606  0.856043  1
  S  S19  1  0.558042  0.984394  0.143957  1
  Cl  Cl20  1  0.750000  0.984227  0.654251  1
  Cl  Cl21  1  0.250000  0.015773  0.345749  1
  Cl  Cl22  1  0.250000  0.785790  0.728878  1
  Cl  Cl23  1  0.250000  0.515773  0.154251  1
  Cl  Cl24  1  0.750000  0.714210  0.228878  1
  Cl  Cl25  1  0.250000  0.285790  0.771122  1
  Cl  Cl26  1  0.750000  0.214210  0.271122  1
  Cl  Cl27  1  0.750000  0.484227  0.845749  1
  Sb  Sb28  1  0.750000  0.955311  0.004529  1
  Sb  Sb29  1  0.250000  0.044689  0.995471  1
  Sb  Sb30  1  0.750000  0.455311  0.495471  1
  Sb  Sb31  1  0.250000  0.544689  0.504529  1
  Sb  Sb32  1  0.250000  0.939980  0.545009  1
  Sb  Sb33  1  0.750000  0.060020  0.454991  1
  Sb  Sb34  1  0.250000  0.439980  0.954991  1
  Sb  Sb35  1  0.750000  0.560020  0.045009  1
  Sb  Sb36  1  0.531552  0.221545  0.842304  1
  Sb  Sb37  1  0.031552  0.778455  0.157696  1
  Sb  Sb38  1  0.968448  0.721545  0.657696  1
  Sb  Sb39  1  0.468448  0.278455  0.342304  1
  Sb  Sb40  1  0.468448  0.778455  0.157696  1
  Sb  Sb41  1  0.968448  0.221545  0.842304  1
  Sb  Sb42  1  0.031552  0.278455  0.342304  1
  Sb  Sb43  1  0.531552  0.721545  0.657696  1
