# generated using pymatgen
data_AgBi3S5
_symmetry_space_group_name_H-M   'P 1'
_cell_length_a   4.06071723
_cell_length_b   7.12510473
_cell_length_c   16.69662827
_cell_angle_alpha   95.28072596
_cell_angle_beta   90.00000000
_cell_angle_gamma   106.55636336
_symmetry_Int_Tables_number   1
_chemical_formula_structural   AgBi3S5
_chemical_formula_sum   'Ag2 Bi6 S10'
_cell_volume   460.91597733
_cell_formula_units_Z   2
loop_
 _symmetry_equiv_pos_site_id
 _symmetry_equiv_pos_as_xyz
  1  'x, y, z'
loop_
 _atom_site_type_symbol
 _atom_site_label
 _atom_site_symmetry_multiplicity
 _atom_site_fract_x
 _atom_site_fract_y
 _atom_site_fract_z
 _atom_site_occupancy
  S  S0  1  0.151217  0.302434  0.534583  1
  S  S1  1  0.848783  0.697566  0.465417  1
  S  S2  1  0.424134  0.848268  0.635834  1
  S  S3  1  0.575866  0.151732  0.364166  1
  S  S4  1  0.153783  0.307566  0.744231  1
  S  S5  1  0.846217  0.692434  0.255769  1
  S  S6  1  0.910810  0.821620  0.859407  1
  S  S7  1  0.089190  0.178380  0.140593  1
  S  S8  1  0.353629  0.707258  0.057532  1
  S  S9  1  0.646371  0.292742  0.942468  1
  Ag  Ag10  1  0.500000  0.000000  0.500000  1
  Ag  Ag11  1  0.000000  0.000000  0.000000  1
  Bi  Bi12  1  0.780227  0.560454  0.606053  1
  Bi  Bi13  1  0.219773  0.439546  0.393947  1
  Bi  Bi14  1  0.525547  0.051094  0.782979  1
  Bi  Bi15  1  0.474453  0.948906  0.217021  1
  Bi  Bi16  1  0.263476  0.526951  0.891172  1
  Bi  Bi17  1  0.736524  0.473049  0.108828  1
