# generated using pymatgen
data_Eu(In4Rh)2
_symmetry_space_group_name_H-M   'P 1'
_cell_length_a   4.42265757
_cell_length_b   14.07511944
_cell_length_c   16.39822608
_cell_angle_alpha   90.00000000
_cell_angle_beta   90.00000000
_cell_angle_gamma   90.00000000
_symmetry_Int_Tables_number   1
_chemical_formula_structural   Eu(In4Rh)2
_chemical_formula_sum   'Eu4 In32 Rh8'
_cell_volume   1020.78028454
_cell_formula_units_Z   4
loop_
 _symmetry_equiv_pos_site_id
 _symmetry_equiv_pos_as_xyz
  1  'x, y, z'
loop_
 _atom_site_type_symbol
 _atom_site_label
 _atom_site_symmetry_multiplicity
 _atom_site_fract_x
 _atom_site_fract_y
 _atom_site_fract_z
 _atom_site_occupancy
  Rh  Rh0  1  0.500000  0.654328  0.096116  1
  Rh  Rh1  1  0.500000  0.965511  0.904493  1
  Rh  Rh2  1  0.500000  0.034489  0.095507  1
  Rh  Rh3  1  0.500000  0.465511  0.595507  1
  Rh  Rh4  1  0.500000  0.534489  0.404493  1
  Rh  Rh5  1  0.500000  0.345672  0.903884  1
  Rh  Rh6  1  0.500000  0.154328  0.403884  1
  Rh  Rh7  1  0.500000  0.845672  0.596116  1
  In  In8  1  0.000000  0.519231  0.133323  1
  In  In9  1  0.000000  0.980769  0.633323  1
  In  In10  1  0.000000  0.019231  0.366677  1
  In  In11  1  0.000000  0.480769  0.866677  1
  In  In12  1  0.000000  0.832696  0.876768  1
  In  In13  1  0.000000  0.167304  0.123232  1
  In  In14  1  0.000000  0.332696  0.623232  1
  In  In15  1  0.000000  0.667304  0.376768  1
  In  In16  1  0.000000  0.550761  0.684066  1
  In  In17  1  0.000000  0.449239  0.315934  1
  In  In18  1  0.000000  0.050761  0.815934  1
  In  In19  1  0.000000  0.949239  0.184066  1
  In  In20  1  0.000000  0.000000  0.000000  1
  In  In21  1  0.000000  0.500000  0.500000  1
  In  In22  1  0.000000  0.760004  0.677906  1
  In  In23  1  0.000000  0.239996  0.322094  1
  In  In24  1  0.000000  0.260004  0.822094  1
  In  In25  1  0.000000  0.739996  0.177906  1
  In  In26  1  0.500000  0.840208  0.044029  1
  In  In27  1  0.500000  0.159792  0.955971  1
  In  In28  1  0.500000  0.340208  0.455971  1
  In  In29  1  0.500000  0.659792  0.544029  1
  In  In30  1  0.000000  0.669869  0.988142  1
  In  In31  1  0.000000  0.330131  0.011858  1
  In  In32  1  0.000000  0.169869  0.511858  1
  In  In33  1  0.000000  0.830131  0.488142  1
  In  In34  1  0.500000  0.600834  0.253231  1
  In  In35  1  0.500000  0.399166  0.746769  1
  In  In36  1  0.500000  0.100834  0.246769  1
  In  In37  1  0.500000  0.899166  0.753231  1
  In  In38  1  0.500000  0.500000  0.000000  1
  In  In39  1  0.500000  0.000000  0.500000  1
  Eu  Eu40  1  0.500000  0.656632  0.819376  1
  Eu  Eu41  1  0.500000  0.343368  0.180624  1
  Eu  Eu42  1  0.500000  0.156632  0.680624  1
  Eu  Eu43  1  0.500000  0.843368  0.319376  1
