# generated using pymatgen
data_CaV4(AgO6)2
_symmetry_space_group_name_H-M   'P 1'
_cell_length_a   5.06657587
_cell_length_b   10.53529068
_cell_length_c   10.53529068
_cell_angle_alpha   90.00000000
_cell_angle_beta   90.00000000
_cell_angle_gamma   90.00000000
_symmetry_Int_Tables_number   1
_chemical_formula_structural   CaV4(AgO6)2
_chemical_formula_sum   'Ca2 V8 Ag4 O24'
_cell_volume   562.35116081
_cell_formula_units_Z   2
loop_
 _symmetry_equiv_pos_site_id
 _symmetry_equiv_pos_as_xyz
  1  'x, y, z'
loop_
 _atom_site_type_symbol
 _atom_site_label
 _atom_site_symmetry_multiplicity
 _atom_site_fract_x
 _atom_site_fract_y
 _atom_site_fract_z
 _atom_site_occupancy
  O  O0  1  0.242014  0.560534  0.681726  1
  O  O1  1  0.242014  0.939466  0.818274  1
  O  O2  1  0.242014  0.681726  0.939466  1
  O  O3  1  0.242014  0.818274  0.560534  1
  O  O4  1  0.757986  0.681726  0.560534  1
  O  O5  1  0.757986  0.939466  0.681726  1
  O  O6  1  0.757986  0.560534  0.818274  1
  O  O7  1  0.757986  0.818274  0.939466  1
  O  O8  1  0.757986  0.439465  0.318274  1
  O  O9  1  0.757986  0.060535  0.181726  1
  O  O10  1  0.757986  0.318274  0.060535  1
  O  O11  1  0.757986  0.181726  0.439465  1
  O  O12  1  0.242014  0.318274  0.439465  1
  O  O13  1  0.242014  0.060535  0.318274  1
  O  O14  1  0.145878  0.629737  0.370262  1
  O  O15  1  0.145878  0.129738  0.629737  1
  O  O16  1  0.145878  0.370262  0.870263  1
  O  O17  1  0.145878  0.870263  0.129738  1
  O  O18  1  0.854122  0.629737  0.129738  1
  O  O19  1  0.242014  0.439465  0.181726  1
  O  O20  1  0.854122  0.370262  0.629737  1
  O  O21  1  0.854122  0.129738  0.870263  1
  O  O22  1  0.242014  0.181726  0.060535  1
  O  O23  1  0.854122  0.870263  0.370262  1
  Ca  Ca24  1  0.500001  0.750000  0.750000  1
  Ca  Ca25  1  0.500001  0.250000  0.250000  1
  V  V26  1  0.000000  0.973242  0.250000  1
  V  V27  1  0.000000  0.473242  0.750000  1
  V  V28  1  0.000000  0.750000  0.473242  1
  V  V29  1  0.000000  0.250000  0.973242  1
  V  V30  1  0.000000  0.250000  0.526758  1
  V  V31  1  0.000000  0.750000  0.026759  1
  V  V32  1  0.000000  0.026759  0.750000  1
  V  V33  1  0.000000  0.526758  0.250000  1
  Ag  Ag34  1  0.500001  0.500000  0.500000  1
  Ag  Ag35  1  0.500001  0.000000  0.500000  1
  Ag  Ag36  1  0.500001  0.500000  0.000000  1
  Ag  Ag37  1  0.500001  0.000000  0.000000  1
