# generated using pymatgen
data_Sr3Zr2O7
_symmetry_space_group_name_H-M   'P 1'
_cell_length_a   4.19130634
_cell_length_b   4.19129628
_cell_length_c   21.14639444
_cell_angle_alpha   90.00000000
_cell_angle_beta   90.00000000
_cell_angle_gamma   90.00000000
_symmetry_Int_Tables_number   1
_chemical_formula_structural   Sr3Zr2O7
_chemical_formula_sum   'Sr6 Zr4 O14'
_cell_volume   371.47885220
_cell_formula_units_Z   2
loop_
 _symmetry_equiv_pos_site_id
 _symmetry_equiv_pos_as_xyz
  1  'x, y, z'
loop_
 _atom_site_type_symbol
 _atom_site_label
 _atom_site_symmetry_multiplicity
 _atom_site_fract_x
 _atom_site_fract_y
 _atom_site_fract_z
 _atom_site_occupancy
  O  O0  1  0.500000  0.000000  0.401397  1
  O  O1  1  0.500000  0.000000  0.598603  1
  O  O2  1  0.000000  0.500000  0.400920  1
  O  O3  1  0.000000  0.500000  0.599080  1
  O  O4  1  0.000000  0.500000  0.098259  1
  O  O5  1  0.000000  0.500000  0.901741  1
  O  O6  1  0.500000  0.000000  0.098286  1
  O  O7  1  0.500000  0.000000  0.901714  1
  O  O8  1  0.500000  0.500000  0.299917  1
  O  O9  1  0.500000  0.500000  0.700083  1
  O  O10  1  0.000000  0.000000  0.000000  1
  O  O11  1  0.500000  0.500000  0.500000  1
  O  O12  1  0.000000  0.000000  0.800408  1
  O  O13  1  0.000000  0.000000  0.199592  1
  Sr  Sr14  1  0.000000  0.000000  0.500000  1
  Sr  Sr15  1  0.500000  0.500000  0.000000  1
  Sr  Sr16  1  0.000000  0.000000  0.686685  1
  Sr  Sr17  1  0.000000  0.000000  0.313315  1
  Sr  Sr18  1  0.500000  0.500000  0.186122  1
  Sr  Sr19  1  0.500000  0.500000  0.813878  1
  Zr  Zr20  1  0.000000  0.000000  0.899788  1
  Zr  Zr21  1  0.000000  0.000000  0.100212  1
  Zr  Zr22  1  0.500000  0.500000  0.600591  1
  Zr  Zr23  1  0.500000  0.500000  0.399408  1
