# generated using pymatgen
data_Hg3PO4
_symmetry_space_group_name_H-M   'P 1'
_cell_length_a   5.14574926
_cell_length_b   9.00708801
_cell_length_c   12.29176037
_cell_angle_alpha   95.41797216
_cell_angle_beta   90.00000000
_cell_angle_gamma   90.00000000
_symmetry_Int_Tables_number   1
_chemical_formula_structural   Hg3PO4
_chemical_formula_sum   'Hg12 P4 O16'
_cell_volume   567.15597138
_cell_formula_units_Z   4
loop_
 _symmetry_equiv_pos_site_id
 _symmetry_equiv_pos_as_xyz
  1  'x, y, z'
loop_
 _atom_site_type_symbol
 _atom_site_label
 _atom_site_symmetry_multiplicity
 _atom_site_fract_x
 _atom_site_fract_y
 _atom_site_fract_z
 _atom_site_occupancy
  O  O0  1  0.504564  0.875029  0.280745  1
  O  O1  1  0.004564  0.624971  0.219255  1
  O  O2  1  0.495436  0.124971  0.719255  1
  O  O3  1  0.995436  0.375029  0.780745  1
  O  O4  1  0.915391  0.031137  0.270569  1
  O  O5  1  0.415391  0.468863  0.229431  1
  O  O6  1  0.084609  0.968863  0.729431  1
  O  O7  1  0.584609  0.531137  0.770569  1
  O  O8  1  0.515854  0.095038  0.164234  1
  O  O9  1  0.973302  0.644227  0.873783  1
  O  O10  1  0.484146  0.904962  0.835766  1
  O  O11  1  0.984146  0.595038  0.664234  1
  O  O12  1  0.526698  0.144227  0.373783  1
  O  O13  1  0.026698  0.355773  0.126217  1
  O  O14  1  0.473302  0.855773  0.626217  1
  O  O15  1  0.015854  0.404962  0.335766  1
  P  P16  1  0.886828  0.537499  0.773306  1
  P  P17  1  0.113172  0.462501  0.226694  1
  P  P18  1  0.386828  0.962501  0.726694  1
  P  P19  1  0.613172  0.037499  0.273306  1
  Hg  Hg20  1  0.847745  0.180686  0.624365  1
  Hg  Hg21  1  0.638969  0.313677  0.049155  1
  Hg  Hg22  1  0.861031  0.813677  0.549155  1
  Hg  Hg23  1  0.361031  0.686323  0.950845  1
  Hg  Hg24  1  0.138969  0.186323  0.450845  1
  Hg  Hg25  1  0.347745  0.319314  0.875635  1
  Hg  Hg26  1  0.152255  0.819314  0.375635  1
  Hg  Hg27  1  0.652255  0.680686  0.124365  1
  Hg  Hg28  1  0.630134  0.458443  0.411172  1
  Hg  Hg29  1  0.130134  0.041557  0.088828  1
  Hg  Hg30  1  0.369866  0.541557  0.588828  1
  Hg  Hg31  1  0.869866  0.958443  0.911172  1
