# generated using pymatgen
data_Ho3Ge3Ir2
_symmetry_space_group_name_H-M   'P 1'
_cell_length_a   4.32434334
_cell_length_b   5.64166010
_cell_length_c   14.28208394
_cell_angle_alpha   90.00000000
_cell_angle_beta   90.00000000
_cell_angle_gamma   112.53520078
_symmetry_Int_Tables_number   1
_chemical_formula_structural   Ho3Ge3Ir2
_chemical_formula_sum   'Ho6 Ge6 Ir4'
_cell_volume   321.82768222
_cell_formula_units_Z   2
loop_
 _symmetry_equiv_pos_site_id
 _symmetry_equiv_pos_as_xyz
  1  'x, y, z'
loop_
 _atom_site_type_symbol
 _atom_site_label
 _atom_site_symmetry_multiplicity
 _atom_site_fract_x
 _atom_site_fract_y
 _atom_site_fract_z
 _atom_site_occupancy
  Ir  Ir0  1  0.200449  0.400898  0.897566  1
  Ir  Ir1  1  0.799551  0.599102  0.102434  1
  Ir  Ir2  1  0.799551  0.599102  0.397566  1
  Ir  Ir3  1  0.200449  0.400898  0.602434  1
  Ho  Ho4  1  0.641892  0.283784  0.750000  1
  Ho  Ho5  1  0.358108  0.716216  0.250000  1
  Ho  Ho6  1  0.084487  0.168973  0.110305  1
  Ho  Ho7  1  0.915513  0.831027  0.889695  1
  Ho  Ho8  1  0.915513  0.831027  0.610305  1
  Ho  Ho9  1  0.084487  0.168973  0.389695  1
  Ge  Ge10  1  0.623147  0.246294  0.964423  1
  Ge  Ge11  1  0.376853  0.753706  0.035577  1
  Ge  Ge12  1  0.376853  0.753706  0.464423  1
  Ge  Ge13  1  0.623147  0.246294  0.535577  1
  Ge  Ge14  1  0.344266  0.688533  0.750000  1
  Ge  Ge15  1  0.655734  0.311467  0.250000  1
