# generated using pymatgen
data_Na2PbO2
_symmetry_space_group_name_H-M   'P 1'
_cell_length_a   6.05667073
_cell_length_b   7.02271914
_cell_length_c   17.17160853
_cell_angle_alpha   90.00000000
_cell_angle_beta   90.00000000
_cell_angle_gamma   90.00000000
_symmetry_Int_Tables_number   1
_chemical_formula_structural   Na2PbO2
_chemical_formula_sum   'Na16 Pb8 O16'
_cell_volume   730.38230509
_cell_formula_units_Z   8
loop_
 _symmetry_equiv_pos_site_id
 _symmetry_equiv_pos_as_xyz
  1  'x, y, z'
loop_
 _atom_site_type_symbol
 _atom_site_label
 _atom_site_symmetry_multiplicity
 _atom_site_fract_x
 _atom_site_fract_y
 _atom_site_fract_z
 _atom_site_occupancy
  O  O0  1  0.562979  0.149011  0.913525  1
  O  O1  1  0.062979  0.350989  0.586475  1
  O  O2  1  0.937021  0.149011  0.086475  1
  O  O3  1  0.437021  0.350989  0.413525  1
  O  O4  1  0.437021  0.850989  0.086475  1
  O  O5  1  0.937021  0.649011  0.413525  1
  O  O6  1  0.062979  0.850989  0.913525  1
  O  O7  1  0.562979  0.649011  0.586475  1
  O  O8  1  0.889281  0.103963  0.403084  1
  O  O9  1  0.389281  0.396037  0.096916  1
  O  O10  1  0.389281  0.896037  0.403084  1
  O  O11  1  0.889281  0.603963  0.096916  1
  O  O12  1  0.110719  0.896037  0.596916  1
  O  O13  1  0.610719  0.603963  0.903084  1
  O  O14  1  0.610719  0.103963  0.596916  1
  O  O15  1  0.110719  0.396037  0.903084  1
  Na  Na16  1  0.915897  0.624974  0.633566  1
  Na  Na17  1  0.415897  0.875026  0.866434  1
  Na  Na18  1  0.584103  0.624974  0.366434  1
  Na  Na19  1  0.084103  0.875026  0.133566  1
  Na  Na20  1  0.084103  0.375026  0.366434  1
  Na  Na21  1  0.584103  0.124974  0.133566  1
  Na  Na22  1  0.415897  0.375026  0.633566  1
  Na  Na23  1  0.915897  0.124974  0.866434  1
  Na  Na24  1  0.250000  0.122680  0.500000  1
  Na  Na25  1  0.750000  0.377320  0.000000  1
  Na  Na26  1  0.750000  0.357563  0.500000  1
  Na  Na27  1  0.250000  0.142437  0.000000  1
  Na  Na28  1  0.250000  0.642437  0.500000  1
  Na  Na29  1  0.750000  0.857563  0.000000  1
  Na  Na30  1  0.750000  0.877320  0.500000  1
  Na  Na31  1  0.250000  0.622680  0.000000  1
  Pb  Pb32  1  0.933286  0.133511  0.662143  1
  Pb  Pb33  1  0.433286  0.366489  0.837857  1
  Pb  Pb34  1  0.566714  0.133511  0.337857  1
  Pb  Pb35  1  0.066714  0.366489  0.162143  1
  Pb  Pb36  1  0.066714  0.866489  0.337857  1
  Pb  Pb37  1  0.566714  0.633511  0.162143  1
  Pb  Pb38  1  0.433286  0.866489  0.662143  1
  Pb  Pb39  1  0.933286  0.633511  0.837857  1
