# generated using pymatgen
data_Rb2ZnH12(SeO7)2
_symmetry_space_group_name_H-M   'P 1'
_cell_length_a   6.45603788
_cell_length_b   9.41547832
_cell_length_c   12.80854129
_cell_angle_alpha   90.00000000
_cell_angle_beta   90.00000000
_cell_angle_gamma   104.72586458
_symmetry_Int_Tables_number   1
_chemical_formula_structural   Rb2ZnH12(SeO7)2
_chemical_formula_sum   'Rb4 Zn2 H24 Se4 O28'
_cell_volume   753.01453544
_cell_formula_units_Z   2
loop_
 _symmetry_equiv_pos_site_id
 _symmetry_equiv_pos_as_xyz
  1  'x, y, z'
loop_
 _atom_site_type_symbol
 _atom_site_label
 _atom_site_symmetry_multiplicity
 _atom_site_fract_x
 _atom_site_fract_y
 _atom_site_fract_z
 _atom_site_occupancy
  H  H0  1  0.323622  0.528354  0.638349  1
  H  H1  1  0.676378  0.971646  0.138349  1
  H  H2  1  0.676378  0.471646  0.361651  1
  H  H3  1  0.323622  0.028354  0.861651  1
  H  H4  1  0.334176  0.402550  0.557771  1
  H  H5  1  0.665824  0.097450  0.057771  1
  H  H6  1  0.928562  0.230105  0.404190  1
  H  H7  1  0.071438  0.269895  0.904190  1
  H  H8  1  0.071438  0.769895  0.595810  1
  H  H9  1  0.928562  0.730105  0.095810  1
  H  H10  1  0.097199  0.741451  0.372600  1
  H  H11  1  0.902801  0.758549  0.872600  1
  H  H12  1  0.902801  0.258549  0.627400  1
  H  H13  1  0.097199  0.241451  0.127400  1
  H  H14  1  0.317975  0.706667  0.409326  1
  H  H15  1  0.682025  0.793333  0.909326  1
  H  H16  1  0.682025  0.293333  0.590674  1
  H  H17  1  0.317975  0.206667  0.090674  1
  H  H18  1  0.001134  0.147420  0.816593  1
  H  H19  1  0.998866  0.352580  0.316593  1
  H  H20  1  0.334176  0.902550  0.942229  1
  H  H21  1  0.665824  0.597450  0.442229  1
  H  H22  1  0.001134  0.647420  0.683407  1
  H  H23  1  0.998866  0.852580  0.183407  1
  O  O24  1  0.832440  0.338625  0.612388  1
  O  O25  1  0.832440  0.838625  0.887612  1
  O  O26  1  0.027020  0.828780  0.109762  1
  O  O27  1  0.972980  0.671220  0.609762  1
  O  O28  1  0.972980  0.171220  0.890238  1
  O  O29  1  0.027020  0.328780  0.390238  1
  O  O30  1  0.293112  0.997212  0.935858  1
  O  O31  1  0.167560  0.161375  0.112388  1
  O  O32  1  0.706888  0.002788  0.064142  1
  O  O33  1  0.293112  0.497212  0.564142  1
  O  O34  1  0.966469  0.874142  0.318224  1
  O  O35  1  0.033531  0.625858  0.818224  1
  O  O36  1  0.033531  0.125858  0.681776  1
  O  O37  1  0.966469  0.374142  0.181776  1
  O  O38  1  0.599891  0.763826  0.435422  1
  O  O39  1  0.400109  0.736174  0.935422  1
  O  O40  1  0.400109  0.236174  0.564578  1
  O  O41  1  0.599891  0.263826  0.064578  1
  O  O42  1  0.775227  0.057498  0.430428  1
  O  O43  1  0.224773  0.442502  0.930428  1
  O  O44  1  0.224773  0.942502  0.569572  1
  O  O45  1  0.775227  0.557498  0.069572  1
  O  O46  1  0.706888  0.502788  0.435858  1
  O  O47  1  0.422976  0.585764  0.756842  1
  O  O48  1  0.422976  0.085764  0.743158  1
  O  O49  1  0.577024  0.414236  0.243158  1
  O  O50  1  0.167560  0.661375  0.387612  1
  O  O51  1  0.577024  0.914236  0.256842  1
  Zn  Zn52  1  0.000000  0.000000  0.000000  1
  Zn  Zn53  1  0.000000  0.500000  0.500000  1
  Se  Se54  1  0.733032  0.403577  0.140163  1
  Se  Se55  1  0.266968  0.096423  0.640163  1
  Se  Se56  1  0.733032  0.903577  0.359837  1
  Se  Se57  1  0.266968  0.596423  0.859837  1
  Rb  Rb58  1  0.343797  0.133579  0.346348  1
  Rb  Rb59  1  0.656203  0.366421  0.846348  1
  Rb  Rb60  1  0.656203  0.866421  0.653652  1
  Rb  Rb61  1  0.343797  0.633579  0.153652  1
