# generated using pymatgen
data_Pd(SeCl3)2
_symmetry_space_group_name_H-M   'P 1'
_cell_length_a   7.70904682
_cell_length_b   8.80071595
_cell_length_c   9.86033091
_cell_angle_alpha   116.50454439
_cell_angle_beta   99.90852969
_cell_angle_gamma   90.00000000
_symmetry_Int_Tables_number   1
_chemical_formula_structural   Pd(SeCl3)2
_chemical_formula_sum   'Pd2 Se4 Cl12'
_cell_volume   587.49380175
_cell_formula_units_Z   2
loop_
 _symmetry_equiv_pos_site_id
 _symmetry_equiv_pos_as_xyz
  1  'x, y, z'
loop_
 _atom_site_type_symbol
 _atom_site_label
 _atom_site_symmetry_multiplicity
 _atom_site_fract_x
 _atom_site_fract_y
 _atom_site_fract_z
 _atom_site_occupancy
  Cl  Cl0  1  0.956174  0.476532  0.787993  1
  Cl  Cl1  1  0.543826  0.688539  0.212007  1
  Cl  Cl2  1  0.043826  0.523468  0.212007  1
  Cl  Cl3  1  0.456174  0.311461  0.787993  1
  Cl  Cl4  1  0.767574  0.665071  0.578703  1
  Cl  Cl5  1  0.732426  0.086368  0.421297  1
  Cl  Cl6  1  0.534754  0.237122  0.149867  1
  Cl  Cl7  1  0.965246  0.087255  0.850133  1
  Cl  Cl8  1  0.465246  0.762878  0.850133  1
  Cl  Cl9  1  0.034754  0.912745  0.149867  1
  Cl  Cl10  1  0.267574  0.913632  0.578703  1
  Cl  Cl11  1  0.232426  0.334929  0.421297  1
  Se  Se12  1  0.934374  0.735309  0.804500  1
  Se  Se13  1  0.565626  0.930809  0.195500  1
  Se  Se14  1  0.065626  0.264691  0.195500  1
  Se  Se15  1  0.434374  0.069191  0.804500  1
  Pd  Pd16  1  0.750000  0.837365  0.000000  1
  Pd  Pd17  1  0.250000  0.162635  0.000000  1
