# generated using pymatgen
data_K3InF6
_symmetry_space_group_name_H-M   'P 1'
_cell_length_a   12.90609767
_cell_length_b   12.90609740
_cell_length_c   12.90609717
_cell_angle_alpha   59.99999782
_cell_angle_beta   59.99999851
_cell_angle_gamma   59.99999668
_symmetry_Int_Tables_number   1
_chemical_formula_structural   K3InF6
_chemical_formula_sum   'K24 In8 F48'
_cell_volume   1520.09172753
_cell_formula_units_Z   8
loop_
 _symmetry_equiv_pos_site_id
 _symmetry_equiv_pos_as_xyz
  1  'x, y, z'
loop_
 _atom_site_type_symbol
 _atom_site_label
 _atom_site_symmetry_multiplicity
 _atom_site_fract_x
 _atom_site_fract_y
 _atom_site_fract_z
 _atom_site_occupancy
  F  F0  1  0.895672  0.062406  0.158812  1
  F  F1  1  0.158812  0.895672  0.062406  1
  F  F2  1  0.062406  0.158812  0.895672  1
  F  F3  1  0.383111  0.895672  0.158812  1
  F  F4  1  0.062406  0.383111  0.158812  1
  F  F5  1  0.383111  0.062406  0.895672  1
  F  F6  1  0.158812  0.062406  0.383111  1
  F  F7  1  0.895672  0.158812  0.383111  1
  F  F8  1  0.895672  0.383111  0.062406  1
  F  F9  1  0.158812  0.383111  0.895672  1
  F  F10  1  0.383111  0.158812  0.062406  1
  F  F11  1  0.062406  0.895672  0.383111  1
  F  F12  1  0.104328  0.937594  0.841188  1
  F  F13  1  0.841188  0.104328  0.937594  1
  F  F14  1  0.937594  0.841188  0.104328  1
  F  F15  1  0.616889  0.104328  0.841188  1
  F  F16  1  0.937594  0.616889  0.841188  1
  F  F17  1  0.616889  0.937594  0.104328  1
  F  F18  1  0.841188  0.937594  0.616889  1
  F  F19  1  0.104328  0.841188  0.616889  1
  F  F20  1  0.104328  0.616889  0.937594  1
  F  F21  1  0.841188  0.616889  0.104328  1
  F  F22  1  0.616889  0.841188  0.937594  1
  F  F23  1  0.937594  0.104328  0.616889  1
  F  F24  1  0.393522  0.568867  0.654562  1
  F  F25  1  0.654562  0.393522  0.568867  1
  F  F26  1  0.568867  0.654562  0.393522  1
  F  F27  1  0.883050  0.393522  0.654562  1
  F  F28  1  0.568867  0.883050  0.654562  1
  F  F29  1  0.883050  0.568867  0.393522  1
  F  F30  1  0.654562  0.568867  0.883050  1
  F  F31  1  0.393522  0.654562  0.883050  1
  F  F32  1  0.393522  0.883050  0.568867  1
  F  F33  1  0.654562  0.883050  0.393522  1
  F  F34  1  0.883050  0.654562  0.568867  1
  F  F35  1  0.568867  0.393522  0.883050  1
  F  F36  1  0.606479  0.431133  0.345438  1
  F  F37  1  0.345438  0.606479  0.431133  1
  F  F38  1  0.431133  0.345438  0.606479  1
  F  F39  1  0.116950  0.606479  0.345438  1
  F  F40  1  0.431133  0.116950  0.345438  1
  F  F41  1  0.116950  0.431133  0.606479  1
  F  F42  1  0.345438  0.431133  0.116950  1
  F  F43  1  0.606479  0.345438  0.116950  1
  F  F44  1  0.606479  0.116950  0.431133  1
  F  F45  1  0.345438  0.116950  0.606479  1
  F  F46  1  0.116950  0.345438  0.431133  1
  F  F47  1  0.431133  0.606479  0.116950  1
  K  K48  1  0.125000  0.125000  0.125000  1
  K  K49  1  0.875000  0.875000  0.875000  1
  K  K50  1  0.625000  0.625000  0.625000  1
  K  K51  1  0.375000  0.375000  0.375000  1
  K  K52  1  0.248889  0.248889  0.248889  1
  K  K53  1  0.753332  0.248889  0.248889  1
  K  K54  1  0.248889  0.753332  0.248889  1
  K  K55  1  0.248889  0.248889  0.753332  1
  K  K56  1  0.751111  0.751111  0.751111  1
  K  K57  1  0.246668  0.751111  0.751111  1
  K  K58  1  0.751111  0.246668  0.751111  1
  K  K59  1  0.751111  0.751111  0.246668  1
  K  K60  1  0.872843  0.377157  0.377157  1
  K  K61  1  0.377157  0.872843  0.377157  1
  K  K62  1  0.377157  0.377157  0.872843  1
  K  K63  1  0.872843  0.872843  0.377157  1
  K  K64  1  0.872843  0.377157  0.872843  1
  K  K65  1  0.377157  0.872843  0.872843  1
  K  K66  1  0.127157  0.622843  0.622843  1
  K  K67  1  0.622843  0.127157  0.622843  1
  K  K68  1  0.622843  0.622843  0.127157  1
  K  K69  1  0.127157  0.127157  0.622843  1
  K  K70  1  0.127157  0.622843  0.127157  1
  K  K71  1  0.622843  0.127157  0.127157  1
  In  In72  1  0.000000  0.000000  0.000000  1
  In  In73  1  0.500000  0.000000  0.000000  1
  In  In74  1  0.000000  0.500000  0.000000  1
  In  In75  1  0.000000  0.000000  0.500000  1
  In  In76  1  0.500000  0.500000  0.500000  1
  In  In77  1  0.000000  0.500000  0.500000  1
  In  In78  1  0.500000  0.000000  0.500000  1
  In  In79  1  0.500000  0.500000  0.000000  1
