# generated using pymatgen
data_Mn2Tl2O7
_symmetry_space_group_name_H-M   'P 1'
_cell_length_a   7.13447650
_cell_length_b   7.13447650
_cell_length_c   7.13447650
_cell_angle_alpha   60.00000000
_cell_angle_beta   59.99999999
_cell_angle_gamma   60.00000003
_symmetry_Int_Tables_number   1
_chemical_formula_structural   Mn2Tl2O7
_chemical_formula_sum   'Mn4 Tl4 O14'
_cell_volume   256.78599718
_cell_formula_units_Z   2
loop_
 _symmetry_equiv_pos_site_id
 _symmetry_equiv_pos_as_xyz
  1  'x, y, z'
loop_
 _atom_site_type_symbol
 _atom_site_label
 _atom_site_symmetry_multiplicity
 _atom_site_fract_x
 _atom_site_fract_y
 _atom_site_fract_z
 _atom_site_occupancy
  O  O0  1  0.625000  0.624999  0.625000  1
  O  O1  1  0.375000  0.375000  0.375001  1
  O  O2  1  0.326308  0.923693  0.923693  1
  O  O3  1  0.076307  0.673693  0.673693  1
  O  O4  1  0.923692  0.326308  0.923694  1
  O  O5  1  0.923694  0.923693  0.326306  1
  O  O6  1  0.326306  0.326308  0.923693  1
  O  O7  1  0.326308  0.923693  0.326307  1
  O  O8  1  0.923692  0.326308  0.326307  1
  O  O9  1  0.673693  0.673693  0.076307  1
  O  O10  1  0.076308  0.076306  0.673694  1
  O  O11  1  0.076307  0.673693  0.076307  1
  O  O12  1  0.673694  0.076306  0.673693  1
  O  O13  1  0.673694  0.076306  0.076306  1
  Mn  Mn14  1  0.000001  0.499999  0.000000  1
  Mn  Mn15  1  0.499999  0.000000  0.000000  1
  Mn  Mn16  1  0.000000  0.000000  0.500000  1
  Mn  Mn17  1  0.000000  0.000000  0.000000  1
  Tl  Tl18  1  0.499999  0.000000  0.500001  1
  Tl  Tl19  1  0.000001  0.499999  0.500001  1
  Tl  Tl20  1  0.500000  0.499999  0.000001  1
  Tl  Tl21  1  0.500000  0.499999  0.500000  1
