# generated using pymatgen
data_Pt(PbO2)2
_symmetry_space_group_name_H-M   'P 1'
_cell_length_a   6.44477391
_cell_length_b   8.09114143
_cell_length_c   9.23479230
_cell_angle_alpha   90.00000000
_cell_angle_beta   90.00000000
_cell_angle_gamma   90.00000000
_symmetry_Int_Tables_number   1
_chemical_formula_structural   Pt(PbO2)2
_chemical_formula_sum   'Pt4 Pb8 O16'
_cell_volume   481.55357471
_cell_formula_units_Z   4
loop_
 _symmetry_equiv_pos_site_id
 _symmetry_equiv_pos_as_xyz
  1  'x, y, z'
loop_
 _atom_site_type_symbol
 _atom_site_label
 _atom_site_symmetry_multiplicity
 _atom_site_fract_x
 _atom_site_fract_y
 _atom_site_fract_z
 _atom_site_occupancy
  O  O0  1  0.000000  0.606532  0.603896  1
  O  O1  1  0.000000  0.393468  0.396104  1
  O  O2  1  0.000000  0.106532  0.896104  1
  O  O3  1  0.000000  0.893468  0.103896  1
  O  O4  1  0.500000  0.625337  0.587988  1
  O  O5  1  0.500000  0.374663  0.412012  1
  O  O6  1  0.500000  0.125337  0.912012  1
  O  O7  1  0.500000  0.874663  0.087988  1
  O  O8  1  0.749506  0.333411  0.666158  1
  O  O9  1  0.749506  0.666589  0.333842  1
  O  O10  1  0.250494  0.833411  0.833842  1
  O  O11  1  0.250494  0.166589  0.166158  1
  O  O12  1  0.749506  0.833411  0.833842  1
  O  O13  1  0.749506  0.166589  0.166158  1
  O  O14  1  0.250494  0.333411  0.666158  1
  O  O15  1  0.250494  0.666589  0.333842  1
  Pt  Pt16  1  0.749052  0.500000  0.500000  1
  Pt  Pt17  1  0.250948  0.000000  0.000000  1
  Pt  Pt18  1  0.250948  0.500000  0.500000  1
  Pt  Pt19  1  0.749052  0.000000  0.000000  1
  Pb  Pb20  1  0.500000  0.141738  0.656115  1
  Pb  Pb21  1  0.500000  0.858262  0.343886  1
  Pb  Pb22  1  0.500000  0.641738  0.843885  1
  Pb  Pb23  1  0.500000  0.358262  0.156114  1
  Pb  Pb24  1  0.000000  0.609420  0.174861  1
  Pb  Pb25  1  0.000000  0.390580  0.825139  1
  Pb  Pb26  1  0.000000  0.109420  0.325139  1
  Pb  Pb27  1  0.000000  0.890580  0.674861  1
