# generated using pymatgen
data_Hg2BrN
_symmetry_space_group_name_H-M   'P 1'
_cell_length_a   6.78455014
_cell_length_b   6.78455014
_cell_length_c   11.50090400
_cell_angle_alpha   90.00000000
_cell_angle_beta   90.00000000
_cell_angle_gamma   120.00000002
_symmetry_Int_Tables_number   1
_chemical_formula_structural   Hg2BrN
_chemical_formula_sum   'Hg8 Br4 N4'
_cell_volume   458.46345451
_cell_formula_units_Z   4
loop_
 _symmetry_equiv_pos_site_id
 _symmetry_equiv_pos_as_xyz
  1  'x, y, z'
loop_
 _atom_site_type_symbol
 _atom_site_label
 _atom_site_symmetry_multiplicity
 _atom_site_fract_x
 _atom_site_fract_y
 _atom_site_fract_z
 _atom_site_occupancy
  N  N0  1  0.333333  0.666667  0.069114  1
  N  N1  1  0.666667  0.333333  0.930886  1
  N  N2  1  0.333333  0.666667  0.430886  1
  N  N3  1  0.666667  0.333333  0.569114  1
  Br  Br4  1  0.000000  0.000000  0.500000  1
  Br  Br5  1  0.333333  0.666667  0.750000  1
  Br  Br6  1  0.000000  0.000000  0.000000  1
  Br  Br7  1  0.666667  0.333333  0.250000  1
  Hg  Hg8  1  0.500000  0.000000  0.500000  1
  Hg  Hg9  1  0.500000  0.500000  0.000000  1
  Hg  Hg10  1  0.000000  0.500000  0.000000  1
  Hg  Hg11  1  0.000000  0.500000  0.500000  1
  Hg  Hg12  1  0.500000  0.500000  0.500000  1
  Hg  Hg13  1  0.500000  0.000000  0.000000  1
  Hg  Hg14  1  0.666667  0.333333  0.750000  1
  Hg  Hg15  1  0.333333  0.666667  0.250000  1
