# generated using pymatgen
data_Sb11F43
_symmetry_space_group_name_H-M   'P 1'
_cell_length_a   9.28907341
_cell_length_b   11.77274427
_cell_length_c   16.95782799
_cell_angle_alpha   106.46190682
_cell_angle_beta   90.00000000
_cell_angle_gamma   90.00000000
_symmetry_Int_Tables_number   1
_chemical_formula_structural   Sb11F43
_chemical_formula_sum   'Sb22 F86'
_cell_volume   1778.45434173
_cell_formula_units_Z   2
loop_
 _symmetry_equiv_pos_site_id
 _symmetry_equiv_pos_as_xyz
  1  'x, y, z'
loop_
 _atom_site_type_symbol
 _atom_site_label
 _atom_site_symmetry_multiplicity
 _atom_site_fract_x
 _atom_site_fract_y
 _atom_site_fract_z
 _atom_site_occupancy
  F  F0  1  0.132300  0.971522  0.768843  1
  F  F1  1  0.632300  0.028478  0.731157  1
  F  F2  1  0.867700  0.028478  0.231157  1
  F  F3  1  0.367700  0.971522  0.268843  1
  F  F4  1  0.390846  0.024753  0.849650  1
  F  F5  1  0.890846  0.975247  0.650350  1
  F  F6  1  0.609154  0.975247  0.150350  1
  F  F7  1  0.109154  0.024753  0.349650  1
  F  F8  1  0.281979  0.791576  0.792768  1
  F  F9  1  0.781979  0.208424  0.707232  1
  F  F10  1  0.718021  0.208424  0.207232  1
  F  F11  1  0.218021  0.791576  0.292768  1
  F  F12  1  0.417140  0.590365  0.814450  1
  F  F13  1  0.917140  0.409635  0.685550  1
  F  F14  1  0.582860  0.409635  0.185550  1
  F  F15  1  0.082860  0.590365  0.314450  1
  F  F16  1  0.641994  0.223531  0.056096  1
  F  F17  1  0.141994  0.776469  0.443904  1
  F  F18  1  0.358006  0.776469  0.943904  1
  F  F19  1  0.858006  0.223531  0.556096  1
  F  F20  1  0.157066  0.902644  0.601916  1
  F  F21  1  0.657066  0.097356  0.898084  1
  F  F22  1  0.842934  0.097356  0.398084  1
  F  F23  1  0.342934  0.902644  0.101916  1
  F  F24  1  0.500000  0.000000  0.000000  1
  F  F25  1  0.000000  0.000000  0.500000  1
  F  F26  1  0.959208  0.071480  0.913957  1
  F  F27  1  0.459208  0.928520  0.586043  1
  F  F28  1  0.040792  0.928520  0.086043  1
  F  F29  1  0.540792  0.071480  0.413957  1
  F  F30  1  0.805786  0.943000  0.996856  1
  F  F31  1  0.305786  0.057000  0.503144  1
  F  F32  1  0.194214  0.057000  0.003144  1
  F  F33  1  0.694214  0.943000  0.496856  1
  F  F34  1  0.056598  0.853741  0.920882  1
  F  F35  1  0.556598  0.146259  0.579118  1
  F  F36  1  0.943402  0.146259  0.079118  1
  F  F37  1  0.443402  0.853741  0.420882  1
  F  F38  1  0.324726  0.110449  0.710625  1
  F  F39  1  0.824726  0.889551  0.789375  1
  F  F40  1  0.675274  0.889551  0.289375  1
  F  F41  1  0.175274  0.110449  0.210625  1
  F  F42  1  0.174207  0.431930  0.798180  1
  F  F43  1  0.674207  0.568070  0.701820  1
  F  F44  1  0.825793  0.568070  0.201820  1
  F  F45  1  0.325793  0.431930  0.298180  1
  F  F46  1  0.294405  0.263647  0.859440  1
  F  F47  1  0.794405  0.736353  0.640560  1
  F  F48  1  0.705595  0.736353  0.140560  1
  F  F49  1  0.205595  0.263647  0.359440  1
  F  F50  1  0.437635  0.328702  0.738822  1
  F  F51  1  0.937635  0.671298  0.761178  1
  F  F52  1  0.562365  0.671298  0.261178  1
  F  F53  1  0.062365  0.328702  0.238822  1
  F  F54  1  0.202673  0.269889  0.641453  1
  F  F55  1  0.702673  0.730111  0.858547  1
  F  F56  1  0.797327  0.730111  0.358547  1
  F  F57  1  0.297327  0.269889  0.141453  1
  F  F58  1  0.563783  0.793545  0.740397  1
  F  F59  1  0.063783  0.206455  0.759603  1
  F  F60  1  0.436217  0.206455  0.259603  1
  F  F61  1  0.936217  0.793545  0.240397  1
  F  F62  1  0.237674  0.565160  0.963036  1
  F  F63  1  0.737674  0.434840  0.536964  1
  F  F64  1  0.762326  0.434840  0.036964  1
  F  F65  1  0.262326  0.565160  0.463036  1
  F  F66  1  0.607145  0.565101  0.957294  1
  F  F67  1  0.107145  0.434899  0.542706  1
  F  F68  1  0.392855  0.434899  0.042706  1
  F  F69  1  0.892855  0.565101  0.457294  1
  F  F70  1  0.578951  0.324977  0.916440  1
  F  F71  1  0.078951  0.675023  0.583560  1
  F  F72  1  0.421049  0.675023  0.083560  1
  F  F73  1  0.921049  0.324977  0.416440  1
  F  F74  1  0.204003  0.571749  0.690868  1
  F  F75  1  0.704003  0.428251  0.809132  1
  F  F76  1  0.795997  0.428251  0.309132  1
  F  F77  1  0.295997  0.571749  0.190868  1
  F  F78  1  0.859213  0.300534  0.888868  1
  F  F79  1  0.359213  0.699466  0.611132  1
  F  F80  1  0.140787  0.699466  0.111132  1
  F  F81  1  0.640787  0.300534  0.388868  1
  F  F82  1  0.897523  0.540744  0.930846  1
  F  F83  1  0.397523  0.459256  0.569154  1
  F  F84  1  0.102477  0.459256  0.069154  1
  F  F85  1  0.602477  0.540744  0.430846  1
  Sb  Sb86  1  0.328296  0.929615  0.732877  1
  Sb  Sb87  1  0.828296  0.070385  0.767123  1
  Sb  Sb88  1  0.671704  0.070385  0.267123  1
  Sb  Sb89  1  0.171704  0.929615  0.232877  1
  Sb  Sb90  1  0.234023  0.660554  0.847618  1
  Sb  Sb91  1  0.734023  0.339446  0.652382  1
  Sb  Sb92  1  0.765977  0.339446  0.152382  1
  Sb  Sb93  1  0.265977  0.660554  0.347618  1
  Sb  Sb94  1  0.485405  0.156513  0.960964  1
  Sb  Sb95  1  0.985405  0.843487  0.539036  1
  Sb  Sb96  1  0.514595  0.843487  0.039036  1
  Sb  Sb97  1  0.014595  0.156513  0.460964  1
  Sb  Sb98  1  0.000000  0.000000  0.000000  1
  Sb  Sb99  1  0.500000  0.000000  0.500000  1
  Sb  Sb100  1  0.248378  0.274830  0.751622  1
  Sb  Sb101  1  0.748378  0.725170  0.748378  1
  Sb  Sb102  1  0.751622  0.725170  0.248378  1
  Sb  Sb103  1  0.251622  0.274830  0.251622  1
  Sb  Sb104  1  0.738757  0.437451  0.923362  1
  Sb  Sb105  1  0.238757  0.562549  0.576638  1
  Sb  Sb106  1  0.261243  0.562549  0.076638  1
  Sb  Sb107  1  0.761243  0.437451  0.423362  1
