# generated using pymatgen
data_KMoPO6
_symmetry_space_group_name_H-M   'P 1'
_cell_length_a   8.49597489
_cell_length_b   8.49597489
_cell_length_c   9.67728878
_cell_angle_alpha   113.15725480
_cell_angle_beta   113.15725486
_cell_angle_gamma   95.97693343
_symmetry_Int_Tables_number   1
_chemical_formula_structural   KMoPO6
_chemical_formula_sum   'K4 Mo4 P4 O24'
_cell_volume   562.14745250
_cell_formula_units_Z   4
loop_
 _symmetry_equiv_pos_site_id
 _symmetry_equiv_pos_as_xyz
  1  'x, y, z'
loop_
 _atom_site_type_symbol
 _atom_site_label
 _atom_site_symmetry_multiplicity
 _atom_site_fract_x
 _atom_site_fract_y
 _atom_site_fract_z
 _atom_site_occupancy
  O  O0  1  0.036102  0.902253  0.093708  1
  O  O1  1  0.808545  0.442394  0.406292  1
  O  O2  1  0.097747  0.963898  0.406292  1
  O  O3  1  0.557606  0.191455  0.093708  1
  O  O4  1  0.963898  0.097747  0.906292  1
  O  O5  1  0.191455  0.557606  0.593708  1
  O  O6  1  0.902253  0.036102  0.593708  1
  O  O7  1  0.442394  0.808545  0.906292  1
  O  O8  1  0.967227  0.606825  0.141807  1
  O  O9  1  0.465018  0.325420  0.358193  1
  O  O10  1  0.393175  0.032773  0.358193  1
  O  O11  1  0.674580  0.534982  0.141807  1
  O  O12  1  0.680925  0.603312  0.913789  1
  O  O13  1  0.689523  0.267135  0.586211  1
  O  O14  1  0.396688  0.319075  0.586211  1
  O  O15  1  0.732865  0.310477  0.913789  1
  O  O16  1  0.319075  0.396688  0.086211  1
  O  O17  1  0.310477  0.732865  0.413789  1
  O  O18  1  0.603312  0.680925  0.413789  1
  O  O19  1  0.267135  0.689523  0.086211  1
  O  O20  1  0.325420  0.465018  0.858193  1
  O  O21  1  0.606825  0.967227  0.641807  1
  O  O22  1  0.534982  0.674580  0.641807  1
  O  O23  1  0.032773  0.393175  0.858193  1
  P  P24  1  0.490144  0.240144  0.480288  1
  P  P25  1  0.759856  0.509856  0.019712  1
  P  P26  1  0.509856  0.759856  0.519712  1
  P  P27  1  0.240144  0.490144  0.980288  1
  K  K28  1  0.095109  0.345109  0.250000  1
  K  K29  1  0.654891  0.904891  0.250000  1
  K  K30  1  0.904891  0.654891  0.750000  1
  K  K31  1  0.345109  0.095109  0.750000  1
  Mo  Mo32  1  0.154229  0.845771  0.250000  1
  Mo  Mo33  1  0.595771  0.404229  0.250000  1
  Mo  Mo34  1  0.845771  0.154229  0.750000  1
  Mo  Mo35  1  0.404229  0.595771  0.750000  1
