# generated using pymatgen
data_MgH2SeO5
_symmetry_space_group_name_H-M   'P 1'
_cell_length_a   5.41913567
_cell_length_b   5.41913568
_cell_length_c   7.78275952
_cell_angle_alpha   106.64131009
_cell_angle_beta   106.64131010
_cell_angle_gamma   98.99772472
_symmetry_Int_Tables_number   1
_chemical_formula_structural   MgH2SeO5
_chemical_formula_sum   'Mg2 H4 Se2 O10'
_cell_volume   202.61269846
_cell_formula_units_Z   2
loop_
 _symmetry_equiv_pos_site_id
 _symmetry_equiv_pos_as_xyz
  1  'x, y, z'
loop_
 _atom_site_type_symbol
 _atom_site_label
 _atom_site_symmetry_multiplicity
 _atom_site_fract_x
 _atom_site_fract_y
 _atom_site_fract_z
 _atom_site_occupancy
  H  H0  1  0.632981  0.032227  0.204122  1
  H  H1  1  0.467773  0.867019  0.295878  1
  H  H2  1  0.367019  0.967773  0.795878  1
  H  H3  1  0.532227  0.132981  0.704122  1
  O  O4  1  0.820094  0.718316  0.583253  1
  O  O5  1  0.781684  0.679906  0.916747  1
  O  O6  1  0.179906  0.281684  0.416747  1
  O  O7  1  0.218316  0.320094  0.083253  1
  O  O8  1  0.250054  0.684455  0.849121  1
  O  O9  1  0.815545  0.249946  0.650879  1
  O  O10  1  0.749946  0.315545  0.150879  1
  O  O11  1  0.184455  0.750054  0.349121  1
  O  O12  1  0.377233  0.122767  0.750000  1
  O  O13  1  0.622767  0.877233  0.250000  1
  Mg  Mg14  1  0.500000  0.500000  0.000000  1
  Mg  Mg15  1  0.000000  0.000000  0.500000  1
  Se  Se16  1  0.915425  0.584575  0.750000  1
  Se  Se17  1  0.084575  0.415425  0.250000  1
