# generated using pymatgen
data_SnP2PbO8
_symmetry_space_group_name_H-M   'P 1'
_cell_length_a   4.92413067
_cell_length_b   8.95155385
_cell_length_c   15.05540256
_cell_angle_alpha   90.00000000
_cell_angle_beta   90.00000000
_cell_angle_gamma   92.73165824
_symmetry_Int_Tables_number   1
_chemical_formula_structural   SnP2PbO8
_chemical_formula_sum   'Sn4 P8 Pb4 O32'
_cell_volume   662.86730469
_cell_formula_units_Z   4
loop_
 _symmetry_equiv_pos_site_id
 _symmetry_equiv_pos_as_xyz
  1  'x, y, z'
loop_
 _atom_site_type_symbol
 _atom_site_label
 _atom_site_symmetry_multiplicity
 _atom_site_fract_x
 _atom_site_fract_y
 _atom_site_fract_z
 _atom_site_occupancy
  Sn  Sn0  1  0.736973  0.549633  0.141297  1
  Sn  Sn1  1  0.236973  0.049633  0.358703  1
  Sn  Sn2  1  0.263027  0.450367  0.858703  1
  Sn  Sn3  1  0.763027  0.950367  0.641297  1
  P  P4  1  0.243315  0.796146  0.523804  1
  P  P5  1  0.781697  0.609743  0.737194  1
  P  P6  1  0.743315  0.296146  0.976196  1
  P  P7  1  0.218303  0.390257  0.262806  1
  P  P8  1  0.281697  0.109743  0.762806  1
  P  P9  1  0.756685  0.203854  0.476196  1
  P  P10  1  0.256685  0.703854  0.023804  1
  P  P11  1  0.718303  0.890257  0.237194  1
  Pb  Pb12  1  0.715545  0.590672  0.399812  1
  Pb  Pb13  1  0.215545  0.090672  0.100188  1
  Pb  Pb14  1  0.784455  0.909328  0.899812  1
  Pb  Pb15  1  0.284455  0.409328  0.600188  1
  O  O16  1  0.905443  0.338968  0.891955  1
  O  O17  1  0.754337  0.126860  0.995060  1
  O  O18  1  0.658742  0.549004  0.651447  1
  O  O19  1  0.562867  0.035974  0.750660  1
  O  O20  1  0.651597  0.716837  0.233666  1
  O  O21  1  0.557702  0.662252  0.038831  1
  O  O22  1  0.848403  0.783163  0.733666  1
  O  O23  1  0.158742  0.049004  0.848553  1
  O  O24  1  0.057702  0.162252  0.461169  1
  O  O25  1  0.942298  0.837748  0.538831  1
  O  O26  1  0.841258  0.950996  0.151447  1
  O  O27  1  0.354769  0.875697  0.438367  1
  O  O28  1  0.898906  0.916204  0.321221  1
  O  O29  1  0.442298  0.337748  0.961169  1
  O  O30  1  0.245663  0.873140  0.004940  1
  O  O31  1  0.094557  0.661032  0.108045  1
  O  O32  1  0.645231  0.124303  0.561633  1
  O  O33  1  0.254337  0.626860  0.504940  1
  O  O34  1  0.348403  0.283163  0.766334  1
  O  O35  1  0.151597  0.216837  0.266334  1
  O  O36  1  0.854769  0.375697  0.061633  1
  O  O37  1  0.601094  0.583796  0.821221  1
  O  O38  1  0.101094  0.083796  0.678779  1
  O  O39  1  0.145231  0.624303  0.938367  1
  O  O40  1  0.062867  0.535974  0.749340  1
  O  O41  1  0.937133  0.464026  0.250660  1
  O  O42  1  0.341258  0.450996  0.348553  1
  O  O43  1  0.745663  0.373140  0.495060  1
  O  O44  1  0.437133  0.964026  0.249340  1
  O  O45  1  0.405443  0.838968  0.608045  1
  O  O46  1  0.398906  0.416204  0.178779  1
  O  O47  1  0.594557  0.161032  0.391955  1
