# generated using pymatgen
data_Na8Al6Si6CO27
_symmetry_space_group_name_H-M   'P 1'
_cell_length_a   9.10541929
_cell_length_b   9.10541929
_cell_length_c   9.10541929
_cell_angle_alpha   89.98012500
_cell_angle_beta   90.01987500
_cell_angle_gamma   89.98012500
_symmetry_Int_Tables_number   1
_chemical_formula_structural   Na8Al6Si6CO27
_chemical_formula_sum   'Na8 Al6 Si6 C1 O27'
_cell_volume   754.91798084
_cell_formula_units_Z   1
loop_
 _symmetry_equiv_pos_site_id
 _symmetry_equiv_pos_as_xyz
  1  'x, y, z'
loop_
 _atom_site_type_symbol
 _atom_site_label
 _atom_site_symmetry_multiplicity
 _atom_site_fract_x
 _atom_site_fract_y
 _atom_site_fract_z
 _atom_site_occupancy
  Al  Al0  1  0.002415  0.249767  0.499720  1
  Al  Al1  1  0.000353  0.748306  0.498716  1
  Al  Al2  1  0.251694  0.501284  0.000353  1
  Al  Al3  1  0.498716  0.999647  0.251694  1
  Al  Al4  1  0.499720  0.997585  0.750233  1
  Al  Al5  1  0.750233  0.500280  0.002415  1
  C  C6  1  0.994294  0.005706  0.994294  1
  Na  Na7  1  0.176891  0.181271  0.176056  1
  Na  Na8  1  0.176056  0.823109  0.818729  1
  Na  Na9  1  0.227289  0.220985  0.778609  1
  Na  Na10  1  0.299372  0.700628  0.299372  1
  Na  Na11  1  0.779015  0.221391  0.227289  1
  Na  Na12  1  0.778609  0.772711  0.779015  1
  Na  Na13  1  0.800611  0.199389  0.800611  1
  Na  Na14  1  0.818729  0.823944  0.176891  1
  O  O15  1  0.056689  0.642367  0.347380  1
  O  O16  1  0.048773  0.353568  0.656011  1
  O  O17  1  0.111906  0.061618  0.934722  1
  O  O18  1  0.151365  0.138632  0.447513  1
  O  O19  1  0.151658  0.855900  0.552166  1
  O  O20  1  0.144100  0.447834  0.151658  1
  O  O21  1  0.142375  0.551556  0.849874  1
  O  O22  1  0.349604  0.046856  0.640206  1
  O  O23  1  0.347380  0.943311  0.357633  1
  O  O24  1  0.360913  0.349979  0.951812  1
  O  O25  1  0.357633  0.652620  0.056689  1
  O  O26  1  0.448444  0.150126  0.142375  1
  O  O27  1  0.447513  0.848635  0.861368  1
  O  O28  1  0.550279  0.148549  0.860106  1
  O  O29  1  0.552166  0.848342  0.144100  1
  O  O30  1  0.640206  0.650396  0.953144  1
  O  O31  1  0.646432  0.343989  0.048773  1
  O  O32  1  0.650021  0.048188  0.360913  1
  O  O33  1  0.656011  0.951227  0.646432  1
  O  O34  1  0.861368  0.552487  0.151365  1
  O  O35  1  0.860106  0.449721  0.851451  1
  O  O36  1  0.851451  0.139894  0.550279  1
  O  O37  1  0.849874  0.857625  0.448444  1
  O  O38  1  0.934722  0.888094  0.938382  1
  O  O39  1  0.938382  0.065278  0.111906  1
  O  O40  1  0.953144  0.359794  0.349604  1
  O  O41  1  0.951812  0.639087  0.650021  1
  Si  Si42  1  0.002516  0.500867  0.249578  1
  Si  Si43  1  0.001513  0.499266  0.751201  1
  Si  Si44  1  0.249578  0.997484  0.499133  1
  Si  Si45  1  0.500734  0.248799  0.001513  1
  Si  Si46  1  0.499133  0.750422  0.002516  1
  Si  Si47  1  0.751201  0.998487  0.500734  1
