# generated using pymatgen
data_Be(N3O7)2
_symmetry_space_group_name_H-M   'P 1'
_cell_length_a   6.35788935
_cell_length_b   7.58798933
_cell_length_c   12.88429801
_cell_angle_alpha   84.06695662
_cell_angle_beta   75.71589721
_cell_angle_gamma   65.23204707
_symmetry_Int_Tables_number   1
_chemical_formula_structural   Be(N3O7)2
_chemical_formula_sum   'Be2 N12 O28'
_cell_volume   546.95742937
_cell_formula_units_Z   2
loop_
 _symmetry_equiv_pos_site_id
 _symmetry_equiv_pos_as_xyz
  1  'x, y, z'
loop_
 _atom_site_type_symbol
 _atom_site_label
 _atom_site_symmetry_multiplicity
 _atom_site_fract_x
 _atom_site_fract_y
 _atom_site_fract_z
 _atom_site_occupancy
  Be  Be0  1  0.097641  0.000000  0.000000  1
  Be  Be1  1  0.847641  0.500000  0.500000  1
  N  N2  1  0.772396  0.190430  0.886754  1
  N  N3  1  0.849579  0.809570  0.113246  1
  N  N4  1  0.712825  0.309570  0.386754  1
  N  N5  1  0.409150  0.690430  0.613246  1
  N  N6  1  0.210779  0.197807  0.111249  1
  N  N7  1  0.519835  0.802193  0.888751  1
  N  N8  1  0.158586  0.302193  0.611249  1
  N  N9  1  0.072028  0.697807  0.388751  1
  N  N10  1  0.974297  -0.048068  0.638674  1
  N  N11  1  0.564903  1.048068  0.361326  1
  N  N12  1  0.676229  0.548068  0.138674  1
  N  N13  1  0.362971  0.451932  0.861326  1
  O  O14  1  0.981771  0.063594  0.890613  1
  O  O15  1  0.935977  0.936406  0.109387  1
  O  O16  1  0.795365  0.436406  0.390613  1
  O  O17  1  0.622384  0.563594  0.609387  1
  O  O18  1  0.618802  0.262536  0.970200  1
  O  O19  1  0.851538  0.737464  0.029800  1
  O  O20  1  0.631338  0.237464  0.470200  1
  O  O21  1  0.339002  0.762536  0.529800  1
  O  O22  1  0.727068  0.237460  0.795263  1
  O  O23  1  0.759790  0.762540  0.204737  1
  O  O24  1  0.714527  0.262540  0.295263  1
  O  O25  1  0.272331  0.737460  0.704737  1
  O  O26  1  0.100392  0.198803  0.034668  1
  O  O27  1  0.333863  0.801197  0.965332  1
  O  O28  1  0.049195  0.301197  0.534668  1
  O  O29  1  0.885060  0.698803  0.465332  1
  O  O30  1  0.322256  0.038860  0.150505  1
  O  O31  1  0.511622  0.961140  0.849495  1
  O  O32  1  0.111117  0.461140  0.650505  1
  O  O33  1  0.222762  0.538860  0.349495  1
  O  O34  1  0.194204  0.355913  0.136753  1
  O  O35  1  0.686870  0.644087  0.863247  1
  O  O36  1  0.300117  0.144087  0.636753  1
  O  O37  1  0.080957  0.855913  0.363247  1
  O  O38  1  0.830890  0.900388  0.644446  1
  O  O39  1  0.375725  0.099612  0.355554  1
  O  O40  1  0.481279  0.599612  0.144446  1
  O  O41  1  0.225337  0.400388  0.855554  1
