# generated using pymatgen
data_Be2Te7Cl6
_symmetry_space_group_name_H-M   'P 1'
_cell_length_a   5.53285578
_cell_length_b   10.34686686
_cell_length_c   16.81912852
_cell_angle_alpha   90.00000000
_cell_angle_beta   90.00000000
_cell_angle_gamma   90.00000000
_symmetry_Int_Tables_number   1
_chemical_formula_structural   Be2Te7Cl6
_chemical_formula_sum   'Be4 Te14 Cl12'
_cell_volume   962.85679567
_cell_formula_units_Z   2
loop_
 _symmetry_equiv_pos_site_id
 _symmetry_equiv_pos_as_xyz
  1  'x, y, z'
loop_
 _atom_site_type_symbol
 _atom_site_label
 _atom_site_symmetry_multiplicity
 _atom_site_fract_x
 _atom_site_fract_y
 _atom_site_fract_z
 _atom_site_occupancy
  Te  Te0  1  0.000000  0.000000  0.500000  1
  Te  Te1  1  0.500000  0.500000  0.000000  1
  Te  Te2  1  0.328131  0.896337  0.371343  1
  Te  Te3  1  0.828131  0.603663  0.128657  1
  Te  Te4  1  0.171869  0.396337  0.128657  1
  Te  Te5  1  0.671869  0.103663  0.371343  1
  Te  Te6  1  0.671869  0.103663  0.628657  1
  Te  Te7  1  0.171869  0.396337  0.871343  1
  Te  Te8  1  0.828131  0.603663  0.871343  1
  Te  Te9  1  0.328131  0.896337  0.628657  1
  Te  Te10  1  0.000000  0.000000  0.260683  1
  Te  Te11  1  0.500000  0.500000  0.239317  1
  Te  Te12  1  0.000000  0.000000  0.739317  1
  Te  Te13  1  0.500000  0.500000  0.760683  1
  Cl  Cl14  1  0.732724  0.914797  0.000000  1
  Cl  Cl15  1  0.232724  0.585203  0.500000  1
  Cl  Cl16  1  0.767276  0.414797  0.500000  1
  Cl  Cl17  1  0.267276  0.085203  0.000000  1
  Cl  Cl18  1  0.347227  0.861699  0.853117  1
  Cl  Cl19  1  0.847227  0.638301  0.646883  1
  Cl  Cl20  1  0.152773  0.361699  0.646883  1
  Cl  Cl21  1  0.652773  0.138301  0.853117  1
  Cl  Cl22  1  0.652773  0.138301  0.146883  1
  Cl  Cl23  1  0.152773  0.361699  0.353117  1
  Cl  Cl24  1  0.847227  0.638301  0.353117  1
  Cl  Cl25  1  0.347227  0.861699  0.146883  1
  Be  Be26  1  0.500000  0.000000  0.919258  1
  Be  Be27  1  0.000000  0.500000  0.580742  1
  Be  Be28  1  0.500000  0.000000  0.080742  1
  Be  Be29  1  0.000000  0.500000  0.419258  1
