# generated using pymatgen
data_Zn3GaB6PO12
_symmetry_space_group_name_H-M   'P 1'
_cell_length_a   6.65003827
_cell_length_b   6.67920479
_cell_length_c   6.67920500
_cell_angle_alpha   109.55951044
_cell_angle_beta   109.38278916
_cell_angle_gamma   109.38278970
_symmetry_Int_Tables_number   1
_chemical_formula_structural   Zn3GaB6PO12
_chemical_formula_sum   'Zn3 Ga1 B6 P1 O12'
_cell_volume   228.62545125
_cell_formula_units_Z   1
loop_
 _symmetry_equiv_pos_site_id
 _symmetry_equiv_pos_as_xyz
  1  'x, y, z'
loop_
 _atom_site_type_symbol
 _atom_site_label
 _atom_site_symmetry_multiplicity
 _atom_site_fract_x
 _atom_site_fract_y
 _atom_site_fract_z
 _atom_site_occupancy
  B  B0  1  0.248720  0.746004  0.497953  1
  B  B1  1  0.248720  0.497953  0.746004  1
  B  B2  1  0.502716  0.253996  0.751949  1
  B  B3  1  0.502716  0.751949  0.253996  1
  B  B4  1  0.750767  0.502047  0.248051  1
  B  B5  1  0.750767  0.248051  0.502047  1
  Ga  Ga6  1  0.652835  0.000000  0.000000  1
  O  O7  1  0.000400  0.713809  0.430520  1
  O  O8  1  0.431046  1.000000  0.723691  1
  O  O9  1  0.293757  0.573545  0.573545  1
  O  O10  1  0.286591  0.716711  0.286191  1
  O  O11  1  0.286591  0.286191  0.716711  1
  O  O12  1  0.431046  0.723691  1.000000  1
  O  O13  1  0.720213  0.000000  0.426455  1
  O  O14  1  0.569880  0.283289  0.569480  1
  O  O15  1  0.569880  0.569480  0.283289  1
  O  O16  1  0.707356  0.276309  0.276309  1
  O  O17  1  0.720213  0.426455  0.000000  1
  O  O18  1  0.000400  0.430520  0.713809  1
  P  P19  1  0.992290  0.000000  0.000000  1
  Zn  Zn20  1  0.999669  0.665913  0.000000  1
  Zn  Zn21  1  0.333757  0.334087  0.334087  1
  Zn  Zn22  1  0.999669  0.000000  0.665913  1
