# generated using pymatgen
data_P2Pb4O9
_symmetry_space_group_name_H-M   'P 1'
_cell_length_a   7.32000206
_cell_length_b   9.67316597
_cell_length_c   14.83321532
_cell_angle_alpha   104.15429770
_cell_angle_beta   90.00000000
_cell_angle_gamma   90.00000000
_symmetry_Int_Tables_number   1
_chemical_formula_structural   P2Pb4O9
_chemical_formula_sum   'P8 Pb16 O36'
_cell_volume   1018.41780988
_cell_formula_units_Z   4
loop_
 _symmetry_equiv_pos_site_id
 _symmetry_equiv_pos_as_xyz
  1  'x, y, z'
loop_
 _atom_site_type_symbol
 _atom_site_label
 _atom_site_symmetry_multiplicity
 _atom_site_fract_x
 _atom_site_fract_y
 _atom_site_fract_z
 _atom_site_occupancy
  O  O0  1  0.650962  0.572663  0.267864  1
  O  O1  1  0.150962  0.427337  0.232136  1
  O  O2  1  0.349038  0.427337  0.732136  1
  O  O3  1  0.849038  0.572663  0.767864  1
  O  O4  1  0.920975  0.705092  0.215630  1
  O  O5  1  0.420975  0.294908  0.284370  1
  O  O6  1  0.079025  0.294908  0.784370  1
  O  O7  1  0.579025  0.705092  0.715630  1
  O  O8  1  0.216566  0.937128  0.187680  1
  O  O9  1  0.716566  0.062872  0.312320  1
  O  O10  1  0.783434  0.062872  0.812320  1
  O  O11  1  0.283434  0.937128  0.687680  1
  O  O12  1  0.175440  0.079012  0.062904  1
  O  O13  1  0.675440  0.920988  0.437096  1
  O  O14  1  0.289209  0.774065  0.324416  1
  O  O15  1  0.824560  0.920988  0.937096  1
  O  O16  1  0.760532  0.496269  0.101640  1
  O  O17  1  0.260532  0.503731  0.398360  1
  O  O18  1  0.239468  0.503731  0.898360  1
  O  O19  1  0.739468  0.496269  0.601640  1
  O  O20  1  0.602394  0.737613  0.159064  1
  O  O21  1  0.102394  0.262387  0.340936  1
  O  O22  1  0.397606  0.262387  0.840936  1
  O  O23  1  0.897606  0.737613  0.659064  1
  O  O24  1  0.008053  0.026290  0.611234  1
  O  O25  1  0.508053  0.973710  0.888766  1
  O  O26  1  0.991947  0.973710  0.388766  1
  O  O27  1  0.491947  0.026290  0.111234  1
  O  O28  1  0.212471  0.819343  0.523973  1
  O  O29  1  0.712471  0.180657  0.976027  1
  O  O30  1  0.787529  0.180657  0.476027  1
  O  O31  1  0.287529  0.819343  0.023973  1
  O  O32  1  0.210791  0.774065  0.824416  1
  O  O33  1  0.710791  0.225935  0.675584  1
  O  O34  1  0.789209  0.225935  0.175584  1
  O  O35  1  0.324560  0.079012  0.562904  1
  P  P36  1  0.735614  0.627198  0.185731  1
  P  P37  1  0.235614  0.372802  0.314269  1
  P  P38  1  0.264386  0.372802  0.814269  1
  P  P39  1  0.764386  0.627198  0.685731  1
  P  P40  1  0.292286  0.967819  0.094606  1
  P  P41  1  0.792286  0.032181  0.405394  1
  P  P42  1  0.707714  0.032181  0.905394  1
  P  P43  1  0.207714  0.967819  0.594606  1
  Pb  Pb44  1  0.016333  0.720826  0.385242  1
  Pb  Pb45  1  0.516333  0.279174  0.114758  1
  Pb  Pb46  1  0.983667  0.279174  0.614758  1
  Pb  Pb47  1  0.483667  0.720826  0.885242  1
  Pb  Pb48  1  0.496026  0.689128  0.410952  1
  Pb  Pb49  1  0.996026  0.310872  0.089048  1
  Pb  Pb50  1  0.503974  0.310872  0.589048  1
  Pb  Pb51  1  0.003974  0.689128  0.910952  1
  Pb  Pb52  1  0.271431  0.679062  0.166990  1
  Pb  Pb53  1  0.771431  0.320938  0.333010  1
  Pb  Pb54  1  0.728569  0.320938  0.833010  1
  Pb  Pb55  1  0.228569  0.679062  0.666990  1
  Pb  Pb56  1  0.292372  0.039958  0.348956  1
  Pb  Pb57  1  0.792372  0.960042  0.151044  1
  Pb  Pb58  1  0.707628  0.960042  0.651044  1
  Pb  Pb59  1  0.207628  0.039958  0.848956  1
