# generated using pymatgen
data_Y3Se4
_symmetry_space_group_name_H-M   'P 1'
_cell_length_a   8.13818964
_cell_length_b   8.19682844
_cell_length_c   16.21422022
_cell_angle_alpha   59.63323857
_cell_angle_beta   60.11306440
_cell_angle_gamma   59.76136090
_symmetry_Int_Tables_number   1
_chemical_formula_structural   Y3Se4
_chemical_formula_sum   'Y12 Se16'
_cell_volume   761.93453302
_cell_formula_units_Z   4
loop_
 _symmetry_equiv_pos_site_id
 _symmetry_equiv_pos_as_xyz
  1  'x, y, z'
loop_
 _atom_site_type_symbol
 _atom_site_label
 _atom_site_symmetry_multiplicity
 _atom_site_fract_x
 _atom_site_fract_y
 _atom_site_fract_z
 _atom_site_occupancy
  Se  Se0  1  0.249667  0.248269  0.124467  1
  Se  Se1  1  0.249667  0.753129  0.124467  1
  Se  Se2  1  0.255053  0.247996  0.374477  1
  Se  Se3  1  0.249108  0.749792  0.375655  1
  Se  Se4  1  0.252363  0.255594  0.624513  1
  Se  Se5  1  0.750892  0.250208  0.124345  1
  Se  Se6  1  0.750333  0.246871  0.375533  1
  Se  Se7  1  0.250307  0.247082  0.877764  1
  Se  Se8  1  0.252363  0.743019  0.624513  1
  Se  Se9  1  0.744947  0.752004  0.125523  1
  Se  Se10  1  0.245718  0.754791  0.872349  1
  Se  Se11  1  0.750333  0.751731  0.375533  1
  Se  Se12  1  0.754282  0.245209  0.627651  1
  Se  Se13  1  0.747637  0.256981  0.875487  1
  Se  Se14  1  0.749693  0.752918  0.622236  1
  Se  Se15  1  0.747637  0.744406  0.875487  1
  Y  Y16  1  0.996711  0.988500  0.004182  1
  Y  Y17  1  0.996711  0.506426  0.004182  1
  Y  Y18  1  0.000000  0.000000  0.250000  1
  Y  Y19  1  0.490100  0.500536  0.004414  1
  Y  Y20  1  0.500000  0.000000  0.250000  1
  Y  Y21  1  0.003289  0.493574  0.495818  1
  Y  Y22  1  0.500000  0.500000  0.250000  1
  Y  Y23  1  0.003289  0.011500  0.495818  1
  Y  Y24  1  0.000000  0.500000  0.750000  1
  Y  Y25  1  0.509900  0.499464  0.495586  1
  Y  Y26  1  0.500000  0.000000  0.750000  1
  Y  Y27  1  0.500000  0.500000  0.750000  1
