# generated using pymatgen
data_Eu(AlCl4)2
_symmetry_space_group_name_H-M   'P 1'
_cell_length_a   7.05935898
_cell_length_b   7.59557985
_cell_length_c   12.82768376
_cell_angle_alpha   94.50840079
_cell_angle_beta   90.00000000
_cell_angle_gamma   90.00000000
_symmetry_Int_Tables_number   1
_chemical_formula_structural   Eu(AlCl4)2
_chemical_formula_sum   'Eu2 Al4 Cl16'
_cell_volume   685.69120141
_cell_formula_units_Z   2
loop_
 _symmetry_equiv_pos_site_id
 _symmetry_equiv_pos_as_xyz
  1  'x, y, z'
loop_
 _atom_site_type_symbol
 _atom_site_label
 _atom_site_symmetry_multiplicity
 _atom_site_fract_x
 _atom_site_fract_y
 _atom_site_fract_z
 _atom_site_occupancy
  Al  Al0  1  0.260461  0.322449  0.580284  1
  Al  Al1  1  0.739539  0.322449  0.080284  1
  Al  Al2  1  0.739539  0.677551  0.419716  1
  Al  Al3  1  0.260461  0.677551  0.919716  1
  Cl  Cl4  1  0.820807  0.594950  0.115621  1
  Cl  Cl5  1  0.820807  0.405050  0.384379  1
  Cl  Cl6  1  0.302780  0.263535  0.414089  1
  Cl  Cl7  1  0.302780  0.736465  0.085911  1
  Cl  Cl8  1  0.697220  0.736465  0.585911  1
  Cl  Cl9  1  0.697220  0.263535  0.914089  1
  Cl  Cl10  1  0.026136  0.174082  0.637950  1
  Cl  Cl11  1  0.026136  0.825918  0.862050  1
  Cl  Cl12  1  0.973864  0.825918  0.362050  1
  Cl  Cl13  1  0.973864  0.174082  0.137950  1
  Cl  Cl14  1  0.523573  0.260772  0.655554  1
  Cl  Cl15  1  0.523573  0.739228  0.844446  1
  Cl  Cl16  1  0.476427  0.739228  0.344446  1
  Cl  Cl17  1  0.476427  0.260772  0.155554  1
  Cl  Cl18  1  0.179193  0.594950  0.615621  1
  Cl  Cl19  1  0.179193  0.405050  0.884379  1
  Eu  Eu20  1  0.841527  0.500000  0.750000  1
  Eu  Eu21  1  0.158473  0.500000  0.250000  1
