# generated using pymatgen
data_U(IO4)2
_symmetry_space_group_name_H-M   'P 1'
_cell_length_a   4.26592759
_cell_length_b   5.51315120
_cell_length_c   16.63134292
_cell_angle_alpha   90.00000000
_cell_angle_beta   90.00000000
_cell_angle_gamma   108.55293053
_symmetry_Int_Tables_number   1
_chemical_formula_structural   U(IO4)2
_chemical_formula_sum   'U2 I4 O16'
_cell_volume   370.81973377
_cell_formula_units_Z   2
loop_
 _symmetry_equiv_pos_site_id
 _symmetry_equiv_pos_as_xyz
  1  'x, y, z'
loop_
 _atom_site_type_symbol
 _atom_site_label
 _atom_site_symmetry_multiplicity
 _atom_site_fract_x
 _atom_site_fract_y
 _atom_site_fract_z
 _atom_site_occupancy
  O  O0  1  0.374312  0.704576  0.557865  1
  O  O1  1  0.125688  0.795424  0.057865  1
  O  O2  1  0.625688  0.295424  0.442135  1
  O  O3  1  0.874312  0.204576  0.942135  1
  O  O4  1  0.409423  0.750857  0.370916  1
  O  O5  1  0.090577  0.749143  0.870916  1
  O  O6  1  0.464183  0.388835  0.063381  1
  O  O7  1  0.035817  0.111165  0.563381  1
  O  O8  1  0.535817  0.611165  0.936619  1
  O  O9  1  0.964183  0.888835  0.436619  1
  O  O10  1  0.444188  0.487836  0.228179  1
  O  O11  1  0.055812  1.012164  0.728179  1
  O  O12  1  0.555812  0.512164  0.771821  1
  O  O13  1  0.944188  -0.012164  0.271821  1
  O  O14  1  0.909423  0.250858  0.129084  1
  O  O15  1  0.590577  0.249142  0.629084  1
  I  I16  1  0.811413  0.715062  0.338949  1
  I  I17  1  0.688587  0.784938  0.838949  1
  I  I18  1  0.188587  0.284938  0.661051  1
  I  I19  1  0.311413  0.215062  0.161051  1
  U  U20  1  0.500000  0.000000  0.500000  1
  U  U21  1  0.000000  0.500000  0.000000  1
