# generated using pymatgen
data_Tl2Pt3
_symmetry_space_group_name_H-M   'P 1'
_cell_length_a   5.74342227
_cell_length_b   5.74342227
_cell_length_c   14.19638597
_cell_angle_alpha   90.00000000
_cell_angle_beta   90.00000000
_cell_angle_gamma   120.00000005
_symmetry_Int_Tables_number   1
_chemical_formula_structural   Tl2Pt3
_chemical_formula_sum   'Tl8 Pt12'
_cell_volume   405.55515462
_cell_formula_units_Z   4
loop_
 _symmetry_equiv_pos_site_id
 _symmetry_equiv_pos_as_xyz
  1  'x, y, z'
loop_
 _atom_site_type_symbol
 _atom_site_label
 _atom_site_symmetry_multiplicity
 _atom_site_fract_x
 _atom_site_fract_y
 _atom_site_fract_z
 _atom_site_occupancy
  Pt  Pt0  1  0.166009  0.331962  0.086160  1
  Pt  Pt1  1  0.668038  0.834047  0.086160  1
  Pt  Pt2  1  0.165953  0.833991  0.086160  1
  Pt  Pt3  1  0.668038  0.833991  0.413840  1
  Pt  Pt4  1  0.165953  0.331962  0.413840  1
  Pt  Pt5  1  0.166009  0.834047  0.413840  1
  Pt  Pt6  1  0.833991  0.668038  0.913840  1
  Pt  Pt7  1  0.331962  0.165953  0.913840  1
  Pt  Pt8  1  0.834047  0.166009  0.913840  1
  Pt  Pt9  1  0.331962  0.166009  0.586160  1
  Pt  Pt10  1  0.834047  0.668038  0.586160  1
  Pt  Pt11  1  0.833991  0.165953  0.586160  1
  Tl  Tl12  1  0.000000  0.000000  0.250000  1
  Tl  Tl13  1  0.000000  0.000000  0.750000  1
  Tl  Tl14  1  0.333333  0.666667  0.250000  1
  Tl  Tl15  1  0.666667  0.333333  0.750000  1
  Tl  Tl16  1  0.333333  0.666667  0.908388  1
  Tl  Tl17  1  0.333333  0.666667  0.591612  1
  Tl  Tl18  1  0.666667  0.333333  0.091612  1
  Tl  Tl19  1  0.666667  0.333333  0.408388  1
