# generated using pymatgen
data_BaLaI4
_symmetry_space_group_name_H-M   'P 1'
_cell_length_a   7.56438584
_cell_length_b   9.02714709
_cell_length_c   9.28414788
_cell_angle_alpha   113.71736650
_cell_angle_beta   107.89160885
_cell_angle_gamma   101.88994325
_symmetry_Int_Tables_number   1
_chemical_formula_structural   BaLaI4
_chemical_formula_sum   'Ba2 La2 I8'
_cell_volume   511.30242120
_cell_formula_units_Z   2
loop_
 _symmetry_equiv_pos_site_id
 _symmetry_equiv_pos_as_xyz
  1  'x, y, z'
loop_
 _atom_site_type_symbol
 _atom_site_label
 _atom_site_symmetry_multiplicity
 _atom_site_fract_x
 _atom_site_fract_y
 _atom_site_fract_z
 _atom_site_occupancy
  I  I0  1  0.012125  0.232306  0.874040  1
  I  I1  1  0.361914  0.641734  0.874040  1
  I  I2  1  0.987875  0.767694  0.125960  1
  I  I3  1  0.638086  0.358266  0.125960  1
  I  I4  1  0.357650  0.942565  0.653482  1
  I  I5  1  0.795832  0.710917  0.653482  1
  I  I6  1  0.642350  0.057435  0.346518  1
  I  I7  1  0.204168  0.289083  0.346518  1
  Ba  Ba8  1  0.384307  0.634307  0.268614  1
  Ba  Ba9  1  0.615693  0.365693  0.731386  1
  La  La10  1  0.250704  0.000704  0.001409  1
  La  La11  1  0.749296  0.999296  0.998591  1
