# generated using pymatgen
data_GdPaO4
_symmetry_space_group_name_H-M   'P 1'
_cell_length_a   7.69787554
_cell_length_b   10.16558327
_cell_length_c   6.63921950
_cell_angle_alpha   29.23685811
_cell_angle_beta   54.56862499
_cell_angle_gamma   40.77774683
_symmetry_Int_Tables_number   1
_chemical_formula_structural   GdPaO4
_chemical_formula_sum   'Gd2 Pa2 O8'
_cell_volume   160.29497056
_cell_formula_units_Z   2
loop_
 _symmetry_equiv_pos_site_id
 _symmetry_equiv_pos_as_xyz
  1  'x, y, z'
loop_
 _atom_site_type_symbol
 _atom_site_label
 _atom_site_symmetry_multiplicity
 _atom_site_fract_x
 _atom_site_fract_y
 _atom_site_fract_z
 _atom_site_occupancy
  Gd  Gd0  1  0.500001  0.000000  0.000000  1
  Gd  Gd1  1  0.249999  0.500000  0.000000  1
  O  O2  1  0.110746  0.514235  0.735768  1
  O  O3  1  0.375014  0.514236  0.235768  1
  O  O4  1  0.110746  0.014236  0.235768  1
  O  O5  1  0.874984  0.485765  0.264232  1
  O  O6  1  0.639254  0.485764  0.764232  1
  O  O7  1  0.639254  0.985765  0.264232  1
  O  O8  1  0.374986  0.985764  0.764232  1
  O  O9  1  0.875016  0.014235  0.735768  1
  Pa  Pa10  1  0.999999  0.000000  0.000000  1
  Pa  Pa11  1  0.750001  0.500000  0.000000  1
