# generated using pymatgen
data_CeMgSi2
_symmetry_space_group_name_H-M   'P 1'
_cell_length_a   4.19044368
_cell_length_b   4.19044368
_cell_length_c   18.77045956
_cell_angle_alpha   96.40890392
_cell_angle_beta   96.40890388
_cell_angle_gamma   89.99999997
_symmetry_Int_Tables_number   1
_chemical_formula_structural   CeMgSi2
_chemical_formula_sum   'Ce4 Mg4 Si8'
_cell_volume   325.47313404
_cell_formula_units_Z   4
loop_
 _symmetry_equiv_pos_site_id
 _symmetry_equiv_pos_as_xyz
  1  'x, y, z'
loop_
 _atom_site_type_symbol
 _atom_site_label
 _atom_site_symmetry_multiplicity
 _atom_site_fract_x
 _atom_site_fract_y
 _atom_site_fract_z
 _atom_site_occupancy
  Mg  Mg0  1  0.624921  0.374921  0.749842  1
  Mg  Mg1  1  0.375079  0.625079  0.250158  1
  Mg  Mg2  1  0.125079  0.875079  0.750158  1
  Mg  Mg3  1  0.874921  0.124921  0.249842  1
  Si  Si4  1  0.076697  0.326697  0.653393  1
  Si  Si5  1  0.173303  0.423303  0.846607  1
  Si  Si6  1  0.826697  0.576697  0.153393  1
  Si  Si7  1  0.923303  0.673303  0.346607  1
  Si  Si8  1  0.014253  0.264253  0.528505  1
  Si  Si9  1  0.764253  0.514253  0.028505  1
  Si  Si10  1  0.985747  0.735747  0.471495  1
  Si  Si11  1  0.235747  0.485747  0.971495  1
  Ce  Ce12  1  0.703148  0.953148  0.906296  1
  Ce  Ce13  1  0.453148  0.203148  0.406296  1
  Ce  Ce14  1  0.296852  0.046852  0.093704  1
  Ce  Ce15  1  0.546852  0.796852  0.593704  1
