# generated using pymatgen
data_Na2W4O13
_symmetry_space_group_name_H-M   'P 1'
_cell_length_a   3.85189000
_cell_length_b   8.53469644
_cell_length_c   8.69695622
_cell_angle_alpha   96.31728031
_cell_angle_beta   102.71161917
_cell_angle_gamma   89.95253570
_symmetry_Int_Tables_number   1
_chemical_formula_structural   Na2W4O13
_chemical_formula_sum   'Na2 W4 O13'
_cell_volume   277.12808011
_cell_formula_units_Z   1
loop_
 _symmetry_equiv_pos_site_id
 _symmetry_equiv_pos_as_xyz
  1  'x, y, z'
loop_
 _atom_site_type_symbol
 _atom_site_label
 _atom_site_symmetry_multiplicity
 _atom_site_fract_x
 _atom_site_fract_y
 _atom_site_fract_z
 _atom_site_occupancy
  O  O0  1  -0.001045  0.845972  0.994049  1
  O  O1  1  0.596943  0.992377  0.184202  1
  O  O2  1  0.427603  0.643711  0.845862  1
  O  O3  1  0.572398  0.356289  0.154139  1
  O  O4  1  0.000000  0.500000  0.000000  1
  O  O5  1  0.835859  0.486454  0.659332  1
  O  O6  1  0.164142  0.513545  0.340668  1
  O  O7  1  0.824436  0.149275  0.656029  1
  O  O8  1  0.153621  0.193335  0.307753  1
  O  O9  1  0.403058  0.007623  0.815798  1
  O  O10  1  1.001046  0.154028  0.005951  1
  O  O11  1  0.175562  0.850725  0.343971  1
  O  O12  1  0.846380  0.806664  0.692247  1
  Na  Na13  1  0.710254  0.694350  0.423010  1
  Na  Na14  1  0.289747  0.305651  0.576990  1
  W  W15  1  0.923942  0.631552  0.828296  1
  W  W16  1  0.076059  0.368448  0.171704  1
  W  W17  1  0.892075  0.020131  0.806373  1
  W  W18  1  0.107926  0.979869  0.193627  1
