# generated using pymatgen
data_B5F6
_symmetry_space_group_name_H-M   'P 1'
_cell_length_a   6.56475699
_cell_length_b   6.56475700
_cell_length_c   14.76632609
_cell_angle_alpha   102.84345946
_cell_angle_beta   102.84345948
_cell_angle_gamma   90.00000003
_symmetry_Int_Tables_number   1
_chemical_formula_structural   B5F6
_chemical_formula_sum   'B20 F24'
_cell_volume   604.10798200
_cell_formula_units_Z   4
loop_
 _symmetry_equiv_pos_site_id
 _symmetry_equiv_pos_as_xyz
  1  'x, y, z'
loop_
 _atom_site_type_symbol
 _atom_site_label
 _atom_site_symmetry_multiplicity
 _atom_site_fract_x
 _atom_site_fract_y
 _atom_site_fract_z
 _atom_site_occupancy
  B  B0  1  0.442525  0.520321  0.202175  1
  B  B1  1  0.681853  0.442525  0.702175  1
  B  B2  1  0.520321  0.259649  0.702175  1
  B  B3  1  0.259649  0.681853  0.202175  1
  B  B4  1  0.557475  0.479679  0.797825  1
  B  B5  1  0.318147  0.557475  0.297825  1
  B  B6  1  0.479679  0.740351  0.297825  1
  B  B7  1  0.740351  0.318147  0.797825  1
  B  B8  1  0.293824  0.543824  0.087647  1
  B  B9  1  0.543824  0.293824  0.587647  1
  B  B10  1  0.706176  0.456176  0.912353  1
  B  B11  1  0.456176  0.706176  0.412353  1
  B  B12  1  0.595752  0.328411  0.161054  1
  B  B13  1  0.832643  0.595752  0.661054  1
  B  B14  1  0.328411  0.065302  0.661054  1
  B  B15  1  0.065302  0.832643  0.161054  1
  B  B16  1  0.404248  0.671589  0.838946  1
  B  B17  1  0.167357  0.404248  0.338946  1
  B  B18  1  0.671589  0.934698  0.338946  1
  B  B19  1  0.934698  0.167357  0.838946  1
  F  F20  1  0.162341  0.380097  0.037564  1
  F  F21  1  0.657468  0.162341  0.537564  1
  F  F22  1  0.380097  0.375223  0.537564  1
  F  F23  1  0.375223  0.657468  0.037564  1
  F  F24  1  0.837659  0.619903  0.962436  1
  F  F25  1  0.342532  0.837659  0.462436  1
  F  F26  1  0.619903  0.624777  0.462436  1
  F  F27  1  0.624777  0.342532  0.962436  1
  F  F28  1  0.521594  0.135146  0.117817  1
  F  F29  1  0.982671  0.521594  0.617817  1
  F  F30  1  0.135146  0.096223  0.617817  1
  F  F31  1  0.096223  0.982671  0.117817  1
  F  F32  1  0.478406  0.864854  0.882183  1
  F  F33  1  0.017329  0.478406  0.382183  1
  F  F34  1  0.864854  0.903777  0.382183  1
  F  F35  1  0.903777  0.017329  0.882183  1
  F  F36  1  0.802136  0.367923  0.177443  1
  F  F37  1  0.809520  0.802136  0.677443  1
  F  F38  1  0.367923  0.875307  0.677443  1
  F  F39  1  0.875307  0.809520  0.177443  1
  F  F40  1  0.197864  0.632077  0.822557  1
  F  F41  1  0.190480  0.197864  0.322557  1
  F  F42  1  0.632077  0.124693  0.322557  1
  F  F43  1  0.124693  0.190480  0.822557  1
