# generated using pymatgen
data_Al5BO9
_symmetry_space_group_name_H-M   'P 1'
_cell_length_a   5.73087865
_cell_length_b   7.76573751
_cell_length_c   8.10210966
_cell_angle_alpha   90.00000000
_cell_angle_beta   110.71169828
_cell_angle_gamma   90.00000000
_symmetry_Int_Tables_number   1
_chemical_formula_structural   Al5BO9
_chemical_formula_sum   'Al10 B2 O18'
_cell_volume   337.27669074
_cell_formula_units_Z   2
loop_
 _symmetry_equiv_pos_site_id
 _symmetry_equiv_pos_as_xyz
  1  'x, y, z'
loop_
 _atom_site_type_symbol
 _atom_site_label
 _atom_site_symmetry_multiplicity
 _atom_site_fract_x
 _atom_site_fract_y
 _atom_site_fract_z
 _atom_site_occupancy
  B  B0  1  0.984356  0.720822  0.968712  1
  B  B1  1  0.015644  0.220822  0.031288  1
  O  O2  1  0.191060  0.435881  0.382121  1
  O  O3  1  0.953613  0.093066  0.907227  1
  O  O4  1  0.046387  0.593066  0.092773  1
  O  O5  1  0.454644  0.071780  0.909289  1
  O  O6  1  0.545356  0.571780  0.090711  1
  O  O7  1  0.669309  0.368195  0.338617  1
  O  O8  1  0.330691  0.868195  0.661383  1
  O  O9  1  0.838221  0.284836  0.096202  1
  O  O10  1  0.808940  0.935881  0.617879  1
  O  O11  1  0.648281  0.037239  0.296561  1
  O  O12  1  0.742019  0.784836  0.903798  1
  O  O13  1  0.257981  0.284836  0.096202  1
  O  O14  1  0.161779  0.784836  0.903798  1
  O  O15  1  0.447527  0.700401  0.380506  1
  O  O16  1  0.067021  0.200401  0.619494  1
  O  O17  1  0.552473  0.200401  0.619494  1
  O  O18  1  0.932979  0.700401  0.380506  1
  O  O19  1  0.351719  0.537239  0.703439  1
  Al  Al20  1  0.367926  0.499780  0.231794  1
  Al  Al21  1  0.296594  0.333666  0.593188  1
  Al  Al22  1  0.703406  0.833666  0.406812  1
  Al  Al23  1  0.556457  0.183185  0.112914  1
  Al  Al24  1  0.443543  0.683185  0.887086  1
  Al  Al25  1  0.744615  0.184930  0.489229  1
  Al  Al26  1  0.255385  0.684930  0.510771  1
  Al  Al27  1  0.136132  0.999780  0.768206  1
  Al  Al28  1  0.863868  0.499780  0.231794  1
  Al  Al29  1  0.632074  0.999780  0.768206  1
