# generated using pymatgen
data_Na3GdCl6
_symmetry_space_group_name_H-M   'P 1'
_cell_length_a   7.56556152
_cell_length_b   7.56556212
_cell_length_c   7.56556186
_cell_angle_alpha   56.23046760
_cell_angle_beta   56.23046752
_cell_angle_gamma   56.23046883
_symmetry_Int_Tables_number   1
_chemical_formula_structural   Na3GdCl6
_chemical_formula_sum   'Na3 Gd1 Cl6'
_cell_volume   279.49015591
_cell_formula_units_Z   1
loop_
 _symmetry_equiv_pos_site_id
 _symmetry_equiv_pos_as_xyz
  1  'x, y, z'
loop_
 _atom_site_type_symbol
 _atom_site_label
 _atom_site_symmetry_multiplicity
 _atom_site_fract_x
 _atom_site_fract_y
 _atom_site_fract_z
 _atom_site_occupancy
  Cl  Cl0  1  0.106872  0.373917  0.777064  1
  Cl  Cl1  1  0.373917  0.777064  0.106872  1
  Cl  Cl2  1  0.777064  0.106872  0.373917  1
  Cl  Cl3  1  0.222936  0.893128  0.626083  1
  Cl  Cl4  1  0.626083  0.222936  0.893128  1
  Cl  Cl5  1  0.893128  0.626083  0.222936  1
  Gd  Gd6  1  0.000000  0.000000  0.000000  1
  Na  Na7  1  0.199671  0.199671  0.199671  1
  Na  Na8  1  0.500000  0.500000  0.500000  1
  Na  Na9  1  0.800329  0.800329  0.800329  1
