# generated using pymatgen
data_Ca9Mn4Bi9
_symmetry_space_group_name_H-M   'P 1'
_cell_length_a   4.76785151
_cell_length_b   12.60849475
_cell_length_c   22.42838917
_cell_angle_alpha   90.00000000
_cell_angle_beta   90.00000000
_cell_angle_gamma   90.00000000
_symmetry_Int_Tables_number   1
_chemical_formula_structural   Ca9Mn4Bi9
_chemical_formula_sum   'Ca18 Mn8 Bi18'
_cell_volume   1348.29227559
_cell_formula_units_Z   2
loop_
 _symmetry_equiv_pos_site_id
 _symmetry_equiv_pos_as_xyz
  1  'x, y, z'
loop_
 _atom_site_type_symbol
 _atom_site_label
 _atom_site_symmetry_multiplicity
 _atom_site_fract_x
 _atom_site_fract_y
 _atom_site_fract_z
 _atom_site_occupancy
  Ca  Ca0  1  0.500000  0.500000  0.500000  1
  Ca  Ca1  1  0.500000  0.000000  0.000000  1
  Ca  Ca2  1  0.000000  0.881073  0.235422  1
  Ca  Ca3  1  0.000000  0.118927  0.764578  1
  Ca  Ca4  1  0.000000  0.381073  0.264578  1
  Ca  Ca5  1  0.000000  0.618927  0.735422  1
  Ca  Ca6  1  0.500000  0.715634  0.103545  1
  Ca  Ca7  1  0.500000  0.284366  0.896455  1
  Ca  Ca8  1  0.500000  0.215634  0.396455  1
  Ca  Ca9  1  0.500000  0.784366  0.603545  1
  Ca  Ca10  1  0.000000  0.938396  0.409124  1
  Ca  Ca11  1  0.000000  0.061604  0.590876  1
  Ca  Ca12  1  0.000000  0.438396  0.090876  1
  Ca  Ca13  1  0.000000  0.561604  0.909124  1
  Ca  Ca14  1  0.000000  0.637196  0.362362  1
  Ca  Ca15  1  0.000000  0.362804  0.637638  1
  Ca  Ca16  1  0.000000  0.137196  0.137638  1
  Ca  Ca17  1  0.000000  0.862804  0.862362  1
  Mn  Mn18  1  0.500000  0.720744  0.954939  1
  Mn  Mn19  1  0.500000  0.279256  0.045061  1
  Mn  Mn20  1  0.500000  0.220744  0.545061  1
  Mn  Mn21  1  0.500000  0.779256  0.454939  1
  Mn  Mn22  1  0.500000  0.883550  0.760750  1
  Mn  Mn23  1  0.500000  0.116450  0.239250  1
  Mn  Mn24  1  0.500000  0.383550  0.739250  1
  Mn  Mn25  1  0.500000  0.616450  0.260750  1
  Bi  Bi26  1  0.500000  0.000000  0.500000  1
  Bi  Bi27  1  0.500000  0.500000  0.000000  1
  Bi  Bi28  1  0.000000  0.624315  0.193688  1
  Bi  Bi29  1  0.000000  0.375685  0.806312  1
  Bi  Bi30  1  0.000000  0.124315  0.306312  1
  Bi  Bi31  1  0.000000  0.875685  0.693688  1
  Bi  Bi32  1  0.500000  0.814265  0.330714  1
  Bi  Bi33  1  0.500000  0.185735  0.669286  1
  Bi  Bi34  1  0.500000  0.314265  0.169286  1
  Bi  Bi35  1  0.500000  0.685735  0.830714  1
  Bi  Bi36  1  0.500000  0.962555  0.146782  1
  Bi  Bi37  1  0.500000  0.037445  0.853218  1
  Bi  Bi38  1  0.500000  0.462555  0.353218  1
  Bi  Bi39  1  0.500000  0.537445  0.646782  1
  Bi  Bi40  1  0.000000  0.803363  0.005489  1
  Bi  Bi41  1  0.000000  0.196637  0.994511  1
  Bi  Bi42  1  0.000000  0.303363  0.494511  1
  Bi  Bi43  1  0.000000  0.696637  0.505489  1
