# generated using pymatgen
data_Ca(HoS2)2
_symmetry_space_group_name_H-M   'P 1'
_cell_length_a   7.23303325
_cell_length_b   7.23300066
_cell_length_c   7.23287470
_cell_angle_alpha   109.49824467
_cell_angle_beta   109.50057240
_cell_angle_gamma   109.41634466
_symmetry_Int_Tables_number   1
_chemical_formula_structural   Ca(HoS2)2
_chemical_formula_sum   'Ca2 Ho4 S8'
_cell_volume   291.28609276
_cell_formula_units_Z   2
loop_
 _symmetry_equiv_pos_site_id
 _symmetry_equiv_pos_as_xyz
  1  'x, y, z'
loop_
 _atom_site_type_symbol
 _atom_site_label
 _atom_site_symmetry_multiplicity
 _atom_site_fract_x
 _atom_site_fract_y
 _atom_site_fract_z
 _atom_site_occupancy
  Ca  Ca0  1  0.625006  0.375007  0.250003  1
  Ca  Ca1  1  0.874999  0.124998  0.749997  1
  Ho  Ho2  1  0.123026  0.750005  0.873035  1
  Ho  Ho3  1  0.250003  0.623021  0.373033  1
  Ho  Ho4  1  0.376987  0.250004  0.626976  1
  Ho  Ho5  1  0.750006  0.876989  0.126974  1
  S  S6  1  0.007443  0.862812  0.499891  1
  S  S7  1  0.007553  0.362907  0.500086  1
  S  S8  1  0.137193  0.137080  0.144651  1
  S  S9  1  0.492427  0.992564  0.355367  1
  S  S10  1  0.362815  0.507439  0.999889  1
  S  S11  1  0.492552  0.992420  0.855361  1
  S  S12  1  0.637075  0.637196  0.644649  1
  S  S13  1  0.862917  0.507558  0.000088  1
