# generated using pymatgen
data_Ti4Ga3Ni2
_symmetry_space_group_name_H-M   'P 1'
_cell_length_a   7.33951541
_cell_length_b   7.33951542
_cell_length_c   5.62116572
_cell_angle_alpha   90.00000000
_cell_angle_beta   90.00000000
_cell_angle_gamma   120.00000002
_symmetry_Int_Tables_number   1
_chemical_formula_structural   Ti4Ga3Ni2
_chemical_formula_sum   'Ti8 Ga6 Ni4'
_cell_volume   262.23568756
_cell_formula_units_Z   2
loop_
 _symmetry_equiv_pos_site_id
 _symmetry_equiv_pos_as_xyz
  1  'x, y, z'
loop_
 _atom_site_type_symbol
 _atom_site_label
 _atom_site_symmetry_multiplicity
 _atom_site_fract_x
 _atom_site_fract_y
 _atom_site_fract_z
 _atom_site_occupancy
  Ti  Ti0  1  1.000000  0.633306  0.500000  1
  Ti  Ti1  1  0.366694  0.366694  0.500000  1
  Ti  Ti2  1  0.633306  0.000000  0.500000  1
  Ti  Ti3  1  0.000000  0.633511  0.000000  1
  Ti  Ti4  1  0.366489  0.366489  0.000000  1
  Ti  Ti5  1  0.633511  0.000000  0.000000  1
  Ti  Ti6  1  0.000000  0.000000  0.000000  1
  Ti  Ti7  1  0.000000  0.000000  0.500000  1
  Ni  Ni8  1  0.666667  0.333333  0.750621  1
  Ni  Ni9  1  0.666667  0.333333  0.249379  1
  Ni  Ni10  1  0.333333  0.666667  0.249379  1
  Ni  Ni11  1  0.333333  0.666667  0.750621  1
  Ga  Ga12  1  0.313512  0.000000  0.749987  1
  Ga  Ga13  1  0.686488  0.686488  0.250013  1
  Ga  Ga14  1  1.000000  0.313512  0.250013  1
  Ga  Ga15  1  1.000000  0.313512  0.749987  1
  Ga  Ga16  1  0.686488  0.686488  0.749987  1
  Ga  Ga17  1  0.313512  0.000000  0.250013  1
