# generated using pymatgen
data_Er(SiIr)2
_symmetry_space_group_name_H-M   'P 1'
_cell_length_a   4.07650545
_cell_length_b   4.07650545
_cell_length_c   5.73939715
_cell_angle_alpha   110.80163210
_cell_angle_beta   110.80163211
_cell_angle_gamma   90.00000008
_symmetry_Int_Tables_number   1
_chemical_formula_structural   Er(SiIr)2
_chemical_formula_sum   'Er1 Si2 Ir2'
_cell_volume   82.47522785
_cell_formula_units_Z   1
loop_
 _symmetry_equiv_pos_site_id
 _symmetry_equiv_pos_as_xyz
  1  'x, y, z'
loop_
 _atom_site_type_symbol
 _atom_site_label
 _atom_site_symmetry_multiplicity
 _atom_site_fract_x
 _atom_site_fract_y
 _atom_site_fract_z
 _atom_site_occupancy
  Si  Si0  1  0.620669  0.620669  0.241339  1
  Si  Si1  1  0.379331  0.379331  0.758661  1
  Er  Er2  1  0.000000  0.000000  0.000000  1
  Ir  Ir3  1  0.250000  0.750000  0.500000  1
  Ir  Ir4  1  0.750000  0.250000  0.500000  1
