# generated using pymatgen
data_La2Se3
_symmetry_space_group_name_H-M   'P 1'
_cell_length_a   23.62939657
_cell_length_b   9.10378932
_cell_length_c   9.10378910
_cell_angle_alpha   89.99999918
_cell_angle_beta   54.69626318
_cell_angle_gamma   54.69626416
_symmetry_Int_Tables_number   1
_chemical_formula_structural   La2Se3
_chemical_formula_sum   'La16 Se24'
_cell_volume   1128.47253018
_cell_formula_units_Z   8
loop_
 _symmetry_equiv_pos_site_id
 _symmetry_equiv_pos_as_xyz
  1  'x, y, z'
loop_
 _atom_site_type_symbol
 _atom_site_label
 _atom_site_symmetry_multiplicity
 _atom_site_fract_x
 _atom_site_fract_y
 _atom_site_fract_z
 _atom_site_occupancy
  La  La0  1  0.083515  0.624727  0.374727  1
  La  La1  1  0.166667  0.250000  0.629886  1
  La  La2  1  0.249818  0.875273  0.125273  1
  La  La3  1  0.337343  0.379722  0.251343  1
  La  La4  1  0.337343  0.108249  0.736628  1
  La  La5  1  0.166667  0.750000  0.870114  1
  La  La6  1  0.495990  0.263372  0.620278  1
  La  La7  1  0.666667  0.370114  0.250000  1
  La  La8  1  0.583515  0.874727  0.124727  1
  La  La9  1  0.666667  0.129886  0.750000  1
  La  La10  1  0.495990  0.748657  0.891751  1
  La  La11  1  0.749818  0.625273  0.375273  1
  La  La12  1  0.837343  0.236628  0.608249  1
  La  La13  1  0.995990  0.391751  0.248657  1
  La  La14  1  0.995990  0.120278  0.763372  1
  La  La15  1  0.837343  0.751343  0.879722  1
  Se  Se16  1  0.050732  -0.000442  0.351196  1
  Se  Se17  1  0.124172  0.490272  0.994025  1
  Se  Se18  1  0.050732  0.348247  0.496608  1
  Se  Se19  1  0.282601  0.151753  0.148804  1
  Se  Se20  1  0.282601  0.500442  0.003392  1
  Se  Se21  1  0.124172  0.637210  0.633458  1
  Se  Se22  1  0.209161  0.009728  0.866542  1
  Se  Se23  1  0.384231  0.003460  0.343152  1
  Se  Se24  1  0.209161  0.862790  0.505975  1
  Se  Se25  1  0.449103  0.495845  0.996540  1
  Se  Se26  1  0.384231  0.343847  0.504155  1
  Se  Se27  1  0.624172  0.133458  0.137210  1
  Se  Se28  1  0.624172  0.494025  0.990272  1
  Se  Se29  1  0.449103  0.656848  0.656153  1
  Se  Se30  1  0.550732  0.996608  0.848247  1
  Se  Se31  1  0.709161  0.005975  0.362790  1
  Se  Se32  1  0.550732  0.851196  0.499558  1
  Se  Se33  1  0.782601  0.503392  1.000442  1
  Se  Se34  1  0.709161  0.366542  0.509728  1
  Se  Se35  1  0.949103  0.156153  0.156848  1
  Se  Se36  1  0.949103  0.496540  0.995845  1
  Se  Se37  1  0.884231  0.004155  0.843847  1
  Se  Se38  1  0.782601  0.648804  0.651753  1
  Se  Se39  1  0.884231  0.843152  0.503460  1
