# generated using pymatgen
data_Ce10Ga5Cl4
_symmetry_space_group_name_H-M   'P 1'
_cell_length_a   7.78373227
_cell_length_b   7.78373227
_cell_length_c   16.57767268
_cell_angle_alpha   103.57780206
_cell_angle_beta   103.57780209
_cell_angle_gamma   89.99999998
_symmetry_Int_Tables_number   1
_chemical_formula_structural   Ce10Ga5Cl4
_chemical_formula_sum   'Ce20 Ga10 Cl8'
_cell_volume   947.41070868
_cell_formula_units_Z   2
loop_
 _symmetry_equiv_pos_site_id
 _symmetry_equiv_pos_as_xyz
  1  'x, y, z'
loop_
 _atom_site_type_symbol
 _atom_site_label
 _atom_site_symmetry_multiplicity
 _atom_site_fract_x
 _atom_site_fract_y
 _atom_site_fract_z
 _atom_site_occupancy
  Cl  Cl0  1  0.860014  0.639986  0.000000  1
  Cl  Cl1  1  0.360014  0.860014  0.000000  1
  Cl  Cl2  1  0.639986  0.139986  0.000000  1
  Cl  Cl3  1  0.139986  0.360014  0.000000  1
  Cl  Cl4  1  0.443074  0.443074  0.886147  1
  Cl  Cl5  1  0.056926  0.056926  0.113853  1
  Cl  Cl6  1  0.556926  0.556926  0.113853  1
  Cl  Cl7  1  0.943074  0.943074  0.886147  1
  Ga  Ga8  1  0.250000  0.250000  0.500000  1
  Ga  Ga9  1  0.750000  0.750000  0.500000  1
  Ga  Ga10  1  0.489225  0.989225  0.732477  1
  Ga  Ga11  1  0.756748  0.256748  0.267523  1
  Ga  Ga12  1  0.510775  0.010775  0.267523  1
  Ga  Ga13  1  0.256748  0.510775  0.267523  1
  Ga  Ga14  1  0.010775  0.756748  0.267523  1
  Ga  Ga15  1  0.743252  0.489225  0.732477  1
  Ga  Ga16  1  0.989225  0.243252  0.732477  1
  Ga  Ga17  1  0.243252  0.743252  0.732477  1
  Ce  Ce18  1  0.153424  0.153424  0.306848  1
  Ce  Ce19  1  0.346576  0.346576  0.693152  1
  Ce  Ce20  1  0.653424  0.653424  0.306848  1
  Ce  Ce21  1  0.846576  0.846576  0.693152  1
  Ce  Ce22  1  0.468039  0.625572  0.593612  1
  Ce  Ce23  1  0.531961  0.374428  0.406388  1
  Ce  Ce24  1  0.874428  0.031961  0.406388  1
  Ce  Ce25  1  0.374428  0.874428  0.406388  1
  Ce  Ce26  1  0.031961  0.531961  0.406388  1
  Ce  Ce27  1  0.968039  0.468039  0.593612  1
  Ce  Ce28  1  0.625572  0.125572  0.593612  1
  Ce  Ce29  1  0.125572  0.968039  0.593612  1
  Ce  Ce30  1  0.602765  0.759915  0.862680  1
  Ce  Ce31  1  0.397235  0.240085  0.137320  1
  Ce  Ce32  1  0.740085  0.897235  0.137320  1
  Ce  Ce33  1  0.240085  0.740085  0.137320  1
  Ce  Ce34  1  0.897235  0.397235  0.137320  1
  Ce  Ce35  1  0.102765  0.602765  0.862680  1
  Ce  Ce36  1  0.759915  0.259915  0.862680  1
  Ce  Ce37  1  0.259915  0.102765  0.862680  1
