# generated using pymatgen
data_Cr(PO3)3
_symmetry_space_group_name_H-M   'P 1'
_cell_length_a   8.44093864
_cell_length_b   8.48652799
_cell_length_c   9.14742793
_cell_angle_alpha   90.00000000
_cell_angle_beta   90.00000000
_cell_angle_gamma   90.00000000
_symmetry_Int_Tables_number   1
_chemical_formula_structural   Cr(PO3)3
_chemical_formula_sum   'Cr4 P12 O36'
_cell_volume   655.26924924
_cell_formula_units_Z   4
loop_
 _symmetry_equiv_pos_site_id
 _symmetry_equiv_pos_as_xyz
  1  'x, y, z'
loop_
 _atom_site_type_symbol
 _atom_site_label
 _atom_site_symmetry_multiplicity
 _atom_site_fract_x
 _atom_site_fract_y
 _atom_site_fract_z
 _atom_site_occupancy
  O  O0  1  0.634256  0.636549  0.832263  1
  O  O1  1  0.981328  0.288211  0.579346  1
  O  O2  1  0.934936  0.637655  0.149970  1
  O  O3  1  0.899775  0.025032  0.805454  1
  O  O4  1  0.018671  0.788211  0.920655  1
  O  O5  1  0.065065  0.137654  0.350030  1
  O  O6  1  0.100225  0.525032  0.694546  1
  O  O7  1  0.112782  0.593453  0.423330  1
  O  O8  1  0.134256  0.863451  0.167737  1
  O  O9  1  0.140845  0.903753  0.688886  1
  O  O10  1  0.155242  0.329336  0.099513  1
  O  O11  1  0.169747  0.053493  0.930229  1
  O  O12  1  0.207107  0.610288  0.030739  1
  O  O13  1  0.292893  0.389712  0.530739  1
  O  O14  1  0.330253  0.946507  0.430228  1
  O  O15  1  0.344757  0.670664  0.599513  1
  O  O16  1  0.359155  0.096247  0.188887  1
  O  O17  1  0.365744  0.136549  0.667738  1
  O  O18  1  0.387218  0.406547  0.923331  1
  O  O19  1  0.399775  0.474968  0.194546  1
  O  O20  1  0.434935  0.862346  0.850030  1
  O  O21  1  0.481329  0.211789  0.420654  1
  O  O22  1  0.518671  0.711789  0.079345  1
  O  O23  1  0.865744  0.363451  0.332262  1
  O  O24  1  0.600225  0.974967  0.305455  1
  O  O25  1  0.612782  0.906548  0.576670  1
  O  O26  1  0.887217  0.093452  0.076669  1
  O  O27  1  0.640845  0.596247  0.311114  1
  O  O28  1  0.655242  0.170665  0.900487  1
  O  O29  1  0.669747  0.446506  0.069771  1
  O  O30  1  0.707107  0.889713  0.969261  1
  O  O31  1  0.792892  0.110287  0.469261  1
  O  O32  1  0.830253  0.553494  0.569771  1
  O  O33  1  0.844757  0.829336  0.400487  1
  O  O34  1  0.859156  0.403753  0.811113  1
  O  O35  1  0.565064  0.362345  0.649970  1
  P  P36  1  0.571444  0.552974  0.165551  1
  P  P37  1  0.715556  0.940089  0.445013  1
  P  P38  1  0.784443  0.059911  0.945013  1
  P  P39  1  0.928557  0.447027  0.665550  1
  P  P40  1  0.069064  0.727356  0.081279  1
  P  P41  1  0.071444  0.947026  0.834449  1
  P  P42  1  0.215556  0.559912  0.554986  1
  P  P43  1  0.284443  0.440088  0.054987  1
  P  P44  1  0.428557  0.052973  0.334450  1
  P  P45  1  0.430935  0.272644  0.581278  1
  P  P46  1  0.569064  0.772643  0.918721  1
  P  P47  1  0.930935  0.227357  0.418722  1
  Cr  Cr48  1  0.875341  0.597493  0.362457  1
  Cr  Cr49  1  0.624660  0.402507  0.862457  1
  Cr  Cr50  1  0.375340  0.902507  0.637544  1
  Cr  Cr51  1  0.124660  0.097492  0.137543  1
