# generated using pymatgen
data_Li3V3(PO4)4
_symmetry_space_group_name_H-M   'P 1'
_cell_length_a   6.48091680
_cell_length_b   10.19159831
_cell_length_c   10.68370106
_cell_angle_alpha   91.30138250
_cell_angle_beta   90.00000000
_cell_angle_gamma   71.46076971
_symmetry_Int_Tables_number   1
_chemical_formula_structural   Li3V3(PO4)4
_chemical_formula_sum   'Li6 V6 P8 O32'
_cell_volume   668.85627816
_cell_formula_units_Z   2
loop_
 _symmetry_equiv_pos_site_id
 _symmetry_equiv_pos_as_xyz
  1  'x, y, z'
loop_
 _atom_site_type_symbol
 _atom_site_label
 _atom_site_symmetry_multiplicity
 _atom_site_fract_x
 _atom_site_fract_y
 _atom_site_fract_z
 _atom_site_occupancy
  Li  Li0  1  0.158525  0.868113  0.951356  1
  Li  Li1  1  0.973363  0.868113  0.451355  1
  Li  Li2  1  0.026638  0.131887  0.548645  1
  Li  Li3  1  0.841475  0.131887  0.048644  1
  Li  Li4  1  0.522338  0.000000  0.750000  1
  Li  Li5  1  0.477661  0.000000  0.250000  1
  O  O6  1  0.770870  0.505933  0.862553  1
  O  O7  1  0.215609  0.957063  0.485544  1
  O  O8  1  0.536511  0.844220  0.631645  1
  O  O9  1  0.580890  0.830834  0.894643  1
  O  O10  1  0.619268  0.844220  0.131644  1
  O  O11  1  0.588275  0.830834  0.394642  1
  O  O12  1  0.940465  0.701804  1.001061  1
  O  O13  1  0.357731  0.701803  0.501061  1
  O  O14  1  0.318826  0.694169  0.785092  1
  O  O15  1  0.947379  0.689033  0.725239  1
  O  O16  1  0.987004  0.694169  0.285092  1
  O  O17  1  0.363588  0.689032  0.225240  1
  O  O18  1  0.827328  0.957063  0.985544  1
  O  O19  1  0.693269  0.511697  0.645789  1
  O  O20  1  0.723196  0.505934  0.362553  1
  O  O21  1  0.795034  0.511697  0.145790  1
  O  O22  1  0.204967  0.488303  0.854210  1
  O  O23  1  0.276805  0.494066  0.637447  1
  O  O24  1  0.306731  0.488303  0.354211  1
  O  O25  1  0.229129  0.494067  0.137447  1
  O  O26  1  0.172671  0.042937  0.014457  1
  O  O27  1  0.012995  0.305831  0.714908  1
  O  O28  1  0.052620  0.310967  0.274761  1
  O  O29  1  0.681173  0.305831  0.214909  1
  O  O30  1  0.642268  0.298197  0.498939  1
  O  O31  1  0.059534  0.298196  -0.001061  1
  O  O32  1  0.411726  0.169166  0.605357  1
  O  O33  1  0.380731  0.155780  0.868356  1
  O  O34  1  0.419109  0.169166  0.105357  1
  O  O35  1  0.463488  0.155780  0.368356  1
  O  O36  1  0.784392  0.042937  0.514456  1
  O  O37  1  0.636411  0.310968  0.774760  1
  P  P38  1  0.741172  0.836729  0.004215  1
  P  P39  1  0.422099  0.836728  0.504215  1
  P  P40  1  0.182069  0.600985  0.749193  1
  P  P41  1  0.216947  0.600984  0.249193  1
  P  P42  1  0.783054  0.399016  0.750808  1
  P  P43  1  0.817930  0.399016  0.250807  1
  P  P44  1  0.577902  0.163272  0.495785  1
  P  P45  1  0.258827  0.163271  0.995784  1
  V  V46  1  0.639724  0.688288  0.757427  1
  V  V47  1  0.671988  0.688288  0.257428  1
  V  V48  1  0.499999  0.500000  0.500000  1
  V  V49  1  0.999999  0.500000  0.000000  1
  V  V50  1  0.328011  0.311712  0.742572  1
  V  V51  1  0.360277  0.311712  0.242573  1
