# generated using pymatgen
data_Tb5C2Br9
_symmetry_space_group_name_H-M   'P 1'
_cell_length_a   10.23896186
_cell_length_b   11.96508982
_cell_length_c   16.67085572
_cell_angle_alpha   90.00000000
_cell_angle_beta   90.00000000
_cell_angle_gamma   105.02288739
_symmetry_Int_Tables_number   1
_chemical_formula_structural   Tb5C2Br9
_chemical_formula_sum   'Tb20 C8 Br36'
_cell_volume   1972.54553583
_cell_formula_units_Z   4
loop_
 _symmetry_equiv_pos_site_id
 _symmetry_equiv_pos_as_xyz
  1  'x, y, z'
loop_
 _atom_site_type_symbol
 _atom_site_label
 _atom_site_symmetry_multiplicity
 _atom_site_fract_x
 _atom_site_fract_y
 _atom_site_fract_z
 _atom_site_occupancy
  C  C0  1  0.095918  0.669443  0.030972  1
  C  C1  1  0.404082  0.830557  0.530972  1
  C  C2  1  0.904082  0.330557  0.969028  1
  C  C3  1  0.595918  0.169443  0.469028  1
  C  C4  1  0.992031  0.620479  0.087986  1
  C  C5  1  0.507969  0.879521  0.587986  1
  C  C6  1  0.007969  0.379521  0.912014  1
  C  C7  1  0.492031  0.120479  0.412014  1
  Br  Br8  1  0.771980  0.735432  0.937112  1
  Br  Br9  1  0.728020  0.764568  0.437112  1
  Br  Br10  1  0.228020  0.264568  0.062888  1
  Br  Br11  1  0.271980  0.235432  0.562888  1
  Br  Br12  1  0.354849  0.558359  0.931892  1
  Br  Br13  1  0.145151  0.941641  0.431892  1
  Br  Br14  1  0.645151  0.441641  0.068108  1
  Br  Br15  1  0.854849  0.058359  0.568108  1
  Br  Br16  1  0.091388  0.670175  0.801363  1
  Br  Br17  1  0.408612  0.829825  0.301363  1
  Br  Br18  1  0.908612  0.329825  0.198637  1
  Br  Br19  1  0.591388  0.170175  0.698637  1
  Br  Br20  1  0.135094  0.937556  0.182466  1
  Br  Br21  1  0.364906  0.562444  0.682466  1
  Br  Br22  1  0.864906  0.062444  0.817534  1
  Br  Br23  1  0.635094  0.437556  0.317534  1
  Br  Br24  1  0.043497  0.641726  0.306416  1
  Br  Br25  1  0.456503  0.858274  0.806416  1
  Br  Br26  1  0.956503  0.358274  0.693584  1
  Br  Br27  1  0.543497  0.141726  0.193584  1
  Br  Br28  1  0.748800  0.752765  0.178717  1
  Br  Br29  1  0.751200  0.747235  0.678717  1
  Br  Br30  1  0.251200  0.247235  0.821283  1
  Br  Br31  1  0.248800  0.252765  0.321283  1
  Br  Br32  1  0.434317  0.845488  0.068189  1
  Br  Br33  1  0.065683  0.654512  0.568189  1
  Br  Br34  1  0.565683  0.154512  0.931811  1
  Br  Br35  1  0.934317  0.345488  0.431811  1
  Br  Br36  1  0.139962  0.958645  0.942584  1
  Br  Br37  1  0.360038  0.541355  0.442584  1
  Br  Br38  1  0.860038  0.041355  0.057416  1
  Br  Br39  1  0.639962  0.458645  0.557416  1
  Br  Br40  1  0.311705  0.531963  0.172448  1
  Br  Br41  1  0.188295  0.968037  0.672448  1
  Br  Br42  1  0.688295  0.468037  0.827552  1
  Br  Br43  1  0.811705  0.031963  0.327552  1
  Tb  Tb44  1  0.842350  0.555974  0.185632  1
  Tb  Tb45  1  0.657650  0.944026  0.685632  1
  Tb  Tb46  1  0.157650  0.444026  0.814368  1
  Tb  Tb47  1  0.342350  0.055974  0.314368  1
  Tb  Tb48  1  0.254193  0.762850  0.944952  1
  Tb  Tb49  1  0.245807  0.737150  0.444952  1
  Tb  Tb50  1  0.745807  0.237150  0.055048  1
  Tb  Tb51  1  0.754193  0.262850  0.555048  1
  Tb  Tb52  1  0.208468  0.721350  0.162277  1
  Tb  Tb53  1  0.291532  0.778650  0.662277  1
  Tb  Tb54  1  0.791532  0.278650  0.837723  1
  Tb  Tb55  1  0.708468  0.221350  0.337723  1
  Tb  Tb56  1  0.954508  0.812852  0.058202  1
  Tb  Tb57  1  0.545492  0.687148  0.558202  1
  Tb  Tb58  1  0.045492  0.187148  0.941798  1
  Tb  Tb59  1  0.454508  0.312852  0.441798  1
  Tb  Tb60  1  0.873600  0.534491  0.960100  1
  Tb  Tb61  1  0.626400  0.965509  0.460100  1
  Tb  Tb62  1  0.126400  0.465509  0.039900  1
  Tb  Tb63  1  0.373600  0.034491  0.539900  1
