# generated using pymatgen
data_Sr5(BiO4)3
_symmetry_space_group_name_H-M   'P 1'
_cell_length_a   6.02701875
_cell_length_b   6.20600074
_cell_length_c   8.57545499
_cell_angle_alpha   90.51930317
_cell_angle_beta   89.82230890
_cell_angle_gamma   90.06782521
_symmetry_Int_Tables_number   1
_chemical_formula_structural   Sr5(BiO4)3
_chemical_formula_sum   'Sr5 Bi3 O12'
_cell_volume   320.73866727
_cell_formula_units_Z   1
loop_
 _symmetry_equiv_pos_site_id
 _symmetry_equiv_pos_as_xyz
  1  'x, y, z'
loop_
 _atom_site_type_symbol
 _atom_site_label
 _atom_site_symmetry_multiplicity
 _atom_site_fract_x
 _atom_site_fract_y
 _atom_site_fract_z
 _atom_site_occupancy
  Bi  Bi0  1  0.000000  0.000000  0.500000  1
  Bi  Bi1  1  0.500000  0.500000  0.500000  1
  Bi  Bi2  1  0.500000  0.500000  0.000000  1
  O  O3  1  0.110015  0.951637  0.271405  1
  O  O4  1  0.209403  0.718650  0.568016  1
  O  O5  1  0.214288  0.679863  0.952274  1
  O  O6  1  0.287097  0.210578  0.559240  1
  O  O7  1  0.324179  0.216510  0.943439  1
  O  O8  1  0.389430  0.452881  0.250564  1
  O  O9  1  0.610570  0.547119  0.749436  1
  O  O10  1  0.675821  0.783490  0.056561  1
  O  O11  1  0.712903  0.789422  0.440760  1
  O  O12  1  0.785712  0.320137  0.047726  1
  O  O13  1  0.790597  0.281350  0.431984  1
  O  O14  1  0.889985  0.048363  0.728595  1
  Sr  Sr15  1  0.000000  0.000000  0.000000  1
  Sr  Sr16  1  0.018219  0.448329  0.757863  1
  Sr  Sr17  1  0.488180  0.952099  0.754417  1
  Sr  Sr18  1  0.511820  0.047901  0.245583  1
  Sr  Sr19  1  0.981781  0.551671  0.242137  1
