# generated using pymatgen
data_K5(DyI4)3
_symmetry_space_group_name_H-M   'P 1'
_cell_length_a   14.86979126
_cell_length_b   14.86979126
_cell_length_c   4.44776216
_cell_angle_alpha   90.00000000
_cell_angle_beta   90.00000000
_cell_angle_gamma   120.00000000
_symmetry_Int_Tables_number   1
_chemical_formula_structural   K5(DyI4)3
_chemical_formula_sum   'K5 Dy3 I12'
_cell_volume   851.69075173
_cell_formula_units_Z   1
loop_
 _symmetry_equiv_pos_site_id
 _symmetry_equiv_pos_as_xyz
  1  'x, y, z'
loop_
 _atom_site_type_symbol
 _atom_site_label
 _atom_site_symmetry_multiplicity
 _atom_site_fract_x
 _atom_site_fract_y
 _atom_site_fract_z
 _atom_site_occupancy
  K  K0  1  0.716705  0.000000  0.500000  1
  K  K1  1  0.283295  0.283295  0.500000  1
  K  K2  1  0.000000  0.716705  0.500000  1
  K  K3  1  0.666667  0.333333  0.500000  1
  K  K4  1  0.333333  0.666667  0.500000  1
  I  I5  1  0.175901  0.000000  0.500000  1
  I  I6  1  0.238987  0.444014  0.000000  1
  I  I7  1  0.555986  0.794973  0.000000  1
  I  I8  1  0.000000  0.175901  0.500000  1
  I  I9  1  0.824099  0.824099  0.500000  1
  I  I10  1  0.000000  0.468297  0.500000  1
  I  I11  1  0.468297  0.000000  0.500000  1
  I  I12  1  0.531703  0.531703  0.500000  1
  I  I13  1  0.761013  0.205027  0.000000  1
  I  I14  1  0.444014  0.238987  0.000000  1
  I  I15  1  0.794973  0.555986  0.000000  1
  I  I16  1  0.205027  0.761013  0.000000  1
  Dy  Dy17  1  0.323946  0.000000  0.000000  1
  Dy  Dy18  1  0.000000  0.323946  0.000000  1
  Dy  Dy19  1  0.676054  0.676054  0.000000  1
