# generated using pymatgen
data_U(SiPt)2
_symmetry_space_group_name_H-M   'P 1'
_cell_length_a   4.05557348
_cell_length_b   4.05557348
_cell_length_c   5.92929201
_cell_angle_alpha   109.99845178
_cell_angle_beta   109.99845176
_cell_angle_gamma   90.00000005
_symmetry_Int_Tables_number   1
_chemical_formula_structural   U(SiPt)2
_chemical_formula_sum   'U1 Si2 Pt2'
_cell_volume   85.35799772
_cell_formula_units_Z   1
loop_
 _symmetry_equiv_pos_site_id
 _symmetry_equiv_pos_as_xyz
  1  'x, y, z'
loop_
 _atom_site_type_symbol
 _atom_site_label
 _atom_site_symmetry_multiplicity
 _atom_site_fract_x
 _atom_site_fract_y
 _atom_site_fract_z
 _atom_site_occupancy
  Si  Si0  1  0.610625  0.610625  0.221249  1
  Si  Si1  1  0.389375  0.389375  0.778751  1
  Pt  Pt2  1  0.750000  0.250000  0.500000  1
  Pt  Pt3  1  0.250000  0.750000  0.500000  1
  U  U4  1  0.000000  0.000000  0.000000  1
