# generated using pymatgen
data_LiMn2(PO4)3
_symmetry_space_group_name_H-M   'P 1'
_cell_length_a   8.28204191
_cell_length_b   11.81101915
_cell_length_c   8.51543761
_cell_angle_alpha   90.00000000
_cell_angle_beta   90.00000000
_cell_angle_gamma   89.58210036
_symmetry_Int_Tables_number   1
_chemical_formula_structural   LiMn2(PO4)3
_chemical_formula_sum   'Li4 Mn8 P12 O48'
_cell_volume   832.95246373
_cell_formula_units_Z   4
loop_
 _symmetry_equiv_pos_site_id
 _symmetry_equiv_pos_as_xyz
  1  'x, y, z'
loop_
 _atom_site_type_symbol
 _atom_site_label
 _atom_site_symmetry_multiplicity
 _atom_site_fract_x
 _atom_site_fract_y
 _atom_site_fract_z
 _atom_site_occupancy
  Li  Li0  1  0.072232  0.697624  0.101755  1
  Li  Li1  1  0.427768  0.802376  0.601756  1
  Li  Li2  1  0.572232  0.197624  0.398245  1
  Li  Li3  1  0.927768  0.302376  0.898245  1
  O  O4  1  0.269001  0.450003  0.558503  1
  O  O5  1  0.937583  0.394959  0.325766  1
  O  O6  1  0.933355  0.106850  0.110262  1
  O  O7  1  0.935266  0.818711  0.424436  1
  O  O8  1  0.903116  0.414253  0.638190  1
  O  O9  1  0.839263  0.817777  0.719051  1
  O  O10  1  0.858319  0.022421  0.571582  1
  O  O11  1  0.872296  0.752653  0.997508  1
  O  O12  1  0.057873  0.438276  0.873988  1
  O  O13  1  0.062417  0.605042  0.674235  1
  O  O14  1  0.066645  0.893150  0.889738  1
  O  O15  1  0.064735  0.181289  0.575563  1
  O  O16  1  0.096884  0.585748  0.361811  1
  O  O17  1  0.125822  0.836851  0.206346  1
  O  O18  1  0.141681  0.977579  0.428417  1
  O  O19  1  0.127704  0.247347  0.002491  1
  O  O20  1  0.160738  0.182223  0.280949  1
  O  O21  1  0.186001  0.437546  0.171987  1
  O  O22  1  0.228216  0.776623  0.482643  1
  O  O23  1  0.231000  0.049997  0.058503  1
  O  O24  1  0.271784  0.723376  0.982643  1
  O  O25  1  0.942127  0.561723  0.126013  1
  O  O26  1  0.314000  0.062453  0.671987  1
  O  O27  1  0.339262  0.317777  0.780949  1
  O  O28  1  0.358319  0.522421  0.928418  1
  O  O29  1  0.374178  0.663149  0.706346  1
  O  O30  1  0.372296  0.252653  0.502492  1
  O  O31  1  0.403116  0.914253  0.861810  1
  O  O32  1  0.433355  0.606850  0.389737  1
  O  O33  1  0.437583  0.894959  0.174235  1
  O  O34  1  0.435265  0.318711  0.075564  1
  O  O35  1  0.442127  0.061723  0.373987  1
  O  O36  1  0.557873  0.938276  0.626012  1
  O  O37  1  0.564734  0.681289  0.924436  1
  O  O38  1  0.562417  0.105042  0.825766  1
  O  O39  1  0.566645  0.393150  0.610262  1
  O  O40  1  0.596884  0.085748  0.138189  1
  O  O41  1  0.627704  0.747348  0.497508  1
  O  O42  1  0.625822  0.336851  0.293653  1
  O  O43  1  0.641681  0.477579  0.071583  1
  O  O44  1  0.660738  0.682222  0.219051  1
  O  O45  1  0.686001  0.937546  0.328012  1
  O  O46  1  0.730999  0.549996  0.441498  1
  O  O47  1  0.728216  0.276623  0.017358  1
  O  O48  1  0.769000  0.950003  0.941497  1
  O  O49  1  0.771784  0.223376  0.517358  1
  O  O50  1  0.813999  0.562454  0.828013  1
  O  O51  1  0.874178  0.163149  0.793654  1
  P  P52  1  0.963464  0.509253  0.749344  1
  P  P53  1  0.889675  0.145983  0.612236  1
  P  P54  1  0.888077  0.856518  0.885394  1
  P  P55  1  0.610325  0.354016  0.112236  1
  P  P56  1  0.611923  0.643481  0.385393  1
  P  P57  1  0.536536  0.990748  0.249344  1
  P  P58  1  0.463464  0.009252  0.750656  1
  P  P59  1  0.388078  0.356518  0.614606  1
  P  P60  1  0.036537  0.490748  0.250656  1
  P  P61  1  0.110326  0.854016  0.387764  1
  P  P62  1  0.389675  0.645983  0.887763  1
  P  P63  1  0.111922  0.143481  0.114607  1
  Mn  Mn64  1  0.244638  0.607926  0.530487  1
  Mn  Mn65  1  0.255363  0.892074  0.030486  1
  Mn  Mn66  1  0.244151  0.116487  0.470055  1
  Mn  Mn67  1  0.255850  0.383513  0.970055  1
  Mn  Mn68  1  0.744151  0.616488  0.029946  1
  Mn  Mn69  1  0.755849  0.883513  0.529945  1
  Mn  Mn70  1  0.744638  0.107926  0.969513  1
  Mn  Mn71  1  0.755362  0.392074  0.469513  1
