# generated using pymatgen
data_CaHN
_symmetry_space_group_name_H-M   'P 1'
_cell_length_a   3.79468966
_cell_length_b   3.54509568
_cell_length_c   3.79468931
_cell_angle_alpha   62.15296023
_cell_angle_beta   55.69408125
_cell_angle_gamma   62.15295576
_symmetry_Int_Tables_number   1
_chemical_formula_structural   CaHN
_chemical_formula_sum   'Ca1 H1 N1'
_cell_volume   35.80321472
_cell_formula_units_Z   1
loop_
 _symmetry_equiv_pos_site_id
 _symmetry_equiv_pos_as_xyz
  1  'x, y, z'
loop_
 _atom_site_type_symbol
 _atom_site_label
 _atom_site_symmetry_multiplicity
 _atom_site_fract_x
 _atom_site_fract_y
 _atom_site_fract_z
 _atom_site_occupancy
  Ca  Ca0  1  0.053755  0.946245  0.053755  1
  H  H1  1  0.639056  0.360944  0.639056  1
  N  N2  1  0.457190  0.542810  0.457190  1
