# generated using pymatgen
data_Nd2S3
_symmetry_space_group_name_H-M   'P 1'
_cell_length_a   22.32397532
_cell_length_b   8.60395342
_cell_length_c   8.60395297
_cell_angle_alpha   89.99999556
_cell_angle_beta   54.68159605
_cell_angle_gamma   54.68159814
_symmetry_Int_Tables_number   1
_chemical_formula_structural   Nd2S3
_chemical_formula_sum   'Nd16 S24'
_cell_volume   951.58050782
_cell_formula_units_Z   8
loop_
 _symmetry_equiv_pos_site_id
 _symmetry_equiv_pos_as_xyz
  1  'x, y, z'
loop_
 _atom_site_type_symbol
 _atom_site_label
 _atom_site_symmetry_multiplicity
 _atom_site_fract_x
 _atom_site_fract_y
 _atom_site_fract_z
 _atom_site_occupancy
  Nd  Nd0  1  0.994988  0.396045  0.249397  1
  Nd  Nd1  1  0.085184  0.622224  0.372224  1
  Nd  Nd2  1  0.166667  0.250000  0.629864  1
  Nd  Nd3  1  0.248149  0.877776  0.127776  1
  Nd  Nd4  1  0.338345  0.381009  0.250603  1
  Nd  Nd5  1  0.338345  0.103955  0.734360  1
  Nd  Nd6  1  0.166667  0.750000  0.870136  1
  Nd  Nd7  1  0.494988  0.265640  0.618992  1
  Nd  Nd8  1  0.666667  0.370136  0.250000  1
  Nd  Nd9  1  0.585184  0.872224  0.122224  1
  Nd  Nd10  1  0.666667  0.129864  0.750000  1
  Nd  Nd11  1  0.494988  0.749397  0.896045  1
  Nd  Nd12  1  0.748149  0.627776  0.377776  1
  Nd  Nd13  1  0.838345  0.234360  0.603955  1
  Nd  Nd14  1  0.994988  0.118992  0.765640  1
  Nd  Nd15  1  0.838345  0.750603  0.881008  1
  S  S16  1  0.050227  0.998493  0.353444  1
  S  S17  1  0.126392  0.487338  0.992182  1
  S  S18  1  0.050227  0.350826  0.495874  1
  S  S19  1  0.283106  0.149174  0.146556  1
  S  S20  1  0.283106  0.501507  0.004126  1
  S  S21  1  0.126392  0.633484  0.628640  1
  S  S22  1  0.383725  0.005517  0.343966  1
  S  S23  1  0.206941  0.866516  0.507818  1
  S  S24  1  0.449609  0.495139  0.994483  1
  S  S25  1  0.383725  0.343310  0.504861  1
  S  S26  1  0.206941  0.012662  0.871360  1
  S  S27  1  0.626392  0.128640  0.133484  1
  S  S28  1  0.626392  0.492182  0.987338  1
  S  S29  1  0.449609  0.656034  0.656690  1
  S  S30  1  0.706941  0.007818  0.366516  1
  S  S31  1  0.550227  0.853444  0.498493  1
  S  S32  1  0.783106  0.504126  0.001507  1
  S  S33  1  0.706941  0.371360  0.512662  1
  S  S34  1  0.550227  0.995874  0.850826  1
  S  S35  1  0.949609  0.156690  0.156034  1
  S  S36  1  0.949609  0.494483  0.995139  1
  S  S37  1  0.783106  0.646556  0.649174  1
  S  S38  1  0.883725  0.843966  0.505517  1
  S  S39  1  0.883725  0.004861  0.843310  1
