# generated using pymatgen
data_Ba(AlCl4)2
_symmetry_space_group_name_H-M   'P 1'
_cell_length_a   7.23933708
_cell_length_b   8.13580928
_cell_length_c   12.72071553
_cell_angle_alpha   101.10735933
_cell_angle_beta   90.00000000
_cell_angle_gamma   90.00000000
_symmetry_Int_Tables_number   1
_chemical_formula_structural   Ba(AlCl4)2
_chemical_formula_sum   'Ba2 Al4 Cl16'
_cell_volume   735.18849653
_cell_formula_units_Z   2
loop_
 _symmetry_equiv_pos_site_id
 _symmetry_equiv_pos_as_xyz
  1  'x, y, z'
loop_
 _atom_site_type_symbol
 _atom_site_label
 _atom_site_symmetry_multiplicity
 _atom_site_fract_x
 _atom_site_fract_y
 _atom_site_fract_z
 _atom_site_occupancy
  Ba  Ba0  1  0.146147  0.500000  0.250000  1
  Ba  Ba1  1  0.853853  0.500000  0.750000  1
  Al  Al2  1  0.274970  0.298439  0.558288  1
  Al  Al3  1  0.274970  0.701561  0.941712  1
  Al  Al4  1  0.725030  0.701561  0.441712  1
  Al  Al5  1  0.725030  0.298439  0.058288  1
  Cl  Cl6  1  0.277535  0.223170  0.385775  1
  Cl  Cl7  1  0.277535  0.776830  0.114225  1
  Cl  Cl8  1  0.722465  0.776830  0.614225  1
  Cl  Cl9  1  0.722465  0.223170  0.885775  1
  Cl  Cl10  1  0.065365  0.164954  0.628850  1
  Cl  Cl11  1  0.065365  0.835046  0.871150  1
  Cl  Cl12  1  0.934635  0.835046  0.371150  1
  Cl  Cl13  1  0.934635  0.164954  0.128850  1
  Cl  Cl14  1  0.544597  0.250546  0.618470  1
  Cl  Cl15  1  0.544597  0.749454  0.881530  1
  Cl  Cl16  1  0.455403  0.749454  0.381530  1
  Cl  Cl17  1  0.455403  0.250546  0.118470  1
  Cl  Cl18  1  0.203372  0.561357  0.602587  1
  Cl  Cl19  1  0.203372  0.438643  0.897413  1
  Cl  Cl20  1  0.796628  0.438643  0.397413  1
  Cl  Cl21  1  0.796628  0.561357  0.102587  1
