# generated using pymatgen
data_Sr7Re4O19
_symmetry_space_group_name_H-M   'P 1'
_cell_length_a   5.63467084
_cell_length_b   7.47444253
_cell_length_c   10.51598918
_cell_angle_alpha   98.00823474
_cell_angle_beta   90.00000000
_cell_angle_gamma   112.14359763
_symmetry_Int_Tables_number   1
_chemical_formula_structural   Sr7Re4O19
_chemical_formula_sum   'Sr7 Re4 O19'
_cell_volume   405.55808639
_cell_formula_units_Z   1
loop_
 _symmetry_equiv_pos_site_id
 _symmetry_equiv_pos_as_xyz
  1  'x, y, z'
loop_
 _atom_site_type_symbol
 _atom_site_label
 _atom_site_symmetry_multiplicity
 _atom_site_fract_x
 _atom_site_fract_y
 _atom_site_fract_z
 _atom_site_occupancy
  Sr  Sr0  1  0.416444  0.832888  0.835948  1
  Sr  Sr1  1  0.789185  0.578371  0.412509  1
  Sr  Sr2  1  0.142041  0.284082  0.957265  1
  Sr  Sr3  1  0.583556  0.167112  0.164052  1
  Sr  Sr4  1  0.500000  0.000000  0.500000  1
  Sr  Sr5  1  0.210815  0.421629  0.587491  1
  Sr  Sr6  1  0.857959  0.715918  0.042735  1
  Re  Re7  1  0.032977  0.065954  0.322412  1
  Re  Re8  1  0.330628  0.661256  0.220142  1
  Re  Re9  1  0.669372  0.338744  0.779857  1
  Re  Re10  1  0.967023  0.934046  0.677588  1
  O  O11  1  0.121447  0.752387  0.627063  1
  O  O12  1  0.044866  0.089732  0.145839  1
  O  O13  1  0.955134  0.910268  0.854161  1
  O  O14  1  0.878553  0.247613  0.372937  1
  O  O15  1  0.683920  0.858208  0.284563  1
  O  O16  1  0.825711  0.141792  0.715437  1
  O  O17  1  0.316080  0.141792  0.715437  1
  O  O18  1  0.398069  0.796137  0.069430  1
  O  O19  1  0.369060  0.247613  0.372937  1
  O  O20  1  -0.003686  0.513353  0.845944  1
  O  O21  1  0.174289  0.858208  0.284563  1
  O  O22  1  0.517039  0.513353  0.845944  1
  O  O23  1  0.601931  0.203863  0.930570  1
  O  O24  1  0.630940  0.752387  0.627063  1
  O  O25  1  0.482961  0.486647  0.154056  1
  O  O26  1  0.000000  0.000000  0.500000  1
  O  O27  1  0.304077  0.608153  0.387462  1
  O  O28  1  0.695923  0.391847  0.612538  1
  O  O29  1  1.003686  0.486647  0.154056  1
