# generated using pymatgen
data_In5S5Cl
_symmetry_space_group_name_H-M   'P 1'
_cell_length_a   3.97724054
_cell_length_b   9.09816451
_cell_length_c   15.19689900
_cell_angle_alpha   94.01684952
_cell_angle_beta   90.00000000
_cell_angle_gamma   90.00000000
_symmetry_Int_Tables_number   1
_chemical_formula_structural   In5S5Cl
_chemical_formula_sum   'In10 S10 Cl2'
_cell_volume   548.55788275
_cell_formula_units_Z   2
loop_
 _symmetry_equiv_pos_site_id
 _symmetry_equiv_pos_as_xyz
  1  'x, y, z'
loop_
 _atom_site_type_symbol
 _atom_site_label
 _atom_site_symmetry_multiplicity
 _atom_site_fract_x
 _atom_site_fract_y
 _atom_site_fract_z
 _atom_site_occupancy
  S  S0  1  0.750000  0.791745  0.297565  1
  S  S1  1  0.250000  0.208255  0.702435  1
  S  S2  1  0.250000  0.966923  0.101563  1
  S  S3  1  0.750000  0.033078  0.898437  1
  S  S4  1  0.750000  0.319101  0.199475  1
  S  S5  1  0.250000  0.680899  0.800525  1
  S  S6  1  0.250000  0.833484  0.502381  1
  S  S7  1  0.750000  0.166516  0.497619  1
  S  S8  1  0.250000  0.467391  0.399989  1
  S  S9  1  0.750000  0.532609  0.600011  1
  Cl  Cl10  1  0.750000  0.672466  0.994878  1
  Cl  Cl11  1  0.250000  0.327534  0.005122  1
  In  In12  1  0.250000  0.618458  0.157661  1
  In  In13  1  0.750000  0.381542  0.842339  1
  In  In14  1  0.250000  0.236548  0.291533  1
  In  In15  1  0.750000  0.763452  0.708467  1
  In  In16  1  0.250000  0.956060  0.356735  1
  In  In17  1  0.750000  0.043940  0.643265  1
  In  In18  1  0.750000  0.134050  0.063180  1
  In  In19  1  0.250000  0.865950  0.936820  1
  In  In20  1  0.750000  0.657382  0.446242  1
  In  In21  1  0.250000  0.342618  0.553758  1
