# generated using pymatgen
data_Na2MnO4
_symmetry_space_group_name_H-M   'P 1'
_cell_length_a   5.86346319
_cell_length_b   5.86346319
_cell_length_c   6.73712009
_cell_angle_alpha   90.00000000
_cell_angle_beta   90.00000000
_cell_angle_gamma   119.99999994
_symmetry_Int_Tables_number   1
_chemical_formula_structural   Na2MnO4
_chemical_formula_sum   'Na4 Mn2 O8'
_cell_volume   200.59186991
_cell_formula_units_Z   2
loop_
 _symmetry_equiv_pos_site_id
 _symmetry_equiv_pos_as_xyz
  1  'x, y, z'
loop_
 _atom_site_type_symbol
 _atom_site_label
 _atom_site_symmetry_multiplicity
 _atom_site_fract_x
 _atom_site_fract_y
 _atom_site_fract_z
 _atom_site_occupancy
  O  O0  1  0.821596  0.643192  0.255561  1
  O  O1  1  0.178404  0.821596  0.755561  1
  O  O2  1  0.643192  0.821596  0.755561  1
  O  O3  1  0.356808  0.178404  0.255561  1
  O  O4  1  0.821596  0.178404  0.255561  1
  O  O5  1  0.178404  0.356808  0.755561  1
  O  O6  1  0.333333  0.666667  0.427261  1
  O  O7  1  0.666667  0.333333  0.927261  1
  Na  Na8  1  0.666667  0.333333  0.603821  1
  Na  Na9  1  0.333333  0.666667  0.103821  1
  Na  Na10  1  0.000000  0.000000  0.492144  1
  Na  Na11  1  0.000000  0.000000  0.992144  1
  Mn  Mn12  1  0.666667  0.333333  0.170092  1
  Mn  Mn13  1  0.333333  0.666667  0.670092  1
