# generated using pymatgen
data_Na6Al4Fe(Si4O13)2
_symmetry_space_group_name_H-M   'P 1'
_cell_length_a   8.15304208
_cell_length_b   8.62013945
_cell_length_c   10.44474719
_cell_angle_alpha   111.28074820
_cell_angle_beta   90.02323185
_cell_angle_gamma   118.26558564
_symmetry_Int_Tables_number   1
_chemical_formula_structural   Na6Al4Fe(Si4O13)2
_chemical_formula_sum   'Na6 Al4 Fe1 Si8 O26'
_cell_volume   589.02494948
_cell_formula_units_Z   1
loop_
 _symmetry_equiv_pos_site_id
 _symmetry_equiv_pos_as_xyz
  1  'x, y, z'
loop_
 _atom_site_type_symbol
 _atom_site_label
 _atom_site_symmetry_multiplicity
 _atom_site_fract_x
 _atom_site_fract_y
 _atom_site_fract_z
 _atom_site_occupancy
  Na  Na0  1  0.156208  0.312371  0.889643  1
  Na  Na1  1  0.268588  0.537212  0.560569  1
  Na  Na2  1  0.471805  0.942721  0.168977  1
  Na  Na3  1  0.528195  0.057279  0.831023  1
  Na  Na4  1  0.731412  0.462788  0.439431  1
  Na  Na5  1  0.843792  0.687629  0.110357  1
  Al  Al6  1  0.136322  0.878867  0.659576  1
  Al  Al7  1  0.257384  0.120801  0.339966  1
  Al  Al8  1  0.742616  0.879199  0.660034  1
  Al  Al9  1  0.863678  0.121133  0.340424  1
  Fe  Fe10  1  0.000000  0.000000  0.000000  1
  Si  Si11  1  0.162088  0.709977  0.343883  1
  Si  Si12  1  0.156302  0.696838  0.873945  1
  Si  Si13  1  0.540201  0.696651  0.874217  1
  Si  Si14  1  0.548344  0.710217  0.343981  1
  Si  Si15  1  0.451656  0.289783  0.656019  1
  Si  Si16  1  0.459799  0.303349  0.125783  1
  Si  Si17  1  0.843698  0.303162  0.126055  1
  Si  Si18  1  0.837912  0.290023  0.656117  1
  O  O19  1  0.088902  0.808935  -0.000292  1
  O  O20  1  0.063719  0.711781  0.479320  1
  O  O21  1  0.004019  0.458882  0.799449  1
  O  O22  1  0.256652  0.908748  0.322513  1
  O  O23  1  0.205488  0.772547  0.748935  1
  O  O24  1  0.038405  0.076968  0.273402  1
  O  O25  1  0.324919  0.649788  0.358576  1
  O  O26  1  0.355378  0.711288  0.938201  1
  O  O27  1  0.281165  0.191833  0.999464  1
  O  O28  1  0.351612  0.287935  0.520127  1
  O  O29  1  0.566919  0.772617  0.749237  1
  O  O30  1  0.453987  0.458480  0.798892  1
  O  O31  1  0.652048  0.908698  0.323095  1
  O  O32  1  0.347952  0.091302  0.676905  1
  O  O33  1  0.546013  0.541520  0.201108  1
  O  O34  1  0.433081  0.227383  0.250763  1
  O  O35  1  0.648388  0.712065  0.479873  1
  O  O36  1  0.718835  0.808167  0.000536  1
  O  O37  1  0.644622  0.288712  0.061799  1
  O  O38  1  0.675081  0.350212  0.641424  1
  O  O39  1  0.961595  0.923032  0.726598  1
  O  O40  1  0.794512  0.227453  0.251065  1
  O  O41  1  0.743348  0.091252  0.677487  1
  O  O42  1  0.995981  0.541118  0.200551  1
  O  O43  1  0.936281  0.288219  0.520680  1
  O  O44  1  0.911098  0.191065  0.000292  1
