# generated using pymatgen
data_Tl2ZnI4
_symmetry_space_group_name_H-M   'P 1'
_cell_length_a   7.95845004
_cell_length_b   8.27646041
_cell_length_c   9.61294415
_cell_angle_alpha   90.00000000
_cell_angle_beta   107.92909270
_cell_angle_gamma   90.00000000
_symmetry_Int_Tables_number   1
_chemical_formula_structural   Tl2ZnI4
_chemical_formula_sum   'Tl4 Zn2 I8'
_cell_volume   602.43493352
_cell_formula_units_Z   2
loop_
 _symmetry_equiv_pos_site_id
 _symmetry_equiv_pos_as_xyz
  1  'x, y, z'
loop_
 _atom_site_type_symbol
 _atom_site_label
 _atom_site_symmetry_multiplicity
 _atom_site_fract_x
 _atom_site_fract_y
 _atom_site_fract_z
 _atom_site_occupancy
  Zn  Zn0  1  0.218655  0.026923  0.799106  1
  Zn  Zn1  1  0.781345  0.526923  0.200894  1
  I  I2  1  0.976530  0.260037  0.730654  1
  I  I3  1  0.023470  0.760037  0.269346  1
  I  I4  1  0.028719  0.759451  0.747176  1
  I  I5  1  0.971281  0.259451  0.252824  1
  I  I6  1  0.581344  0.556739  0.374359  1
  I  I7  1  0.418656  0.056739  0.625641  1
  I  I8  1  0.592774  0.563726  0.924192  1
  I  I9  1  0.407226  0.063726  0.075808  1
  Tl  Tl10  1  0.748570  0.964702  0.434156  1
  Tl  Tl11  1  0.251430  0.464702  0.565844  1
  Tl  Tl12  1  0.768240  0.981092  0.945778  1
  Tl  Tl13  1  0.231760  0.481092  0.054222  1
