# generated using pymatgen
data_Ba2B4Se13
_symmetry_space_group_name_H-M   'P 1'
_cell_length_a   11.97112978
_cell_length_b   12.96925404
_cell_length_c   13.19450844
_cell_angle_alpha   103.77084311
_cell_angle_beta   90.00000000
_cell_angle_gamma   90.00000000
_symmetry_Int_Tables_number   1
_chemical_formula_structural   Ba2B4Se13
_chemical_formula_sum   'Ba8 B16 Se52'
_cell_volume   1989.65079956
_cell_formula_units_Z   4
loop_
 _symmetry_equiv_pos_site_id
 _symmetry_equiv_pos_as_xyz
  1  'x, y, z'
loop_
 _atom_site_type_symbol
 _atom_site_label
 _atom_site_symmetry_multiplicity
 _atom_site_fract_x
 _atom_site_fract_y
 _atom_site_fract_z
 _atom_site_occupancy
  B  B0  1  0.223814  0.029109  0.591846  1
  B  B1  1  0.723814  0.970891  0.908154  1
  B  B2  1  0.776186  0.970891  0.408154  1
  B  B3  1  0.276186  0.029109  0.091846  1
  B  B4  1  0.227851  0.236416  0.797213  1
  B  B5  1  0.727851  0.763584  0.702787  1
  B  B6  1  0.772149  0.763584  0.202787  1
  B  B7  1  0.272149  0.236416  0.297213  1
  B  B8  1  0.225360  0.483855  0.901999  1
  B  B9  1  0.725360  0.516145  0.598001  1
  B  B10  1  0.774640  0.516145  0.098001  1
  B  B11  1  0.274640  0.483855  0.401999  1
  B  B12  1  0.279367  0.782513  0.983698  1
  B  B13  1  0.779367  0.217487  0.516302  1
  B  B14  1  0.720633  0.217487  0.016302  1
  B  B15  1  0.220633  0.782513  0.483698  1
  Se  Se16  1  0.346655  0.961998  0.667462  1
  Se  Se17  1  0.846655  0.038002  0.832538  1
  Se  Se18  1  0.653345  0.038002  0.332538  1
  Se  Se19  1  0.153345  0.961998  0.167462  1
  Se  Se20  1  0.316830  0.101387  0.496415  1
  Se  Se21  1  0.816830  0.898613  0.003585  1
  Se  Se22  1  0.683170  0.898613  0.503585  1
  Se  Se23  1  0.183170  0.101387  0.996415  1
  Se  Se24  1  0.122684  0.131664  0.697686  1
  Se  Se25  1  0.622684  0.868336  0.802314  1
  Se  Se26  1  0.877316  0.868336  0.302314  1
  Se  Se27  1  0.377316  0.131664  0.197686  1
  Se  Se28  1  0.323064  0.165644  0.893093  1
  Se  Se29  1  0.823063  0.834356  0.606907  1
  Se  Se30  1  0.676937  0.834356  0.106907  1
  Se  Se31  1  0.176936  0.165644  0.393093  1
  Se  Se32  1  0.353346  0.294990  0.715961  1
  Se  Se33  1  0.853346  0.705010  0.784039  1
  Se  Se34  1  0.646654  0.705010  0.284039  1
  Se  Se35  1  0.146654  0.294990  0.215961  1
  Se  Se36  1  0.119052  0.354906  0.872113  1
  Se  Se37  1  0.619052  0.645094  0.627887  1
  Se  Se38  1  0.880948  0.645094  0.127887  1
  Se  Se39  1  0.380948  0.354906  0.372113  1
  Se  Se40  1  0.387761  0.440908  0.865876  1
  Se  Se41  1  0.887761  0.559092  0.634124  1
  Se  Se42  1  0.612239  0.559092  0.134124  1
  Se  Se43  1  0.112239  0.440908  0.365876  1
  Se  Se44  1  0.226685  0.543265  0.060496  1
  Se  Se45  1  0.726685  0.456735  0.439504  1
  Se  Se46  1  0.773315  0.456735  0.939504  1
  Se  Se47  1  0.273315  0.543265  0.560496  1
  Se  Se48  1  0.152072  0.580786  0.818640  1
  Se  Se49  1  0.652072  0.419214  0.681360  1
  Se  Se50  1  0.847928  0.419214  0.181360  1
  Se  Se51  1  0.347928  0.580786  0.318640  1
  Se  Se52  1  0.291270  0.718361  0.825792  1
  Se  Se53  1  0.791270  0.281639  0.674208  1
  Se  Se54  1  0.708730  0.281639  0.174208  1
  Se  Se55  1  0.208730  0.718361  0.325792  1
  Se  Se56  1  0.357389  0.688965  0.069289  1
  Se  Se57  1  0.857389  0.311035  0.430711  1
  Se  Se58  1  0.642611  0.311035  0.930711  1
  Se  Se59  1  0.142611  0.688965  0.569289  1
  Se  Se60  1  0.385272  0.911781  0.016699  1
  Se  Se61  1  0.885272  0.088219  0.483301  1
  Se  Se62  1  0.614728  0.088219  0.983301  1
  Se  Se63  1  0.114728  0.911781  0.516699  1
  Se  Se64  1  0.115099  0.814713  0.020473  1
  Se  Se65  1  0.615099  0.185287  0.479527  1
  Se  Se66  1  0.884901  0.185287  0.979527  1
  Se  Se67  1  0.384901  0.814713  0.520473  1
  Ba  Ba68  1  0.088027  0.363413  0.609416  1
  Ba  Ba69  1  0.588027  0.636587  0.890584  1
  Ba  Ba70  1  0.911973  0.636587  0.390584  1
  Ba  Ba71  1  0.411973  0.363413  0.109416  1
  Ba  Ba72  1  0.098546  0.896522  0.784972  1
  Ba  Ba73  1  0.598546  0.103478  0.715028  1
  Ba  Ba74  1  0.901454  0.103478  0.215028  1
  Ba  Ba75  1  0.401454  0.896522  0.284972  1
