# generated using pymatgen
data_Ba(TlHg)2
_symmetry_space_group_name_H-M   'P 1'
_cell_length_a   5.20950816
_cell_length_b   11.09264759
_cell_length_c   11.09264759
_cell_angle_alpha   90.00000000
_cell_angle_beta   90.00000000
_cell_angle_gamma   90.00000000
_symmetry_Int_Tables_number   1
_chemical_formula_structural   Ba(TlHg)2
_chemical_formula_sum   'Ba4 Tl8 Hg8'
_cell_volume   641.01346784
_cell_formula_units_Z   4
loop_
 _symmetry_equiv_pos_site_id
 _symmetry_equiv_pos_as_xyz
  1  'x, y, z'
loop_
 _atom_site_type_symbol
 _atom_site_label
 _atom_site_symmetry_multiplicity
 _atom_site_fract_x
 _atom_site_fract_y
 _atom_site_fract_z
 _atom_site_occupancy
  Ba  Ba0  1  0.000000  0.147942  0.852058  1
  Ba  Ba1  1  0.500000  0.647942  0.647942  1
  Ba  Ba2  1  0.500000  0.352058  0.352058  1
  Ba  Ba3  1  0.000000  0.852058  0.147942  1
  Hg  Hg4  1  0.000000  0.812468  0.812468  1
  Hg  Hg5  1  0.500000  0.687532  0.312468  1
  Hg  Hg6  1  0.500000  0.312468  0.687532  1
  Hg  Hg7  1  0.000000  0.187532  0.187532  1
  Hg  Hg8  1  0.000000  0.595391  0.404609  1
  Hg  Hg9  1  0.500000  0.095391  0.095391  1
  Hg  Hg10  1  0.500000  0.904609  0.904609  1
  Hg  Hg11  1  0.000000  0.404609  0.595391  1
  Tl  Tl12  1  0.000000  0.859205  0.529332  1
  Tl  Tl13  1  0.000000  0.140795  0.470668  1
  Tl  Tl14  1  0.500000  0.029332  0.640795  1
  Tl  Tl15  1  0.500000  0.970668  0.359205  1
  Tl  Tl16  1  0.000000  0.529332  0.859205  1
  Tl  Tl17  1  0.500000  0.640795  0.029332  1
  Tl  Tl18  1  0.500000  0.359205  0.970668  1
  Tl  Tl19  1  0.000000  0.470668  0.140795  1
