# generated using pymatgen
data_YCBr
_symmetry_space_group_name_H-M   'P 1'
_cell_length_a   4.57582757
_cell_length_b   6.77781240
_cell_length_c   5.38509204
_cell_angle_alpha   91.41830698
_cell_angle_beta   90.01360022
_cell_angle_gamma   132.27385658
_symmetry_Int_Tables_number   1
_chemical_formula_structural   YCBr
_chemical_formula_sum   'Y2 C2 Br2'
_cell_volume   123.50980692
_cell_formula_units_Z   2
loop_
 _symmetry_equiv_pos_site_id
 _symmetry_equiv_pos_as_xyz
  1  'x, y, z'
loop_
 _atom_site_type_symbol
 _atom_site_label
 _atom_site_symmetry_multiplicity
 _atom_site_fract_x
 _atom_site_fract_y
 _atom_site_fract_z
 _atom_site_occupancy
  Br  Br0  1  0.001600  0.501620  0.474534  1
  Br  Br1  1  0.998400  0.998380  0.525466  1
  C  C2  1  0.002278  0.502028  0.048890  1
  C  C3  1  0.997722  0.997972  0.951110  1
  Y  Y4  1  0.504513  0.004600  0.123484  1
  Y  Y5  1  0.495487  0.495400  0.876516  1
