# generated using pymatgen
data_Tb2Te4O11
_symmetry_space_group_name_H-M   'P 1'
_cell_length_a   5.19093445
_cell_length_b   6.78003484
_cell_length_c   16.15214509
_cell_angle_alpha   79.89691803
_cell_angle_beta   80.75312685
_cell_angle_gamma   67.49213140
_symmetry_Int_Tables_number   1
_chemical_formula_structural   Tb2Te4O11
_chemical_formula_sum   'Tb4 Te8 O22'
_cell_volume   514.28318915
_cell_formula_units_Z   2
loop_
 _symmetry_equiv_pos_site_id
 _symmetry_equiv_pos_as_xyz
  1  'x, y, z'
loop_
 _atom_site_type_symbol
 _atom_site_label
 _atom_site_symmetry_multiplicity
 _atom_site_fract_x
 _atom_site_fract_y
 _atom_site_fract_z
 _atom_site_occupancy
  O  O0  1  0.854062  0.250000  0.750000  1
  O  O1  1  0.145938  0.750000  0.250000  1
  O  O2  1  0.204853  0.870131  0.832645  1
  O  O3  1  0.907629  0.629869  0.667355  1
  O  O4  1  0.795147  0.129869  0.167355  1
  O  O5  1  0.092371  0.370131  0.332645  1
  O  O6  1  0.603243  0.048376  0.903326  1
  O  O7  1  0.554945  0.451624  0.596674  1
  O  O8  1  0.396757  0.951624  0.096674  1
  O  O9  1  0.445055  0.548376  0.403326  1
  O  O10  1  0.039180  0.184150  0.955025  1
  O  O11  1  0.178356  0.315850  0.544975  1
  O  O12  1  0.683268  0.133180  0.372846  1
  O  O13  1  0.189294  0.366820  0.127154  1
  O  O14  1  0.316732  0.866820  0.627154  1
  O  O15  1  0.810706  0.633180  0.872846  1
  O  O16  1  0.247451  0.968377  0.447553  1
  O  O17  1  0.663381  0.531623  0.052447  1
  O  O18  1  0.752549  0.031623  0.552447  1
  O  O19  1  0.336619  0.468377  0.947553  1
  O  O20  1  0.821644  0.684150  0.455025  1
  O  O21  1  0.960820  0.815850  0.044975  1
  Te  Te22  1  0.600470  0.543775  0.698180  1
  Te  Te23  1  0.842425  0.956225  0.801820  1
  Te  Te24  1  0.399530  0.456225  0.301820  1
  Te  Te25  1  0.157575  0.043775  0.198180  1
  Te  Te26  1  0.153562  0.383216  0.874967  1
  Te  Te27  1  0.411745  0.116784  0.625033  1
  Te  Te28  1  0.846438  0.616784  0.125033  1
  Te  Te29  1  0.588255  0.883216  0.374967  1
  Tb  Tb30  1  0.131011  0.700726  0.537249  1
  Tb  Tb31  1  0.368986  0.799274  0.962751  1
  Tb  Tb32  1  0.868989  0.299274  0.462751  1
  Tb  Tb33  1  0.631014  0.200726  0.037249  1
