# generated using pymatgen
data_MgAl2O4
_symmetry_space_group_name_H-M   'P 1'
_cell_length_a   5.76861147
_cell_length_b   5.76861160
_cell_length_c   23.11743031
_cell_angle_alpha   60.06148647
_cell_angle_beta   60.06148573
_cell_angle_gamma   59.99999960
_symmetry_Int_Tables_number   1
_chemical_formula_structural   MgAl2O4
_chemical_formula_sum   'Mg8 Al16 O32'
_cell_volume   544.46521496
_cell_formula_units_Z   8
loop_
 _symmetry_equiv_pos_site_id
 _symmetry_equiv_pos_as_xyz
  1  'x, y, z'
loop_
 _atom_site_type_symbol
 _atom_site_label
 _atom_site_symmetry_multiplicity
 _atom_site_fract_x
 _atom_site_fract_y
 _atom_site_fract_z
 _atom_site_occupancy
  Al  Al0  1  0.009738  0.495681  0.124725  1
  Al  Al1  1  0.495681  0.495681  0.124725  1
  Al  Al2  1  0.495681  0.009738  0.124725  1
  Al  Al3  1  0.496753  0.496753  0.375297  1
  Al  Al4  1  0.001672  0.500687  0.624238  1
  Al  Al5  1  0.880398  0.880398  0.214701  1
  Al  Al6  1  0.501139  0.501139  0.499146  1
  Al  Al7  1  0.496753  0.005307  0.375297  1
  Al  Al8  1  0.500687  0.500687  0.624238  1
  Al  Al9  1  0.005307  0.496753  0.375297  1
  Al  Al10  1  0.500687  0.001672  0.624238  1
  Al  Al11  1  0.502232  0.502232  0.748326  1
  Al  Al12  1  0.498286  0.498286  0.874273  1
  Al  Al13  1  0.498286  0.006336  0.874273  1
  Al  Al14  1  0.006336  0.498286  0.874273  1
  Al  Al15  1  0.876590  0.876590  0.967558  1
  Mg  Mg16  1  0.121130  0.121130  0.034153  1
  Mg  Mg17  1  0.120449  0.120449  0.284663  1
  Mg  Mg18  1  0.496692  0.496692  0.252481  1
  Mg  Mg19  1  0.124260  0.124260  0.531805  1
  Mg  Mg20  1  0.125548  0.125548  0.780839  1
  Mg  Mg21  1  0.879158  0.879158  0.465631  1
  Mg  Mg22  1  0.874108  0.874108  0.719419  1
  Mg  Mg23  1  0.498492  0.498492  0.001131  1
  O  O24  1  0.253832  0.253832  0.070050  1
  O  O25  1  0.253832  0.712134  0.070050  1
  O  O26  1  0.260216  0.260216  0.179838  1
  O  O27  1  0.712134  0.253832  0.070050  1
  O  O28  1  0.272054  0.751801  0.181086  1
  O  O29  1  0.250106  0.250106  0.321989  1
  O  O30  1  0.745319  0.745319  0.066011  1
  O  O31  1  0.250106  0.711833  0.321989  1
  O  O32  1  0.260238  0.260238  0.429821  1
  O  O33  1  0.751801  0.272054  0.181086  1
  O  O34  1  0.711833  0.250106  0.321989  1
  O  O35  1  0.751801  0.751801  0.181086  1
  O  O36  1  0.296982  0.734345  0.433582  1
  O  O37  1  0.263020  0.263020  0.566392  1
  O  O38  1  0.750268  0.750268  0.312299  1
  O  O39  1  0.263241  0.263241  0.677570  1
  O  O40  1  0.263020  0.708393  0.566392  1
  O  O41  1  0.734345  0.296982  0.433582  1
  O  O42  1  0.708393  0.263020  0.566392  1
  O  O43  1  0.734345  0.734345  0.433582  1
  O  O44  1  0.265553  0.265553  0.815112  1
  O  O45  1  0.290022  0.736360  0.684314  1
  O  O46  1  0.737289  0.737289  0.572033  1
  O  O47  1  0.265553  0.708446  0.815112  1
  O  O48  1  0.736360  0.290022  0.684314  1
  O  O49  1  0.262709  0.262709  0.927968  1
  O  O50  1  0.736360  0.736360  0.684314  1
  O  O51  1  0.708446  0.265553  0.815112  1
  O  O52  1  0.263556  0.754751  0.931735  1
  O  O53  1  0.731698  0.731698  0.826226  1
  O  O54  1  0.754751  0.263556  0.931735  1
  O  O55  1  0.754751  0.754751  0.931735  1
