# generated using pymatgen
data_Ba2Tl7Au
_symmetry_space_group_name_H-M   'P 1'
_cell_length_a   5.31957042
_cell_length_b   10.77623428
_cell_length_c   22.48820618
_cell_angle_alpha   90.00000000
_cell_angle_beta   90.00000000
_cell_angle_gamma   90.00000000
_symmetry_Int_Tables_number   1
_chemical_formula_structural   Ba2Tl7Au
_chemical_formula_sum   'Ba8 Tl28 Au4'
_cell_volume   1289.13500509
_cell_formula_units_Z   4
loop_
 _symmetry_equiv_pos_site_id
 _symmetry_equiv_pos_as_xyz
  1  'x, y, z'
loop_
 _atom_site_type_symbol
 _atom_site_label
 _atom_site_symmetry_multiplicity
 _atom_site_fract_x
 _atom_site_fract_y
 _atom_site_fract_z
 _atom_site_occupancy
  Ba  Ba0  1  0.250000  0.751015  0.458905  1
  Ba  Ba1  1  0.750000  0.248985  0.541095  1
  Ba  Ba2  1  0.750000  0.251015  0.041095  1
  Ba  Ba3  1  0.250000  0.748985  0.958905  1
  Ba  Ba4  1  0.250000  0.996115  0.789344  1
  Ba  Ba5  1  0.750000  0.003885  0.210656  1
  Ba  Ba6  1  0.750000  0.496115  0.710656  1
  Ba  Ba7  1  0.250000  0.503885  0.289344  1
  Au  Au8  1  0.250000  0.257632  0.673176  1
  Au  Au9  1  0.750000  0.742368  0.326824  1
  Au  Au10  1  0.750000  0.757632  0.826824  1
  Au  Au11  1  0.250000  0.242368  0.173176  1
  Tl  Tl12  1  0.250000  0.474860  0.102506  1
  Tl  Tl13  1  0.750000  0.525140  0.897494  1
  Tl  Tl14  1  0.750000  0.974860  0.397494  1
  Tl  Tl15  1  0.250000  0.025140  0.602506  1
  Tl  Tl16  1  0.750000  0.647411  0.201453  1
  Tl  Tl17  1  0.250000  0.352589  0.798547  1
  Tl  Tl18  1  0.250000  0.147411  0.298547  1
  Tl  Tl19  1  0.750000  0.852589  0.701453  1
  Tl  Tl20  1  0.750000  0.600540  0.051656  1
  Tl  Tl21  1  0.250000  0.399460  0.948344  1
  Tl  Tl22  1  0.250000  0.100540  0.448344  1
  Tl  Tl23  1  0.750000  0.899460  0.551656  1
  Tl  Tl24  1  0.250000  0.849514  0.297527  1
  Tl  Tl25  1  0.750000  0.150486  0.702473  1
  Tl  Tl26  1  0.750000  0.349514  0.202473  1
  Tl  Tl27  1  0.250000  0.650486  0.797527  1
  Tl  Tl28  1  0.250000  0.461050  0.590089  1
  Tl  Tl29  1  0.750000  0.538950  0.409911  1
  Tl  Tl30  1  0.750000  0.961050  0.909911  1
  Tl  Tl31  1  0.250000  0.038950  0.090089  1
  Tl  Tl32  1  0.750000  0.602232  0.552519  1
  Tl  Tl33  1  0.250000  0.397768  0.447481  1
  Tl  Tl34  1  0.250000  0.102232  0.947481  1
  Tl  Tl35  1  0.750000  0.897768  0.052519  1
  Tl  Tl36  1  0.250000  0.733626  0.648865  1
  Tl  Tl37  1  0.750000  0.266374  0.351135  1
  Tl  Tl38  1  0.750000  0.233626  0.851135  1
  Tl  Tl39  1  0.250000  0.766374  0.148865  1
