# generated using pymatgen
data_H2WO4
_symmetry_space_group_name_H-M   'P 1'
_cell_length_a   5.25396088
_cell_length_b   5.45375807
_cell_length_c   11.04547423
_cell_angle_alpha   90.00000000
_cell_angle_beta   90.00000000
_cell_angle_gamma   90.00000000
_symmetry_Int_Tables_number   1
_chemical_formula_structural   H2WO4
_chemical_formula_sum   'H8 W4 O16'
_cell_volume   316.49515796
_cell_formula_units_Z   4
loop_
 _symmetry_equiv_pos_site_id
 _symmetry_equiv_pos_as_xyz
  1  'x, y, z'
loop_
 _atom_site_type_symbol
 _atom_site_label
 _atom_site_symmetry_multiplicity
 _atom_site_fract_x
 _atom_site_fract_y
 _atom_site_fract_z
 _atom_site_occupancy
  H  H0  1  0.580651  0.250000  0.988980  1
  H  H1  1  0.080651  0.750000  0.511020  1
  H  H2  1  0.419349  0.750000  0.011020  1
  H  H3  1  0.919349  0.250000  0.488980  1
  H  H4  1  0.726995  0.750000  0.025058  1
  H  H5  1  0.226995  0.250000  0.474942  1
  H  H6  1  0.273005  0.250000  0.974942  1
  H  H7  1  0.773005  0.750000  0.525058  1
  O  O8  1  0.436741  0.250000  0.931927  1
  O  O9  1  0.427622  0.750000  0.432997  1
  O  O10  1  0.072378  0.750000  0.932997  1
  O  O11  1  0.927622  0.250000  0.067003  1
  O  O12  1  0.250334  0.499896  0.226918  1
  O  O13  1  0.750334  0.500104  0.273082  1
  O  O14  1  0.749666  0.999896  0.773082  1
  O  O15  1  0.249666  0.000104  0.726918  1
  O  O16  1  0.749666  0.500104  0.773082  1
  O  O17  1  0.249666  0.499896  0.726918  1
  O  O18  1  0.250334  0.000104  0.226918  1
  O  O19  1  0.750334  0.999896  0.273082  1
  O  O20  1  0.563259  0.750000  0.068073  1
  O  O21  1  0.063259  0.250000  0.431927  1
  O  O22  1  0.572378  0.250000  0.567003  1
  O  O23  1  0.936741  0.750000  0.568073  1
  W  W24  1  0.508896  0.250000  0.724341  1
  W  W25  1  0.008896  0.750000  0.775659  1
  W  W26  1  0.491104  0.750000  0.275659  1
  W  W27  1  0.991104  0.250000  0.224341  1
