# generated using pymatgen
data_La5SmS8
_symmetry_space_group_name_H-M   'P 1'
_cell_length_a   7.53539624
_cell_length_b   7.53539664
_cell_length_c   7.53539729
_cell_angle_alpha   109.48380681
_cell_angle_beta   109.44604765
_cell_angle_gamma   109.48380773
_symmetry_Int_Tables_number   1
_chemical_formula_structural   La5SmS8
_chemical_formula_sum   'La5 Sm1 S8'
_cell_volume   329.37939457
_cell_formula_units_Z   1
loop_
 _symmetry_equiv_pos_site_id
 _symmetry_equiv_pos_as_xyz
  1  'x, y, z'
loop_
 _atom_site_type_symbol
 _atom_site_label
 _atom_site_symmetry_multiplicity
 _atom_site_fract_x
 _atom_site_fract_y
 _atom_site_fract_z
 _atom_site_occupancy
  La  La0  1  0.251023  0.627567  0.377270  1
  La  La1  1  0.375000  0.250000  0.625000  1
  La  La2  1  0.749703  0.872433  0.123456  1
  La  La3  1  0.622730  0.373753  0.250297  1
  La  La4  1  0.876544  0.126247  0.748977  1
  Sm  Sm5  1  0.125000  0.750000  0.875000  1
  S  S6  1  0.001236  0.848046  0.502697  1
  S  S7  1  0.002442  0.355177  0.504247  1
  S  S8  1  0.495753  0.998196  0.850931  1
  S  S9  1  0.149069  0.144823  0.147265  1
  S  S10  1  0.497303  0.998539  0.345349  1
  S  S11  1  0.346810  0.501461  0.998764  1
  S  S12  1  0.654651  0.651954  0.653190  1
  S  S13  1  0.852735  0.501804  0.997558  1
