# generated using pymatgen
data_B6H10N
_symmetry_space_group_name_H-M   'P 1'
_cell_length_a   7.77314263
_cell_length_b   7.77314233
_cell_length_c   7.77314205
_cell_angle_alpha   60.00000125
_cell_angle_beta   60.00000249
_cell_angle_gamma   60.00000042
_symmetry_Int_Tables_number   1
_chemical_formula_structural   B6H10N
_chemical_formula_sum   'B12 H20 N2'
_cell_volume   332.10458904
_cell_formula_units_Z   2
loop_
 _symmetry_equiv_pos_site_id
 _symmetry_equiv_pos_as_xyz
  1  'x, y, z'
loop_
 _atom_site_type_symbol
 _atom_site_label
 _atom_site_symmetry_multiplicity
 _atom_site_fract_x
 _atom_site_fract_y
 _atom_site_fract_z
 _atom_site_occupancy
  N  N0  1  0.250000  0.250000  0.250000  1
  N  N1  1  0.750000  0.750000  0.750000  1
  B  B2  1  0.211612  0.949658  0.050342  1
  B  B3  1  0.050342  0.211612  0.949658  1
  B  B4  1  0.949658  0.050342  0.211612  1
  B  B5  1  0.788388  0.211612  0.050342  1
  B  B6  1  0.949658  0.788388  0.050342  1
  B  B7  1  0.788388  0.949658  0.211612  1
  B  B8  1  0.050342  0.949658  0.788388  1
  B  B9  1  0.211612  0.050342  0.788388  1
  B  B10  1  0.211612  0.788388  0.949658  1
  B  B11  1  0.050342  0.788388  0.211612  1
  B  B12  1  0.788388  0.050342  0.949658  1
  B  B13  1  0.949658  0.211612  0.788388  1
  H  H14  1  0.362162  0.912547  0.087453  1
  H  H15  1  0.087453  0.362162  0.912547  1
  H  H16  1  0.912547  0.087453  0.362162  1
  H  H17  1  0.637838  0.362162  0.087453  1
  H  H18  1  0.912547  0.637838  0.087453  1
  H  H19  1  0.637838  0.912547  0.362162  1
  H  H20  1  0.087453  0.912547  0.637838  1
  H  H21  1  0.362162  0.087453  0.637838  1
  H  H22  1  0.362162  0.637838  0.912547  1
  H  H23  1  0.087453  0.637838  0.362162  1
  H  H24  1  0.637838  0.087453  0.912547  1
  H  H25  1  0.912547  0.362162  0.637838  1
  H  H26  1  0.195683  0.195683  0.195683  1
  H  H27  1  0.412950  0.195683  0.195683  1
  H  H28  1  0.195683  0.412950  0.195683  1
  H  H29  1  0.195683  0.195683  0.412950  1
  H  H30  1  0.804317  0.804317  0.804317  1
  H  H31  1  0.587050  0.804317  0.804317  1
  H  H32  1  0.804317  0.587050  0.804317  1
  H  H33  1  0.804317  0.804317  0.587050  1
