# generated using pymatgen
data_Li2V2(PO4)3
_symmetry_space_group_name_H-M   'P 1'
_cell_length_a   8.62616743
_cell_length_b   8.74979350
_cell_length_c   12.15662427
_cell_angle_alpha   90.00000000
_cell_angle_beta   90.11760781
_cell_angle_gamma   90.00000000
_symmetry_Int_Tables_number   1
_chemical_formula_structural   Li2V2(PO4)3
_chemical_formula_sum   'Li8 V8 P12 O48'
_cell_volume   917.54582995
_cell_formula_units_Z   4
loop_
 _symmetry_equiv_pos_site_id
 _symmetry_equiv_pos_as_xyz
  1  'x, y, z'
loop_
 _atom_site_type_symbol
 _atom_site_label
 _atom_site_symmetry_multiplicity
 _atom_site_fract_x
 _atom_site_fract_y
 _atom_site_fract_z
 _atom_site_occupancy
  Li  Li0  1  0.213702  0.780449  0.180697  1
  Li  Li1  1  0.220247  0.724924  0.813784  1
  Li  Li2  1  0.279753  0.224924  0.686216  1
  Li  Li3  1  0.286298  0.280449  0.319303  1
  Li  Li4  1  0.713702  0.719551  0.680697  1
  Li  Li5  1  0.720247  0.775077  0.313784  1
  Li  Li6  1  0.779753  0.275077  0.186215  1
  Li  Li7  1  0.786299  0.219550  0.819303  1
  O  O8  1  0.057782  0.643603  0.570456  1
  O  O9  1  0.062234  0.868157  0.435071  1
  O  O10  1  0.071772  0.890449  0.844299  1
  O  O11  1  0.076111  0.596545  0.154209  1
  O  O12  1  0.139663  0.330043  0.585488  1
  O  O13  1  0.152308  0.438933  0.974237  1
  O  O14  1  0.156112  0.234842  0.824872  1
  O  O15  1  0.149180  0.161609  0.420331  1
  O  O16  1  0.170641  0.988108  0.233970  1
  O  O17  1  0.162493  0.051131  0.035534  1
  O  O18  1  0.169530  0.268502  0.176905  1
  O  O19  1  0.176485  0.516437  0.776880  1
  O  O20  1  0.323515  0.016438  0.723120  1
  O  O21  1  0.330471  0.768502  0.323095  1
  O  O22  1  0.337507  0.551131  0.464466  1
  O  O23  1  0.329360  0.488108  0.266031  1
  O  O24  1  0.350820  0.661608  0.079669  1
  O  O25  1  0.343888  0.734842  0.675128  1
  O  O26  1  0.347692  0.938933  0.525763  1
  O  O27  1  0.360337  0.830042  0.914512  1
  O  O28  1  0.423889  0.096545  0.345791  1
  O  O29  1  0.428228  0.390450  0.655701  1
  O  O30  1  0.437766  0.368158  0.064929  1
  O  O31  1  0.442218  0.143603  0.929544  1
  O  O32  1  0.557782  0.856398  0.070456  1
  O  O33  1  0.562234  0.631843  0.935071  1
  O  O34  1  0.571772  0.609550  0.344299  1
  O  O35  1  0.576111  0.903454  0.654209  1
  O  O36  1  0.639664  0.169957  0.085488  1
  O  O37  1  0.652308  0.061068  0.474237  1
  O  O38  1  0.656112  0.265157  0.324872  1
  O  O39  1  0.649180  0.338391  0.920331  1
  O  O40  1  0.670641  0.511892  0.733969  1
  O  O41  1  0.662493  0.448869  0.535534  1
  O  O42  1  0.669530  0.231499  0.676905  1
  O  O43  1  0.676484  0.983562  0.276880  1
  O  O44  1  0.823516  0.483562  0.223120  1
  O  O45  1  0.830471  0.731499  0.823095  1
  O  O46  1  0.837506  0.948868  0.964466  1
  O  O47  1  0.829360  0.011893  0.766030  1
  O  O48  1  0.850820  0.838392  0.579669  1
  O  O49  1  0.843888  0.765157  0.175128  1
  O  O50  1  0.847692  0.561067  0.025763  1
  O  O51  1  0.860337  0.669958  0.414512  1
  O  O52  1  0.923889  0.403455  0.845790  1
  O  O53  1  0.928227  0.109550  0.155701  1
  O  O54  1  0.937767  0.131842  0.564929  1
  O  O55  1  0.942217  0.356397  0.429544  1
  P  P56  1  0.038266  0.248639  0.500199  1
  P  P57  1  0.104109  0.397203  0.855167  1
  P  P58  1  0.106933  0.105895  0.147248  1
  P  P59  1  0.393067  0.605894  0.352752  1
  P  P60  1  0.395891  0.897203  0.644833  1
  P  P61  1  0.461734  0.748638  -0.000199  1
  P  P62  1  0.538266  0.251361  1.000200  1
  P  P63  1  0.604109  0.102796  0.355167  1
  P  P64  1  0.606933  0.394106  0.647248  1
  P  P65  1  0.893067  0.894106  0.852752  1
  P  P66  1  0.895892  0.602797  0.144833  1
  P  P67  1  0.961733  0.751362  0.499801  1
  V  V68  1  0.248138  0.535018  0.614501  1
  V  V69  1  0.245532  0.963355  0.388229  1
  V  V70  1  0.251862  0.035019  0.885498  1
  V  V71  1  0.254469  0.463354  0.111771  1
  V  V72  1  0.745531  0.536645  0.888229  1
  V  V73  1  0.748137  0.964982  0.114502  1
  V  V74  1  0.754469  0.036645  0.611771  1
  V  V75  1  0.751863  0.464981  0.385499  1
