# generated using pymatgen
data_Ag3AuS2
_symmetry_space_group_name_H-M   'P 1'
_cell_length_a   5.84495941
_cell_length_b   4.73718404
_cell_length_c   4.87211159
_cell_angle_alpha   80.95959030
_cell_angle_beta   91.46758300
_cell_angle_gamma   95.00607085
_symmetry_Int_Tables_number   1
_chemical_formula_structural   Ag3AuS2
_chemical_formula_sum   'Ag3 Au1 S2'
_cell_volume   132.70849141
_cell_formula_units_Z   1
loop_
 _symmetry_equiv_pos_site_id
 _symmetry_equiv_pos_as_xyz
  1  'x, y, z'
loop_
 _atom_site_type_symbol
 _atom_site_label
 _atom_site_symmetry_multiplicity
 _atom_site_fract_x
 _atom_site_fract_y
 _atom_site_fract_z
 _atom_site_occupancy
  Ag  Ag0  1  0.043537  0.183649  0.455492  1
  Ag  Ag1  1  0.268457  0.562412  0.014857  1
  Ag  Ag2  1  0.602534  0.988283  0.716053  1
  Au  Au3  1  0.740635  0.697850  0.265958  1
  S  S4  1  0.023582  0.984736  0.988827  1
  S  S5  1  0.446256  0.458069  0.558813  1
