# generated using pymatgen
data_Ho2Co12P7
_symmetry_space_group_name_H-M   'P 1'
_cell_length_a   8.99958843
_cell_length_b   8.99958843
_cell_length_c   3.58185337
_cell_angle_alpha   90.00000000
_cell_angle_beta   90.00000000
_cell_angle_gamma   119.99999996
_symmetry_Int_Tables_number   1
_chemical_formula_structural   Ho2Co12P7
_chemical_formula_sum   'Ho2 Co12 P7'
_cell_volume   251.23707721
_cell_formula_units_Z   1
loop_
 _symmetry_equiv_pos_site_id
 _symmetry_equiv_pos_as_xyz
  1  'x, y, z'
loop_
 _atom_site_type_symbol
 _atom_site_label
 _atom_site_symmetry_multiplicity
 _atom_site_fract_x
 _atom_site_fract_y
 _atom_site_fract_z
 _atom_site_occupancy
  P  P0  1  0.000000  0.000000  0.000000  1
  P  P1  1  0.597317  0.708695  0.500000  1
  P  P2  1  0.706315  0.112878  0.000000  1
  P  P3  1  0.887122  0.593438  0.000000  1
  P  P4  1  0.406562  0.293685  0.000000  1
  P  P5  1  0.291305  0.888622  0.500000  1
  P  P6  1  0.111378  0.402683  0.500000  1
  Co  Co7  1  0.119133  0.846333  0.000000  1
  Co  Co8  1  0.382503  0.435228  0.500000  1
  Co  Co9  1  0.727200  0.880867  0.000000  1
  Co  Co10  1  0.564772  0.947274  0.500000  1
  Co  Co11  1  0.234063  0.102514  0.500000  1
  Co  Co12  1  0.868451  0.765937  0.500000  1
  Co  Co13  1  0.897486  0.131549  0.500000  1
  Co  Co14  1  0.939947  0.374379  0.000000  1
  Co  Co15  1  0.625621  0.565569  0.000000  1
  Co  Co16  1  0.434431  0.060053  0.000000  1
  Co  Co17  1  0.052726  0.617497  0.500000  1
  Co  Co18  1  0.153667  0.272800  0.000000  1
  Ho  Ho19  1  0.666667  0.333333  0.500000  1
  Ho  Ho20  1  0.333333  0.666667  0.000000  1
