# generated using pymatgen
data_CaV2O6
_symmetry_space_group_name_H-M   'P 1'
_cell_length_a   3.69740855
_cell_length_b   5.55279584
_cell_length_c   7.26500034
_cell_angle_alpha   102.05907993
_cell_angle_beta   90.00000000
_cell_angle_gamma   109.44684216
_symmetry_Int_Tables_number   1
_chemical_formula_structural   CaV2O6
_chemical_formula_sum   'Ca1 V2 O6'
_cell_volume   137.15251779
_cell_formula_units_Z   1
loop_
 _symmetry_equiv_pos_site_id
 _symmetry_equiv_pos_as_xyz
  1  'x, y, z'
loop_
 _atom_site_type_symbol
 _atom_site_label
 _atom_site_symmetry_multiplicity
 _atom_site_fract_x
 _atom_site_fract_y
 _atom_site_fract_z
 _atom_site_occupancy
  O  O0  1  0.755608  0.511216  0.603311  1
  O  O1  1  0.244392  0.488784  0.396688  1
  O  O2  1  0.367882  0.735764  0.867406  1
  O  O3  1  0.100444  0.200888  0.741279  1
  O  O4  1  0.632118  0.264236  0.132593  1
  O  O5  1  0.899556  0.799112  0.258720  1
  Ca  Ca6  1  0.000000  0.000000  0.000000  1
  V  V7  1  0.241250  0.482499  0.672364  1
  V  V8  1  0.758750  0.517501  0.327636  1
