# generated using pymatgen
data_Ce5O9
_symmetry_space_group_name_H-M   'P 1'
_cell_length_a   7.80957511
_cell_length_b   21.66447740
_cell_length_c   10.30708476
_cell_angle_alpha   18.22554546
_cell_angle_beta   55.56555810
_cell_angle_gamma   51.08940925
_symmetry_Int_Tables_number   1
_chemical_formula_structural   Ce5O9
_chemical_formula_sum   'Ce10 O18'
_cell_volume   420.90861658
_cell_formula_units_Z   2
loop_
 _symmetry_equiv_pos_site_id
 _symmetry_equiv_pos_as_xyz
  1  'x, y, z'
loop_
 _atom_site_type_symbol
 _atom_site_label
 _atom_site_symmetry_multiplicity
 _atom_site_fract_x
 _atom_site_fract_y
 _atom_site_fract_z
 _atom_site_occupancy
  Ce  Ce0  1  0.005366  0.996496  0.005995  1
  Ce  Ce1  1  0.498210  0.969524  0.072012  1
  Ce  Ce2  1  0.401790  0.230476  0.927988  1
  Ce  Ce3  1  0.299872  0.395237  0.993586  1
  Ce  Ce4  1  0.894634  0.203504  0.994005  1
  Ce  Ce5  1  0.175328  0.621964  0.975753  1
  Ce  Ce6  1  0.825412  0.389900  0.007577  1
  Ce  Ce7  1  0.074588  0.810100  0.992423  1
  Ce  Ce8  1  0.724672  0.578036  0.024247  1
  Ce  Ce9  1  0.600128  0.804763  0.006414  1
  O  O10  1  0.090767  0.131960  0.270891  1
  O  O11  1  0.536060  0.128690  0.281248  1
  O  O12  1  0.363940  0.071310  0.718752  1
  O  O13  1  0.259589  0.272934  0.685081  1
  O  O14  1  0.357498  0.584745  0.189932  1
  O  O15  1  0.809233  0.068040  0.729109  1
  O  O16  1  0.150212  0.459548  0.727107  1
  O  O17  1  0.964410  0.338696  0.259585  1
  O  O18  1  0.758631  0.248914  0.741870  1
  O  O19  1  0.256902  0.776528  0.179737  1
  O  O20  1  0.091933  0.622264  0.788567  1
  O  O21  1  0.808067  0.577736  0.211433  1
  O  O22  1  0.643098  0.423472  0.820263  1
  O  O23  1  0.141369  0.951086  0.258130  1
  O  O24  1  0.749788  0.740452  0.272893  1
  O  O25  1  0.542502  0.615255  0.810068  1
  O  O26  1  0.640411  0.927066  0.314919  1
  O  O27  1  0.935590  0.861304  0.740415  1
