# generated using pymatgen
data_Tl4CuTe3
_symmetry_space_group_name_H-M   'P 1'
_cell_length_a   8.78860166
_cell_length_b   8.78860197
_cell_length_c   8.78860174
_cell_angle_alpha   90.13365989
_cell_angle_beta   119.92286113
_cell_angle_gamma   119.92286032
_symmetry_Int_Tables_number   1
_chemical_formula_structural   Tl4CuTe3
_chemical_formula_sum   'Tl8 Cu2 Te6'
_cell_volume   480.56170844
_cell_formula_units_Z   2
loop_
 _symmetry_equiv_pos_site_id
 _symmetry_equiv_pos_as_xyz
  1  'x, y, z'
loop_
 _atom_site_type_symbol
 _atom_site_label
 _atom_site_symmetry_multiplicity
 _atom_site_fract_x
 _atom_site_fract_y
 _atom_site_fract_z
 _atom_site_occupancy
  Cu  Cu0  1  0.000000  0.500000  0.500000  1
  Cu  Cu1  1  0.000000  0.000000  0.000000  1
  Te  Te2  1  0.000000  0.750000  0.750000  1
  Te  Te3  1  0.179609  0.839804  0.339804  1
  Te  Te4  1  0.500000  0.660196  0.839804  1
  Te  Te5  1  0.500000  0.339804  0.160196  1
  Te  Te6  1  0.820391  0.160196  0.660196  1
  Te  Te7  1  0.000000  0.250000  0.250000  1
  Tl  Tl8  1  0.204253  0.193595  0.693595  1
  Tl  Tl9  1  0.500000  0.989341  0.193595  1
  Tl  Tl10  1  0.500000  0.693595  0.489341  1
  Tl  Tl11  1  0.204253  0.510659  0.010659  1
  Tl  Tl12  1  0.795747  0.489341  0.989341  1
  Tl  Tl13  1  0.500000  0.306405  0.510659  1
  Tl  Tl14  1  0.500000  0.010659  0.806405  1
  Tl  Tl15  1  0.795747  0.806405  0.306405  1
