# generated using pymatgen
data_Mo15S19
_symmetry_space_group_name_H-M   'P 1'
_cell_length_a   9.29490586
_cell_length_b   9.29490586
_cell_length_c   19.20446060
_cell_angle_alpha   90.00000000
_cell_angle_beta   90.00000000
_cell_angle_gamma   120.00000005
_symmetry_Int_Tables_number   1
_chemical_formula_structural   Mo15S19
_chemical_formula_sum   'Mo30 S38'
_cell_volume   1436.88739935
_cell_formula_units_Z   2
loop_
 _symmetry_equiv_pos_site_id
 _symmetry_equiv_pos_as_xyz
  1  'x, y, z'
loop_
 _atom_site_type_symbol
 _atom_site_label
 _atom_site_symmetry_multiplicity
 _atom_site_fract_x
 _atom_site_fract_y
 _atom_site_fract_z
 _atom_site_occupancy
  S  S0  1  0.666667  0.333333  0.465796  1
  S  S1  1  0.333333  0.666667  0.965796  1
  S  S2  1  0.333333  0.666667  0.534204  1
  S  S3  1  0.666667  0.333333  0.034204  1
  S  S4  1  0.000000  0.000000  0.658767  1
  S  S5  1  0.000000  0.000000  0.158767  1
  S  S6  1  0.000000  0.000000  0.341233  1
  S  S7  1  0.000000  0.000000  0.841233  1
  S  S8  1  0.693977  0.042852  0.250000  1
  S  S9  1  0.651124  0.693977  0.750000  1
  S  S10  1  0.042852  0.348876  0.750000  1
  S  S11  1  0.957148  0.651124  0.250000  1
  S  S12  1  0.348876  0.306023  0.250000  1
  S  S13  1  0.306023  0.957148  0.750000  1
  S  S14  1  0.015852  0.633682  0.642727  1
  S  S15  1  0.382170  0.015852  0.142727  1
  S  S16  1  0.713949  0.685092  0.547649  1
  S  S17  1  0.633682  0.617830  0.142727  1
  S  S18  1  0.617830  0.984148  0.642727  1
  S  S19  1  0.984148  0.366318  0.142727  1
  S  S20  1  0.984148  0.366318  0.357273  1
  S  S21  1  0.617830  0.984148  0.857273  1
  S  S22  1  0.366318  0.382170  0.857273  1
  S  S23  1  0.633682  0.617830  0.357273  1
  S  S24  1  0.382170  0.015852  0.357273  1
  S  S25  1  0.015852  0.633682  0.857273  1
  S  S26  1  0.314908  0.028857  0.547649  1
  S  S27  1  0.286051  0.314908  0.047649  1
  S  S28  1  0.028857  0.713949  0.047649  1
  S  S29  1  0.971143  0.286051  0.547649  1
  S  S30  1  0.314908  0.028857  0.952351  1
  S  S31  1  0.286051  0.314908  0.452351  1
  S  S32  1  0.028857  0.713949  0.452351  1
  S  S33  1  0.971143  0.286051  0.952351  1
  S  S34  1  0.713949  0.685092  0.952351  1
  S  S35  1  0.685092  0.971143  0.452351  1
  S  S36  1  0.685092  0.971143  0.047649  1
  S  S37  1  0.366318  0.382170  0.642727  1
  Mo  Mo38  1  0.841699  0.346601  0.250000  1
  Mo  Mo39  1  0.495098  0.841699  0.750000  1
  Mo  Mo40  1  0.346601  0.504902  0.750000  1
  Mo  Mo41  1  0.653399  0.495098  0.250000  1
  Mo  Mo42  1  0.504902  0.158301  0.250000  1
  Mo  Mo43  1  0.158301  0.653399  0.750000  1
  Mo  Mo44  1  0.316155  0.827433  0.629847  1
  Mo  Mo45  1  0.488723  0.316155  0.129847  1
  Mo  Mo46  1  0.827433  0.511277  0.129847  1
  Mo  Mo47  1  0.172567  0.488723  0.629847  1
  Mo  Mo48  1  0.511277  0.683845  0.629847  1
  Mo  Mo49  1  0.683845  0.172567  0.129847  1
  Mo  Mo50  1  0.683845  0.172567  0.370153  1
  Mo  Mo51  1  0.511277  0.683845  0.870153  1
  Mo  Mo52  1  0.172567  0.488723  0.870153  1
  Mo  Mo53  1  0.827433  0.511277  0.370153  1
  Mo  Mo54  1  0.488723  0.316155  0.370153  1
  Mo  Mo55  1  0.316155  0.827433  0.870153  1
  Mo  Mo56  1  0.176733  0.017112  0.437049  1
  Mo  Mo57  1  0.159620  0.176733  0.937049  1
  Mo  Mo58  1  0.017112  0.840380  0.937049  1
  Mo  Mo59  1  0.982888  0.159620  0.437049  1
  Mo  Mo60  1  0.840380  0.823267  0.437049  1
  Mo  Mo61  1  0.823267  0.982888  0.937049  1
  Mo  Mo62  1  0.823267  0.982888  0.562951  1
  Mo  Mo63  1  0.840380  0.823267  0.062951  1
  Mo  Mo64  1  0.982888  0.159620  0.062951  1
  Mo  Mo65  1  0.017112  0.840380  0.562951  1
  Mo  Mo66  1  0.159620  0.176733  0.562951  1
  Mo  Mo67  1  0.176733  0.017112  0.062951  1
