# generated using pymatgen
data_Dy11Sn10
_symmetry_space_group_name_H-M   'P 1'
_cell_length_a   11.65171400
_cell_length_b   11.65171400
_cell_length_c   11.86130996
_cell_angle_alpha   119.41716408
_cell_angle_beta   119.41716413
_cell_angle_gamma   90.00000000
_symmetry_Int_Tables_number   1
_chemical_formula_structural   Dy11Sn10
_chemical_formula_sum   'Dy22 Sn20'
_cell_volume   1158.43993548
_cell_formula_units_Z   2
loop_
 _symmetry_equiv_pos_site_id
 _symmetry_equiv_pos_as_xyz
  1  'x, y, z'
loop_
 _atom_site_type_symbol
 _atom_site_label
 _atom_site_symmetry_multiplicity
 _atom_site_fract_x
 _atom_site_fract_y
 _atom_site_fract_z
 _atom_site_occupancy
  Sn  Sn0  1  0.118378  0.118378  0.648294  1
  Sn  Sn1  1  0.470084  0.470084  0.351706  1
  Sn  Sn2  1  0.881622  0.881622  0.351706  1
  Sn  Sn3  1  0.470084  0.881622  0.351706  1
  Sn  Sn4  1  0.881622  0.470084  0.351706  1
  Sn  Sn5  1  0.529916  0.118378  0.648294  1
  Sn  Sn6  1  0.118378  0.529916  0.648294  1
  Sn  Sn7  1  0.529916  0.529916  0.648294  1
  Sn  Sn8  1  0.644339  0.000000  0.000000  1
  Sn  Sn9  1  0.000000  0.644339  0.000000  1
  Sn  Sn10  1  0.000000  0.355661  0.000000  1
  Sn  Sn11  1  0.355661  0.000000  0.000000  1
  Sn  Sn12  1  0.629582  0.629582  0.000000  1
  Sn  Sn13  1  0.370418  0.629582  0.000000  1
  Sn  Sn14  1  0.629582  0.370418  0.000000  1
  Sn  Sn15  1  0.370418  0.370418  0.000000  1
  Sn  Sn16  1  0.888494  0.888494  0.776988  1
  Sn  Sn17  1  0.111506  0.111506  0.223012  1
  Sn  Sn18  1  0.750000  0.250000  0.500000  1
  Sn  Sn19  1  0.250000  0.750000  0.500000  1
  Dy  Dy20  1  0.270946  0.602205  0.204410  1
  Dy  Dy21  1  0.397795  0.066536  0.795590  1
  Dy  Dy22  1  0.933464  0.602205  0.204410  1
  Dy  Dy23  1  0.602205  0.933464  0.204410  1
  Dy  Dy24  1  0.602205  0.270946  0.204410  1
  Dy  Dy25  1  0.729054  0.397795  0.795590  1
  Dy  Dy26  1  0.066536  0.397795  0.795590  1
  Dy  Dy27  1  0.397795  0.729054  0.795590  1
  Dy  Dy28  1  0.188642  0.937492  0.377284  1
  Dy  Dy29  1  0.560208  0.811358  0.622716  1
  Dy  Dy30  1  0.062508  0.811358  0.622716  1
  Dy  Dy31  1  0.811358  0.062508  0.622716  1
  Dy  Dy32  1  0.811358  0.560208  0.622716  1
  Dy  Dy33  1  0.439792  0.188642  0.377284  1
  Dy  Dy34  1  0.937492  0.188642  0.377284  1
  Dy  Dy35  1  0.188642  0.439792  0.377284  1
  Dy  Dy36  1  0.826080  0.826080  0.000000  1
  Dy  Dy37  1  0.173920  0.826080  0.000000  1
  Dy  Dy38  1  0.826080  0.173920  0.000000  1
  Dy  Dy39  1  0.173920  0.173920  0.000000  1
  Dy  Dy40  1  0.666349  0.666349  0.332698  1
  Dy  Dy41  1  0.333651  0.333651  0.667302  1
