# generated using pymatgen
data_La5(AlBr)4
_symmetry_space_group_name_H-M   'P 1'
_cell_length_a   8.32952435
_cell_length_b   8.32952435
_cell_length_c   11.74835066
_cell_angle_alpha   110.76265692
_cell_angle_beta   110.76265689
_cell_angle_gamma   90.00000000
_symmetry_Int_Tables_number   1
_chemical_formula_structural   La5(AlBr)4
_chemical_formula_sum   'La10 Al8 Br8'
_cell_volume   705.27820014
_cell_formula_units_Z   2
loop_
 _symmetry_equiv_pos_site_id
 _symmetry_equiv_pos_as_xyz
  1  'x, y, z'
loop_
 _atom_site_type_symbol
 _atom_site_label
 _atom_site_symmetry_multiplicity
 _atom_site_fract_x
 _atom_site_fract_y
 _atom_site_fract_z
 _atom_site_occupancy
  Al  Al0  1  0.862719  0.077604  0.440324  1
  Al  Al1  1  0.137281  0.922396  0.559676  1
  Al  Al2  1  0.422396  0.637281  0.559676  1
  Al  Al3  1  0.922396  0.422396  0.559676  1
  Al  Al4  1  0.637281  0.137281  0.559676  1
  Al  Al5  1  0.362719  0.862719  0.440324  1
  Al  Al6  1  0.077604  0.577604  0.440324  1
  Al  Al7  1  0.577604  0.362719  0.440324  1
  Br  Br8  1  0.355961  0.144039  0.000000  1
  Br  Br9  1  0.855961  0.355961  0.000000  1
  Br  Br10  1  0.405313  0.405313  0.810627  1
  Br  Br11  1  0.094687  0.094687  0.189373  1
  Br  Br12  1  0.594687  0.594687  0.189373  1
  Br  Br13  1  0.905313  0.905313  0.810627  1
  Br  Br14  1  0.644039  0.855961  0.000000  1
  Br  Br15  1  0.144039  0.644039  0.000000  1
  La  La16  1  0.750000  0.750000  0.500000  1
  La  La17  1  0.250000  0.250000  0.500000  1
  La  La18  1  0.047320  0.223757  0.771077  1
  La  La19  1  0.952680  0.776243  0.228923  1
  La  La20  1  0.276243  0.452680  0.228923  1
  La  La21  1  0.776243  0.276243  0.228923  1
  La  La22  1  0.452680  0.952680  0.228923  1
  La  La23  1  0.547320  0.047320  0.771077  1
  La  La24  1  0.223757  0.723757  0.771077  1
  La  La25  1  0.723757  0.547320  0.771077  1
