# generated using pymatgen
data_BaVS3
_symmetry_space_group_name_H-M   'P 1'
_cell_length_a   5.65607508
_cell_length_b   6.75630805
_cell_length_c   6.75630806
_cell_angle_alpha   119.24689516
_cell_angle_beta   90.00000000
_cell_angle_gamma   90.00000000
_symmetry_Int_Tables_number   1
_chemical_formula_structural   BaVS3
_chemical_formula_sum   'Ba2 V2 S6'
_cell_volume   225.27379714
_cell_formula_units_Z   2
loop_
 _symmetry_equiv_pos_site_id
 _symmetry_equiv_pos_as_xyz
  1  'x, y, z'
loop_
 _atom_site_type_symbol
 _atom_site_label
 _atom_site_symmetry_multiplicity
 _atom_site_fract_x
 _atom_site_fract_y
 _atom_site_fract_z
 _atom_site_occupancy
  S  S0  1  0.242204  0.159901  0.319786  1
  S  S1  1  0.742204  0.840099  0.680214  1
  S  S2  1  0.242204  0.680214  0.840099  1
  S  S3  1  0.742204  0.319786  0.159901  1
  S  S4  1  0.759205  0.829093  0.170907  1
  S  S5  1  0.259205  0.170907  0.829093  1
  V  V6  1  0.513942  0.975526  0.024474  1
  V  V7  1  0.013942  0.024474  0.975526  1
  Ba  Ba8  1  0.251344  0.663548  0.336452  1
  Ba  Ba9  1  0.751344  0.336452  0.663548  1
