# generated using pymatgen
data_H4C7O
_symmetry_space_group_name_H-M   'P 1'
_cell_length_a   4.27282430
_cell_length_b   8.04544388
_cell_length_c   16.03313468
_cell_angle_alpha   104.79437907
_cell_angle_beta   90.00000000
_cell_angle_gamma   90.00000000
_symmetry_Int_Tables_number   1
_chemical_formula_structural   H4C7O
_chemical_formula_sum   'H16 C28 O4'
_cell_volume   532.89529759
_cell_formula_units_Z   4
loop_
 _symmetry_equiv_pos_site_id
 _symmetry_equiv_pos_as_xyz
  1  'x, y, z'
loop_
 _atom_site_type_symbol
 _atom_site_label
 _atom_site_symmetry_multiplicity
 _atom_site_fract_x
 _atom_site_fract_y
 _atom_site_fract_z
 _atom_site_occupancy
  H  H0  1  0.948011  0.323562  0.750272  1
  H  H1  1  0.448011  0.676438  0.749728  1
  H  H2  1  0.051989  0.676438  0.249728  1
  H  H3  1  0.551989  0.323562  0.250272  1
  H  H4  1  0.187548  0.032953  0.706324  1
  H  H5  1  0.687548  0.967047  0.793676  1
  H  H6  1  0.812452  0.967047  0.293676  1
  H  H7  1  0.312452  0.032953  0.206324  1
  H  H8  1  0.240672  0.417082  0.508052  1
  H  H9  1  0.740672  0.582918  0.991948  1
  H  H10  1  0.759328  0.582918  0.491948  1
  H  H11  1  0.259328  0.417082  0.008052  1
  H  H12  1  0.971713  0.517666  0.650277  1
  H  H13  1  0.471713  0.482334  0.849723  1
  H  H14  1  0.028287  0.482334  0.349723  1
  H  H15  1  0.528287  0.517666  0.150277  1
  C  C16  1  0.936594  0.718281  0.312264  1
  C  C17  1  0.802555  0.881515  0.336498  1
  C  C18  1  0.697445  0.881515  0.836498  1
  C  C19  1  0.197445  0.118485  0.663502  1
  C  C20  1  0.436594  0.281719  0.187736  1
  C  C21  1  0.013064  0.886090  0.059044  1
  C  C22  1  0.563406  0.718281  0.812264  1
  C  C23  1  0.063406  0.281719  0.687736  1
  C  C24  1  0.345865  0.061007  0.583316  1
  C  C25  1  0.513064  0.113910  0.440956  1
  C  C26  1  0.986936  0.113910  0.940956  1
  C  C27  1  0.486936  0.886090  0.559044  1
  C  C28  1  0.422464  0.390027  0.131884  1
  C  C29  1  0.922464  0.609973  0.368116  1
  C  C30  1  0.577536  0.609973  0.868116  1
  C  C31  1  0.077536  0.390027  0.631884  1
  C  C32  1  0.274241  0.334394  0.052165  1
  C  C33  1  0.845865  0.938993  0.916684  1
  C  C34  1  0.654135  0.938993  0.416684  1
  C  C35  1  0.154135  0.061007  0.083316  1
  C  C36  1  0.359710  0.170145  0.526944  1
  C  C37  1  0.859710  0.829855  0.973056  1
  C  C38  1  0.640290  0.829855  0.473056  1
  C  C39  1  0.140290  0.170145  0.026944  1
  C  C40  1  0.225759  0.334394  0.552165  1
  C  C41  1  0.725759  0.665606  0.947835  1
  C  C42  1  0.774241  0.665606  0.447835  1
  C  C43  1  0.302555  0.118485  0.163502  1
  O  O44  1  0.478040  0.790806  0.608766  1
  O  O45  1  0.978040  0.209194  0.891234  1
  O  O46  1  0.521960  0.209194  0.391234  1
  O  O47  1  0.021960  0.790806  0.108766  1
