# generated using pymatgen
data_LiV(PO4)2
_symmetry_space_group_name_H-M   'P 1'
_cell_length_a   7.68544036
_cell_length_b   7.49439524
_cell_length_c   5.07791910
_cell_angle_alpha   90.00000000
_cell_angle_beta   95.22881304
_cell_angle_gamma   90.00000000
_symmetry_Int_Tables_number   1
_chemical_formula_structural   LiV(PO4)2
_chemical_formula_sum   'Li2 V2 P4 O16'
_cell_volume   291.25951681
_cell_formula_units_Z   2
loop_
 _symmetry_equiv_pos_site_id
 _symmetry_equiv_pos_as_xyz
  1  'x, y, z'
loop_
 _atom_site_type_symbol
 _atom_site_label
 _atom_site_symmetry_multiplicity
 _atom_site_fract_x
 _atom_site_fract_y
 _atom_site_fract_z
 _atom_site_occupancy
  Li  Li0  1  0.580942  0.123925  0.091087  1
  Li  Li1  1  0.919057  0.623925  0.408912  1
  O  O2  1  0.420621  0.641165  0.718598  1
  O  O3  1  0.080850  0.183277  0.263150  1
  O  O4  1  0.151530  0.554353  0.419353  1
  O  O5  1  0.223439  0.881682  0.505590  1
  O  O6  1  0.276562  0.381682  0.994410  1
  O  O7  1  0.348470  0.054353  0.080645  1
  O  O8  1  0.079378  0.141165  0.781401  1
  O  O9  1  0.419150  0.683277  0.236849  1
  O  O10  1  0.584915  0.310591  0.788126  1
  O  O11  1  0.578946  0.360236  0.296746  1
  O  O12  1  0.921055  0.860236  0.203256  1
  O  O13  1  0.727174  0.622027  0.018676  1
  O  O14  1  0.772827  0.122027  0.481324  1
  O  O15  1  0.849466  0.442157  0.605160  1
  O  O16  1  0.915086  0.810591  0.711874  1
  O  O17  1  0.650534  0.942157  0.894840  1
  P  P18  1  0.206797  0.188506  0.035095  1
  P  P19  1  0.293203  0.688506  0.464903  1
  P  P20  1  0.703835  0.313962  0.553784  1
  P  P21  1  0.796166  0.813963  0.946216  1
  V  V22  1  0.003352  0.009956  0.492214  1
  V  V23  1  0.496649  0.509956  0.007787  1
