# generated using pymatgen
data_CuSe2O5
_symmetry_space_group_name_H-M   'P 1'
_cell_length_a   5.30262994
_cell_length_b   6.77359694
_cell_length_c   8.04702292
_cell_angle_alpha   108.60796112
_cell_angle_beta   90.00000000
_cell_angle_gamma   113.04282654
_symmetry_Int_Tables_number   1
_chemical_formula_structural   CuSe2O5
_chemical_formula_sum   'Cu2 Se4 O10'
_cell_volume   249.46860487
_cell_formula_units_Z   2
loop_
 _symmetry_equiv_pos_site_id
 _symmetry_equiv_pos_as_xyz
  1  'x, y, z'
loop_
 _atom_site_type_symbol
 _atom_site_label
 _atom_site_symmetry_multiplicity
 _atom_site_fract_x
 _atom_site_fract_y
 _atom_site_fract_z
 _atom_site_occupancy
  O  O0  1  0.399309  0.245020  0.487673  1
  O  O1  1  0.154289  0.754980  0.012327  1
  O  O2  1  0.600691  0.754980  0.512327  1
  O  O3  1  0.845711  0.245020  0.987673  1
  O  O4  1  0.406891  0.246077  0.148758  1
  O  O5  1  0.160814  0.753923  0.351242  1
  O  O6  1  0.085572  0.000000  0.750000  1
  O  O7  1  0.914428  0.000000  0.250000  1
  O  O8  1  0.839186  0.246077  0.648758  1
  O  O9  1  0.593109  0.753923  0.851242  1
  Cu  Cu10  1  0.500000  0.000000  0.000000  1
  Cu  Cu11  1  0.500000  0.000000  0.500000  1
  Se  Se12  1  0.228509  0.274525  0.323544  1
  Se  Se13  1  0.953984  0.725475  0.176456  1
  Se  Se14  1  0.771491  0.725475  0.676456  1
  Se  Se15  1  0.046016  0.274525  0.823544  1
