# generated using pymatgen
data_Ca3(PO4)2
_symmetry_space_group_name_H-M   'P 1'
_cell_length_a   6.98121124
_cell_length_b   6.98121124
_cell_length_c   6.98121124
_cell_angle_alpha   44.74344593
_cell_angle_beta   44.74344585
_cell_angle_gamma   44.74344590
_symmetry_Int_Tables_number   1
_chemical_formula_structural   Ca3(PO4)2
_chemical_formula_sum   'Ca3 P2 O8'
_cell_volume   153.37244533
_cell_formula_units_Z   1
loop_
 _symmetry_equiv_pos_site_id
 _symmetry_equiv_pos_as_xyz
  1  'x, y, z'
loop_
 _atom_site_type_symbol
 _atom_site_label
 _atom_site_symmetry_multiplicity
 _atom_site_fract_x
 _atom_site_fract_y
 _atom_site_fract_z
 _atom_site_occupancy
  O  O0  1  0.727160  0.727160  0.247682  1
  O  O1  1  0.727160  0.247682  0.727160  1
  O  O2  1  0.247682  0.727160  0.727160  1
  O  O3  1  0.752318  0.272840  0.272840  1
  O  O4  1  0.272840  0.272840  0.752318  1
  O  O5  1  0.323283  0.323283  0.323283  1
  O  O6  1  0.676717  0.676717  0.676717  1
  O  O7  1  0.272840  0.752318  0.272840  1
  P  P8  1  0.404931  0.404931  0.404931  1
  P  P9  1  0.595069  0.595069  0.595069  1
  Ca  Ca10  1  0.000000  0.000000  0.000000  1
  Ca  Ca11  1  0.203823  0.203823  0.203823  1
  Ca  Ca12  1  0.796177  0.796177  0.796177  1
