# generated using pymatgen
data_SrNbFeO6
_symmetry_space_group_name_H-M   'P 1'
_cell_length_a   5.61106692
_cell_length_b   5.61106706
_cell_length_c   5.61106631
_cell_angle_alpha   89.46551645
_cell_angle_beta   120.30905897
_cell_angle_gamma   120.30906508
_symmetry_Int_Tables_number   1
_chemical_formula_structural   SrNbFeO6
_chemical_formula_sum   'Sr1 Nb1 Fe1 O6'
_cell_volume   124.32752409
_cell_formula_units_Z   1
loop_
 _symmetry_equiv_pos_site_id
 _symmetry_equiv_pos_as_xyz
  1  'x, y, z'
loop_
 _atom_site_type_symbol
 _atom_site_label
 _atom_site_symmetry_multiplicity
 _atom_site_fract_x
 _atom_site_fract_y
 _atom_site_fract_z
 _atom_site_occupancy
  Sr  Sr0  1  0.500000  0.250000  0.750000  1
  Nb  Nb1  1  0.000000  0.000000  0.000000  1
  Fe  Fe2  1  0.000000  0.500000  0.500000  1
  O  O3  1  1.000000  0.749335  0.749335  1
  O  O4  1  0.041238  0.271225  0.766835  1
  O  O5  1  0.000000  0.250665  0.250665  1
  O  O6  1  0.495610  0.770013  0.728775  1
  O  O7  1  0.504390  0.233165  0.274403  1
  O  O8  1  0.958762  0.725597  0.229987  1
