# generated using pymatgen
data_Na5P3O10
_symmetry_space_group_name_H-M   'P 1'
_cell_length_a   5.29171382
_cell_length_b   8.57455227
_cell_length_c   11.34203449
_cell_angle_alpha   93.35067985
_cell_angle_beta   90.00000000
_cell_angle_gamma   107.97312457
_symmetry_Int_Tables_number   1
_chemical_formula_structural   Na5P3O10
_chemical_formula_sum   'Na10 P6 O20'
_cell_volume   488.59590765
_cell_formula_units_Z   2
loop_
 _symmetry_equiv_pos_site_id
 _symmetry_equiv_pos_as_xyz
  1  'x, y, z'
loop_
 _atom_site_type_symbol
 _atom_site_label
 _atom_site_symmetry_multiplicity
 _atom_site_fract_x
 _atom_site_fract_y
 _atom_site_fract_z
 _atom_site_occupancy
  O  O0  1  0.165584  0.435071  0.349903  1
  O  O1  1  0.210671  0.241020  0.017668  1
  O  O2  1  0.969651  0.758980  0.482332  1
  O  O3  1  0.789329  0.758980  0.982332  1
  O  O4  1  0.030349  0.241020  0.517668  1
  O  O5  1  0.269487  0.435071  0.849903  1
  O  O6  1  0.581185  0.075251  0.152719  1
  O  O7  1  0.505934  0.924749  0.347281  1
  O  O8  1  0.418815  0.924749  0.847281  1
  O  O9  1  0.494066  0.075251  0.652719  1
  O  O10  1  0.958290  0.131725  0.306248  1
  O  O11  1  0.826565  0.868275  0.193752  1
  O  O12  1  0.041710  0.868275  0.693752  1
  O  O13  1  0.173435  0.131725  0.806248  1
  O  O14  1  0.730513  0.564929  0.150097  1
  O  O15  1  0.364123  0.696692  0.106759  1
  O  O16  1  0.332570  0.696692  0.606759  1
  O  O17  1  0.635877  0.303308  0.893241  1
  O  O18  1  0.667430  0.303308  0.393241  1
  O  O19  1  0.834416  0.564929  0.650097  1
  Na  Na20  1  0.221890  0.916570  0.037889  1
  Na  Na21  1  0.694680  0.916570  0.537889  1
  Na  Na22  1  0.778110  0.083430  0.962111  1
  Na  Na23  1  0.431070  0.320552  0.206289  1
  Na  Na24  1  0.110518  0.679448  0.293711  1
  Na  Na25  1  0.568930  0.679448  0.793711  1
  Na  Na26  1  0.500000  0.500000  0.500000  1
  Na  Na27  1  0.000000  0.500000  0.000000  1
  Na  Na28  1  0.889482  0.320552  0.706289  1
  Na  Na29  1  0.305320  0.083430  0.462111  1
  P  P30  1  0.343511  0.293580  0.899996  1
  P  P31  1  0.049932  0.706420  0.600004  1
  P  P32  1  0.656489  0.706420  0.100004  1
  P  P33  1  0.950068  0.293580  0.399996  1
  P  P34  1  0.308017  0.000000  0.750000  1
  P  P35  1  0.691983  0.000000  0.250000  1
