# generated using pymatgen
data_Hf11Ga10
_symmetry_space_group_name_H-M   'P 1'
_cell_length_a   10.36407374
_cell_length_b   10.36407374
_cell_length_c   10.40232238
_cell_angle_alpha   119.87844239
_cell_angle_beta   119.87844239
_cell_angle_gamma   90.00000003
_symmetry_Int_Tables_number   1
_chemical_formula_structural   Hf11Ga10
_chemical_formula_sum   'Hf22 Ga20'
_cell_volume   792.98398098
_cell_formula_units_Z   2
loop_
 _symmetry_equiv_pos_site_id
 _symmetry_equiv_pos_as_xyz
  1  'x, y, z'
loop_
 _atom_site_type_symbol
 _atom_site_label
 _atom_site_symmetry_multiplicity
 _atom_site_fract_x
 _atom_site_fract_y
 _atom_site_fract_z
 _atom_site_occupancy
  Ga  Ga0  1  0.250000  0.750000  0.500000  1
  Ga  Ga1  1  0.750000  0.250000  0.500000  1
  Ga  Ga2  1  0.107566  0.107566  0.215132  1
  Ga  Ga3  1  0.892434  0.892434  0.784868  1
  Ga  Ga4  1  0.372563  0.372563  0.000000  1
  Ga  Ga5  1  0.627437  0.372563  0.000000  1
  Ga  Ga6  1  0.372563  0.627437  0.000000  1
  Ga  Ga7  1  0.627437  0.627437  0.000000  1
  Ga  Ga8  1  0.356836  0.000000  0.000000  1
  Ga  Ga9  1  0.000000  0.356836  0.000000  1
  Ga  Ga10  1  0.000000  0.643164  0.000000  1
  Ga  Ga11  1  0.643164  0.000000  0.000000  1
  Ga  Ga12  1  0.533147  0.533147  0.653508  1
  Ga  Ga13  1  0.120361  0.533147  0.653508  1
  Ga  Ga14  1  0.533147  0.120361  0.653508  1
  Ga  Ga15  1  0.879639  0.466853  0.346492  1
  Ga  Ga16  1  0.466853  0.879639  0.346492  1
  Ga  Ga17  1  0.879639  0.879639  0.346492  1
  Ga  Ga18  1  0.466853  0.466853  0.346492  1
  Ga  Ga19  1  0.120361  0.120361  0.653508  1
  Hf  Hf20  1  0.321367  0.321367  0.642735  1
  Hf  Hf21  1  0.678633  0.678633  0.357265  1
  Hf  Hf22  1  0.174818  0.174818  0.000000  1
  Hf  Hf23  1  0.825182  0.174818  0.000000  1
  Hf  Hf24  1  0.174818  0.825182  0.000000  1
  Hf  Hf25  1  0.825182  0.825182  0.000000  1
  Hf  Hf26  1  0.188086  0.438844  0.376172  1
  Hf  Hf27  1  0.937328  0.188086  0.376172  1
  Hf  Hf28  1  0.438844  0.188086  0.376172  1
  Hf  Hf29  1  0.811914  0.561156  0.623828  1
  Hf  Hf30  1  0.811914  0.062672  0.623828  1
  Hf  Hf31  1  0.062672  0.811914  0.623828  1
  Hf  Hf32  1  0.561156  0.811914  0.623828  1
  Hf  Hf33  1  0.188086  0.937328  0.376172  1
  Hf  Hf34  1  0.396371  0.729922  0.792742  1
  Hf  Hf35  1  0.062820  0.396371  0.792742  1
  Hf  Hf36  1  0.729922  0.396371  0.792742  1
  Hf  Hf37  1  0.603629  0.270078  0.207258  1
  Hf  Hf38  1  0.603629  0.937180  0.207258  1
  Hf  Hf39  1  0.937180  0.603629  0.207258  1
  Hf  Hf40  1  0.270078  0.603629  0.207258  1
  Hf  Hf41  1  0.396371  0.062820  0.792742  1
