# generated using pymatgen
data_K2(NbBr3)3
_symmetry_space_group_name_H-M   'P 1'
_cell_length_a   10.31827320
_cell_length_b   10.42017305
_cell_length_c   10.42017306
_cell_angle_alpha   117.60342837
_cell_angle_beta   102.46465738
_cell_angle_gamma   102.46465737
_symmetry_Int_Tables_number   1
_chemical_formula_structural   K2(NbBr3)3
_chemical_formula_sum   'K4 Nb6 Br18'
_cell_volume   902.54234360
_cell_formula_units_Z   2
loop_
 _symmetry_equiv_pos_site_id
 _symmetry_equiv_pos_as_xyz
  1  'x, y, z'
loop_
 _atom_site_type_symbol
 _atom_site_label
 _atom_site_symmetry_multiplicity
 _atom_site_fract_x
 _atom_site_fract_y
 _atom_site_fract_z
 _atom_site_occupancy
  K  K0  1  0.167761  0.050631  0.729105  1
  K  K1  1  0.832239  0.270895  0.949369  1
  K  K2  1  0.832239  0.949369  0.270895  1
  K  K3  1  0.167761  0.729105  0.050631  1
  Br  Br4  1  0.819919  0.606334  0.000837  1
  Br  Br5  1  0.180081  0.999163  0.393666  1
  Br  Br6  1  0.825549  0.815792  0.815792  1
  Br  Br7  1  0.174451  0.184208  0.184208  1
  Br  Br8  1  0.812968  0.415057  0.618774  1
  Br  Br9  1  0.187032  0.381226  0.584943  1
  Br  Br10  1  0.187032  0.584943  0.381226  1
  Br  Br11  1  0.812968  0.618774  0.415057  1
  Br  Br12  1  0.487261  0.099552  0.306195  1
  Br  Br13  1  0.512739  0.693805  0.900448  1
  Br  Br14  1  0.512739  0.900448  0.693805  1
  Br  Br15  1  0.487261  0.306195  0.099552  1
  Br  Br16  1  0.500000  0.705151  0.294849  1
  Br  Br17  1  0.500000  0.294849  0.705151  1
  Br  Br18  1  0.212573  0.770645  0.770645  1
  Br  Br19  1  0.787427  0.229355  0.229355  1
  Br  Br20  1  0.819919  0.000837  0.606334  1
  Br  Br21  1  0.180081  0.393666  0.999163  1
  Nb  Nb22  1  0.366625  0.288515  0.455548  1
  Nb  Nb23  1  0.633375  0.544452  0.711485  1
  Nb  Nb24  1  0.633375  0.711485  0.544452  1
  Nb  Nb25  1  0.366625  0.455548  0.288515  1
  Nb  Nb26  1  0.377004  0.615451  0.615451  1
  Nb  Nb27  1  0.622996  0.384549  0.384549  1
