# generated using pymatgen
data_Ni5(PO4)4
_symmetry_space_group_name_H-M   'P 1'
_cell_length_a   7.90972185
_cell_length_b   8.16788429
_cell_length_c   5.05060568
_cell_angle_alpha   90.92715418
_cell_angle_beta   100.41886455
_cell_angle_gamma   111.22036515
_symmetry_Int_Tables_number   1
_chemical_formula_structural   Ni5(PO4)4
_chemical_formula_sum   'Ni5 P4 O16'
_cell_volume   297.96973855
_cell_formula_units_Z   1
loop_
 _symmetry_equiv_pos_site_id
 _symmetry_equiv_pos_as_xyz
  1  'x, y, z'
loop_
 _atom_site_type_symbol
 _atom_site_label
 _atom_site_symmetry_multiplicity
 _atom_site_fract_x
 _atom_site_fract_y
 _atom_site_fract_z
 _atom_site_occupancy
  Ni  Ni0  1  0.405168  0.673165  0.639450  1
  Ni  Ni1  1  0.594832  0.326835  0.360550  1
  Ni  Ni2  1  0.238383  0.764821  0.093790  1
  Ni  Ni3  1  -0.000000  -0.000000  -0.000000  1
  Ni  Ni4  1  0.761617  0.235179  0.906210  1
  P  P5  1  0.700168  0.973329  0.382263  1
  P  P6  1  0.209800  0.425277  0.140475  1
  P  P7  1  0.790200  0.574723  0.859525  1
  P  P8  1  0.299832  0.026671  0.617737  1
  O  O9  1  0.971407  0.737667  0.924644  1
  O  O10  1  0.028593  0.262333  0.075356  1
  O  O11  1  0.670080  0.130375  0.232261  1
  O  O12  1  0.754411  0.454267  0.098768  1
  O  O13  1  0.816799  0.437196  0.660027  1
  O  O14  1  0.371723  0.375381  0.255941  1
  O  O15  1  0.220658  0.968195  0.310386  1
  O  O16  1  0.245589  0.545733  0.901232  1
  O  O17  1  0.505629  0.822572  0.347736  1
  O  O18  1  0.826068  0.909926  0.250489  1
  O  O19  1  0.329920  0.869625  0.767739  1
  O  O20  1  0.628277  0.624619  0.744059  1
  O  O21  1  0.494371  0.177428  0.652264  1
  O  O22  1  0.183201  0.562804  0.339973  1
  O  O23  1  0.173932  0.090074  0.749511  1
  O  O24  1  0.779342  0.031805  0.689614  1
