# generated using pymatgen
data_V2Fe3(SiO4)3
_symmetry_space_group_name_H-M   'P 1'
_cell_length_a   10.30908343
_cell_length_b   10.30908342
_cell_length_c   10.30908343
_cell_angle_alpha   109.47122063
_cell_angle_beta   109.47122061
_cell_angle_gamma   109.47122064
_symmetry_Int_Tables_number   1
_chemical_formula_structural   V2Fe3(SiO4)3
_chemical_formula_sum   'V8 Fe12 Si12 O48'
_cell_volume   843.40907980
_cell_formula_units_Z   4
loop_
 _symmetry_equiv_pos_site_id
 _symmetry_equiv_pos_as_xyz
  1  'x, y, z'
loop_
 _atom_site_type_symbol
 _atom_site_label
 _atom_site_symmetry_multiplicity
 _atom_site_fract_x
 _atom_site_fract_y
 _atom_site_fract_z
 _atom_site_occupancy
  O  O0  1  0.711077  0.693405  0.088704  1
  O  O1  1  0.693405  0.104700  0.982328  1
  O  O2  1  0.622372  0.711077  0.517672  1
  O  O3  1  0.517672  0.622372  0.711077  1
  O  O4  1  0.088704  0.877628  0.395300  1
  O  O5  1  0.395300  0.088704  0.877628  1
  O  O6  1  0.104700  0.982328  0.693405  1
  O  O7  1  0.622372  0.411296  0.104700  1
  O  O8  1  0.517672  0.395300  0.806595  1
  O  O9  1  0.877628  0.982328  0.788923  1
  O  O10  1  0.411296  0.104700  0.622372  1
  O  O11  1  0.806595  0.517672  0.395300  1
  O  O12  1  0.982328  0.788923  0.877628  1
  O  O13  1  0.088704  0.711077  0.693405  1
  O  O14  1  0.693405  0.088704  0.711077  1
  O  O15  1  0.104700  0.622372  0.411296  1
  O  O16  1  0.806595  0.788923  0.411296  1
  O  O17  1  0.395300  0.806595  0.517672  1
  O  O18  1  0.411296  0.806595  0.788923  1
  O  O19  1  0.788923  0.877628  0.982328  1
  O  O20  1  0.788923  0.411296  0.806595  1
  O  O21  1  0.877628  0.395300  0.088704  1
  O  O22  1  0.982328  0.693405  0.104700  1
  O  O23  1  0.711077  0.517672  0.622372  1
  O  O24  1  0.288923  0.306595  0.911296  1
  O  O25  1  0.306595  0.895300  0.017672  1
  O  O26  1  0.377628  0.288923  0.482328  1
  O  O27  1  0.482328  0.377628  0.288923  1
  O  O28  1  0.911296  0.122372  0.604700  1
  O  O29  1  0.604700  0.911296  0.122372  1
  O  O30  1  0.895300  0.017672  0.306595  1
  O  O31  1  0.377628  0.588704  0.895300  1
  O  O32  1  0.482328  0.604700  0.193405  1
  O  O33  1  0.122372  0.017672  0.211077  1
  O  O34  1  0.588704  0.895300  0.377628  1
  O  O35  1  0.193405  0.482328  0.604700  1
  O  O36  1  0.017672  0.211077  0.122372  1
  O  O37  1  0.911296  0.288923  0.306595  1
  O  O38  1  0.306595  0.911296  0.288923  1
  O  O39  1  0.895300  0.377628  0.588704  1
  O  O40  1  0.193405  0.211077  0.588704  1
  O  O41  1  0.604700  0.193405  0.482328  1
  O  O42  1  0.588704  0.193405  0.211077  1
  O  O43  1  0.211077  0.122372  0.017672  1
  O  O44  1  0.211077  0.588704  0.193405  1
  O  O45  1  0.122372  0.604700  0.911296  1
  O  O46  1  0.017672  0.306595  0.895300  1
  O  O47  1  0.288923  0.482328  0.377628  1
  Si  Si48  1  0.250000  0.125000  0.875000  1
  Si  Si49  1  0.750000  0.875000  0.125000  1
  Si  Si50  1  0.375000  0.250000  0.625000  1
  Si  Si51  1  0.625000  0.375000  0.250000  1
  Si  Si52  1  0.125000  0.750000  0.875000  1
  Si  Si53  1  0.875000  0.125000  0.750000  1
  Si  Si54  1  0.750000  0.375000  0.625000  1
  Si  Si55  1  0.375000  0.625000  0.750000  1
  Si  Si56  1  0.125000  0.875000  0.250000  1
  Si  Si57  1  0.875000  0.250000  0.125000  1
  Si  Si58  1  0.625000  0.750000  0.375000  1
  Si  Si59  1  0.250000  0.625000  0.375000  1
  V  V60  1  0.500000  0.500000  0.500000  1
  V  V61  1  0.500000  0.500000  0.000000  1
  V  V62  1  0.500000  0.000000  0.500000  1
  V  V63  1  0.000000  0.500000  0.500000  1
  V  V64  1  0.500000  0.000000  0.000000  1
  V  V65  1  0.000000  0.000000  0.500000  1
  V  V66  1  0.000000  0.500000  0.000000  1
  V  V67  1  0.000000  0.000000  0.000000  1
  Fe  Fe68  1  0.250000  0.875000  0.625000  1
  Fe  Fe69  1  0.875000  0.625000  0.250000  1
  Fe  Fe70  1  0.625000  0.875000  0.750000  1
  Fe  Fe71  1  0.875000  0.750000  0.625000  1
  Fe  Fe72  1  0.625000  0.250000  0.875000  1
  Fe  Fe73  1  0.750000  0.625000  0.875000  1
  Fe  Fe74  1  0.750000  0.125000  0.375000  1
  Fe  Fe75  1  0.125000  0.375000  0.750000  1
  Fe  Fe76  1  0.375000  0.125000  0.250000  1
  Fe  Fe77  1  0.125000  0.250000  0.375000  1
  Fe  Fe78  1  0.375000  0.750000  0.125000  1
  Fe  Fe79  1  0.250000  0.375000  0.125000  1
