# generated using pymatgen
data_LaPO4
_symmetry_space_group_name_H-M   'P 1'
_cell_length_a   6.54211955
_cell_length_b   6.94181411
_cell_length_c   7.14851753
_cell_angle_alpha   90.00000000
_cell_angle_beta   90.00000000
_cell_angle_gamma   103.73704743
_symmetry_Int_Tables_number   1
_chemical_formula_structural   LaPO4
_chemical_formula_sum   'La4 P4 O16'
_cell_volume   315.35785561
_cell_formula_units_Z   4
loop_
 _symmetry_equiv_pos_site_id
 _symmetry_equiv_pos_as_xyz
  1  'x, y, z'
loop_
 _atom_site_type_symbol
 _atom_site_label
 _atom_site_symmetry_multiplicity
 _atom_site_fract_x
 _atom_site_fract_y
 _atom_site_fract_z
 _atom_site_occupancy
  O  O0  1  0.304093  0.970961  0.603525  1
  O  O1  1  0.195907  0.529039  0.103525  1
  O  O2  1  0.695907  0.029039  0.396475  1
  O  O3  1  0.804093  0.470961  0.896475  1
  O  O4  1  0.997860  0.881054  0.829370  1
  O  O5  1  0.502140  0.618946  0.329370  1
  O  O6  1  0.002140  0.118946  0.170630  1
  O  O7  1  0.497860  0.381054  0.670630  1
  O  O8  1  0.708400  0.128804  0.787054  1
  O  O9  1  0.791600  0.371196  0.287054  1
  O  O10  1  0.291600  0.871196  0.212946  1
  O  O11  1  0.208400  0.628804  0.712946  1
  O  O12  1  0.441455  0.249506  0.993449  1
  O  O13  1  0.058545  0.250494  0.493449  1
  O  O14  1  0.558545  0.750494  0.006551  1
  O  O15  1  0.941455  0.749506  0.506551  1
  P  P16  1  0.110886  0.804208  0.661988  1
  P  P17  1  0.389114  0.695792  0.161988  1
  P  P18  1  0.889114  0.195792  0.338012  1
  P  P19  1  0.610886  0.304208  0.838012  1
  La  La20  1  0.598850  0.785175  0.658859  1
  La  La21  1  0.901150  0.714825  0.158859  1
  La  La22  1  0.401150  0.214825  0.341141  1
  La  La23  1  0.098850  0.285175  0.841141  1
