# generated using pymatgen
data_Ga9Ir2
_symmetry_space_group_name_H-M   'P 1'
_cell_length_a   6.45253535
_cell_length_b   6.51341891
_cell_length_c   8.92349536
_cell_angle_alpha   93.22366863
_cell_angle_beta   90.00000000
_cell_angle_gamma   90.00000000
_symmetry_Int_Tables_number   1
_chemical_formula_structural   Ga9Ir2
_chemical_formula_sum   'Ga18 Ir4'
_cell_volume   374.44379796
_cell_formula_units_Z   2
loop_
 _symmetry_equiv_pos_site_id
 _symmetry_equiv_pos_as_xyz
  1  'x, y, z'
loop_
 _atom_site_type_symbol
 _atom_site_label
 _atom_site_symmetry_multiplicity
 _atom_site_fract_x
 _atom_site_fract_y
 _atom_site_fract_z
 _atom_site_occupancy
  Ga  Ga0  1  0.740632  0.969572  0.471928  1
  Ga  Ga1  1  0.259368  0.969572  0.971928  1
  Ga  Ga2  1  0.659343  0.785161  0.962005  1
  Ga  Ga3  1  0.340657  0.785161  0.462005  1
  Ga  Ga4  1  0.760536  0.400344  0.772971  1
  Ga  Ga5  1  0.239464  0.400344  0.272971  1
  Ga  Ga6  1  0.738309  0.602497  0.234264  1
  Ga  Ga7  1  0.261691  0.602497  0.734264  1
  Ga  Ga8  1  0.553638  0.387852  0.500034  1
  Ga  Ga9  1  0.446362  0.387852  0.000034  1
  Ga  Ga10  1  0.948666  0.599645  0.507754  1
  Ga  Ga11  1  0.051334  0.599645  0.007754  1
  Ga  Ga12  1  0.474984  0.107980  0.719229  1
  Ga  Ga13  1  0.525016  0.107980  0.219229  1
  Ga  Ga14  1  0.042799  0.907202  0.267765  1
  Ga  Ga15  1  0.957201  0.907202  0.767765  1
  Ga  Ga16  1  0.139285  0.199382  0.544033  1
  Ga  Ga17  1  0.860715  0.199382  0.044033  1
  Ir  Ir18  1  0.621999  0.740782  0.668809  1
  Ir  Ir19  1  0.378001  0.740782  0.168809  1
  Ir  Ir20  1  0.876230  0.262431  0.332838  1
  Ir  Ir21  1  0.123770  0.262431  0.832838  1
