# generated using pymatgen
data_HfF4
_symmetry_space_group_name_H-M   'P 1'
_cell_length_a   7.72134714
_cell_length_b   7.72809427
_cell_length_c   7.72809427
_cell_angle_alpha   80.16253944
_cell_angle_beta   63.34202652
_cell_angle_gamma   63.34202655
_symmetry_Int_Tables_number   1
_chemical_formula_structural   HfF4
_chemical_formula_sum   'Hf6 F24'
_cell_volume   368.04961786
_cell_formula_units_Z   6
loop_
 _symmetry_equiv_pos_site_id
 _symmetry_equiv_pos_as_xyz
  1  'x, y, z'
loop_
 _atom_site_type_symbol
 _atom_site_label
 _atom_site_symmetry_multiplicity
 _atom_site_fract_x
 _atom_site_fract_y
 _atom_site_fract_z
 _atom_site_occupancy
  F  F0  1  0.393404  0.682943  0.741552  1
  F  F1  1  0.106596  0.258448  0.317057  1
  F  F2  1  0.606596  0.317057  0.258448  1
  F  F3  1  0.893404  0.741552  0.682943  1
  F  F4  1  0.575810  0.184383  0.597873  1
  F  F5  1  0.924190  0.402127  0.815617  1
  F  F6  1  0.750000  0.393601  0.606399  1
  F  F7  1  0.250000  0.606399  0.393601  1
  F  F8  1  0.717332  0.738816  0.497535  1
  F  F9  1  0.782668  0.502465  0.261184  1
  F  F10  1  0.282668  0.261184  0.502465  1
  F  F11  1  0.217332  0.497535  0.738816  1
  F  F12  1  0.850027  0.970014  0.276333  1
  F  F13  1  0.649973  0.723667  0.029986  1
  F  F14  1  0.149973  0.029986  0.723667  1
  F  F15  1  0.350027  0.276333  0.970014  1
  F  F16  1  0.000000  0.000000  0.500000  1
  F  F17  1  0.500000  0.500000  0.000000  1
  F  F18  1  0.955816  0.827469  0.937387  1
  F  F19  1  0.544184  0.062613  0.172531  1
  F  F20  1  0.044184  0.172531  0.062613  1
  F  F21  1  0.455816  0.937387  0.827469  1
  F  F22  1  0.075810  0.597873  0.184383  1
  F  F23  1  0.424190  0.815617  0.402127  1
  Hf  Hf24  1  0.250000  0.214127  0.785873  1
  Hf  Hf25  1  0.750000  0.785873  0.214127  1
  Hf  Hf26  1  0.166830  0.776481  0.634045  1
  Hf  Hf27  1  0.333170  0.365955  0.223519  1
  Hf  Hf28  1  0.833170  0.223519  0.365955  1
  Hf  Hf29  1  0.666830  0.634045  0.776481  1
