# generated using pymatgen
data_BaMn3O6
_symmetry_space_group_name_H-M   'P 1'
_cell_length_a   4.05608979
_cell_length_b   5.78279142
_cell_length_c   10.82206675
_cell_angle_alpha   97.87344686
_cell_angle_beta   100.80299345
_cell_angle_gamma   90.00005776
_symmetry_Int_Tables_number   1
_chemical_formula_structural   BaMn3O6
_chemical_formula_sum   'Ba2 Mn6 O12'
_cell_volume   246.90206422
_cell_formula_units_Z   2
loop_
 _symmetry_equiv_pos_site_id
 _symmetry_equiv_pos_as_xyz
  1  'x, y, z'
loop_
 _atom_site_type_symbol
 _atom_site_label
 _atom_site_symmetry_multiplicity
 _atom_site_fract_x
 _atom_site_fract_y
 _atom_site_fract_z
 _atom_site_occupancy
  O  O0  1  0.500002  0.000008  1.000003  1
  O  O1  1  0.500001  0.500004  1.000003  1
  O  O2  1  0.644961  0.574547  0.289940  1
  O  O3  1  0.355039  0.425450  0.710059  1
  O  O4  1  0.643800  0.065053  0.287616  1
  O  O5  1  0.356200  0.934942  0.712384  1
  O  O6  1  0.064001  0.781215  0.128075  1
  O  O7  1  0.935997  0.218791  0.871922  1
  O  O8  1  0.226795  0.361237  0.453591  1
  O  O9  1  0.773204  0.638754  0.546406  1
  O  O10  1  0.770793  0.135135  0.541574  1
  O  O11  1  0.229206  0.864858  0.458426  1
  Mn  Mn12  1  0.563295  0.782218  0.126466  1
  Mn  Mn13  1  0.436705  0.217791  0.873536  1
  Mn  Mn14  1  0.706103  0.852615  0.412294  1
  Mn  Mn15  1  0.293896  0.147378  0.587705  1
  Mn  Mn16  1  0.294323  0.648223  0.588607  1
  Mn  Mn17  1  0.705675  0.351773  0.411391  1
  Ba  Ba18  1  0.067851  0.284366  0.135707  1
  Ba  Ba19  1  0.932149  0.715644  0.864296  1
