# generated using pymatgen
data_UMo5O16
_symmetry_space_group_name_H-M   'P 1'
_cell_length_a   4.12135391
_cell_length_b   7.36345106
_cell_length_c   10.06399969
_cell_angle_alpha   89.08194132
_cell_angle_beta   90.00000000
_cell_angle_gamma   90.00000000
_symmetry_Int_Tables_number   1
_chemical_formula_structural   UMo5O16
_chemical_formula_sum   'U1 Mo5 O16'
_cell_volume   305.37689613
_cell_formula_units_Z   1
loop_
 _symmetry_equiv_pos_site_id
 _symmetry_equiv_pos_as_xyz
  1  'x, y, z'
loop_
 _atom_site_type_symbol
 _atom_site_label
 _atom_site_symmetry_multiplicity
 _atom_site_fract_x
 _atom_site_fract_y
 _atom_site_fract_z
 _atom_site_occupancy
  U  U0  1  0.996203  0.000000  0.000000  1
  Mo  Mo1  1  0.078791  0.254000  0.679265  1
  Mo  Mo2  1  0.903435  0.500000  0.000000  1
  Mo  Mo3  1  0.078791  0.746000  0.320735  1
  Mo  Mo4  1  0.901818  0.758479  0.686599  1
  Mo  Mo5  1  0.901818  0.241521  0.313401  1
  O  O6  1  0.479788  0.759335  0.680253  1
  O  O7  1  0.501571  0.750099  0.315182  1
  O  O8  1  0.501571  0.249901  0.684818  1
  O  O9  1  0.998005  0.186591  0.507399  1
  O  O10  1  0.479788  0.240665  0.319747  1
  O  O11  1  0.982847  0.716179  0.878636  1
  O  O12  1  1.002447  0.500678  0.344620  1
  O  O13  1  0.994293  0.993613  0.243205  1
  O  O14  1  0.479359  0.500000  0.000000  1
  O  O15  1  0.982847  0.283821  0.121364  1
  O  O16  1  0.993817  0.713871  0.119739  1
  O  O17  1  0.998005  0.813409  0.492601  1
  O  O18  1  0.496351  0.000000  0.000000  1
  O  O19  1  0.993817  0.286129  0.880261  1
  O  O20  1  0.994293  0.006387  0.756795  1
  O  O21  1  1.002447  0.499322  0.655380  1
