# generated using pymatgen
data_BaTi4O9
_symmetry_space_group_name_H-M   'P 1'
_cell_length_a   3.81953797
_cell_length_b   6.39679212
_cell_length_c   14.71614312
_cell_angle_alpha   90.00000000
_cell_angle_beta   90.00000000
_cell_angle_gamma   90.00000000
_symmetry_Int_Tables_number   1
_chemical_formula_structural   BaTi4O9
_chemical_formula_sum   'Ba2 Ti8 O18'
_cell_volume   359.55644018
_cell_formula_units_Z   2
loop_
 _symmetry_equiv_pos_site_id
 _symmetry_equiv_pos_as_xyz
  1  'x, y, z'
loop_
 _atom_site_type_symbol
 _atom_site_label
 _atom_site_symmetry_multiplicity
 _atom_site_fract_x
 _atom_site_fract_y
 _atom_site_fract_z
 _atom_site_occupancy
  O  O0  1  0.750000  0.663328  0.750000  1
  O  O1  1  0.250000  0.336672  0.250000  1
  O  O2  1  0.750000  0.436959  0.596326  1
  O  O3  1  0.250000  0.563041  0.403674  1
  O  O4  1  0.750000  0.436959  0.903674  1
  O  O5  1  0.250000  0.563041  0.096326  1
  O  O6  1  0.750000  0.042357  0.650967  1
  O  O7  1  0.250000  0.957643  0.349033  1
  O  O8  1  0.750000  0.042357  0.849033  1
  O  O9  1  0.250000  0.957643  0.150967  1
  O  O10  1  0.250000  0.152546  0.510583  1
  O  O11  1  0.750000  0.847454  0.489417  1
  O  O12  1  0.250000  0.152546  0.989417  1
  O  O13  1  0.750000  0.847454  0.010583  1
  O  O14  1  0.250000  0.740462  0.599136  1
  O  O15  1  0.750000  0.259538  0.400864  1
  O  O16  1  0.250000  0.740462  0.900864  1
  O  O17  1  0.750000  0.259538  0.099136  1
  Ti  Ti18  1  0.750000  0.747867  0.628092  1
  Ti  Ti19  1  0.250000  0.252133  0.371908  1
  Ti  Ti20  1  0.750000  0.747867  0.871908  1
  Ti  Ti21  1  0.250000  0.252133  0.128092  1
  Ti  Ti22  1  0.750000  0.195068  0.538296  1
  Ti  Ti23  1  0.250000  0.804932  0.461704  1
  Ti  Ti24  1  0.750000  0.195068  0.961704  1
  Ti  Ti25  1  0.250000  0.804932  0.038296  1
  Ba  Ba26  1  0.250000  0.285484  0.750000  1
  Ba  Ba27  1  0.750000  0.714516  0.250000  1
