# generated using pymatgen
data_Mg2Ta3N5
_symmetry_space_group_name_H-M   'P 1'
_cell_length_a   6.19016450
_cell_length_b   15.47781314
_cell_length_c   5.35923202
_cell_angle_alpha   30.04512616
_cell_angle_beta   54.26684349
_cell_angle_gamma   59.63290938
_symmetry_Int_Tables_number   1
_chemical_formula_structural   Mg2Ta3N5
_chemical_formula_sum   'Mg4 Ta6 N10'
_cell_volume   208.68741580
_cell_formula_units_Z   2
loop_
 _symmetry_equiv_pos_site_id
 _symmetry_equiv_pos_as_xyz
  1  'x, y, z'
loop_
 _atom_site_type_symbol
 _atom_site_label
 _atom_site_symmetry_multiplicity
 _atom_site_fract_x
 _atom_site_fract_y
 _atom_site_fract_z
 _atom_site_occupancy
  Mg  Mg0  1  -0.000000  0.197824  0.005439  1
  Mg  Mg1  1  0.500000  0.402176  0.994561  1
  Mg  Mg2  1  0.000000  0.803028  0.992429  1
  Mg  Mg3  1  0.500000  0.796972  0.007571  1
  Ta  Ta4  1  0.000000  0.001336  0.996661  1
  Ta  Ta5  1  0.500000  0.005305  0.986737  1
  Ta  Ta6  1  -0.000000  0.392518  0.018706  1
  Ta  Ta7  1  0.500000  0.207482  0.981294  1
  Ta  Ta8  1  -0.000000  0.594695  0.013263  1
  Ta  Ta9  1  0.500000  0.598664  0.003339  1
  N  N10  1  0.250319  0.999567  0.505602  1
  N  N11  1  0.248199  0.201479  0.508555  1
  N  N12  1  0.749681  0.999567  0.496562  1
  N  N13  1  0.251801  0.398521  0.491445  1
  N  N14  1  0.751801  0.201479  0.484049  1
  N  N15  1  0.249681  0.600433  0.494398  1
  N  N16  1  0.748199  0.398521  0.515951  1
  N  N17  1  0.250000  0.800000  0.500000  1
  N  N18  1  0.750319  0.600433  0.503438  1
  N  N19  1  0.750000  0.800000  0.500000  1
