# generated using pymatgen
data_Ce2Se3
_symmetry_space_group_name_H-M   'P 1'
_cell_length_a   23.12068572
_cell_length_b   8.89457270
_cell_length_c   8.89457250
_cell_angle_alpha   90.00000061
_cell_angle_beta   54.75647385
_cell_angle_gamma   54.75647479
_symmetry_Int_Tables_number   1
_chemical_formula_structural   Ce2Se3
_chemical_formula_sum   'Ce16 Se24'
_cell_volume   1057.15102464
_cell_formula_units_Z   8
loop_
 _symmetry_equiv_pos_site_id
 _symmetry_equiv_pos_as_xyz
  1  'x, y, z'
loop_
 _atom_site_type_symbol
 _atom_site_label
 _atom_site_symmetry_multiplicity
 _atom_site_fract_x
 _atom_site_fract_y
 _atom_site_fract_z
 _atom_site_occupancy
  Ce  Ce0  1  0.083801  0.624299  0.374299  1
  Ce  Ce1  1  0.166667  0.250000  0.629934  1
  Ce  Ce2  1  0.249532  0.875701  0.125701  1
  Ce  Ce3  1  0.337061  0.378206  0.250258  1
  Ce  Ce4  1  0.166667  0.750000  0.870066  1
  Ce  Ce5  1  0.337061  0.110610  0.738557  1
  Ce  Ce6  1  0.496272  0.261443  0.621794  1
  Ce  Ce7  1  0.583801  0.874299  0.124299  1
  Ce  Ce8  1  0.666667  0.370066  0.250000  1
  Ce  Ce9  1  0.666667  0.129934  0.750000  1
  Ce  Ce10  1  0.496272  0.749742  0.889390  1
  Ce  Ce11  1  0.749532  0.625701  0.375701  1
  Ce  Ce12  1  0.837061  0.238557  0.610610  1
  Ce  Ce13  1  0.996272  0.389390  0.249742  1
  Ce  Ce14  1  0.837061  0.750258  0.878206  1
  Ce  Ce15  1  0.996272  0.121794  0.761443  1
  Se  Se16  1  0.123260  0.490827  0.994561  1
  Se  Se17  1  0.050735  0.347838  0.497699  1
  Se  Se18  1  0.282598  0.152162  0.149907  1
  Se  Se19  1  0.050735  -0.000046  0.350093  1
  Se  Se20  1  0.282598  0.500046  0.002301  1
  Se  Se21  1  0.123260  0.639393  0.635659  1
  Se  Se22  1  0.210073  0.009173  0.864341  1
  Se  Se23  1  0.210073  0.860607  0.505439  1
  Se  Se24  1  0.448668  0.497727  0.998669  1
  Se  Se25  1  0.384666  0.344670  0.502273  1
  Se  Se26  1  0.384666  0.001331  0.343728  1
  Se  Se27  1  0.623260  0.135659  0.139393  1
  Se  Se28  1  0.623260  0.494561  0.990827  1
  Se  Se29  1  0.448668  0.656272  0.655330  1
  Se  Se30  1  0.550735  0.997699  0.847838  1
  Se  Se31  1  0.550735  0.850093  0.499954  1
  Se  Se32  1  0.782598  0.502301  1.000046  1
  Se  Se33  1  0.710073  0.364341  0.509173  1
  Se  Se34  1  0.948668  0.155330  0.156272  1
  Se  Se35  1  0.710073  0.005439  0.360607  1
  Se  Se36  1  0.948668  0.498669  0.997727  1
  Se  Se37  1  0.884666  0.002273  0.844670  1
  Se  Se38  1  0.782598  0.649907  0.652162  1
  Se  Se39  1  0.884666  0.843728  0.501331  1
