# generated using pymatgen
data_Li2MnP2O7
_symmetry_space_group_name_H-M   'P 1'
_cell_length_a   6.66141494
_cell_length_b   10.51761104
_cell_length_c   9.36354986
_cell_angle_alpha   66.25435132
_cell_angle_beta   106.75598920
_cell_angle_gamma   91.42270560
_symmetry_Int_Tables_number   1
_chemical_formula_structural   Li2MnP2O7
_chemical_formula_sum   'Li8 Mn4 P8 O28'
_cell_volume   571.87079479
_cell_formula_units_Z   4
loop_
 _symmetry_equiv_pos_site_id
 _symmetry_equiv_pos_as_xyz
  1  'x, y, z'
loop_
 _atom_site_type_symbol
 _atom_site_label
 _atom_site_symmetry_multiplicity
 _atom_site_fract_x
 _atom_site_fract_y
 _atom_site_fract_z
 _atom_site_occupancy
  Li  Li0  1  0.602478  0.027466  0.512281  1
  Li  Li1  1  0.164815  0.963390  0.485414  1
  Li  Li2  1  0.044406  0.486490  0.199265  1
  Li  Li3  1  0.939336  0.501026  0.827326  1
  Li  Li4  1  0.163747  0.864482  0.108655  1
  Li  Li5  1  0.351891  0.622654  0.922699  1
  Li  Li6  1  0.631528  0.377835  0.078984  1
  Li  Li7  1  0.864258  0.119113  0.893447  1
  Mn  Mn8  1  0.358678  0.264595  0.501672  1
  Mn  Mn9  1  0.284368  0.217486  0.894680  1
  Mn  Mn10  1  0.629965  0.744651  0.490185  1
  Mn  Mn11  1  0.722749  0.785822  0.096317  1
  P  P12  1  0.309579  0.943759  0.798870  1
  P  P13  1  0.929730  0.800947  0.808152  1
  P  P14  1  0.077132  0.206149  0.179784  1
  P  P15  1  0.700553  0.057808  0.193363  1
  P  P16  1  0.443325  0.468375  0.710812  1
  P  P17  1  0.550908  0.537398  0.285148  1
  P  P18  1  0.865471  0.302711  0.543559  1
  P  P19  1  0.122336  0.699788  0.444482  1
  O  O20  1  0.097179  0.151093  0.055118  1
  O  O21  1  0.630232  0.961675  0.336855  1
  O  O22  1  0.931073  0.096754  0.280705  1
  O  O23  1  0.375037  0.038673  0.650519  1
  O  O24  1  0.280448  0.181195  0.316938  1
  O  O25  1  0.447320  0.804321  0.902365  1
  O  O26  1  0.534847  0.689264  0.271539  1
  O  O27  1  0.563118  0.197184  0.091487  1
  O  O28  1  0.025862  0.312604  0.452670  1
  O  O29  1  0.739297  0.992118  0.082447  1
  O  O30  1  0.958044  0.353791  0.093682  1
  O  O31  1  0.918096  0.857198  0.934420  1
  O  O32  1  0.722581  0.828044  0.674681  1
  O  O33  1  0.957742  0.697828  0.527932  1
  O  O34  1  0.626180  0.536618  0.143658  1
  O  O35  1  0.083287  0.903256  0.708712  1
  O  O36  1  0.369467  0.464801  0.854476  1
  O  O37  1  0.270501  0.011519  0.906969  1
  O  O38  1  0.641017  0.542693  0.699332  1
  O  O39  1  0.351077  0.465264  0.295321  1
  O  O40  1  0.733202  0.457894  0.455937  1
  O  O41  1  0.698193  0.201890  0.528302  1
  O  O42  1  0.259725  0.547810  0.541085  1
  O  O43  1  0.041091  0.651700  0.892342  1
  O  O44  1  0.964154  0.281049  0.723202  1
  O  O45  1  0.033755  0.710652  0.267779  1
  O  O46  1  0.280681  0.808076  0.453333  1
  O  O47  1  0.458388  0.318337  0.718914  1
