# generated using pymatgen
data_ErCoSn2
_symmetry_space_group_name_H-M   'P 1'
_cell_length_a   4.37733615
_cell_length_b   4.30133831
_cell_length_c   9.63964183
_cell_angle_alpha   102.89157318
_cell_angle_beta   90.00000000
_cell_angle_gamma   90.00000000
_symmetry_Int_Tables_number   1
_chemical_formula_structural   ErCoSn2
_chemical_formula_sum   'Er2 Co2 Sn4'
_cell_volume   176.92420550
_cell_formula_units_Z   2
loop_
 _symmetry_equiv_pos_site_id
 _symmetry_equiv_pos_as_xyz
  1  'x, y, z'
loop_
 _atom_site_type_symbol
 _atom_site_label
 _atom_site_symmetry_multiplicity
 _atom_site_fract_x
 _atom_site_fract_y
 _atom_site_fract_z
 _atom_site_occupancy
  Co  Co0  1  0.750000  0.323264  0.646529  1
  Co  Co1  1  0.250000  0.676736  0.353471  1
  Sn  Sn2  1  0.250000  0.250992  0.501985  1
  Sn  Sn3  1  0.750000  0.749008  0.498015  1
  Sn  Sn4  1  0.750000  0.452112  0.904224  1
  Sn  Sn5  1  0.250000  0.547888  0.095776  1
  Er  Er6  1  0.250000  0.882156  0.764312  1
  Er  Er7  1  0.750000  0.117844  0.235688  1
