# generated using pymatgen
data_Co5SbO8
_symmetry_space_group_name_H-M   'P 1'
_cell_length_a   6.15240701
_cell_length_b   6.01237477
_cell_length_c   6.01237518
_cell_angle_alpha   60.00000328
_cell_angle_beta   60.75010342
_cell_angle_gamma   60.75010329
_symmetry_Int_Tables_number   1
_chemical_formula_structural   Co5SbO8
_chemical_formula_sum   'Co5 Sb1 O8'
_cell_volume   159.02089554
_cell_formula_units_Z   1
loop_
 _symmetry_equiv_pos_site_id
 _symmetry_equiv_pos_as_xyz
  1  'x, y, z'
loop_
 _atom_site_type_symbol
 _atom_site_label
 _atom_site_symmetry_multiplicity
 _atom_site_fract_x
 _atom_site_fract_y
 _atom_site_fract_z
 _atom_site_occupancy
  Co  Co0  1  0.097909  0.134030  0.134030  1
  Co  Co1  1  0.500000  0.500000  0.500000  1
  Co  Co2  1  0.500000  0.500000  0.000000  1
  Co  Co3  1  0.500000  0.000000  0.500000  1
  Co  Co4  1  0.902091  0.865970  0.865970  1
  Sb  Sb5  1  0.000000  0.500000  0.500000  1
  O  O6  1  0.242691  0.265382  0.265382  1
  O  O7  1  0.242691  0.726546  0.265382  1
  O  O8  1  0.242691  0.265382  0.726546  1
  O  O9  1  0.704916  0.265028  0.265028  1
  O  O10  1  0.295084  0.734972  0.734972  1
  O  O11  1  0.757309  0.273454  0.734618  1
  O  O12  1  0.757309  0.734618  0.273454  1
  O  O13  1  0.757309  0.734618  0.734618  1
