# generated using pymatgen
data_Li3Mn2P5O16
_symmetry_space_group_name_H-M   'P 1'
_cell_length_a   18.33459660
_cell_length_b   7.08651731
_cell_length_c   5.10734218
_cell_angle_alpha   90.00000000
_cell_angle_beta   93.05275891
_cell_angle_gamma   90.00000000
_symmetry_Int_Tables_number   1
_chemical_formula_structural   Li3Mn2P5O16
_chemical_formula_sum   'Li6 Mn4 P10 O32'
_cell_volume   662.64729605
_cell_formula_units_Z   2
loop_
 _symmetry_equiv_pos_site_id
 _symmetry_equiv_pos_as_xyz
  1  'x, y, z'
loop_
 _atom_site_type_symbol
 _atom_site_label
 _atom_site_symmetry_multiplicity
 _atom_site_fract_x
 _atom_site_fract_y
 _atom_site_fract_z
 _atom_site_occupancy
  Li  Li0  1  0.035995  0.335477  0.256413  1
  Li  Li1  1  0.250000  0.978558  0.499999  1
  Li  Li2  1  0.464004  0.335477  0.743587  1
  Li  Li3  1  0.535995  0.664523  0.256412  1
  Li  Li4  1  0.750000  0.021442  0.500000  1
  Li  Li5  1  0.964005  0.664523  0.743588  1
  O  O6  1  0.297558  0.864009  0.821668  1
  O  O7  1  0.931440  0.389262  0.081831  1
  O  O8  1  0.928841  0.908155  0.947948  1
  O  O9  1  0.892544  0.448508  0.550385  1
  O  O10  1  0.022552  0.205971  0.604646  1
  O  O11  1  0.068560  0.610738  0.918168  1
  O  O12  1  0.071159  0.091845  0.052051  1
  O  O13  1  0.107456  0.551491  0.449615  1
  O  O14  1  0.133543  0.986208  0.627712  1
  O  O15  1  0.145267  0.316269  0.803546  1
  O  O16  1  0.204298  0.615870  0.810614  1
  O  O17  1  0.202442  0.864009  0.178332  1
  O  O18  1  0.977448  0.794030  0.395353  1
  O  O19  1  0.295702  0.615870  0.189386  1
  O  O20  1  0.354733  0.316269  0.196454  1
  O  O21  1  0.366458  0.986208  0.372289  1
  O  O22  1  0.392544  0.551491  0.550384  1
  O  O23  1  0.428840  0.091845  0.947949  1
  O  O24  1  0.431439  0.610738  0.081832  1
  O  O25  1  0.477448  0.205971  0.395355  1
  O  O26  1  0.866458  0.013793  0.372287  1
  O  O27  1  0.568560  0.389262  0.918169  1
  O  O28  1  0.571159  0.908155  0.052052  1
  O  O29  1  0.607456  0.448508  0.449615  1
  O  O30  1  0.633542  0.013793  0.627713  1
  O  O31  1  0.645267  0.683732  0.803547  1
  O  O32  1  0.704298  0.384130  0.810613  1
  O  O33  1  0.702442  0.135992  0.178333  1
  O  O34  1  0.797558  0.135992  0.821667  1
  O  O35  1  0.795702  0.384130  0.189387  1
  O  O36  1  0.854733  0.683732  0.196453  1
  O  O37  1  0.522552  0.794030  0.604646  1
  P  P38  1  0.910485  0.866280  0.230631  1
  P  P39  1  0.875270  0.469238  0.259159  1
  P  P40  1  0.750000  0.244077  0.000000  1
  P  P41  1  0.624730  0.469238  0.740841  1
  P  P42  1  0.089515  0.133720  0.769369  1
  P  P43  1  0.124730  0.530763  0.740842  1
  P  P44  1  0.250000  0.755922  0.999999  1
  P  P45  1  0.589515  0.866280  0.769369  1
  P  P46  1  0.410485  0.133720  0.230632  1
  P  P47  1  0.375270  0.530763  0.259159  1
  Mn  Mn48  1  0.087229  0.832323  0.268574  1
  Mn  Mn49  1  0.412770  0.832323  0.731424  1
  Mn  Mn50  1  0.587229  0.167676  0.268575  1
  Mn  Mn51  1  0.912771  0.167676  0.731425  1
