# generated using pymatgen
data_KNO3
_symmetry_space_group_name_H-M   'P 1'
_cell_length_a   4.64108982
_cell_length_b   9.20031959
_cell_length_c   7.40743245
_cell_angle_alpha   36.37741267
_cell_angle_beta   67.01665259
_cell_angle_gamma   71.67703072
_symmetry_Int_Tables_number   1
_chemical_formula_structural   KNO3
_chemical_formula_sum   'K2 N2 O6'
_cell_volume   172.70275815
_cell_formula_units_Z   2
loop_
 _symmetry_equiv_pos_site_id
 _symmetry_equiv_pos_as_xyz
  1  'x, y, z'
loop_
 _atom_site_type_symbol
 _atom_site_label
 _atom_site_symmetry_multiplicity
 _atom_site_fract_x
 _atom_site_fract_y
 _atom_site_fract_z
 _atom_site_occupancy
  K  K0  1  0.541671  0.000000  0.485898  1
  K  K1  1  0.458329  0.500000  0.514102  1
  N  N2  1  0.044615  1.000000  0.022374  1
  N  N3  1  0.955385  0.500000  0.977626  1
  O  O4  1  0.097339  0.298504  0.120566  1
  O  O5  1  0.097339  0.701496  0.717574  1
  O  O6  1  0.667578  0.500000  0.092288  1
  O  O7  1  0.332422  0.000000  0.907712  1
  O  O8  1  0.902661  0.201496  0.879434  1
  O  O9  1  0.902661  0.798504  0.282426  1
