# generated using pymatgen
data_BeI2
_symmetry_space_group_name_H-M   'P 1'
_cell_length_a   12.99428250
_cell_length_b   12.99428250
_cell_length_c   14.09856414
_cell_angle_alpha   117.44113646
_cell_angle_beta   117.44113651
_cell_angle_gamma   90.00000002
_symmetry_Int_Tables_number   1
_chemical_formula_structural   BeI2
_chemical_formula_sum   'Be16 I32'
_cell_volume   1805.55599157
_cell_formula_units_Z   16
loop_
 _symmetry_equiv_pos_site_id
 _symmetry_equiv_pos_as_xyz
  1  'x, y, z'
loop_
 _atom_site_type_symbol
 _atom_site_label
 _atom_site_symmetry_multiplicity
 _atom_site_fract_x
 _atom_site_fract_y
 _atom_site_fract_z
 _atom_site_occupancy
  Be  Be0  1  0.607958  0.562211  0.376593  1
  Be  Be1  1  0.314382  0.607958  0.876593  1
  Be  Be2  1  0.562211  0.768635  0.876593  1
  Be  Be3  1  0.731365  0.937789  0.623407  1
  Be  Be4  1  0.892042  0.185618  0.623407  1
  Be  Be5  1  0.185618  0.731365  0.123407  1
  Be  Be6  1  0.937789  0.892042  0.123407  1
  Be  Be7  1  0.768635  0.314382  0.376593  1
  Be  Be8  1  0.392042  0.437789  0.623407  1
  Be  Be9  1  0.685618  0.392042  0.123407  1
  Be  Be10  1  0.437789  0.231365  0.123407  1
  Be  Be11  1  0.268635  0.062211  0.376593  1
  Be  Be12  1  0.107958  0.814382  0.376593  1
  Be  Be13  1  0.814382  0.268635  0.876593  1
  Be  Be14  1  0.062211  0.107958  0.876593  1
  Be  Be15  1  0.231365  0.685618  0.623407  1
  I  I16  1  0.666712  0.588423  0.248030  1
  I  I17  1  0.159607  0.666712  0.748030  1
  I  I18  1  0.588423  0.581318  0.748030  1
  I  I19  1  0.918682  0.911577  0.751970  1
  I  I20  1  0.833288  0.340393  0.751970  1
  I  I21  1  0.340393  0.918682  0.251970  1
  I  I22  1  0.911577  0.833288  0.251970  1
  I  I23  1  0.581318  0.159607  0.248030  1
  I  I24  1  0.333288  0.411577  0.751970  1
  I  I25  1  0.840393  0.333288  0.251970  1
  I  I26  1  0.411577  0.418682  0.251970  1
  I  I27  1  0.081318  0.088423  0.248030  1
  I  I28  1  0.166712  0.659607  0.248030  1
  I  I29  1  0.659607  0.081318  0.748030  1
  I  I30  1  0.088423  0.166712  0.748030  1
  I  I31  1  0.418682  0.840393  0.751970  1
  I  I32  1  0.757730  0.507730  0.515459  1
  I  I33  1  0.507730  0.757730  0.015459  1
  I  I34  1  0.742270  0.992270  0.484541  1
  I  I35  1  0.992270  0.742270  0.984541  1
  I  I36  1  0.242270  0.492270  0.484541  1
  I  I37  1  0.492270  0.242270  0.984541  1
  I  I38  1  0.257730  0.007730  0.515459  1
  I  I39  1  0.007730  0.257730  0.015459  1
  I  I40  1  0.572788  0.750000  0.500000  1
  I  I41  1  0.250000  0.572788  0.000000  1
  I  I42  1  0.750000  0.927212  0.000000  1
  I  I43  1  0.927212  0.250000  0.500000  1
  I  I44  1  0.427212  0.250000  0.500000  1
  I  I45  1  0.750000  0.427212  0.000000  1
  I  I46  1  0.250000  0.072788  0.000000  1
  I  I47  1  0.072788  0.750000  0.500000  1
