# generated using pymatgen
data_Tb2CdS4
_symmetry_space_group_name_H-M   'P 1'
_cell_length_a   7.30690208
_cell_length_b   7.30690247
_cell_length_c   7.30690189
_cell_angle_alpha   110.44193039
_cell_angle_beta   110.44193683
_cell_angle_gamma   107.54676674
_symmetry_Int_Tables_number   1
_chemical_formula_structural   Tb2CdS4
_chemical_formula_sum   'Tb4 Cd2 S8'
_cell_volume   300.06261285
_cell_formula_units_Z   2
loop_
 _symmetry_equiv_pos_site_id
 _symmetry_equiv_pos_as_xyz
  1  'x, y, z'
loop_
 _atom_site_type_symbol
 _atom_site_label
 _atom_site_symmetry_multiplicity
 _atom_site_fract_x
 _atom_site_fract_y
 _atom_site_fract_z
 _atom_site_occupancy
  Cd  Cd0  1  0.625000  0.375000  0.250000  1
  Cd  Cd1  1  0.875000  0.125000  0.750000  1
  S  S2  1  0.010112  0.885821  0.510866  1
  S  S3  1  0.489888  0.000754  0.875710  1
  S  S4  1  0.500754  0.989888  0.375710  1
  S  S5  1  0.114179  0.125044  0.124290  1
  S  S6  1  0.385821  0.510112  0.010866  1
  S  S7  1  0.625044  0.614179  0.624290  1
  S  S8  1  0.874956  0.499246  0.989134  1
  S  S9  1  0.999246  0.374956  0.489134  1
  Tb  Tb10  1  0.109571  0.750000  0.859571  1
  Tb  Tb11  1  0.250000  0.609571  0.359571  1
  Tb  Tb12  1  0.390429  0.250000  0.640429  1
  Tb  Tb13  1  0.750000  0.890429  0.140429  1
