# generated using pymatgen
data_Nb2SnO6
_symmetry_space_group_name_H-M   'P 1'
_cell_length_a   4.97547864
_cell_length_b   5.69899031
_cell_length_c   9.08607511
_cell_angle_alpha   91.77392287
_cell_angle_beta   105.89033086
_cell_angle_gamma   89.99999997
_symmetry_Int_Tables_number   1
_chemical_formula_structural   Nb2SnO6
_chemical_formula_sum   'Nb4 Sn2 O12'
_cell_volume   247.66417213
_cell_formula_units_Z   2
loop_
 _symmetry_equiv_pos_site_id
 _symmetry_equiv_pos_as_xyz
  1  'x, y, z'
loop_
 _atom_site_type_symbol
 _atom_site_label
 _atom_site_symmetry_multiplicity
 _atom_site_fract_x
 _atom_site_fract_y
 _atom_site_fract_z
 _atom_site_occupancy
  O  O0  1  0.722629  0.146024  0.561495  1
  O  O1  1  0.161135  0.353977  0.438505  1
  O  O2  1  0.277371  0.853976  0.438505  1
  O  O3  1  0.838865  0.646023  0.561495  1
  O  O4  1  0.606457  0.421165  0.284782  1
  O  O5  1  0.321677  0.078834  0.715218  1
  O  O6  1  0.991813  0.592828  0.145260  1
  O  O7  1  0.846551  0.907173  0.854740  1
  O  O8  1  0.008187  0.407172  0.854740  1
  O  O9  1  0.393543  0.578835  0.715219  1
  O  O10  1  0.678323  0.921165  0.284782  1
  O  O11  1  0.153449  0.092827  0.145260  1
  Nb  Nb12  1  0.413538  0.167795  0.340400  1
  Nb  Nb13  1  0.073138  0.332206  0.659599  1
  Nb  Nb14  1  0.586462  0.832207  0.659599  1
  Nb  Nb15  1  0.926862  0.667794  0.340400  1
  Sn  Sn16  1  0.774663  0.249999  1.000000  1
  Sn  Sn17  1  0.225338  0.750000  0.000000  1
