# generated using pymatgen
data_Ba(CeS2)2
_symmetry_space_group_name_H-M   'P 1'
_cell_length_a   7.67219645
_cell_length_b   7.67219679
_cell_length_c   7.67219697
_cell_angle_alpha   109.33211851
_cell_angle_beta   109.33211144
_cell_angle_gamma   109.74978706
_symmetry_Int_Tables_number   1
_chemical_formula_structural   Ba(CeS2)2
_chemical_formula_sum   'Ba2 Ce4 S8'
_cell_volume   347.63990445
_cell_formula_units_Z   2
loop_
 _symmetry_equiv_pos_site_id
 _symmetry_equiv_pos_as_xyz
  1  'x, y, z'
loop_
 _atom_site_type_symbol
 _atom_site_label
 _atom_site_symmetry_multiplicity
 _atom_site_fract_x
 _atom_site_fract_y
 _atom_site_fract_z
 _atom_site_occupancy
  Ba  Ba0  1  0.625000  0.375000  0.250000  1
  Ba  Ba1  1  0.875000  0.125000  0.750000  1
  Ce  Ce2  1  0.127048  0.750000  0.877048  1
  Ce  Ce3  1  0.250000  0.627048  0.377048  1
  Ce  Ce4  1  0.372952  0.250000  0.622952  1
  Ce  Ce5  1  0.750000  0.872952  0.122952  1
  S  S6  1  0.018034  0.857306  0.495481  1
  S  S7  1  0.022553  0.361825  0.504519  1
  S  S8  1  0.142694  0.138175  0.160728  1
  S  S9  1  0.357307  0.518034  0.995481  1
  S  S10  1  0.481966  0.977447  0.839272  1
  S  S11  1  0.638175  0.642694  0.660728  1
  S  S12  1  0.477447  0.981966  0.339272  1
  S  S13  1  0.861825  0.522553  0.004519  1
