# generated using pymatgen
data_Ca3La5Mn7NiO24
_symmetry_space_group_name_H-M   'P 1'
_cell_length_a   11.01796199
_cell_length_b   5.49547789
_cell_length_c   7.77050551
_cell_angle_alpha   89.94178916
_cell_angle_beta   89.94905865
_cell_angle_gamma   89.77619938
_symmetry_Int_Tables_number   1
_chemical_formula_structural   Ca3La5Mn7NiO24
_chemical_formula_sum   'Ca3 La5 Mn7 Ni1 O24'
_cell_volume   470.49206157
_cell_formula_units_Z   1
loop_
 _symmetry_equiv_pos_site_id
 _symmetry_equiv_pos_as_xyz
  1  'x, y, z'
loop_
 _atom_site_type_symbol
 _atom_site_label
 _atom_site_symmetry_multiplicity
 _atom_site_fract_x
 _atom_site_fract_y
 _atom_site_fract_z
 _atom_site_occupancy
  Ca  Ca0  1  0.267425  0.511440  0.248647  1
  Ca  Ca1  1  0.484756  0.008737  0.750454  1
  Ca  Ca2  1  0.730692  0.486707  0.750635  1
  La  La3  1  0.016728  0.993152  0.246845  1
  La  La4  1  0.239553  0.494599  0.753700  1
  La  La5  1  0.508665  0.996455  0.249198  1
  La  La6  1  0.763233  0.505998  0.246998  1
  La  La7  1  0.985086  0.005868  0.753404  1
  Mn  Mn8  1  0.252750  0.000174  0.497477  1
  Mn  Mn9  1  0.251970  0.998358  0.000724  1
  Mn  Mn10  1  0.500147  0.500030  0.504485  1
  Mn  Mn11  1  0.500507  0.499655  0.995907  1
  Mn  Mn12  1  0.746941  -0.000037  0.506500  1
  Mn  Mn13  1  0.747888  0.001623  0.995285  1
  Mn  Mn14  1  0.000587  0.500049  0.499826  1
  Ni  Ni15  1  0.000044  0.500359  0.999634  1
  O  O16  1  0.013242  0.572008  0.742039  1
  O  O17  1  0.116300  0.213946  0.959355  1
  O  O18  1  0.111968  0.223032  0.539332  1
  O  O19  1  0.138958  0.725453  0.457507  1
  O  O20  1  0.145034  0.732016  0.042027  1
  O  O21  1  0.247243  0.080761  0.248931  1
  O  O22  1  0.257644  0.932415  0.750122  1
  O  O23  1  0.363955  0.271965  0.963205  1
  O  O24  1  0.364707  0.276657  0.537924  1
  O  O25  1  0.385690  0.775416  0.461617  1
  O  O26  1  0.388448  0.772712  0.037095  1
  O  O27  1  0.496682  0.435864  0.248460  1
  O  O28  1  0.504665  0.577431  0.751607  1
  O  O29  1  0.611509  0.220848  0.539744  1
  O  O30  1  0.608715  0.220651  0.960548  1
  O  O31  1  0.636643  0.725141  0.459445  1
  O  O32  1  0.636842  0.726740  0.039662  1
  O  O33  1  0.740043  0.067894  0.250087  1
  O  O34  1  0.758690  0.915348  0.751319  1
  O  O35  1  0.854058  0.269425  0.957798  1
  O  O36  1  0.860123  0.272271  0.542461  1
  O  O37  1  0.889037  0.775186  0.459910  1
  O  O38  1  0.884056  0.787262  0.042506  1
  O  O39  1  0.988775  0.426389  0.257577  1
