# generated using pymatgen
data_Tb5Br8
_symmetry_space_group_name_H-M   'P 1'
_cell_length_a   3.94262092
_cell_length_b   10.36540691
_cell_length_c   10.76658906
_cell_angle_alpha   83.84709121
_cell_angle_beta   79.44990304
_cell_angle_gamma   79.03661320
_symmetry_Int_Tables_number   1
_chemical_formula_structural   Tb5Br8
_chemical_formula_sum   'Tb5 Br8'
_cell_volume   423.46886323
_cell_formula_units_Z   1
loop_
 _symmetry_equiv_pos_site_id
 _symmetry_equiv_pos_as_xyz
  1  'x, y, z'
loop_
 _atom_site_type_symbol
 _atom_site_label
 _atom_site_symmetry_multiplicity
 _atom_site_fract_x
 _atom_site_fract_y
 _atom_site_fract_z
 _atom_site_occupancy
  Br  Br0  1  0.032436  0.165580  0.769548  1
  Br  Br1  1  0.967564  0.834420  0.230452  1
  Br  Br2  1  0.703053  0.168253  0.425642  1
  Br  Br3  1  0.296947  0.831747  0.574358  1
  Br  Br4  1  0.366732  0.164095  0.102441  1
  Br  Br5  1  0.327382  0.513582  0.831655  1
  Br  Br6  1  0.672618  0.486418  0.168345  1
  Br  Br7  1  0.633268  0.835905  0.897559  1
  Tb  Tb8  1  0.141187  0.370029  0.347597  1
  Tb  Tb9  1  0.858813  0.629971  0.652403  1
  Tb  Tb10  1  0.485497  0.652432  0.376575  1
  Tb  Tb11  1  0.514503  0.347568  0.623425  1
  Tb  Tb12  1  0.000000  0.000000  0.000000  1
