# generated using pymatgen
data_Sr2Al6O11
_symmetry_space_group_name_H-M   'P 1'
_cell_length_a   4.93206314
_cell_length_b   8.49226736
_cell_length_c   22.17484385
_cell_angle_alpha   90.00000000
_cell_angle_beta   90.00000000
_cell_angle_gamma   90.00000000
_symmetry_Int_Tables_number   1
_chemical_formula_structural   Sr2Al6O11
_chemical_formula_sum   'Sr8 Al24 O44'
_cell_volume   928.78000361
_cell_formula_units_Z   4
loop_
 _symmetry_equiv_pos_site_id
 _symmetry_equiv_pos_as_xyz
  1  'x, y, z'
loop_
 _atom_site_type_symbol
 _atom_site_label
 _atom_site_symmetry_multiplicity
 _atom_site_fract_x
 _atom_site_fract_y
 _atom_site_fract_z
 _atom_site_occupancy
  O  O0  1  0.470165  0.739046  0.215937  1
  O  O1  1  0.970165  0.760954  0.284063  1
  O  O2  1  0.529835  0.739046  0.784063  1
  O  O3  1  0.029835  0.760954  0.715937  1
  O  O4  1  0.529835  0.260954  0.784063  1
  O  O5  1  0.029835  0.239046  0.715937  1
  O  O6  1  0.470165  0.260954  0.215937  1
  O  O7  1  0.970165  0.239046  0.284063  1
  O  O8  1  0.152164  0.337044  0.548367  1
  O  O9  1  0.652164  0.162956  0.951633  1
  O  O10  1  0.847836  0.337044  0.451633  1
  O  O11  1  0.347836  0.162956  0.048367  1
  O  O12  1  0.847836  0.662956  0.451633  1
  O  O13  1  0.347836  0.837044  0.048367  1
  O  O14  1  0.152164  0.662956  0.548367  1
  O  O15  1  0.652164  0.837044  0.951633  1
  O  O16  1  0.670952  0.500000  0.955175  1
  O  O17  1  0.170952  0.000000  0.544825  1
  O  O18  1  0.178098  0.657895  0.951681  1
  O  O19  1  0.329048  0.500000  0.044825  1
  O  O20  1  0.993305  0.818391  0.153434  1
  O  O21  1  0.493305  0.681609  0.346566  1
  O  O22  1  0.006695  0.818391  0.846566  1
  O  O23  1  0.506695  0.681609  0.653434  1
  O  O24  1  0.006695  0.181609  0.846566  1
  O  O25  1  0.506695  0.318391  0.653434  1
  O  O26  1  0.993305  0.181609  0.153434  1
  O  O27  1  0.493305  0.318391  0.346566  1
  O  O28  1  0.821902  0.342105  0.048319  1
  O  O29  1  0.321902  0.157895  0.451681  1
  O  O30  1  0.178098  0.342105  0.951681  1
  O  O31  1  0.678098  0.157895  0.548319  1
  O  O32  1  0.824833  0.000000  0.056122  1
  O  O33  1  0.324833  0.500000  0.443878  1
  O  O34  1  0.175167  0.000000  0.943878  1
  O  O35  1  0.675167  0.500000  0.556122  1
  O  O36  1  0.560299  0.000000  0.297728  1
  O  O37  1  0.060299  0.500000  0.202272  1
  O  O38  1  0.439701  0.000000  0.702272  1
  O  O39  1  0.939701  0.500000  0.797728  1
  O  O40  1  0.321902  0.842105  0.451681  1
  O  O41  1  0.821902  0.657895  0.048319  1
  O  O42  1  0.678098  0.842105  0.548319  1
  O  O43  1  0.829048  0.000000  0.455175  1
  Al  Al44  1  0.507040  0.679020  0.425725  1
  Al  Al45  1  0.007040  0.820980  0.074275  1
  Al  Al46  1  0.492960  0.679020  0.574275  1
  Al  Al47  1  0.992960  0.820980  0.925725  1
  Al  Al48  1  0.492960  0.320980  0.574275  1
  Al  Al49  1  0.992960  0.179020  0.925725  1
  Al  Al50  1  0.507040  0.320980  0.425725  1
  Al  Al51  1  0.007040  0.179020  0.074275  1
  Al  Al52  1  0.614715  0.794807  0.286253  1
  Al  Al53  1  0.114715  0.705193  0.213747  1
  Al  Al54  1  0.385285  0.794807  0.713746  1
  Al  Al55  1  0.885285  0.705193  0.786254  1
  Al  Al56  1  0.385285  0.205193  0.713746  1
  Al  Al57  1  0.885285  0.294807  0.786254  1
  Al  Al58  1  0.614715  0.205193  0.286253  1
  Al  Al59  1  0.114715  0.294807  0.213747  1
  Al  Al60  1  0.000000  0.166906  0.500000  1
  Al  Al61  1  0.500000  0.333094  0.000000  1
  Al  Al62  1  0.000000  0.833094  0.500000  1
  Al  Al63  1  0.500000  0.666906  0.000000  1
  Al  Al64  1  0.000000  0.500000  0.500000  1
  Al  Al65  1  0.500000  0.000000  0.000000  1
  Al  Al66  1  0.500000  0.000000  0.500000  1
  Al  Al67  1  0.000000  0.500000  0.000000  1
  Sr  Sr68  1  0.960879  0.500000  0.654556  1
  Sr  Sr69  1  0.460879  0.000000  0.845444  1
  Sr  Sr70  1  0.039121  0.500000  0.345444  1
  Sr  Sr71  1  0.539121  0.000000  0.154556  1
  Sr  Sr72  1  0.384601  0.500000  0.861772  1
  Sr  Sr73  1  0.884601  0.000000  0.638228  1
  Sr  Sr74  1  0.615399  0.500000  0.138228  1
  Sr  Sr75  1  0.115399  0.000000  0.361772  1
