# generated using pymatgen
data_Rb3B7O12
_symmetry_space_group_name_H-M   'P 1'
_cell_length_a   6.68190265
_cell_length_b   6.71587817
_cell_length_c   30.62288057
_cell_angle_alpha   91.10224015
_cell_angle_beta   91.75308472
_cell_angle_gamma   119.06726658
_symmetry_Int_Tables_number   1
_chemical_formula_structural   Rb3B7O12
_chemical_formula_sum   'Rb12 B28 O48'
_cell_volume   1199.63975366
_cell_formula_units_Z   4
loop_
 _symmetry_equiv_pos_site_id
 _symmetry_equiv_pos_as_xyz
  1  'x, y, z'
loop_
 _atom_site_type_symbol
 _atom_site_label
 _atom_site_symmetry_multiplicity
 _atom_site_fract_x
 _atom_site_fract_y
 _atom_site_fract_z
 _atom_site_occupancy
  B  B0  1  0.611825  0.798395  0.652829  1
  B  B1  1  0.388175  0.201605  0.347171  1
  B  B2  1  0.949661  0.154418  0.748425  1
  B  B3  1  0.050339  0.845582  0.251575  1
  B  B4  1  0.630797  0.750684  0.739123  1
  B  B5  1  0.369203  0.249316  0.260877  1
  B  B6  1  0.551766  0.080592  0.738713  1
  B  B7  1  0.448234  0.919408  0.261287  1
  B  B8  1  0.228970  0.064930  0.419131  1
  B  B9  1  0.771030  0.935070  0.580869  1
  B  B10  1  0.824632  0.619196  0.094485  1
  B  B11  1  0.175368  0.380804  0.905515  1
  B  B12  1  0.055917  0.327712  0.428560  1
  B  B13  1  0.944083  0.672288  0.571440  1
  B  B14  1  0.350050  0.752190  0.587515  1
  B  B15  1  0.649950  0.247810  0.412485  1
  B  B16  1  0.782433  0.301661  0.929923  1
  B  B17  1  0.217567  0.698339  0.070077  1
  B  B18  1  0.306033  0.225185  0.845007  1
  B  B19  1  0.693967  0.774815  0.154993  1
  B  B20  1  0.384886  0.324921  0.762224  1
  B  B21  1  0.615114  0.675079  0.237776  1
  B  B22  1  0.030808  0.362099  0.566014  1
  B  B23  1  0.969192  0.637901  0.433986  1
  B  B24  1  0.661596  0.878710  0.077963  1
  B  B25  1  0.338404  0.121290  0.922037  1
  B  B26  1  0.095517  0.694727  0.932231  1
  B  B27  1  0.904483  0.305273  0.067769  1
  O  O28  1  0.634138  0.706693  0.691431  1
  O  O29  1  0.365862  0.293307  0.308569  1
  O  O30  1  0.393147  0.730251  0.635317  1
  O  O31  1  0.606853  0.269749  0.364683  1
  O  O32  1  0.376520  0.214839  0.804034  1
  O  O33  1  0.623480  0.785161  0.195966  1
  O  O34  1  0.323494  0.077166  0.873795  1
  O  O35  1  0.676506  0.922834  0.126205  1
  O  O36  1  0.968701  0.136953  0.564009  1
  O  O37  1  0.031299  0.863047  0.435991  1
  O  O38  1  0.576065  0.556595  0.764856  1
  O  O39  1  0.423935  0.443405  0.235144  1
  O  O40  1  0.169450  0.327377  0.750275  1
  O  O41  1  0.830550  0.672623  0.249725  1
  O  O42  1  0.789259  0.230950  0.739702  1
  O  O43  1  0.210741  0.769050  0.260298  1
  O  O44  1  0.867470  0.533539  0.940320  1
  O  O45  1  0.132530  0.466461  0.059680  1
  O  O46  1  0.874125  0.928592  0.754677  1
  O  O47  1  0.125875  0.071408  0.245323  1
  O  O48  1  0.562854  0.146587  0.939127  1
  O  O49  1  0.437146  0.853413  0.060873  1
  O  O50  1  0.473906  0.853280  0.745572  1
  O  O51  1  0.526094  0.146720  0.254428  1
  O  O52  1  0.196818  0.063766  0.369976  1
  O  O53  1  0.803182  0.936234  0.630024  1
  O  O54  1  0.130964  0.563410  0.432800  1
  O  O55  1  0.869036  0.436590  0.567200  1
  O  O56  1  0.260192  0.517867  0.566745  1
  O  O57  1  0.739808  0.482133  0.433255  1
  O  O58  1  0.846498  0.084820  0.057795  1
  O  O59  1  0.153502  0.915180  0.942205  1
  O  O60  1  0.220307  0.367133  0.857746  1
  O  O61  1  0.779693  0.632867  0.142254  1
  O  O62  1  0.168360  0.821816  0.583747  1
  O  O63  1  0.831640  0.178184  0.416253  1
  O  O64  1  0.446657  0.080886  0.432289  1
  O  O65  1  0.553343  0.919114  0.567711  1
  O  O66  1  0.238925  0.624711  0.914958  1
  O  O67  1  0.761075  0.375289  0.085042  1
  O  O68  1  0.221730  0.270750  0.437074  1
  O  O69  1  0.778270  0.729250  0.562926  1
  O  O70  1  0.921883  0.229449  0.911361  1
  O  O71  1  0.078117  0.770551  0.088639  1
  O  O72  1  0.407346  0.165707  0.728810  1
  O  O73  1  0.592654  0.834293  0.271190  1
  O  O74  1  0.685115  0.679924  0.066856  1
  O  O75  1  0.314885  0.320076  0.933144  1
  Rb  Rb76  1  0.607453  0.874270  0.849922  1
  Rb  Rb77  1  0.392547  0.125730  0.150078  1
  Rb  Rb78  1  0.028125  0.637703  0.807057  1
  Rb  Rb79  1  0.971875  0.362297  0.192943  1
  Rb  Rb80  1  0.315872  0.238913  0.641224  1
  Rb  Rb81  1  0.684128  0.761087  0.358776  1
  Rb  Rb82  1  0.037868  0.654962  0.692446  1
  Rb  Rb83  1  0.962132  0.345038  0.307554  1
  Rb  Rb84  1  0.410833  0.213774  0.522904  1
  Rb  Rb85  1  0.589167  0.786226  0.477096  1
  Rb  Rb86  1  0.664885  0.794814  0.974075  1
  Rb  Rb87  1  0.335115  0.205186  0.025925  1
