# generated using pymatgen
data_NaPWO6
_symmetry_space_group_name_H-M   'P 1'
_cell_length_a   6.45410220
_cell_length_b   12.15899635
_cell_length_c   12.25004612
_cell_angle_alpha   90.00000000
_cell_angle_beta   91.11596970
_cell_angle_gamma   90.00000000
_symmetry_Int_Tables_number   1
_chemical_formula_structural   NaPWO6
_chemical_formula_sum   'Na8 P8 W8 O48'
_cell_volume   961.14498907
_cell_formula_units_Z   8
loop_
 _symmetry_equiv_pos_site_id
 _symmetry_equiv_pos_as_xyz
  1  'x, y, z'
loop_
 _atom_site_type_symbol
 _atom_site_label
 _atom_site_symmetry_multiplicity
 _atom_site_fract_x
 _atom_site_fract_y
 _atom_site_fract_z
 _atom_site_occupancy
  O  O0  1  0.741500  0.831283  0.257667  1
  O  O1  1  0.758500  0.331283  0.242333  1
  O  O2  1  0.258500  0.168718  0.742333  1
  O  O3  1  0.241500  0.668718  0.757667  1
  O  O4  1  0.737932  0.538555  0.142523  1
  O  O5  1  0.762067  0.038556  0.357477  1
  O  O6  1  0.262067  0.461444  0.857477  1
  O  O7  1  0.237932  0.961445  0.642523  1
  O  O8  1  0.247860  0.706580  0.267452  1
  O  O9  1  0.252141  0.206580  0.232549  1
  O  O10  1  0.752140  0.293420  0.732549  1
  O  O11  1  0.747859  0.793419  0.767451  1
  O  O12  1  0.269091  0.676086  0.495638  1
  O  O13  1  0.230910  0.176086  0.004362  1
  O  O14  1  0.730909  0.323914  0.504361  1
  O  O15  1  0.769090  0.823914  0.995639  1
  O  O16  1  0.265366  0.569798  0.061527  1
  O  O17  1  0.756955  0.737428  0.468903  1
  O  O18  1  0.734636  0.430202  0.938473  1
  O  O19  1  0.765365  0.930201  0.561526  1
  O  O20  1  0.236611  0.977252  0.253050  1
  O  O21  1  0.263389  0.477252  0.246949  1
  O  O22  1  0.763389  0.022747  0.746950  1
  O  O23  1  0.736611  0.522748  0.753051  1
  O  O24  1  0.946846  0.581890  0.371598  1
  O  O25  1  0.553154  0.081890  0.128402  1
  O  O26  1  0.053154  0.418110  0.628402  1
  O  O27  1  0.446846  0.918110  0.871598  1
  O  O28  1  0.564998  0.585129  0.362017  1
  O  O29  1  0.935002  0.085129  0.137983  1
  O  O30  1  0.435002  0.414871  0.637983  1
  O  O31  1  0.064998  0.914871  0.862017  1
  O  O32  1  0.942088  0.605875  0.910875  1
  O  O33  1  0.557913  0.105875  0.589125  1
  O  O34  1  0.057912  0.394125  0.089125  1
  O  O35  1  0.442087  0.894124  0.410875  1
  O  O36  1  0.559251  0.616359  0.909658  1
  O  O37  1  0.940748  0.116360  0.590342  1
  O  O38  1  0.440749  0.383640  0.090342  1
  O  O39  1  0.059251  0.883641  0.409658  1
  O  O40  1  0.739422  0.551657  0.545435  1
  O  O41  1  0.760577  0.051657  0.954566  1
  O  O42  1  0.260578  0.448343  0.454565  1
  O  O43  1  0.239423  0.948343  0.045434  1
  O  O44  1  0.256955  0.762572  0.968903  1
  O  O45  1  0.243045  0.262573  0.531097  1
  O  O46  1  0.743045  0.237428  0.031097  1
  O  O47  1  0.234635  0.069798  0.438474  1
  Na  Na48  1  0.039611  0.817248  0.151993  1
  Na  Na49  1  0.460388  0.317249  0.348007  1
  Na  Na50  1  0.960389  0.182751  0.848007  1
  Na  Na51  1  0.539612  0.682752  0.651993  1
  Na  Na52  1  0.553312  0.708256  0.122218  1
  Na  Na53  1  0.946688  0.208256  0.377783  1
  Na  Na54  1  0.446688  0.291744  0.877783  1
  Na  Na55  1  0.053312  0.791744  0.622218  1
  P  P56  1  0.243281  0.959412  0.377185  1
  P  P57  1  0.256720  0.459413  0.122815  1
  P  P58  1  0.756719  0.040588  0.622814  1
  P  P59  1  0.743280  0.540588  0.877185  1
  P  P60  1  0.753541  0.614430  0.437195  1
  P  P61  1  0.746459  0.114430  0.062805  1
  P  P62  1  0.246459  0.385570  0.562806  1
  P  P63  1  0.253541  0.885570  0.937195  1
  W  W64  1  0.746497  0.897102  0.388324  1
  W  W65  1  0.753503  0.397103  0.111676  1
  W  W66  1  0.253503  0.102897  0.611676  1
  W  W67  1  0.246497  0.602898  0.888324  1
  W  W68  1  0.254527  0.602912  0.369819  1
  W  W69  1  0.245472  0.102912  0.130181  1
  W  W70  1  0.745473  0.397088  0.630181  1
  W  W71  1  0.754528  0.897088  0.869819  1
