# generated using pymatgen
data_ThF4
_symmetry_space_group_name_H-M   'P 1'
_cell_length_a   8.61051639
_cell_length_b   8.61226402
_cell_length_c   8.61226402
_cell_angle_alpha   80.21578447
_cell_angle_beta   63.23068467
_cell_angle_gamma   63.23068468
_symmetry_Int_Tables_number   1
_chemical_formula_structural   ThF4
_chemical_formula_sum   'Th6 F24'
_cell_volume   508.66043151
_cell_formula_units_Z   6
loop_
 _symmetry_equiv_pos_site_id
 _symmetry_equiv_pos_as_xyz
  1  'x, y, z'
loop_
 _atom_site_type_symbol
 _atom_site_label
 _atom_site_symmetry_multiplicity
 _atom_site_fract_x
 _atom_site_fract_y
 _atom_site_fract_z
 _atom_site_occupancy
  F  F0  1  0.397437  0.681491  0.739421  1
  F  F1  1  0.102563  0.260579  0.318509  1
  F  F2  1  0.602563  0.318509  0.260579  1
  F  F3  1  0.897437  0.739421  0.681491  1
  F  F4  1  0.568329  0.187223  0.597866  1
  F  F5  1  0.931671  0.402134  0.812777  1
  F  F6  1  0.750000  0.396677  0.603323  1
  F  F7  1  0.250000  0.603323  0.396677  1
  F  F8  1  0.719607  0.737383  0.496960  1
  F  F9  1  0.780393  0.503040  0.262617  1
  F  F10  1  0.280392  0.262617  0.503040  1
  F  F11  1  0.219608  0.496960  0.737383  1
  F  F12  1  0.844579  0.973494  0.277836  1
  F  F13  1  0.655421  0.722164  0.026506  1
  F  F14  1  0.155421  0.026506  0.722164  1
  F  F15  1  0.344579  0.277836  0.973494  1
  F  F16  1  0.000000  0.000000  0.500000  1
  F  F17  1  0.500000  0.500000  0.000000  1
  F  F18  1  0.957420  0.824749  0.932939  1
  F  F19  1  0.542580  0.067061  0.175251  1
  F  F20  1  0.042580  0.175251  0.067061  1
  F  F21  1  0.457420  0.932939  0.824749  1
  F  F22  1  0.068329  0.597866  0.187223  1
  F  F23  1  0.431671  0.812777  0.402134  1
  Th  Th24  1  0.250000  0.212679  0.787321  1
  Th  Th25  1  0.750000  0.787321  0.212679  1
  Th  Th26  1  0.169795  0.775663  0.632119  1
  Th  Th27  1  0.330205  0.367881  0.224337  1
  Th  Th28  1  0.830205  0.224337  0.367881  1
  Th  Th29  1  0.669795  0.632119  0.775663  1
