# generated using pymatgen
data_Eu2Sn5Au2
_symmetry_space_group_name_H-M   'P 1'
_cell_length_a   4.65688216
_cell_length_b   9.58714879
_cell_length_c   10.52450647
_cell_angle_alpha   91.46803151
_cell_angle_beta   90.00000000
_cell_angle_gamma   90.00000000
_symmetry_Int_Tables_number   1
_chemical_formula_structural   Eu2Sn5Au2
_chemical_formula_sum   'Eu4 Sn10 Au4'
_cell_volume   469.72522782
_cell_formula_units_Z   2
loop_
 _symmetry_equiv_pos_site_id
 _symmetry_equiv_pos_as_xyz
  1  'x, y, z'
loop_
 _atom_site_type_symbol
 _atom_site_label
 _atom_site_symmetry_multiplicity
 _atom_site_fract_x
 _atom_site_fract_y
 _atom_site_fract_z
 _atom_site_occupancy
  Sn  Sn0  1  0.250000  0.864391  0.476816  1
  Sn  Sn1  1  0.750000  0.135609  0.523184  1
  Sn  Sn2  1  0.250000  0.628843  0.242637  1
  Sn  Sn3  1  0.750000  0.371157  0.757363  1
  Sn  Sn4  1  0.250000  0.394558  0.520886  1
  Sn  Sn5  1  0.750000  0.605442  0.479114  1
  Sn  Sn6  1  0.250000  0.385999  0.983522  1
  Sn  Sn7  1  0.750000  0.614001  0.016478  1
  Sn  Sn8  1  0.750000  0.893785  0.886944  1
  Sn  Sn9  1  0.250000  0.106215  0.113056  1
  Eu  Eu10  1  0.750000  0.360171  0.247078  1
  Eu  Eu11  1  0.250000  0.639829  0.752922  1
  Eu  Eu12  1  0.750000  0.900999  0.247139  1
  Eu  Eu13  1  0.250000  0.099001  0.752861  1
  Au  Au14  1  0.750000  0.854444  0.627400  1
  Au  Au15  1  0.250000  0.145556  0.372600  1
  Au  Au16  1  0.750000  0.179355  0.971828  1
  Au  Au17  1  0.250000  0.820645  0.028172  1
