# generated using pymatgen
data_Ta2I5
_symmetry_space_group_name_H-M   'P 1'
_cell_length_a   6.48195220
_cell_length_b   8.98864694
_cell_length_c   6.46107143
_cell_angle_alpha   86.51356736
_cell_angle_beta   72.10152335
_cell_angle_gamma   85.47918821
_symmetry_Int_Tables_number   1
_chemical_formula_structural   Ta2I5
_chemical_formula_sum   'Ta2 I5'
_cell_volume   356.84839083
_cell_formula_units_Z   1
loop_
 _symmetry_equiv_pos_site_id
 _symmetry_equiv_pos_as_xyz
  1  'x, y, z'
loop_
 _atom_site_type_symbol
 _atom_site_label
 _atom_site_symmetry_multiplicity
 _atom_site_fract_x
 _atom_site_fract_y
 _atom_site_fract_z
 _atom_site_occupancy
  I  I0  1  0.228371  0.138065  0.002574  1
  I  I1  1  0.260535  0.851643  0.513039  1
  I  I2  1  0.733582  0.216819  0.512694  1
  I  I3  1  0.772538  0.670209  0.533591  1
  I  I4  1  0.761345  0.859701  0.017963  1
  Ta  Ta5  1  0.570556  0.949837  0.690715  1
  Ta  Ta6  1  0.923072  0.950425  0.341024  1
