# generated using pymatgen
data_Pu2S3
_symmetry_space_group_name_H-M   'P 1'
_cell_length_a   21.62621071
_cell_length_b   8.29976009
_cell_length_c   8.29976009
_cell_angle_alpha   89.99999689
_cell_angle_beta   54.85317567
_cell_angle_gamma   54.85317564
_symmetry_Int_Tables_number   1
_chemical_formula_structural   Pu2S3
_chemical_formula_sum   'Pu16 S24'
_cell_volume   865.07760564
_cell_formula_units_Z   8
loop_
 _symmetry_equiv_pos_site_id
 _symmetry_equiv_pos_as_xyz
  1  'x, y, z'
loop_
 _atom_site_type_symbol
 _atom_site_label
 _atom_site_symmetry_multiplicity
 _atom_site_fract_x
 _atom_site_fract_y
 _atom_site_fract_z
 _atom_site_occupancy
  Pu  Pu0  1  0.086168  0.620748  0.370748  1
  Pu  Pu1  1  0.166667  0.250000  0.629819  1
  Pu  Pu2  1  0.338521  0.376975  0.247283  1
  Pu  Pu3  1  0.247165  0.879252  0.129252  1
  Pu  Pu4  1  0.166667  0.750000  0.870181  1
  Pu  Pu5  1  0.338521  0.107462  0.737154  1
  Pu  Pu6  1  0.494812  0.262846  0.623025  1
  Pu  Pu7  1  0.666667  0.370181  0.250000  1
  Pu  Pu8  1  0.586168  0.870748  0.120748  1
  Pu  Pu9  1  0.666667  0.129819  0.750000  1
  Pu  Pu10  1  0.494812  0.752717  0.892539  1
  Pu  Pu11  1  0.747165  0.629252  0.379252  1
  Pu  Pu12  1  0.838521  0.237154  0.607461  1
  Pu  Pu13  1  0.994812  0.392539  0.252717  1
  Pu  Pu14  1  0.994812  0.123025  0.762846  1
  Pu  Pu15  1  0.838521  0.747283  0.876975  1
  S  S16  1  0.124052  0.488331  0.993501  1
  S  S17  1  0.050576  0.347578  0.499625  1
  S  S18  1  0.282757  0.152422  0.151353  1
  S  S19  1  0.050576  0.000694  0.348647  1
  S  S20  1  0.282757  0.499306  0.000375  1
  S  S21  1  0.124052  0.639513  0.634343  1
  S  S22  1  0.209281  0.011669  0.865657  1
  S  S23  1  0.209281  0.860487  0.506499  1
  S  S24  1  0.448519  0.499184  0.996590  1
  S  S25  1  0.384815  0.342145  0.500816  1
  S  S26  1  0.624052  0.134343  0.139513  1
  S  S27  1  0.384815  0.003410  0.344740  1
  S  S28  1  0.624052  0.493501  0.988331  1
  S  S29  1  0.550576  0.999625  0.847578  1
  S  S30  1  0.448519  0.655260  0.657855  1
  S  S31  1  0.550576  0.848647  0.500694  1
  S  S32  1  0.782757  0.500375  0.999306  1
  S  S33  1  0.709281  0.365657  0.511669  1
  S  S34  1  0.709281  0.006499  0.360487  1
  S  S35  1  0.948519  0.157855  0.155260  1
  S  S36  1  0.948519  0.496590  0.999184  1
  S  S37  1  0.884815  0.000816  0.842145  1
  S  S38  1  0.782757  0.651353  0.652422  1
  S  S39  1  0.884815  0.844740  0.503410  1
