# generated using pymatgen
data_CaLaTiCrO6
_symmetry_space_group_name_H-M   'P 1'
_cell_length_a   5.51067109
_cell_length_b   5.52981054
_cell_length_c   7.76714529
_cell_angle_alpha   90.00000000
_cell_angle_beta   89.97522937
_cell_angle_gamma   90.00000000
_symmetry_Int_Tables_number   1
_chemical_formula_structural   CaLaTiCrO6
_chemical_formula_sum   'Ca2 La2 Ti2 Cr2 O12'
_cell_volume   236.68794076
_cell_formula_units_Z   2
loop_
 _symmetry_equiv_pos_site_id
 _symmetry_equiv_pos_as_xyz
  1  'x, y, z'
loop_
 _atom_site_type_symbol
 _atom_site_label
 _atom_site_symmetry_multiplicity
 _atom_site_fract_x
 _atom_site_fract_y
 _atom_site_fract_z
 _atom_site_occupancy
  Ca  Ca0  1  0.488269  0.467101  0.749004  1
  Ca  Ca1  1  0.988269  0.032899  0.249004  1
  La  La2  1  0.006988  0.975842  0.750832  1
  La  La3  1  0.506988  0.524158  0.250832  1
  Ti  Ti4  1  0.499806  0.000433  0.001236  1
  Ti  Ti5  1  0.999806  0.499567  0.501236  1
  Cr  Cr6  1  0.500216  0.999365  0.499577  1
  Cr  Cr7  1  0.000216  0.500635  0.999577  1
  O  O8  1  0.076333  0.483149  0.252699  1
  O  O9  1  0.231092  0.225558  0.958580  1
  O  O10  1  0.225789  0.229800  0.542587  1
  O  O11  1  0.280882  0.725874  0.955299  1
  O  O12  1  0.274794  0.720014  0.543307  1
  O  O13  1  0.415832  0.985853  0.246880  1
  O  O14  1  0.576333  0.016851  0.752699  1
  O  O15  1  0.731092  0.274442  0.458580  1
  O  O16  1  0.725789  0.270200  0.042587  1
  O  O17  1  0.780882  0.774126  0.455299  1
  O  O18  1  0.774794  0.779986  0.043307  1
  O  O19  1  0.915832  0.514147  0.746880  1
