# generated using pymatgen
data_LiMoS2
_symmetry_space_group_name_H-M   'P 1'
_cell_length_a   6.28463113
_cell_length_b   6.67426320
_cell_length_c   6.80136011
_cell_angle_alpha   118.90201306
_cell_angle_beta   90.00081967
_cell_angle_gamma   90.25248356
_symmetry_Int_Tables_number   1
_chemical_formula_structural   LiMoS2
_chemical_formula_sum   'Li4 Mo4 S8'
_cell_volume   249.74885295
_cell_formula_units_Z   4
loop_
 _symmetry_equiv_pos_site_id
 _symmetry_equiv_pos_as_xyz
  1  'x, y, z'
loop_
 _atom_site_type_symbol
 _atom_site_label
 _atom_site_symmetry_multiplicity
 _atom_site_fract_x
 _atom_site_fract_y
 _atom_site_fract_z
 _atom_site_occupancy
  Li  Li0  1  0.989103  0.481862  0.709867  1
  Li  Li1  1  0.021984  0.009908  0.259901  1
  Li  Li2  1  0.010897  0.518138  0.290133  1
  Li  Li3  1  0.978016  0.990092  0.740099  1
  Mo  Mo4  1  0.496089  0.056940  0.807854  1
  Mo  Mo5  1  0.499663  0.491689  0.789746  1
  Mo  Mo6  1  0.500337  0.508311  0.210254  1
  Mo  Mo7  1  0.503911  0.943060  0.192146  1
  S  S8  1  0.773074  0.655876  0.069127  1
  S  S9  1  0.697937  0.678179  0.591099  1
  S  S10  1  0.746002  0.182940  0.105752  1
  S  S11  1  0.226926  0.344124  0.930873  1
  S  S12  1  0.718014  0.152762  0.569673  1
  S  S13  1  0.253998  0.817060  0.894248  1
  S  S14  1  0.281986  0.847238  0.430327  1
  S  S15  1  0.302063  0.321821  0.408901  1
