# generated using pymatgen
data_Ho2S3
_symmetry_space_group_name_H-M   'P 1'
_cell_length_a   21.50645053
_cell_length_b   8.28668268
_cell_length_c   8.28668315
_cell_angle_alpha   89.99999839
_cell_angle_beta   54.69230374
_cell_angle_gamma   54.69230144
_symmetry_Int_Tables_number   1
_chemical_formula_structural   Ho2S3
_chemical_formula_sum   'Ho16 S24'
_cell_volume   850.82226885
_cell_formula_units_Z   8
loop_
 _symmetry_equiv_pos_site_id
 _symmetry_equiv_pos_as_xyz
  1  'x, y, z'
loop_
 _atom_site_type_symbol
 _atom_site_label
 _atom_site_symmetry_multiplicity
 _atom_site_fract_x
 _atom_site_fract_y
 _atom_site_fract_z
 _atom_site_occupancy
  Ho  Ho0  1  0.085187  0.622220  0.372220  1
  Ho  Ho1  1  0.166667  0.250000  0.631418  1
  Ho  Ho2  1  0.338774  0.380197  0.251368  1
  Ho  Ho3  1  0.248146  0.877780  0.127780  1
  Ho  Ho4  1  0.166667  0.750000  0.868582  1
  Ho  Ho5  1  0.338774  0.103480  0.732310  1
  Ho  Ho6  1  0.494559  0.267690  0.619803  1
  Ho  Ho7  1  0.666667  0.368582  0.250000  1
  Ho  Ho8  1  0.585187  0.872220  0.122220  1
  Ho  Ho9  1  0.666667  0.131418  0.750000  1
  Ho  Ho10  1  0.494559  0.748632  0.896520  1
  Ho  Ho11  1  0.748146  0.627780  0.377780  1
  Ho  Ho12  1  0.838774  0.232310  0.603480  1
  Ho  Ho13  1  0.994559  0.396520  0.248632  1
  Ho  Ho14  1  0.994559  0.119803  0.767690  1
  Ho  Ho15  1  0.838774  0.751368  0.880197  1
  S  S16  1  0.128189  0.487355  0.991441  1
  S  S17  1  0.048059  0.357828  0.494307  1
  S  S18  1  0.048059  0.997994  0.361515  1
  S  S19  1  0.285274  0.142172  0.138485  1
  S  S20  1  0.285274  0.502006  0.005693  1
  S  S21  1  0.205144  0.012645  0.876008  1
  S  S22  1  0.128189  0.628078  0.623992  1
  S  S23  1  0.205144  0.871922  0.508559  1
  S  S24  1  0.451337  0.494043  0.996896  1
  S  S25  1  0.381997  0.350906  0.505957  1
  S  S26  1  0.628189  0.123992  0.128078  1
  S  S27  1  0.381997  0.003104  0.348054  1
  S  S28  1  0.628189  0.491441  0.987355  1
  S  S29  1  0.451337  0.651946  0.649094  1
  S  S30  1  0.548059  0.994307  0.857828  1
  S  S31  1  0.548059  0.861515  0.497994  1
  S  S32  1  0.785274  0.505693  0.002006  1
  S  S33  1  0.705144  0.376008  0.512645  1
  S  S34  1  0.705144  0.008559  0.371922  1
  S  S35  1  0.951337  0.149094  0.151946  1
  S  S36  1  0.951337  0.496896  0.994043  1
  S  S37  1  0.881997  0.005957  0.850906  1
  S  S38  1  0.785274  0.638485  0.642172  1
  S  S39  1  0.881997  0.848054  0.503104  1
