# generated using pymatgen
data_CsH3O2
_symmetry_space_group_name_H-M   'P 1'
_cell_length_a   4.38865909
_cell_length_b   4.38865950
_cell_length_c   7.83001726
_cell_angle_alpha   106.27633843
_cell_angle_beta   106.27487610
_cell_angle_gamma   90.00000002
_symmetry_Int_Tables_number   1
_chemical_formula_structural   CsH3O2
_chemical_formula_sum   'Cs2 H6 O4'
_cell_volume   138.45775035
_cell_formula_units_Z   2
loop_
 _symmetry_equiv_pos_site_id
 _symmetry_equiv_pos_as_xyz
  1  'x, y, z'
loop_
 _atom_site_type_symbol
 _atom_site_label
 _atom_site_symmetry_multiplicity
 _atom_site_fract_x
 _atom_site_fract_y
 _atom_site_fract_z
 _atom_site_occupancy
  H  H0  1  0.000000  0.500000  0.000000  1
  H  H1  1  0.000000  0.500000  0.500000  1
  H  H2  1  0.000000  0.000000  0.500000  1
  H  H3  1  0.500000  0.500000  0.000000  1
  H  H4  1  0.125000  0.375001  0.750000  1
  H  H5  1  0.875000  0.624999  0.250000  1
  O  O6  1  0.210584  0.460568  0.921167  1
  O  O7  1  0.789416  0.539432  0.078833  1
  O  O8  1  0.960584  0.710577  0.421167  1
  O  O9  1  0.039416  0.289423  0.578833  1
  Cs  Cs10  1  0.625000  0.875000  0.750000  1
  Cs  Cs11  1  0.375000  0.125000  0.250000  1
