# generated using pymatgen
data_Y2SiO5
_symmetry_space_group_name_H-M   'P 1'
_cell_length_a   6.83176895
_cell_length_b   8.03982748
_cell_length_c   9.71000163
_cell_angle_alpha   72.25346976
_cell_angle_beta   69.40314244
_cell_angle_gamma   64.85754153
_symmetry_Int_Tables_number   1
_chemical_formula_structural   Y2SiO5
_chemical_formula_sum   'Y8 Si4 O20'
_cell_volume   444.28273742
_cell_formula_units_Z   4
loop_
 _symmetry_equiv_pos_site_id
 _symmetry_equiv_pos_as_xyz
  1  'x, y, z'
loop_
 _atom_site_type_symbol
 _atom_site_label
 _atom_site_symmetry_multiplicity
 _atom_site_fract_x
 _atom_site_fract_y
 _atom_site_fract_z
 _atom_site_occupancy
  O  O0  1  0.389538  0.137554  0.895775  1
  O  O1  1  0.422866  0.362446  0.604225  1
  O  O2  1  0.610462  0.862446  0.104225  1
  O  O3  1  0.577134  0.637554  0.395775  1
  O  O4  1  0.274206  0.029615  0.568020  1
  O  O5  1  0.871840  0.470385  0.931980  1
  O  O6  1  0.725794  0.970385  0.431980  1
  O  O7  1  0.128160  0.529615  0.068020  1
  O  O8  1  0.149014  0.729616  0.676302  1
  O  O9  1  0.554933  0.770384  0.823698  1
  O  O10  1  0.850986  0.270384  0.323698  1
  O  O11  1  0.445067  0.229616  0.176302  1
  O  O12  1  0.404164  0.583041  0.175768  1
  O  O13  1  0.162973  0.916959  0.324232  1
  O  O14  1  0.595836  0.416959  0.824232  1
  O  O15  1  0.837027  0.083041  0.675768  1
  O  O16  1  0.099828  0.456170  0.362455  1
  O  O17  1  0.918453  0.043830  0.137545  1
  O  O18  1  0.900172  0.543830  0.637545  1
  O  O19  1  0.081547  0.956170  0.862455  1
  Si  Si20  1  0.091657  0.942124  0.694326  1
  Si  Si21  1  0.728107  0.557876  0.805674  1
  Si  Si22  1  0.908343  0.057876  0.305674  1
  Si  Si23  1  0.271893  0.442124  0.194326  1
  Y  Y24  1  0.707354  0.106338  0.967584  1
  Y  Y25  1  0.781276  0.393662  0.532416  1
  Y  Y26  1  0.292646  0.893662  0.032416  1
  Y  Y27  1  0.218724  0.606338  0.467584  1
  Y  Y28  1  0.524599  0.052185  0.662509  1
  Y  Y29  1  0.239292  0.447815  0.837491  1
  Y  Y30  1  0.475401  0.947815  0.337491  1
  Y  Y31  1  0.760708  0.552185  0.162509  1
