# generated using pymatgen
data_ThGa
_symmetry_space_group_name_H-M   'P 1'
_cell_length_a   4.13429859
_cell_length_b   6.07089980
_cell_length_c   16.44405406
_cell_angle_alpha   90.00000000
_cell_angle_beta   90.00000000
_cell_angle_gamma   90.00000000
_symmetry_Int_Tables_number   1
_chemical_formula_structural   ThGa
_chemical_formula_sum   'Th8 Ga8'
_cell_volume   412.72787372
_cell_formula_units_Z   8
loop_
 _symmetry_equiv_pos_site_id
 _symmetry_equiv_pos_as_xyz
  1  'x, y, z'
loop_
 _atom_site_type_symbol
 _atom_site_label
 _atom_site_symmetry_multiplicity
 _atom_site_fract_x
 _atom_site_fract_y
 _atom_site_fract_z
 _atom_site_occupancy
  Ga  Ga0  1  0.250000  0.995328  0.356682  1
  Ga  Ga1  1  0.750000  0.004672  0.643318  1
  Ga  Ga2  1  0.750000  0.495328  0.143318  1
  Ga  Ga3  1  0.250000  0.504672  0.856682  1
  Ga  Ga4  1  0.250000  0.242741  0.106448  1
  Ga  Ga5  1  0.750000  0.757259  0.893552  1
  Ga  Ga6  1  0.750000  0.742741  0.393552  1
  Ga  Ga7  1  0.250000  0.257259  0.606448  1
  Th  Th8  1  0.250000  0.487347  0.286168  1
  Th  Th9  1  0.750000  0.512653  0.713832  1
  Th  Th10  1  0.750000  0.987347  0.213832  1
  Th  Th11  1  0.250000  0.012653  0.786168  1
  Th  Th12  1  0.250000  0.750107  0.036536  1
  Th  Th13  1  0.750000  0.249893  0.963464  1
  Th  Th14  1  0.750000  0.250107  0.463464  1
  Th  Th15  1  0.250000  0.749893  0.536536  1
