# generated using pymatgen
data_Ho4Ge9Ir13
_symmetry_space_group_name_H-M   'P 1'
_cell_length_a   4.00078587
_cell_length_b   11.31666688
_cell_length_c   19.51462992
_cell_angle_alpha   90.00000000
_cell_angle_beta   90.00000000
_cell_angle_gamma   90.00000000
_symmetry_Int_Tables_number   1
_chemical_formula_structural   Ho4Ge9Ir13
_chemical_formula_sum   'Ho8 Ge18 Ir26'
_cell_volume   883.53581634
_cell_formula_units_Z   2
loop_
 _symmetry_equiv_pos_site_id
 _symmetry_equiv_pos_as_xyz
  1  'x, y, z'
loop_
 _atom_site_type_symbol
 _atom_site_label
 _atom_site_symmetry_multiplicity
 _atom_site_fract_x
 _atom_site_fract_y
 _atom_site_fract_z
 _atom_site_occupancy
  Ge  Ge0  1  0.750000  0.436261  0.918739  1
  Ge  Ge1  1  0.250000  0.250000  0.398840  1
  Ge  Ge2  1  0.750000  0.750000  0.601160  1
  Ge  Ge3  1  0.750000  0.250000  0.099781  1
  Ge  Ge4  1  0.250000  0.750000  0.900219  1
  Ge  Ge5  1  0.250000  0.070448  0.584619  1
  Ge  Ge6  1  0.750000  0.929552  0.415381  1
  Ge  Ge7  1  0.750000  0.570448  0.415381  1
  Ge  Ge8  1  0.250000  0.563739  0.081261  1
  Ge  Ge9  1  0.250000  0.936261  0.081261  1
  Ge  Ge10  1  0.750000  0.063739  0.918739  1
  Ge  Ge11  1  0.250000  0.750000  0.265345  1
  Ge  Ge12  1  0.250000  0.429552  0.584619  1
  Ge  Ge13  1  0.750000  0.250000  0.734655  1
  Ge  Ge14  1  0.750000  0.619740  0.731158  1
  Ge  Ge15  1  0.750000  0.880260  0.731158  1
  Ge  Ge16  1  0.250000  0.119740  0.268842  1
  Ge  Ge17  1  0.250000  0.380260  0.268842  1
  Ho  Ho18  1  0.750000  0.750000  0.022674  1
  Ho  Ho19  1  0.250000  0.250000  0.977326  1
  Ho  Ho20  1  0.250000  0.441274  0.792434  1
  Ho  Ho21  1  0.750000  0.558726  0.207566  1
  Ho  Ho22  1  0.750000  0.941274  0.207566  1
  Ho  Ho23  1  0.250000  0.058726  0.792434  1
  Ho  Ho24  1  0.250000  0.750000  0.480934  1
  Ho  Ho25  1  0.750000  0.250000  0.519066  1
  Ir  Ir26  1  0.750000  0.450354  0.046057  1
  Ir  Ir27  1  0.750000  0.940372  0.539813  1
  Ir  Ir28  1  0.750000  0.559628  0.539813  1
  Ir  Ir29  1  0.250000  0.440372  0.460187  1
  Ir  Ir30  1  0.750000  0.122666  0.354469  1
  Ir  Ir31  1  0.250000  0.877334  0.645531  1
  Ir  Ir32  1  0.250000  0.622666  0.645531  1
  Ir  Ir33  1  0.750000  0.377334  0.354469  1
  Ir  Ir34  1  0.250000  0.549646  0.953943  1
  Ir  Ir35  1  0.250000  0.950354  0.953943  1
  Ir  Ir36  1  0.750000  0.049646  0.046057  1
  Ir  Ir37  1  0.750000  0.750000  0.342386  1
  Ir  Ir38  1  0.250000  0.250000  0.657614  1
  Ir  Ir39  1  0.250000  0.750000  0.141006  1
  Ir  Ir40  1  0.750000  0.250000  0.858994  1
  Ir  Ir41  1  0.250000  0.750000  0.772950  1
  Ir  Ir42  1  0.750000  0.250000  0.227050  1
  Ir  Ir43  1  0.750000  0.432944  0.664674  1
  Ir  Ir44  1  0.250000  0.567056  0.335326  1
  Ir  Ir45  1  0.250000  0.932944  0.335326  1
  Ir  Ir46  1  0.750000  0.067056  0.664674  1
  Ir  Ir47  1  0.250000  0.373909  0.142058  1
  Ir  Ir48  1  0.750000  0.626091  0.857942  1
  Ir  Ir49  1  0.750000  0.873909  0.857942  1
  Ir  Ir50  1  0.250000  0.126091  0.142058  1
  Ir  Ir51  1  0.250000  0.059628  0.460187  1
