# generated using pymatgen
data_Nd3NbO7
_symmetry_space_group_name_H-M   'P 1'
_cell_length_a   6.68945569
_cell_length_b   6.68945570
_cell_length_c   7.75679039
_cell_angle_alpha   90.00000000
_cell_angle_beta   90.00000000
_cell_angle_gamma   110.98136599
_symmetry_Int_Tables_number   1
_chemical_formula_structural   Nd3NbO7
_chemical_formula_sum   'Nd6 Nb2 O14'
_cell_volume   324.09292333
_cell_formula_units_Z   2
loop_
 _symmetry_equiv_pos_site_id
 _symmetry_equiv_pos_as_xyz
  1  'x, y, z'
loop_
 _atom_site_type_symbol
 _atom_site_label
 _atom_site_symmetry_multiplicity
 _atom_site_fract_x
 _atom_site_fract_y
 _atom_site_fract_z
 _atom_site_occupancy
  O  O0  1  0.572635  0.572634  0.750000  1
  O  O1  1  0.427366  0.427367  0.250000  1
  O  O2  1  0.108904  0.846256  0.750000  1
  O  O3  1  0.891095  0.153743  0.250000  1
  O  O4  1  0.846257  0.108904  0.750000  1
  O  O5  1  0.153745  0.891096  0.250000  1
  O  O6  1  0.183628  0.438137  0.965269  1
  O  O7  1  0.816371  0.561862  0.465268  1
  O  O8  1  0.438138  0.183629  0.965269  1
  O  O9  1  0.561863  0.816372  0.465268  1
  O  O10  1  0.183628  0.438137  0.534732  1
  O  O11  1  0.438138  0.183629  0.534732  1
  O  O12  1  0.561863  0.816372  0.034731  1
  O  O13  1  0.816371  0.561862  0.034731  1
  Nb  Nb14  1  0.500000  0.499999  0.000000  1
  Nb  Nb15  1  0.500000  0.499999  0.500001  1
  Nd  Nd16  1  0.000000  0.000000  0.500001  1
  Nd  Nd17  1  0.520752  0.067410  0.250000  1
  Nd  Nd18  1  0.479247  0.932590  0.750000  1
  Nd  Nd19  1  0.000000  0.000000  0.000000  1
  Nd  Nd20  1  0.067411  0.520753  0.250000  1
  Nd  Nd21  1  0.932589  0.479248  0.750000  1
