# generated using pymatgen
data_K2ReI6
_symmetry_space_group_name_H-M   'P 1'
_cell_length_a   8.05091315
_cell_length_b   8.23472920
_cell_length_c   11.49933991
_cell_angle_alpha   90.00000000
_cell_angle_beta   90.13357540
_cell_angle_gamma   90.00000000
_symmetry_Int_Tables_number   1
_chemical_formula_structural   K2ReI6
_chemical_formula_sum   'K4 Re2 I12'
_cell_volume   762.37069697
_cell_formula_units_Z   2
loop_
 _symmetry_equiv_pos_site_id
 _symmetry_equiv_pos_as_xyz
  1  'x, y, z'
loop_
 _atom_site_type_symbol
 _atom_site_label
 _atom_site_symmetry_multiplicity
 _atom_site_fract_x
 _atom_site_fract_y
 _atom_site_fract_z
 _atom_site_occupancy
  K  K0  1  0.961816  0.312412  0.303117  1
  K  K1  1  0.461816  0.687588  0.803117  1
  K  K2  1  0.997553  0.190229  0.803633  1
  K  K3  1  0.497553  0.809771  0.303633  1
  I  I4  1  0.704701  0.560129  0.089026  1
  I  I5  1  0.259058  0.940475  0.018670  1
  I  I6  1  0.416306  0.246250  0.319236  1
  I  I7  1  0.759058  0.059525  0.518670  1
  I  I8  1  0.546531  0.252785  0.788930  1
  I  I9  1  0.046531  0.747215  0.288930  1
  I  I10  1  0.292870  0.973351  0.582675  1
  I  I11  1  0.792870  0.026649  0.082675  1
  I  I12  1  0.670926  0.525751  0.525395  1
  I  I13  1  0.170926  0.474249  0.025395  1
  I  I14  1  0.916306  0.753750  0.819236  1
  I  I15  1  0.204701  0.439871  0.589026  1
  Re  Re16  1  0.981940  0.750520  0.053987  1
  Re  Re17  1  0.481940  0.249480  0.553987  1
