# generated using pymatgen
data_Li31Zr2Sb13
_symmetry_space_group_name_H-M   'P 1'
_cell_length_a   4.62508682
_cell_length_b   4.62508705
_cell_length_c   60.69451757
_cell_angle_alpha   60.25494343
_cell_angle_beta   60.25494317
_cell_angle_gamma   60.09273208
_symmetry_Int_Tables_number   1
_chemical_formula_structural   Li31Zr2Sb13
_chemical_formula_sum   'Li31 Zr2 Sb13'
_cell_volume   922.23768901
_cell_formula_units_Z   1
loop_
 _symmetry_equiv_pos_site_id
 _symmetry_equiv_pos_as_xyz
  1  'x, y, z'
loop_
 _atom_site_type_symbol
 _atom_site_label
 _atom_site_symmetry_multiplicity
 _atom_site_fract_x
 _atom_site_fract_y
 _atom_site_fract_z
 _atom_site_occupancy
  Li  Li0  1  0.746931  0.746931  0.058409  1
  Li  Li1  1  0.258944  0.258944  0.171001  1
  Li  Li2  1  0.250711  0.250711  0.249815  1
  Li  Li3  1  0.490313  0.490313  0.194526  1
  Li  Li4  1  0.743852  0.743852  0.135968  1
  Li  Li5  1  0.252973  0.252973  0.326226  1
  Li  Li6  1  0.746502  0.746502  0.212324  1
  Li  Li7  1  0.493086  0.493086  0.270853  1
  Li  Li8  1  0.487840  0.487840  0.348981  1
  Li  Li9  1  0.750743  0.750743  0.288285  1
  Li  Li10  1  0.242139  0.242139  0.405684  1
  Li  Li11  1  0.247978  0.247978  0.481256  1
  Li  Li12  1  0.742526  0.742526  0.366968  1
  Li  Li13  1  0.247546  0.247546  0.558210  1
  Li  Li14  1  0.758746  0.758746  0.440321  1
  Li  Li15  1  0.751755  0.751755  0.518851  1
  Li  Li16  1  0.241666  0.241666  0.636503  1
  Li  Li17  1  0.751156  0.751156  0.595857  1
  Li  Li18  1  0.257545  0.257545  0.709931  1
  Li  Li19  1  0.758174  0.758174  0.671162  1
  Li  Li20  1  0.512869  0.512869  0.727777  1
  Li  Li21  1  0.249823  0.249823  0.788499  1
  Li  Li22  1  0.747220  0.747220  0.750657  1
  Li  Li23  1  0.507321  0.507321  0.805965  1
  Li  Li24  1  0.250732  0.250732  0.865229  1
  Li  Li25  1  0.749825  0.749825  0.826984  1
  Li  Li26  1  0.511467  0.511467  0.881966  1
  Li  Li27  1  0.260888  0.260888  0.939805  1
  Li  Li28  1  0.517036  0.517036  0.957617  1
  Li  Li29  1  0.753461  0.753461  0.903067  1
  Li  Li30  1  0.746621  0.746621  0.981577  1
  Sb  Sb31  1  0.006176  0.006176  0.998611  1
  Sb  Sb32  1  0.992555  0.992555  0.078647  1
  Sb  Sb33  1  0.993171  0.993171  0.155357  1
  Sb  Sb34  1  0.010716  0.010716  0.382063  1
  Sb  Sb35  1  0.006566  0.006566  0.229214  1
  Sb  Sb36  1  0.006499  0.006499  0.306169  1
  Sb  Sb37  1  0.999919  0.999919  0.538467  1
  Sb  Sb38  1  0.996261  0.996261  0.462359  1
  Sb  Sb39  1  0.993268  0.993268  0.770804  1
  Sb  Sb40  1  0.003576  0.003576  0.614594  1
  Sb  Sb41  1  0.989150  0.989150  0.694881  1
  Sb  Sb42  1  0.995202  0.995202  0.847306  1
  Sb  Sb43  1  0.996648  0.996648  0.923885  1
  Zr  Zr44  1  0.241296  0.241296  0.021294  1
  Zr  Zr45  1  0.240610  0.240610  0.098384  1
