# generated using pymatgen
data_Ta4GaSe8
_symmetry_space_group_name_H-M   'P 1'
_cell_length_a   7.43145690
_cell_length_b   7.43145690
_cell_length_c   7.43145690
_cell_angle_alpha   60.00000000
_cell_angle_beta   59.99999999
_cell_angle_gamma   60.00000000
_symmetry_Int_Tables_number   1
_chemical_formula_structural   Ta4GaSe8
_chemical_formula_sum   'Ta4 Ga1 Se8'
_cell_volume   290.20633737
_cell_formula_units_Z   1
loop_
 _symmetry_equiv_pos_site_id
 _symmetry_equiv_pos_as_xyz
  1  'x, y, z'
loop_
 _atom_site_type_symbol
 _atom_site_label
 _atom_site_symmetry_multiplicity
 _atom_site_fract_x
 _atom_site_fract_y
 _atom_site_fract_z
 _atom_site_occupancy
  Ga  Ga0  1  0.000000  0.000000  0.000000  1
  Se  Se1  1  0.864082  0.407755  0.864082  1
  Se  Se2  1  0.364596  0.364596  0.364596  1
  Se  Se3  1  0.364596  0.364596  0.906213  1
  Se  Se4  1  0.906213  0.364596  0.364596  1
  Se  Se5  1  0.864082  0.864082  0.407755  1
  Se  Se6  1  0.864082  0.864082  0.864082  1
  Se  Se7  1  0.407755  0.864082  0.864082  1
  Se  Se8  1  0.364596  0.906213  0.364596  1
  Ta  Ta9  1  0.602237  0.602237  0.602237  1
  Ta  Ta10  1  0.602237  0.193290  0.602237  1
  Ta  Ta11  1  0.193290  0.602237  0.602237  1
  Ta  Ta12  1  0.602237  0.602237  0.193290  1
