# generated using pymatgen
data_Ba3(LiSn2)4
_symmetry_space_group_name_H-M   'P 1'
_cell_length_a   6.77872480
_cell_length_b   6.89965978
_cell_length_c   9.96705366
_cell_angle_alpha   98.22679413
_cell_angle_beta   109.88032259
_cell_angle_gamma   90.00000002
_symmetry_Int_Tables_number   1
_chemical_formula_structural   Ba3(LiSn2)4
_chemical_formula_sum   'Ba3 Li4 Sn8'
_cell_volume   433.28210902
_cell_formula_units_Z   1
loop_
 _symmetry_equiv_pos_site_id
 _symmetry_equiv_pos_as_xyz
  1  'x, y, z'
loop_
 _atom_site_type_symbol
 _atom_site_label
 _atom_site_symmetry_multiplicity
 _atom_site_fract_x
 _atom_site_fract_y
 _atom_site_fract_z
 _atom_site_occupancy
  Li  Li0  1  0.212586  0.129882  0.425172  1
  Li  Li1  1  0.787414  0.870118  0.574828  1
  Li  Li2  1  0.215581  0.500000  0.000000  1
  Li  Li3  1  0.784419  0.500000  0.000000  1
  Sn  Sn4  1  0.584852  0.196234  0.698357  1
  Sn  Sn5  1  0.415148  0.803766  0.301643  1
  Sn  Sn6  1  0.113505  0.196234  0.698357  1
  Sn  Sn7  1  0.871401  0.549268  0.742802  1
  Sn  Sn8  1  0.128599  0.450732  0.257198  1
  Sn  Sn9  1  0.515727  0.797329  0.031454  1
  Sn  Sn10  1  0.484273  0.202671  0.968546  1
  Sn  Sn11  1  0.886495  0.803766  0.301643  1
  Ba  Ba12  1  0.677265  0.314073  0.354531  1
  Ba  Ba13  1  0.000000  0.000000  0.000000  1
  Ba  Ba14  1  0.322735  0.685927  0.645469  1
