# generated using pymatgen
data_Na4(BSe)9
_symmetry_space_group_name_H-M   'P 1'
_cell_length_a   11.14408518
_cell_length_b   11.70885206
_cell_length_c   16.49581407
_cell_angle_alpha   90.00000000
_cell_angle_beta   90.00000000
_cell_angle_gamma   118.05139413
_symmetry_Int_Tables_number   1
_chemical_formula_structural   Na4(BSe)9
_chemical_formula_sum   'Na16 B36 Se36'
_cell_volume   1899.59082804
_cell_formula_units_Z   4
loop_
 _symmetry_equiv_pos_site_id
 _symmetry_equiv_pos_as_xyz
  1  'x, y, z'
loop_
 _atom_site_type_symbol
 _atom_site_label
 _atom_site_symmetry_multiplicity
 _atom_site_fract_x
 _atom_site_fract_y
 _atom_site_fract_z
 _atom_site_occupancy
  B  B0  1  0.500538  0.855669  0.510683  1
  B  B1  1  0.499462  0.644331  0.010683  1
  B  B2  1  0.499462  0.144331  0.489317  1
  B  B3  1  0.500538  0.355669  0.989317  1
  B  B4  1  0.823108  0.488953  0.864261  1
  B  B5  1  0.176892  0.011047  0.364261  1
  B  B6  1  0.176892  0.511047  0.135739  1
  B  B7  1  0.823108  0.988953  0.635739  1
  B  B8  1  0.384140  0.892957  0.565287  1
  B  B9  1  0.615860  0.607043  0.065287  1
  B  B10  1  0.615860  0.107043  0.434713  1
  B  B11  1  0.384140  0.392957  0.934713  1
  B  B12  1  0.281834  0.940115  0.724043  1
  B  B13  1  0.718166  0.559885  0.224043  1
  B  B14  1  0.718166  0.059885  0.275957  1
  B  B15  1  0.281834  0.440115  0.775957  1
  B  B16  1  0.463250  0.061128  0.583429  1
  B  B17  1  0.536750  0.438872  0.083429  1
  B  B18  1  0.536750  0.938872  0.416571  1
  B  B19  1  0.463250  0.561128  0.916571  1
  B  B20  1  0.345647  0.995150  0.501664  1
  B  B21  1  0.654353  0.504850  0.001664  1
  B  B22  1  0.654353  0.004850  0.498337  1
  B  B23  1  0.345647  0.495150  0.998336  1
  B  B24  1  0.630198  0.130861  0.541501  1
  B  B25  1  0.369802  0.369139  0.041501  1
  B  B26  1  0.369802  0.869139  0.458499  1
  B  B27  1  0.630198  0.630861  0.958499  1
  B  B28  1  0.559929  0.975398  0.588895  1
  B  B29  1  0.440071  0.524602  0.088895  1
  B  B30  1  0.440071  0.024602  0.411105  1
  B  B31  1  0.559929  0.475398  0.911105  1
  B  B32  1  0.696263  0.411227  0.553909  1
  B  B33  1  0.303737  0.088773  0.053909  1
  B  B34  1  0.303737  0.588773  0.446091  1
  B  B35  1  0.696263  0.911227  0.946091  1
  Na  Na36  1  0.186590  0.204549  0.577821  1
  Na  Na37  1  0.813410  0.295451  0.077821  1
  Na  Na38  1  0.813410  0.795451  0.422179  1
  Na  Na39  1  0.186590  0.704549  0.922179  1
  Na  Na40  1  0.467399  0.433453  0.340014  1
  Na  Na41  1  0.532601  0.066547  0.840014  1
  Na  Na42  1  0.532601  0.566547  0.659986  1
  Na  Na43  1  0.467399  0.933453  0.159986  1
  Na  Na44  1  0.936730  0.236105  0.757934  1
  Na  Na45  1  0.063270  0.263895  0.257934  1
  Na  Na46  1  0.063270  0.763895  0.242066  1
  Na  Na47  1  0.936730  0.736105  0.742066  1
  Na  Na48  1  0.969289  0.459642  0.376706  1
  Na  Na49  1  0.030711  0.040358  0.876706  1
  Na  Na50  1  0.030711  0.540358  0.623294  1
  Na  Na51  1  0.969289  0.959642  0.123294  1
  Se  Se52  1  0.791242  0.594995  0.577024  1
  Se  Se53  1  0.208758  0.905005  0.077024  1
  Se  Se54  1  0.208758  0.405005  0.422976  1
  Se  Se55  1  0.791242  0.094995  0.922976  1
  Se  Se56  1  0.978999  0.005560  0.695771  1
  Se  Se57  1  0.021001  0.494440  0.195771  1
  Se  Se58  1  0.021001  0.994440  0.304229  1
  Se  Se59  1  0.978999  0.505560  0.804229  1
  Se  Se60  1  0.480050  0.674089  0.506137  1
  Se  Se61  1  0.519950  0.825911  0.006137  1
  Se  Se62  1  0.519950  0.325911  0.493863  1
  Se  Se63  1  0.480050  0.174089  0.993863  1
  Se  Se64  1  0.202714  0.416541  0.669094  1
  Se  Se65  1  0.797286  0.083459  0.169094  1
  Se  Se66  1  0.797286  0.583459  0.330906  1
  Se  Se67  1  0.202714  0.916541  0.830906  1
  Se  Se68  1  0.648999  0.951290  0.688820  1
  Se  Se69  1  0.351001  0.548710  0.188820  1
  Se  Se70  1  0.351001  0.048710  0.311180  1
  Se  Se71  1  0.648999  0.451290  0.811180  1
  Se  Se72  1  0.406013  0.117422  0.685146  1
  Se  Se73  1  0.593987  0.382578  0.185146  1
  Se  Se74  1  0.593987  0.882578  0.314854  1
  Se  Se75  1  0.406013  0.617422  0.814854  1
  Se  Se76  1  0.774188  0.297929  0.588130  1
  Se  Se77  1  0.225812  0.202071  0.088130  1
  Se  Se78  1  0.225812  0.702071  0.411870  1
  Se  Se79  1  0.774188  0.797929  0.911870  1
  Se  Se80  1  0.260434  0.791746  0.657040  1
  Se  Se81  1  0.739566  0.708254  0.157040  1
  Se  Se82  1  0.739566  0.208254  0.342960  1
  Se  Se83  1  0.260434  0.291746  0.842960  1
  Se  Se84  1  0.839386  0.017696  0.516386  1
  Se  Se85  1  0.160614  0.482304  0.016386  1
  Se  Se86  1  0.160614  0.982304  0.483614  1
  Se  Se87  1  0.839386  0.517696  0.983614  1
