# generated using pymatgen
data_Be(CN)2
_symmetry_space_group_name_H-M   'P 1'
_cell_length_a   5.37336555
_cell_length_b   5.36482135
_cell_length_c   5.36482135
_cell_angle_alpha   90.00000000
_cell_angle_beta   90.00000000
_cell_angle_gamma   90.00000000
_symmetry_Int_Tables_number   1
_chemical_formula_structural   Be(CN)2
_chemical_formula_sum   'Be2 C4 N4'
_cell_volume   154.65248952
_cell_formula_units_Z   2
loop_
 _symmetry_equiv_pos_site_id
 _symmetry_equiv_pos_as_xyz
  1  'x, y, z'
loop_
 _atom_site_type_symbol
 _atom_site_label
 _atom_site_symmetry_multiplicity
 _atom_site_fract_x
 _atom_site_fract_y
 _atom_site_fract_z
 _atom_site_occupancy
  Be  Be0  1  0.243634  0.250000  0.250000  1
  Be  Be1  1  0.743634  0.750000  0.750000  1
  C  C2  1  0.438817  0.057737  0.057737  1
  C  C3  1  0.438817  0.442263  0.442263  1
  C  C4  1  0.938817  0.557737  0.942263  1
  C  C5  1  0.938817  0.942263  0.557737  1
  N  N6  1  0.064366  0.067432  0.432568  1
  N  N7  1  0.064366  0.432568  0.067432  1
  N  N8  1  0.564366  0.567432  0.567432  1
  N  N9  1  0.564366  0.932568  0.932568  1
