# generated using pymatgen
data_Ag2HgI4
_symmetry_space_group_name_H-M   'P 1'
_cell_length_a   4.71436023
_cell_length_b   4.71436031
_cell_length_c   76.79696962
_cell_angle_alpha   60.58718722
_cell_angle_beta   60.58718711
_cell_angle_gamma   60.00000065
_symmetry_Int_Tables_number   1
_chemical_formula_structural   Ag2HgI4
_chemical_formula_sum   'Ag2 Hg1 I4'
_cell_volume   1217.51030651
_cell_formula_units_Z   1
loop_
 _symmetry_equiv_pos_site_id
 _symmetry_equiv_pos_as_xyz
  1  'x, y, z'
loop_
 _atom_site_type_symbol
 _atom_site_label
 _atom_site_symmetry_multiplicity
 _atom_site_fract_x
 _atom_site_fract_y
 _atom_site_fract_z
 _atom_site_occupancy
  Ag  Ag0  1  0.273920  0.273920  0.511140  1
  Ag  Ag1  1  0.272482  0.272482  0.823910  1
  Hg  Hg2  1  0.222766  0.222766  0.895731  1
  I  I3  1  0.975732  0.975732  0.504550  1
  I  I4  1  0.994521  0.994521  0.813527  1
  I  I5  1  0.011311  0.011311  0.872879  1
  I  I6  1  0.999269  0.999269  0.937637  1
