# generated using pymatgen
data_Mn2TcO4
_symmetry_space_group_name_H-M   'P 1'
_cell_length_a   6.29845919
_cell_length_b   6.16183443
_cell_length_c   6.29845933
_cell_angle_alpha   60.71499971
_cell_angle_beta   59.66584705
_cell_angle_gamma   60.71499859
_symmetry_Int_Tables_number   1
_chemical_formula_structural   Mn2TcO4
_chemical_formula_sum   'Mn4 Tc2 O8'
_cell_volume   174.23762963
_cell_formula_units_Z   2
loop_
 _symmetry_equiv_pos_site_id
 _symmetry_equiv_pos_as_xyz
  1  'x, y, z'
loop_
 _atom_site_type_symbol
 _atom_site_label
 _atom_site_symmetry_multiplicity
 _atom_site_fract_x
 _atom_site_fract_y
 _atom_site_fract_z
 _atom_site_occupancy
  Mn  Mn0  1  0.013070  0.986930  0.013070  1
  Mn  Mn1  1  0.236930  0.263070  0.236930  1
  Mn  Mn2  1  0.625000  0.125000  0.625000  1
  Mn  Mn3  1  0.625000  0.625000  0.625000  1
  Tc  Tc4  1  0.125000  0.625000  0.625000  1
  Tc  Tc5  1  0.625000  0.625000  0.125000  1
  O  O6  1  0.374282  0.403500  0.374282  1
  O  O7  1  0.374282  0.847936  0.374282  1
  O  O8  1  0.364180  0.399690  0.836440  1
  O  O9  1  0.836440  0.399690  0.364180  1
  O  O10  1  0.413560  0.850310  0.885820  1
  O  O11  1  0.885820  0.850310  0.413560  1
  O  O12  1  0.875718  0.402064  0.875718  1
  O  O13  1  0.875718  0.846500  0.875718  1
