# generated using pymatgen
data_Sn(PS3)2
_symmetry_space_group_name_H-M   'P 1'
_cell_length_a   7.80092599
_cell_length_b   7.80092570
_cell_length_c   7.80092522
_cell_angle_alpha   46.24777161
_cell_angle_beta   46.24777382
_cell_angle_gamma   46.24777684
_symmetry_Int_Tables_number   1
_chemical_formula_structural   Sn(PS3)2
_chemical_formula_sum   'Sn1 P2 S6'
_cell_volume   226.05036264
_cell_formula_units_Z   1
loop_
 _symmetry_equiv_pos_site_id
 _symmetry_equiv_pos_as_xyz
  1  'x, y, z'
loop_
 _atom_site_type_symbol
 _atom_site_label
 _atom_site_symmetry_multiplicity
 _atom_site_fract_x
 _atom_site_fract_y
 _atom_site_fract_z
 _atom_site_occupancy
  P  P0  1  0.279822  0.279822  0.279822  1
  P  P1  1  0.387308  0.387308  0.387308  1
  S  S2  1  0.268713  0.563623  0.925350  1
  S  S3  1  0.925350  0.268713  0.563623  1
  S  S4  1  0.563623  0.925350  0.268713  1
  S  S5  1  0.723848  0.433761  0.085294  1
  S  S6  1  0.085294  0.723848  0.433761  1
  S  S7  1  0.433761  0.085294  0.723848  1
  Sn  Sn8  1  0.666314  0.666314  0.666314  1
