# generated using pymatgen
data_Ba3Al2F12
_symmetry_space_group_name_H-M   'P 1'
_cell_length_a   9.67541957
_cell_length_b   10.04517697
_cell_length_c   10.35237733
_cell_angle_alpha   90.00000000
_cell_angle_beta   90.00000000
_cell_angle_gamma   90.00000000
_symmetry_Int_Tables_number   1
_chemical_formula_structural   Ba3Al2F12
_chemical_formula_sum   'Ba12 Al8 F48'
_cell_volume   1006.16102984
_cell_formula_units_Z   4
loop_
 _symmetry_equiv_pos_site_id
 _symmetry_equiv_pos_as_xyz
  1  'x, y, z'
loop_
 _atom_site_type_symbol
 _atom_site_label
 _atom_site_symmetry_multiplicity
 _atom_site_fract_x
 _atom_site_fract_y
 _atom_site_fract_z
 _atom_site_occupancy
  F  F0  1  0.150902  0.049841  0.752760  1
  F  F1  1  0.150902  0.950159  0.247240  1
  F  F2  1  0.349098  0.549841  0.747240  1
  F  F3  1  0.349098  0.450159  0.252760  1
  F  F4  1  0.849098  0.950159  0.247240  1
  F  F5  1  0.849098  0.049841  0.752760  1
  F  F6  1  0.650902  0.450159  0.252760  1
  F  F7  1  0.650902  0.549841  0.747240  1
  F  F8  1  0.363754  0.093376  0.898081  1
  F  F9  1  0.363754  0.906624  0.101919  1
  F  F10  1  0.136246  0.593376  0.601919  1
  F  F11  1  0.136246  0.406624  0.398081  1
  F  F12  1  0.636246  0.906624  0.101919  1
  F  F13  1  0.636246  0.093376  0.898081  1
  F  F14  1  0.863754  0.406624  0.398081  1
  F  F15  1  0.863754  0.593376  0.601919  1
  F  F16  1  0.711000  0.733624  0.450904  1
  F  F17  1  0.289000  0.266376  0.549096  1
  F  F18  1  0.211000  0.766376  0.950904  1
  F  F19  1  0.211000  0.233624  0.049096  1
  F  F20  1  0.864911  0.000000  0.000000  1
  F  F21  1  0.635089  0.500000  0.500000  1
  F  F22  1  0.135089  0.000000  0.000000  1
  F  F23  1  0.364911  0.500000  0.500000  1
  F  F24  1  0.000000  0.197075  0.902511  1
  F  F25  1  0.000000  0.802925  0.097489  1
  F  F26  1  0.500000  0.697075  0.597489  1
  F  F27  1  0.500000  0.302925  0.402511  1
  F  F28  1  0.000000  0.854889  0.522701  1
  F  F29  1  0.000000  0.145111  0.477299  1
  F  F30  1  0.500000  0.354889  0.977299  1
  F  F31  1  0.500000  0.645111  0.022701  1
  F  F32  1  0.000000  0.534359  0.856673  1
  F  F33  1  0.000000  0.465641  0.143327  1
  F  F34  1  0.500000  0.034359  0.643327  1
  F  F35  1  0.500000  0.965641  0.356673  1
  F  F36  1  0.721174  0.795231  0.689390  1
  F  F37  1  0.721174  0.204769  0.310610  1
  F  F38  1  0.778826  0.295231  0.810610  1
  F  F39  1  0.778826  0.704769  0.189390  1
  F  F40  1  0.278826  0.204769  0.310610  1
  F  F41  1  0.278826  0.795231  0.689390  1
  F  F42  1  0.221174  0.704769  0.189390  1
  F  F43  1  0.221174  0.295231  0.810610  1
  F  F44  1  0.789000  0.766376  0.950904  1
  F  F45  1  0.789000  0.233624  0.049096  1
  F  F46  1  0.711000  0.266376  0.549096  1
  F  F47  1  0.289000  0.733624  0.450904  1
  Al  Al48  1  0.185384  0.142001  0.897744  1
  Al  Al49  1  0.185384  0.857999  0.102256  1
  Al  Al50  1  0.314616  0.642001  0.602256  1
  Al  Al51  1  0.314616  0.357999  0.397744  1
  Al  Al52  1  0.814616  0.857999  0.102256  1
  Al  Al53  1  0.814616  0.142001  0.897744  1
  Al  Al54  1  0.685384  0.357999  0.397744  1
  Al  Al55  1  0.685384  0.642001  0.602256  1
  Ba  Ba56  1  0.500000  0.852912  0.855319  1
  Ba  Ba57  1  0.500000  0.147088  0.144681  1
  Ba  Ba58  1  0.000000  0.352912  0.644681  1
  Ba  Ba59  1  0.000000  0.647088  0.355319  1
  Ba  Ba60  1  0.500000  0.712593  0.268372  1
  Ba  Ba61  1  0.500000  0.287407  0.731628  1
  Ba  Ba62  1  0.000000  0.212593  0.231628  1
  Ba  Ba63  1  0.000000  0.787407  0.768372  1
  Ba  Ba64  1  0.252114  0.000000  0.500000  1
  Ba  Ba65  1  0.247886  0.500000  0.000000  1
  Ba  Ba66  1  0.747886  0.000000  0.500000  1
  Ba  Ba67  1  0.752114  0.500000  0.000000  1
