# generated using pymatgen
data_UPt3
_symmetry_space_group_name_H-M   'P 1'
_cell_length_a   5.73607812
_cell_length_b   5.73607812
_cell_length_c   5.03266989
_cell_angle_alpha   90.00000000
_cell_angle_beta   90.00000000
_cell_angle_gamma   120.00000000
_symmetry_Int_Tables_number   1
_chemical_formula_structural   UPt3
_chemical_formula_sum   'U2 Pt6'
_cell_volume   143.40331502
_cell_formula_units_Z   2
loop_
 _symmetry_equiv_pos_site_id
 _symmetry_equiv_pos_as_xyz
  1  'x, y, z'
loop_
 _atom_site_type_symbol
 _atom_site_label
 _atom_site_symmetry_multiplicity
 _atom_site_fract_x
 _atom_site_fract_y
 _atom_site_fract_z
 _atom_site_occupancy
  Pt  Pt0  1  0.833814  0.667627  0.250000  1
  Pt  Pt1  1  0.166186  0.833814  0.750000  1
  Pt  Pt2  1  0.667627  0.833814  0.750000  1
  Pt  Pt3  1  0.332373  0.166186  0.250000  1
  Pt  Pt4  1  0.833814  0.166186  0.250000  1
  Pt  Pt5  1  0.166186  0.332373  0.750000  1
  U  U6  1  0.333333  0.666667  0.250000  1
  U  U7  1  0.666667  0.333333  0.750000  1
