# generated using pymatgen
data_K2SbF5
_symmetry_space_group_name_H-M   'P 1'
_cell_length_a   6.40087316
_cell_length_b   6.63466890
_cell_length_c   7.72548324
_cell_angle_alpha   90.00000000
_cell_angle_beta   114.47335846
_cell_angle_gamma   90.00000000
_symmetry_Int_Tables_number   1
_chemical_formula_structural   K2SbF5
_chemical_formula_sum   'K4 Sb2 F10'
_cell_volume   298.60633102
_cell_formula_units_Z   2
loop_
 _symmetry_equiv_pos_site_id
 _symmetry_equiv_pos_as_xyz
  1  'x, y, z'
loop_
 _atom_site_type_symbol
 _atom_site_label
 _atom_site_symmetry_multiplicity
 _atom_site_fract_x
 _atom_site_fract_y
 _atom_site_fract_z
 _atom_site_occupancy
  F  F0  1  0.353487  0.531285  0.239530  1
  F  F1  1  0.113958  0.468715  0.760470  1
  F  F2  1  0.646513  0.031285  0.760470  1
  F  F3  1  0.886042  0.968715  0.239530  1
  F  F4  1  0.646513  0.468715  0.760470  1
  F  F5  1  0.886042  0.531285  0.239530  1
  F  F6  1  0.765466  0.250000  0.530932  1
  F  F7  1  0.234534  0.750000  0.469068  1
  F  F8  1  0.113958  0.031285  0.760470  1
  F  F9  1  0.353487  0.968715  0.239530  1
  K  K10  1  0.751848  0.750000  0.503696  1
  K  K11  1  0.248152  0.250000  0.496304  1
  K  K12  1  0.572174  0.250000  0.144347  1
  K  K13  1  0.427826  0.750000  0.855653  1
  Sb  Sb14  1  0.093171  0.750000  0.186342  1
  Sb  Sb15  1  0.906829  0.250000  0.813658  1
