# generated using pymatgen
data_BaLaZnRuO6
_symmetry_space_group_name_H-M   'P 1'
_cell_length_a   5.72765932
_cell_length_b   5.75361795
_cell_length_c   5.71738074
_cell_angle_alpha   60.32450205
_cell_angle_beta   59.67870430
_cell_angle_gamma   59.77125383
_symmetry_Int_Tables_number   1
_chemical_formula_structural   BaLaZnRuO6
_chemical_formula_sum   'Ba1 La1 Zn1 Ru1 O6'
_cell_volume   132.99233406
_cell_formula_units_Z   1
loop_
 _symmetry_equiv_pos_site_id
 _symmetry_equiv_pos_as_xyz
  1  'x, y, z'
loop_
 _atom_site_type_symbol
 _atom_site_label
 _atom_site_symmetry_multiplicity
 _atom_site_fract_x
 _atom_site_fract_y
 _atom_site_fract_z
 _atom_site_occupancy
  Ba  Ba0  1  0.750211  0.750326  0.749032  1
  La  La1  1  0.252535  0.264750  0.232828  1
  O  O2  1  0.271671  0.677663  0.245109  1
  O  O3  1  0.235394  0.278719  0.806414  1
  O  O4  1  0.257507  0.832428  0.649024  1
  O  O5  1  0.740901  0.211548  0.306580  1
  O  O6  1  0.787638  0.694454  0.231052  1
  O  O7  1  0.696885  0.290163  0.788800  1
  Ru  Ru8  1  0.501535  0.498572  0.499421  1
  Zn  Zn9  1  0.005725  0.001376  0.991740  1
