# generated using pymatgen
data_Na2CeO3
_symmetry_space_group_name_H-M   'P 1'
_cell_length_a   6.03917000
_cell_length_b   6.34181246
_cell_length_c   7.64554575
_cell_angle_alpha   33.95484479
_cell_angle_beta   37.82440198
_cell_angle_gamma   61.56645609
_symmetry_Int_Tables_number   1
_chemical_formula_structural   Na2CeO3
_chemical_formula_sum   'Na2 Ce1 O3'
_cell_volume   85.49997895
_cell_formula_units_Z   1
loop_
 _symmetry_equiv_pos_site_id
 _symmetry_equiv_pos_as_xyz
  1  'x, y, z'
loop_
 _atom_site_type_symbol
 _atom_site_label
 _atom_site_symmetry_multiplicity
 _atom_site_fract_x
 _atom_site_fract_y
 _atom_site_fract_z
 _atom_site_occupancy
  Ce  Ce0  1  0.000000  0.000000  0.000000  1
  Na  Na1  1  0.500000  0.500000  0.000000  1
  Na  Na2  1  0.000000  0.500000  0.000000  1
  O  O3  1  0.000000  0.500000  0.500000  1
  O  O4  1  0.500000  0.500000  0.500000  1
  O  O5  1  0.500000  0.000000  0.500000  1
