# generated using pymatgen
data_PHN2
_symmetry_space_group_name_H-M   'P 1'
_cell_length_a   4.75238430
_cell_length_b   4.78369870
_cell_length_c   4.87289872
_cell_angle_alpha   119.31631449
_cell_angle_beta   119.10527925
_cell_angle_gamma   90.00560515
_symmetry_Int_Tables_number   1
_chemical_formula_structural   PHN2
_chemical_formula_sum   'P2 H2 N4'
_cell_volume   80.16202411
_cell_formula_units_Z   2
loop_
 _symmetry_equiv_pos_site_id
 _symmetry_equiv_pos_as_xyz
  1  'x, y, z'
loop_
 _atom_site_type_symbol
 _atom_site_label
 _atom_site_symmetry_multiplicity
 _atom_site_fract_x
 _atom_site_fract_y
 _atom_site_fract_z
 _atom_site_occupancy
  H  H0  1  0.484234  0.374165  0.248398  1
  H  H1  1  0.764893  0.875755  0.251698  1
  N  N2  1  0.126661  0.729717  0.751729  1
  N  N3  1  0.269419  0.374862  0.249036  1
  N  N4  1  0.624939  0.019832  0.748227  1
  N  N5  1  0.979698  0.875782  0.250940  1
  P  P6  1  0.989854  0.989828  0.979690  1
  P  P7  1  0.260302  0.760058  0.520283  1
