# generated using pymatgen
data_Li3Mo(PO4)2
_symmetry_space_group_name_H-M   'P 1'
_cell_length_a   5.06105479
_cell_length_b   18.37184742
_cell_length_c   6.37657491
_cell_angle_alpha   90.00000000
_cell_angle_beta   92.39409525
_cell_angle_gamma   90.00000000
_symmetry_Int_Tables_number   1
_chemical_formula_structural   Li3Mo(PO4)2
_chemical_formula_sum   'Li12 Mo4 P8 O32'
_cell_volume   592.38232386
_cell_formula_units_Z   4
loop_
 _symmetry_equiv_pos_site_id
 _symmetry_equiv_pos_as_xyz
  1  'x, y, z'
loop_
 _atom_site_type_symbol
 _atom_site_label
 _atom_site_symmetry_multiplicity
 _atom_site_fract_x
 _atom_site_fract_y
 _atom_site_fract_z
 _atom_site_occupancy
  Li  Li0  1  0.185938  0.700823  0.815126  1
  Li  Li1  1  0.221183  0.883889  0.499564  1
  Li  Li2  1  0.278817  0.383889  0.000436  1
  Li  Li3  1  0.208527  0.555921  0.212229  1
  Li  Li4  1  0.291472  0.055921  0.287772  1
  Li  Li5  1  0.314062  0.200823  0.684874  1
  Li  Li6  1  0.685937  0.799177  0.315125  1
  Li  Li7  1  0.708529  0.944079  0.712229  1
  Li  Li8  1  0.791472  0.444078  0.787771  1
  Li  Li9  1  0.721182  0.616111  0.999563  1
  Li  Li10  1  0.778818  0.116111  0.500437  1
  Li  Li11  1  0.814063  0.299177  0.184873  1
  O  O12  1  0.113424  0.799717  0.273740  1
  O  O13  1  0.957553  0.308363  0.500484  1
  O  O14  1  0.943760  0.326414  0.895215  1
  O  O15  1  0.916269  0.558223  0.741540  1
  O  O16  1  0.021797  0.201957  0.184166  1
  O  O17  1  0.042448  0.691637  0.499517  1
  O  O18  1  0.056239  0.673587  0.104785  1
  O  O19  1  0.083730  0.441777  0.258461  1
  O  O20  1  0.133604  0.065510  0.572743  1
  O  O21  1  0.978202  0.798043  0.815834  1
  O  O22  1  0.164024  0.062974  0.971507  1
  O  O23  1  0.210299  0.449567  0.735398  1
  O  O24  1  0.289701  0.949568  0.764602  1
  O  O25  1  0.335976  0.562974  0.528493  1
  O  O26  1  0.366395  0.565510  0.927257  1
  O  O27  1  0.386577  0.299718  0.226259  1
  O  O28  1  0.866397  0.934490  0.427258  1
  O  O29  1  0.443760  0.173586  0.395216  1
  O  O30  1  0.457552  0.191637  0.000483  1
  O  O31  1  0.478203  0.701957  0.315833  1
  O  O32  1  0.521796  0.298042  0.684166  1
  O  O33  1  0.542447  0.808363  0.999516  1
  O  O34  1  0.556241  0.826413  0.604785  1
  O  O35  1  0.583729  0.058223  0.758460  1
  O  O36  1  0.613424  0.700283  0.773740  1
  O  O37  1  0.633604  0.434490  0.072742  1
  O  O38  1  0.664023  0.437026  0.471508  1
  O  O39  1  0.710300  0.050432  0.235399  1
  O  O40  1  0.789700  0.550432  0.264602  1
  O  O41  1  0.835977  0.937026  0.028493  1
  O  O42  1  0.886577  0.200282  0.726260  1
  O  O43  1  0.416270  0.941777  0.241540  1
  P  P44  1  0.826775  0.284440  0.706610  1
  P  P45  1  0.783251  0.464600  0.265134  1
  P  P46  1  0.716750  0.964600  0.234866  1
  P  P47  1  0.673225  0.784440  0.793390  1
  P  P48  1  0.173226  0.715560  0.293391  1
  P  P49  1  0.216750  0.535400  0.734867  1
  P  P50  1  0.326774  0.215560  0.206610  1
  P  P51  1  0.283249  0.035400  0.765133  1
  Mo  Mo52  1  0.194467  0.873779  0.017112  1
  Mo  Mo53  1  0.305535  0.373779  0.482889  1
  Mo  Mo54  1  0.694466  0.626221  0.517111  1
  Mo  Mo55  1  0.805534  0.126221  0.982889  1
