# generated using pymatgen
data_Na14Al4O13
_symmetry_space_group_name_H-M   'P 1'
_cell_length_a   6.01747108
_cell_length_b   6.01054802
_cell_length_c   27.36852831
_cell_angle_alpha   90.00000000
_cell_angle_beta   90.00000000
_cell_angle_gamma   119.61040737
_symmetry_Int_Tables_number   1
_chemical_formula_structural   Na14Al4O13
_chemical_formula_sum   'Na28 Al8 O26'
_cell_volume   860.60082619
_cell_formula_units_Z   2
loop_
 _symmetry_equiv_pos_site_id
 _symmetry_equiv_pos_as_xyz
  1  'x, y, z'
loop_
 _atom_site_type_symbol
 _atom_site_label
 _atom_site_symmetry_multiplicity
 _atom_site_fract_x
 _atom_site_fract_y
 _atom_site_fract_z
 _atom_site_occupancy
  O  O0  1  0.500000  0.000000  0.500000  1
  O  O1  1  0.000000  0.000000  0.000000  1
  O  O2  1  0.491952  0.935663  0.709991  1
  O  O3  1  0.008048  0.064337  0.209991  1
  O  O4  1  0.508048  0.064337  0.290009  1
  O  O5  1  0.991952  0.935663  0.790009  1
  O  O6  1  0.216000  0.536851  0.557137  1
  O  O7  1  0.284000  0.463149  0.057137  1
  O  O8  1  0.784000  0.463149  0.442863  1
  O  O9  1  0.716000  0.536851  0.942863  1
  O  O10  1  0.786327  0.453382  0.670829  1
  O  O11  1  0.713673  0.546618  0.170829  1
  O  O12  1  0.213673  0.546618  0.329171  1
  O  O13  1  0.286327  0.453382  0.829171  1
  O  O14  1  0.218515  0.179583  0.670258  1
  O  O15  1  0.281485  0.820417  0.170258  1
  O  O16  1  0.781485  0.820417  0.329742  1
  O  O17  1  0.718515  0.179583  0.829742  1
  O  O18  1  0.783085  0.817262  0.556925  1
  O  O19  1  0.716915  0.182738  0.056925  1
  O  O20  1  0.216915  0.182738  0.443075  1
  O  O21  1  0.283085  0.817262  0.943075  1
  O  O22  1  0.499667  0.029470  0.604731  1
  O  O23  1  0.000333  0.970530  0.104731  1
  O  O24  1  0.500333  0.970530  0.395269  1
  O  O25  1  0.999667  0.029470  0.895269  1
  Na  Na26  1  0.497822  0.350042  0.553894  1
  Na  Na27  1  0.033269  0.749399  0.611159  1
  Na  Na28  1  0.533050  0.765813  0.000280  1
  Na  Na29  1  0.966950  0.234187  0.500280  1
  Na  Na30  1  0.466950  0.234187  0.999720  1
  Na  Na31  1  0.033050  0.765813  0.499720  1
  Na  Na32  1  0.465029  0.219715  0.887544  1
  Na  Na33  1  0.034971  0.780285  0.387544  1
  Na  Na34  1  0.534971  0.780285  0.112456  1
  Na  Na35  1  0.965029  0.219715  0.612456  1
  Na  Na36  1  0.966731  0.250601  0.388841  1
  Na  Na37  1  0.533269  0.749399  0.888841  1
  Na  Na38  1  0.939298  0.211854  0.724419  1
  Na  Na39  1  0.560702  0.788146  0.224419  1
  Na  Na40  1  0.060702  0.788146  0.275581  1
  Na  Na41  1  0.439298  0.211854  0.775581  1
  Na  Na42  1  0.492787  0.630645  0.660154  1
  Na  Na43  1  0.007213  0.369355  0.160154  1
  Na  Na44  1  0.548838  0.787148  0.781522  1
  Na  Na45  1  0.992787  0.630645  0.839846  1
  Na  Na46  1  0.507213  0.369355  0.339846  1
  Na  Na47  1  0.002178  0.649958  0.053894  1
  Na  Na48  1  0.502178  0.649958  0.446106  1
  Na  Na49  1  0.997822  0.350042  0.946106  1
  Na  Na50  1  0.048838  0.787148  0.718478  1
  Na  Na51  1  0.451162  0.212852  0.218478  1
  Na  Na52  1  0.951162  0.212852  0.281522  1
  Na  Na53  1  0.466731  0.250601  0.111159  1
  Al  Al54  1  0.499955  0.154824  0.665172  1
  Al  Al55  1  1.000045  0.845176  0.165172  1
  Al  Al56  1  0.500045  0.845176  0.334828  1
  Al  Al57  1  -0.000045  0.154824  0.834828  1
  Al  Al58  1  0.499931  0.835856  0.554982  1
  Al  Al59  1  1.000069  0.164144  0.054982  1
  Al  Al60  1  0.500069  0.164144  0.445018  1
  Al  Al61  1  -0.000069  0.835856  0.945018  1
