# generated using pymatgen
data_Cd(GaSe2)2
_symmetry_space_group_name_H-M   'P 1'
_cell_length_a   7.90113767
_cell_length_b   10.31467299
_cell_length_c   6.62913465
_cell_angle_alpha   29.41745623
_cell_angle_beta   53.42030332
_cell_angle_gamma   40.00311313
_symmetry_Int_Tables_number   1
_chemical_formula_structural   Cd(GaSe2)2
_chemical_formula_sum   'Cd1 Ga2 Se4'
_cell_volume   166.17355981
_cell_formula_units_Z   1
loop_
 _symmetry_equiv_pos_site_id
 _symmetry_equiv_pos_as_xyz
  1  'x, y, z'
loop_
 _atom_site_type_symbol
 _atom_site_label
 _atom_site_symmetry_multiplicity
 _atom_site_fract_x
 _atom_site_fract_y
 _atom_site_fract_z
 _atom_site_occupancy
  Cd  Cd0  1  0.250003  0.500000  0.000000  1
  Ga  Ga1  1  0.500250  0.000000  0.000000  1
  Ga  Ga2  1  0.750067  0.500000  0.000000  1
  Se  Se3  1  0.268847  0.000031  0.462123  1
  Se  Se4  1  0.980666  0.500208  0.538054  1
  Se  Se5  1  0.731032  0.999969  0.537877  1
  Se  Se6  1  0.519136  0.499792  0.461946  1
