# generated using pymatgen
data_Sr6Mg23
_symmetry_space_group_name_H-M   'P 1'
_cell_length_a   10.55061456
_cell_length_b   10.55061456
_cell_length_c   10.55061455
_cell_angle_alpha   59.99999999
_cell_angle_beta   59.99999999
_cell_angle_gamma   59.99999998
_symmetry_Int_Tables_number   1
_chemical_formula_structural   Sr6Mg23
_chemical_formula_sum   'Sr6 Mg23'
_cell_volume   830.45914848
_cell_formula_units_Z   1
loop_
 _symmetry_equiv_pos_site_id
 _symmetry_equiv_pos_as_xyz
  1  'x, y, z'
loop_
 _atom_site_type_symbol
 _atom_site_label
 _atom_site_symmetry_multiplicity
 _atom_site_fract_x
 _atom_site_fract_y
 _atom_site_fract_z
 _atom_site_occupancy
  Mg  Mg0  1  0.500000  0.500000  0.500000  1
  Mg  Mg1  1  0.500000  0.000000  0.000000  1
  Mg  Mg2  1  0.000000  0.000000  0.500000  1
  Mg  Mg3  1  0.500000  0.500000  0.000000  1
  Mg  Mg4  1  0.000000  0.500000  0.500000  1
  Mg  Mg5  1  0.000000  0.500000  0.000000  1
  Mg  Mg6  1  0.500000  0.000000  0.500000  1
  Mg  Mg7  1  0.377901  0.377901  0.377901  1
  Mg  Mg8  1  0.622099  0.622099  0.133704  1
  Mg  Mg9  1  0.133704  0.622099  0.622099  1
  Mg  Mg10  1  0.622099  0.133704  0.622099  1
  Mg  Mg11  1  0.866296  0.377901  0.377901  1
  Mg  Mg12  1  0.377901  0.866296  0.377901  1
  Mg  Mg13  1  0.377901  0.377901  0.866296  1
  Mg  Mg14  1  0.622099  0.622099  0.622099  1
  Mg  Mg15  1  0.174576  0.174576  0.174576  1
  Mg  Mg16  1  0.825424  0.825424  0.523729  1
  Mg  Mg17  1  0.523729  0.825424  0.825424  1
  Mg  Mg18  1  0.825424  0.523729  0.825424  1
  Mg  Mg19  1  0.476271  0.174576  0.174576  1
  Mg  Mg20  1  0.174576  0.476271  0.174576  1
  Mg  Mg21  1  0.174576  0.174576  0.476271  1
  Mg  Mg22  1  0.825424  0.825424  0.825424  1
  Sr  Sr23  1  0.792824  0.207176  0.207176  1
  Sr  Sr24  1  0.792824  0.792824  0.207176  1
  Sr  Sr25  1  0.207176  0.207176  0.792824  1
  Sr  Sr26  1  0.792824  0.207176  0.792824  1
  Sr  Sr27  1  0.207176  0.792824  0.207176  1
  Sr  Sr28  1  0.207176  0.792824  0.792824  1
