# generated using pymatgen
data_MnO2
_symmetry_space_group_name_H-M   'P 1'
_cell_length_a   2.91996258
_cell_length_b   5.05732804
_cell_length_c   5.05722270
_cell_angle_alpha   99.97580460
_cell_angle_beta   90.01486332
_cell_angle_gamma   73.96348405
_symmetry_Int_Tables_number   1
_chemical_formula_structural   MnO2
_chemical_formula_sum   'Mn2 O4'
_cell_volume   70.60032262
_cell_formula_units_Z   2
loop_
 _symmetry_equiv_pos_site_id
 _symmetry_equiv_pos_as_xyz
  1  'x, y, z'
loop_
 _atom_site_type_symbol
 _atom_site_label
 _atom_site_symmetry_multiplicity
 _atom_site_fract_x
 _atom_site_fract_y
 _atom_site_fract_z
 _atom_site_occupancy
  Mn  Mn0  1  0.997905  0.003982  0.999683  1
  Mn  Mn1  1  0.497373  0.003484  0.499767  1
  O  O2  1  0.093382  0.802423  0.631383  1
  O  O3  1  0.594315  0.802781  0.131014  1
  O  O4  1  0.401511  0.205113  0.868109  1
  O  O5  1  0.900662  0.204596  0.368637  1
