# generated using pymatgen
data_Nb3S5
_symmetry_space_group_name_H-M   'P 1'
_cell_length_a   12.69567078
_cell_length_b   31.76444354
_cell_length_c   18.44905220
_cell_angle_alpha   10.13966140
_cell_angle_beta   27.48028619
_cell_angle_gamma   30.79578676
_symmetry_Int_Tables_number   1
_chemical_formula_structural   Nb3S5
_chemical_formula_sum   'Nb12 S20'
_cell_volume   594.93621512
_cell_formula_units_Z   4
loop_
 _symmetry_equiv_pos_site_id
 _symmetry_equiv_pos_as_xyz
  1  'x, y, z'
loop_
 _atom_site_type_symbol
 _atom_site_label
 _atom_site_symmetry_multiplicity
 _atom_site_fract_x
 _atom_site_fract_y
 _atom_site_fract_z
 _atom_site_occupancy
  Nb  Nb0  1  0.994565  0.997045  0.011500  1
  Nb  Nb1  1  0.999698  0.199186  0.004014  1
  Nb  Nb2  1  0.496780  0.993709  0.012190  1
  Nb  Nb3  1  0.001656  0.398783  0.003241  1
  Nb  Nb4  1  0.499198  0.204023  0.993419  1
  Nb  Nb5  1  0.999727  0.600453  0.999015  1
  Nb  Nb6  1  0.504762  0.398282  0.002644  1
  Nb  Nb7  1  0.995881  0.797546  0.009995  1
  Nb  Nb8  1  0.510646  0.607811  0.982799  1
  Nb  Nb9  1  0.508211  0.797389  0.997871  1
  Nb  Nb10  1  0.906623  0.437492  0.820548  1
  Nb  Nb11  1  0.913314  0.639669  0.811513  1
  S  S12  1  0.118478  0.148698  0.253921  1
  S  S13  1  0.210467  0.117364  0.417178  1
  S  S14  1  0.124715  0.350139  0.248165  1
  S  S15  1  0.628151  0.155260  0.237807  1
  S  S16  1  0.207550  0.317894  0.418155  1
  S  S17  1  0.704771  0.091547  0.466168  1
  S  S18  1  0.124350  0.552113  0.248640  1
  S  S19  1  0.624076  0.354213  0.240297  1
  S  S20  1  0.229151  0.519127  0.403860  1
  S  S21  1  0.702264  0.296754  0.457460  1
  S  S22  1  0.120319  0.750898  0.248382  1
  S  S23  1  0.623331  0.550490  0.244621  1
  S  S24  1  0.231466  0.716246  0.405024  1
  S  S25  1  0.711394  0.514778  0.419648  1
  S  S26  1  0.122139  0.953891  0.241199  1
  S  S27  1  0.624895  0.742264  0.261490  1
  S  S28  1  0.207119  0.911910  0.427828  1
  S  S29  1  0.695277  0.729010  0.410215  1
  S  S30  1  0.624342  0.949005  0.250341  1
  S  S31  1  0.702686  0.939812  0.386852  1
