# generated using pymatgen
data_Na3(W2O3)2
_symmetry_space_group_name_H-M   'P 1'
_cell_length_a   6.64618272
_cell_length_b   6.64618343
_cell_length_c   6.64618289
_cell_angle_alpha   112.67953036
_cell_angle_beta   108.48415130
_cell_angle_gamma   107.30038232
_symmetry_Int_Tables_number   1
_chemical_formula_structural   Na3(W2O3)2
_chemical_formula_sum   'Na3 W4 O6'
_cell_volume   225.43564340
_cell_formula_units_Z   1
loop_
 _symmetry_equiv_pos_site_id
 _symmetry_equiv_pos_as_xyz
  1  'x, y, z'
loop_
 _atom_site_type_symbol
 _atom_site_label
 _atom_site_symmetry_multiplicity
 _atom_site_fract_x
 _atom_site_fract_y
 _atom_site_fract_z
 _atom_site_occupancy
  Na  Na0  1  0.978869  0.500000  0.478869  1
  Na  Na1  1  0.465611  0.000000  0.465611  1
  Na  Na2  1  0.544905  0.500000  0.044905  1
  O  O3  1  0.273799  0.288276  0.562074  1
  O  O4  1  0.273799  0.711724  0.985523  1
  O  O5  1  0.737947  0.787398  0.525346  1
  O  O6  1  0.540348  0.261979  0.278369  1
  O  O7  1  0.016390  0.738021  0.278369  1
  O  O8  1  0.737947  0.212602  0.950549  1
  W  W9  1  0.507361  0.529343  0.536176  1
  W  W10  1  0.507361  0.971185  0.978018  1
  W  W11  1  0.006832  0.470657  0.978018  1
  W  W12  1  0.006832  0.028815  0.536176  1
