# generated using pymatgen
data_Zn3(PO4)2
_symmetry_space_group_name_H-M   'P 1'
_cell_length_a   5.08014525
_cell_length_b   7.71561513
_cell_length_c   8.59756110
_cell_angle_alpha   90.00000000
_cell_angle_beta   90.00000000
_cell_angle_gamma   95.91835140
_symmetry_Int_Tables_number   1
_chemical_formula_structural   Zn3(PO4)2
_chemical_formula_sum   'Zn6 P4 O16'
_cell_volume   335.19760539
_cell_formula_units_Z   2
loop_
 _symmetry_equiv_pos_site_id
 _symmetry_equiv_pos_as_xyz
  1  'x, y, z'
loop_
 _atom_site_type_symbol
 _atom_site_label
 _atom_site_symmetry_multiplicity
 _atom_site_fract_x
 _atom_site_fract_y
 _atom_site_fract_z
 _atom_site_occupancy
  O  O0  1  0.568036  0.746202  0.646187  1
  O  O1  1  0.931964  0.753798  0.146187  1
  O  O2  1  0.431964  0.253798  0.353813  1
  O  O3  1  0.068036  0.246202  0.853813  1
  O  O4  1  0.446110  0.638988  0.920431  1
  O  O5  1  0.053890  0.861012  0.420431  1
  O  O6  1  0.553890  0.361012  0.079569  1
  O  O7  1  0.946110  0.138988  0.579569  1
  O  O8  1  0.193823  0.870373  0.802376  1
  O  O9  1  0.306177  0.629627  0.302376  1
  O  O10  1  0.176632  0.444682  0.629040  1
  O  O11  1  0.323368  0.055318  0.129040  1
  O  O12  1  0.823368  0.555318  0.370960  1
  O  O13  1  0.676632  0.944682  0.870960  1
  O  O14  1  0.693823  0.370373  0.697624  1
  O  O15  1  0.806177  0.129627  0.197624  1
  P  P16  1  0.469737  0.800910  0.810244  1
  P  P17  1  0.030263  0.699090  0.310244  1
  P  P18  1  0.530263  0.199090  0.189756  1
  P  P19  1  0.969737  0.300910  0.689756  1
  Zn  Zn20  1  0.572786  0.618459  0.138521  1
  Zn  Zn21  1  0.927214  0.881541  0.638521  1
  Zn  Zn22  1  0.427214  0.381541  0.861479  1
  Zn  Zn23  1  0.072786  0.118459  0.361479  1
  Zn  Zn24  1  0.500000  0.500000  0.500000  1
  Zn  Zn25  1  0.000000  0.000000  0.000000  1
