# generated using pymatgen
data_Zr4N2O5
_symmetry_space_group_name_H-M   'P 1'
_cell_length_a   8.90605523
_cell_length_b   8.87455512
_cell_length_c   8.93316517
_cell_angle_alpha   109.35724727
_cell_angle_beta   109.56316143
_cell_angle_gamma   109.54704112
_symmetry_Int_Tables_number   1
_chemical_formula_structural   Zr4N2O5
_chemical_formula_sum   'Zr16 N8 O20'
_cell_volume   543.15717674
_cell_formula_units_Z   4
loop_
 _symmetry_equiv_pos_site_id
 _symmetry_equiv_pos_as_xyz
  1  'x, y, z'
loop_
 _atom_site_type_symbol
 _atom_site_label
 _atom_site_symmetry_multiplicity
 _atom_site_fract_x
 _atom_site_fract_y
 _atom_site_fract_z
 _atom_site_occupancy
  N  N0  1  0.229464  0.968963  0.968668  1
  N  N1  1  0.497999  0.995258  0.283037  1
  N  N2  1  0.496762  0.466180  0.732299  1
  N  N3  1  0.519631  0.745953  0.500737  1
  N  N4  1  0.716636  0.218444  0.719568  1
  N  N5  1  0.746996  0.247874  0.227211  1
  N  N6  1  0.998252  0.714784  0.497319  1
  N  N7  1  0.001426  0.262130  0.033718  1
  O  O8  1  0.021889  0.518816  0.769612  1
  O  O9  1  0.999771  0.752707  0.027915  1
  O  O10  1  0.438322  0.938750  0.737270  1
  O  O11  1  0.200767  0.703436  0.263784  1
  O  O12  1  0.210411  0.494463  0.499078  1
  O  O13  1  0.228232  0.256806  0.757941  1
  O  O14  1  0.459442  0.736845  0.964087  1
  O  O15  1  0.478882  0.235444  0.964349  1
  O  O16  1  0.250217  0.022391  0.498960  1
  O  O17  1  0.266141  0.511514  0.029020  1
  O  O18  1  0.729762  0.968638  0.970688  1
  O  O19  1  0.277210  0.244015  0.286829  1
  O  O20  1  0.772230  0.739352  0.759342  1
  O  O21  1  0.503255  0.471967  0.237718  1
  O  O22  1  0.731623  0.765481  0.265661  1
  O  O23  1  0.955878  0.994569  0.717480  1
  O  O24  1  0.705777  0.444339  0.503261  1
  O  O25  1  0.767848  0.499992  0.039207  1
  O  O26  1  0.946127  0.205168  0.499942  1
  O  O27  1  0.979933  0.004735  0.244364  1
  Zr  Zr28  1  -0.000044  0.269778  0.794246  1
  Zr  Zr29  1  0.209003  0.250241  0.507335  1
  Zr  Zr30  1  0.466518  0.959090  0.501879  1
  Zr  Zr31  1  0.215605  0.998613  0.740432  1
  Zr  Zr32  1  0.249969  0.758901  0.047336  1
  Zr  Zr33  1  0.005602  0.006010  0.005203  1
  Zr  Zr34  1  0.272541  0.485185  0.259656  1
  Zr  Zr35  1  0.511627  0.718806  0.731527  1
  Zr  Zr36  1  0.718008  0.991232  0.216545  1
  Zr  Zr37  1  0.708998  0.200405  0.957983  1
  Zr  Zr38  1  0.493002  0.494214  0.986764  1
  Zr  Zr39  1  0.484535  0.214053  0.206853  1
  Zr  Zr40  1  0.762296  0.500765  0.786062  1
  Zr  Zr41  1  0.743305  0.702255  0.497238  1
  Zr  Zr42  1  0.982548  0.768549  0.267909  1
  Zr  Zr43  1  0.951004  0.458290  0.493971  1
