# generated using pymatgen
data_Nd5ErS8
_symmetry_space_group_name_H-M   'P 1'
_cell_length_a   7.39907993
_cell_length_b   7.39907924
_cell_length_c   7.39907969
_cell_angle_alpha   109.70389153
_cell_angle_beta   109.70388974
_cell_angle_gamma   109.00687588
_symmetry_Int_Tables_number   1
_chemical_formula_structural   Nd5ErS8
_chemical_formula_sum   'Nd5 Er1 S8'
_cell_volume   311.80985625
_cell_formula_units_Z   1
loop_
 _symmetry_equiv_pos_site_id
 _symmetry_equiv_pos_as_xyz
  1  'x, y, z'
loop_
 _atom_site_type_symbol
 _atom_site_label
 _atom_site_symmetry_multiplicity
 _atom_site_fract_x
 _atom_site_fract_y
 _atom_site_fract_z
 _atom_site_occupancy
  Nd  Nd0  1  0.124110  0.747128  0.873196  1
  Nd  Nd1  1  0.252872  0.626068  0.376982  1
  Nd  Nd2  1  0.373932  0.250914  0.626804  1
  Nd  Nd3  1  0.625000  0.375000  0.250000  1
  Nd  Nd4  1  0.749086  0.875890  0.123018  1
  Er  Er5  1  0.875000  0.125000  0.750000  1
  S  S6  1  0.510144  0.005307  0.362388  1
  S  S7  1  0.142919  0.147755  0.137612  1
  S  S8  1  0.345242  0.498560  0.999014  1
  S  S9  1  0.653772  0.654758  0.653318  1
  S  S10  1  0.501440  0.000454  0.846682  1
  S  S11  1  0.994693  0.857081  0.504837  1
  S  S12  1  0.852245  0.489856  0.995163  1
  S  S13  1  0.999546  0.346228  0.500986  1
