# generated using pymatgen
data_Y4AsSe3
_symmetry_space_group_name_H-M   'P 1'
_cell_length_a   8.19053955
_cell_length_b   10.84621296
_cell_length_c   7.10200190
_cell_angle_alpha   29.16894644
_cell_angle_beta   54.78571900
_cell_angle_gamma   40.96134593
_symmetry_Int_Tables_number   1
_chemical_formula_structural   Y4AsSe3
_chemical_formula_sum   'Y4 As1 Se3'
_cell_volume   194.70287050
_cell_formula_units_Z   1
loop_
 _symmetry_equiv_pos_site_id
 _symmetry_equiv_pos_as_xyz
  1  'x, y, z'
loop_
 _atom_site_type_symbol
 _atom_site_label
 _atom_site_symmetry_multiplicity
 _atom_site_fract_x
 _atom_site_fract_y
 _atom_site_fract_z
 _atom_site_occupancy
  As  As0  1  0.250000  0.500000  0.000000  1
  Se  Se1  1  0.999922  0.000000  0.000000  1
  Se  Se2  1  0.500078  0.000000  0.000000  1
  Se  Se3  1  0.750000  0.500000  0.000000  1
  Y  Y4  1  0.006488  0.500050  0.486924  1
  Y  Y5  1  0.493512  0.499950  0.513076  1
  Y  Y6  1  0.250000  0.000000  0.500000  1
  Y  Y7  1  0.750000  0.000000  0.500000  1
