# generated using pymatgen
data_VH2O3
_symmetry_space_group_name_H-M   'P 1'
_cell_length_a   3.81532702
_cell_length_b   5.76549928
_cell_length_c   5.72317320
_cell_angle_alpha   65.15646191
_cell_angle_beta   70.52439274
_cell_angle_gamma   70.67406101
_symmetry_Int_Tables_number   1
_chemical_formula_structural   VH2O3
_chemical_formula_sum   'V2 H4 O6'
_cell_volume   104.99258080
_cell_formula_units_Z   2
loop_
 _symmetry_equiv_pos_site_id
 _symmetry_equiv_pos_as_xyz
  1  'x, y, z'
loop_
 _atom_site_type_symbol
 _atom_site_label
 _atom_site_symmetry_multiplicity
 _atom_site_fract_x
 _atom_site_fract_y
 _atom_site_fract_z
 _atom_site_occupancy
  H  H0  1  0.469856  0.234139  0.213830  1
  H  H1  1  0.917890  0.265818  0.286149  1
  H  H2  1  0.530143  0.765861  0.786170  1
  H  H3  1  0.082110  0.734181  0.713850  1
  O  O4  1  0.992358  0.250012  0.750049  1
  O  O5  1  0.650305  0.853271  0.850932  1
  O  O6  1  0.007646  0.749988  0.249950  1
  O  O7  1  0.349696  0.146729  0.149068  1
  O  O8  1  0.354460  0.646751  0.649052  1
  O  O9  1  0.645540  0.353250  0.350947  1
  V  V10  1  0.435642  0.250013  0.750002  1
  V  V11  1  0.564359  0.749986  0.249998  1
