# generated using pymatgen
data_Cu13Se8
_symmetry_space_group_name_H-M   'P 1'
_cell_length_a   8.09644195
_cell_length_b   8.09644163
_cell_length_c   8.09644143
_cell_angle_alpha   60.00000103
_cell_angle_beta   60.00000193
_cell_angle_gamma   60.00000272
_symmetry_Int_Tables_number   1
_chemical_formula_structural   Cu13Se8
_chemical_formula_sum   'Cu13 Se8'
_cell_volume   375.29052069
_cell_formula_units_Z   1
loop_
 _symmetry_equiv_pos_site_id
 _symmetry_equiv_pos_as_xyz
  1  'x, y, z'
loop_
 _atom_site_type_symbol
 _atom_site_label
 _atom_site_symmetry_multiplicity
 _atom_site_fract_x
 _atom_site_fract_y
 _atom_site_fract_z
 _atom_site_occupancy
  Cu  Cu0  1  0.128175  0.128175  0.621825  1
  Cu  Cu1  1  0.128175  0.621825  0.128175  1
  Cu  Cu2  1  0.621825  0.128175  0.128175  1
  Cu  Cu3  1  0.128175  0.621825  0.621825  1
  Cu  Cu4  1  0.621825  0.128175  0.621825  1
  Cu  Cu5  1  0.621825  0.621825  0.128175  1
  Cu  Cu6  1  0.379207  0.379207  0.870793  1
  Cu  Cu7  1  0.379207  0.870793  0.379207  1
  Cu  Cu8  1  0.870793  0.379207  0.379207  1
  Cu  Cu9  1  0.379207  0.870793  0.870793  1
  Cu  Cu10  1  0.870793  0.870793  0.379207  1
  Cu  Cu11  1  0.870793  0.379207  0.870793  1
  Cu  Cu12  1  0.875000  0.875000  0.875000  1
  Se  Se13  1  0.002252  0.002252  0.002252  1
  Se  Se14  1  0.002252  0.002252  0.493244  1
  Se  Se15  1  0.002252  0.493244  0.002252  1
  Se  Se16  1  0.493244  0.002252  0.002252  1
  Se  Se17  1  1.000230  0.499923  0.499923  1
  Se  Se18  1  0.499923  1.000230  0.499923  1
  Se  Se19  1  0.499923  0.499923  1.000230  1
  Se  Se20  1  0.499923  0.499923  0.499923  1
