# generated using pymatgen
data_Ba2SnSe5
_symmetry_space_group_name_H-M   'P 1'
_cell_length_a   12.57113456
_cell_length_b   17.59336573
_cell_length_c   18.44793090
_cell_angle_alpha   90.00000000
_cell_angle_beta   90.00000000
_cell_angle_gamma   90.00000000
_symmetry_Int_Tables_number   1
_chemical_formula_structural   Ba2SnSe5
_chemical_formula_sum   'Ba32 Sn16 Se80'
_cell_volume   4080.10245889
_cell_formula_units_Z   16
loop_
 _symmetry_equiv_pos_site_id
 _symmetry_equiv_pos_as_xyz
  1  'x, y, z'
loop_
 _atom_site_type_symbol
 _atom_site_label
 _atom_site_symmetry_multiplicity
 _atom_site_fract_x
 _atom_site_fract_y
 _atom_site_fract_z
 _atom_site_occupancy
  Se  Se0  1  0.357570  0.325199  0.369831  1
  Se  Se1  1  0.857570  0.174801  0.630169  1
  Se  Se2  1  0.642430  0.825199  0.130169  1
  Se  Se3  1  0.142430  0.674801  0.869831  1
  Se  Se4  1  0.362148  0.324570  0.123623  1
  Se  Se5  1  0.862148  0.175430  0.876377  1
  Se  Se6  1  0.637852  0.824570  0.376377  1
  Se  Se7  1  0.137852  0.675430  0.623623  1
  Se  Se8  1  0.013918  0.422590  0.368513  1
  Se  Se9  1  0.513918  0.077410  0.631487  1
  Se  Se10  1  0.986082  0.922590  0.131487  1
  Se  Se11  1  0.486082  0.577410  0.868513  1
  Se  Se12  1  0.508102  0.074987  0.879408  1
  Se  Se13  1  0.008102  0.425013  0.120592  1
  Se  Se14  1  0.491898  0.574987  0.620592  1
  Se  Se15  1  0.991898  0.925013  0.379408  1
  Se  Se16  1  0.379889  0.315951  0.872877  1
  Se  Se17  1  0.879889  0.184049  0.127123  1
  Se  Se18  1  0.620111  0.815951  0.627123  1
  Se  Se19  1  0.120111  0.684049  0.372877  1
  Se  Se20  1  0.857486  0.173998  0.381014  1
  Se  Se21  1  0.357486  0.326002  0.618986  1
  Se  Se22  1  0.142514  0.673998  0.118986  1
  Se  Se23  1  0.642514  0.826002  0.881014  1
  Se  Se24  1  0.489842  0.075248  0.131492  1
  Se  Se25  1  0.989842  0.424752  0.868508  1
  Se  Se26  1  0.510158  0.575248  0.368508  1
  Se  Se27  1  0.010158  0.924752  0.631492  1
  Se  Se28  1  0.621118  0.238429  0.241861  1
  Se  Se29  1  0.121118  0.261571  0.758139  1
  Se  Se30  1  0.378882  0.738429  0.258139  1
  Se  Se31  1  0.878882  0.761571  0.741861  1
  Se  Se32  1  0.188247  0.101282  0.128324  1
  Se  Se33  1  0.688247  0.398718  0.871676  1
  Se  Se34  1  0.811753  0.601282  0.371676  1
  Se  Se35  1  0.311753  0.898718  0.628324  1
  Se  Se36  1  0.508268  0.076625  0.383098  1
  Se  Se37  1  0.008268  0.423375  0.616902  1
  Se  Se38  1  0.491732  0.576625  0.116902  1
  Se  Se39  1  0.991732  0.923375  0.883098  1
  Se  Se40  1  0.239028  0.474411  0.761799  1
  Se  Se41  1  0.739028  0.025589  0.238201  1
  Se  Se42  1  0.760972  0.974411  0.738201  1
  Se  Se43  1  0.260972  0.525589  0.261799  1
  Se  Se44  1  0.621392  0.237129  0.019866  1
  Se  Se45  1  0.121392  0.262871  0.980134  1
  Se  Se46  1  0.378608  0.737129  0.480134  1
  Se  Se47  1  0.878608  0.762871  0.519866  1
  Se  Se48  1  0.188741  0.103709  0.387401  1
  Se  Se49  1  0.688741  0.396291  0.612599  1
  Se  Se50  1  0.811259  0.603709  0.112599  1
  Se  Se51  1  0.311259  0.896291  0.887401  1
  Se  Se52  1  0.187610  0.107401  0.880374  1
  Se  Se53  1  0.687610  0.392599  0.119626  1
  Se  Se54  1  0.812390  0.607401  0.619626  1
  Se  Se55  1  0.312390  0.892599  0.380374  1
  Se  Se56  1  0.239386  0.472691  0.981239  1
  Se  Se57  1  0.739386  0.027309  0.018761  1
  Se  Se58  1  0.760614  0.972691  0.518761  1
  Se  Se59  1  0.260614  0.527309  0.481239  1
  Se  Se60  1  0.811068  0.608402  0.873585  1
  Se  Se61  1  0.311068  0.891598  0.126415  1
  Se  Se62  1  0.188932  0.108402  0.626415  1
  Se  Se63  1  0.688932  0.391598  0.373585  1
  Se  Se64  1  0.248743  0.996059  0.053229  1
  Se  Se65  1  0.748743  0.503941  0.946771  1
  Se  Se66  1  0.751257  0.496059  0.446771  1
  Se  Se67  1  0.251257  0.003941  0.553229  1
  Se  Se68  1  0.250381  0.997283  0.306701  1
  Se  Se69  1  0.750381  0.502717  0.693299  1
  Se  Se70  1  0.749619  0.497283  0.193299  1
  Se  Se71  1  0.249619  0.002717  0.806701  1
  Se  Se72  1  0.112451  0.234099  0.474077  1
  Se  Se73  1  0.612451  0.265901  0.525923  1
  Se  Se74  1  0.887549  0.734099  0.025923  1
  Se  Se75  1  0.387549  0.765901  0.974077  1
  Se  Se76  1  0.110357  0.248448  0.238674  1
  Se  Se77  1  0.610357  0.251552  0.761326  1
  Se  Se78  1  0.889643  0.748448  0.261326  1
  Se  Se79  1  0.389643  0.751552  0.738674  1
  Sn  Sn80  1  0.184736  0.371206  0.871383  1
  Sn  Sn81  1  0.684736  0.128794  0.128617  1
  Sn  Sn82  1  0.815264  0.871206  0.628617  1
  Sn  Sn83  1  0.315264  0.628794  0.371383  1
  Sn  Sn84  1  0.181479  0.367352  0.072814  1
  Sn  Sn85  1  0.681479  0.132648  0.927186  1
  Sn  Sn86  1  0.818521  0.867352  0.427186  1
  Sn  Sn87  1  0.318521  0.632648  0.572814  1
  Sn  Sn88  1  0.679371  0.130338  0.328686  1
  Sn  Sn89  1  0.179371  0.369662  0.671314  1
  Sn  Sn90  1  0.320629  0.630338  0.171314  1
  Sn  Sn91  1  0.820629  0.869662  0.828686  1
  Sn  Sn92  1  0.151519  0.314157  0.360044  1
  Sn  Sn93  1  0.651519  0.185843  0.639956  1
  Sn  Sn94  1  0.848481  0.814157  0.139956  1
  Sn  Sn95  1  0.348481  0.685843  0.860044  1
  Ba  Ba96  1  0.363367  0.177449  0.003208  1
  Ba  Ba97  1  0.863367  0.322551  0.996792  1
  Ba  Ba98  1  0.636633  0.677449  0.496792  1
  Ba  Ba99  1  0.136633  0.822551  0.503208  1
  Ba  Ba100  1  0.358425  0.177450  0.253829  1
  Ba  Ba101  1  0.858425  0.322550  0.746171  1
  Ba  Ba102  1  0.641575  0.677450  0.246171  1
  Ba  Ba103  1  0.141575  0.822550  0.753829  1
  Ba  Ba104  1  0.495464  0.427381  0.743451  1
  Ba  Ba105  1  0.995464  0.072619  0.256549  1
  Ba  Ba106  1  0.504536  0.927381  0.756549  1
  Ba  Ba107  1  0.004536  0.572619  0.243451  1
  Ba  Ba108  1  0.489023  0.434484  0.494184  1
  Ba  Ba109  1  0.989023  0.065516  0.505816  1
  Ba  Ba110  1  0.510977  0.934484  0.005816  1
  Ba  Ba111  1  0.010977  0.565516  0.994184  1
  Ba  Ba112  1  0.366314  0.176811  0.753482  1
  Ba  Ba113  1  0.866314  0.323189  0.246518  1
  Ba  Ba114  1  0.633686  0.676811  0.746518  1
  Ba  Ba115  1  0.133686  0.823189  0.253482  1
  Ba  Ba116  1  0.867180  0.317437  0.496488  1
  Ba  Ba117  1  0.367180  0.182563  0.503512  1
  Ba  Ba118  1  0.132820  0.817437  0.003512  1
  Ba  Ba119  1  0.632820  0.682563  0.996488  1
  Ba  Ba120  1  0.005591  0.566505  0.746136  1
  Ba  Ba121  1  0.505591  0.933495  0.253864  1
  Ba  Ba122  1  0.994409  0.066505  0.753864  1
  Ba  Ba123  1  0.494409  0.433495  0.246136  1
  Ba  Ba124  1  0.006946  0.568759  0.493849  1
  Ba  Ba125  1  0.506946  0.931241  0.506151  1
  Ba  Ba126  1  0.993054  0.068759  0.006151  1
  Ba  Ba127  1  0.493054  0.431241  0.993849  1
