# generated using pymatgen
data_NbHO3
_symmetry_space_group_name_H-M   'P 1'
_cell_length_a   6.72474348
_cell_length_b   6.79742287
_cell_length_c   6.74155745
_cell_angle_alpha   109.88038735
_cell_angle_beta   109.23209098
_cell_angle_gamma   109.75693761
_symmetry_Int_Tables_number   1
_chemical_formula_structural   NbHO3
_chemical_formula_sum   'Nb4 H4 O12'
_cell_volume   235.87376414
_cell_formula_units_Z   4
loop_
 _symmetry_equiv_pos_site_id
 _symmetry_equiv_pos_as_xyz
  1  'x, y, z'
loop_
 _atom_site_type_symbol
 _atom_site_label
 _atom_site_symmetry_multiplicity
 _atom_site_fract_x
 _atom_site_fract_y
 _atom_site_fract_z
 _atom_site_occupancy
  H  H0  1  0.679138  0.947620  0.628308  1
  H  H1  1  0.361525  0.312303  0.053273  1
  H  H2  1  0.747858  0.696504  0.053138  1
  H  H3  1  0.946041  0.257031  0.304323  1
  Nb  Nb4  1  -0.003156  0.467986  0.009777  1
  Nb  Nb5  1  0.520797  0.492992  0.520933  1
  Nb  Nb6  1  0.482096  0.963342  0.994093  1
  Nb  Nb7  1  0.035336  0.012689  0.528395  1
  O  O8  1  0.209563  0.908666  0.702151  1
  O  O9  1  0.104862  0.287559  0.809677  1
  O  O10  1  0.188523  0.488613  0.294471  1
  O  O11  1  0.293505  0.795926  0.086491  1
  O  O12  1  0.520345  0.707746  0.806551  1
  O  O13  1  0.286196  0.205045  0.489236  1
  O  O14  1  0.705419  0.825849  0.524367  1
  O  O15  1  0.475808  0.299329  0.179304  1
  O  O16  1  0.709234  0.188250  0.895787  1
  O  O17  1  0.794351  0.498434  0.701180  1
  O  O18  1  0.881605  0.706332  0.183043  1
  O  O19  1  0.816954  0.121781  0.295504  1
