# generated using pymatgen
data_Na(La2Se3)4
_symmetry_space_group_name_H-M   'P 1'
_cell_length_a   23.64878994
_cell_length_b   9.09689191
_cell_length_c   9.09689245
_cell_angle_alpha   89.99999967
_cell_angle_beta   54.76022813
_cell_angle_gamma   54.76022575
_symmetry_Int_Tables_number   1
_chemical_formula_structural   Na(La2Se3)4
_chemical_formula_sum   'Na2 La16 Se24'
_cell_volume   1131.25739497
_cell_formula_units_Z   2
loop_
 _symmetry_equiv_pos_site_id
 _symmetry_equiv_pos_as_xyz
  1  'x, y, z'
loop_
 _atom_site_type_symbol
 _atom_site_label
 _atom_site_symmetry_multiplicity
 _atom_site_fract_x
 _atom_site_fract_y
 _atom_site_fract_z
 _atom_site_occupancy
  La  La0  1  0.997119  0.385460  0.250754  1
  La  La1  1  0.997119  0.123184  0.757890  1
  La  La2  1  0.083015  0.625477  0.375477  1
  La  La3  1  0.166667  0.250000  0.629894  1
  La  La4  1  0.336214  0.376816  0.249246  1
  La  La5  1  0.250318  0.874523  0.124523  1
  La  La6  1  0.336214  0.114540  0.742110  1
  La  La7  1  0.166667  0.750000  0.870106  1
  La  La8  1  0.497119  0.257890  0.623184  1
  La  La9  1  0.666667  0.370106  0.250000  1
  La  La10  1  0.583015  0.875477  0.125477  1
  La  La11  1  0.666667  0.129894  0.750000  1
  La  La12  1  0.497119  0.750754  0.885460  1
  La  La13  1  0.750318  0.624523  0.374523  1
  La  La14  1  0.836214  0.242110  0.614540  1
  La  La15  1  0.836214  0.749246  0.876816  1
  Na  Na16  1  0.416667  0.625000  0.375000  1
  Na  Na17  1  0.916667  0.875000  0.125000  1
  Se  Se18  1  0.050346  0.999993  0.350302  1
  Se  Se19  1  0.122471  0.492621  0.995517  1
  Se  Se20  1  0.050346  0.348967  0.498659  1
  Se  Se21  1  0.282987  0.151033  0.149698  1
  Se  Se22  1  0.282987  0.500007  0.001341  1
  Se  Se23  1  0.122471  0.639964  0.637068  1
  Se  Se24  1  0.384504  -0.000472  0.346074  1
  Se  Se25  1  0.210862  0.860036  0.504483  1
  Se  Se26  1  0.448830  0.499586  1.000472  1
  Se  Se27  1  0.384504  0.346960  0.500414  1
  Se  Se28  1  0.210862  0.007379  0.862932  1
  Se  Se29  1  0.622471  0.137068  0.139964  1
  Se  Se30  1  0.622471  0.495517  0.992621  1
  Se  Se31  1  0.448830  0.653926  0.653040  1
  Se  Se32  1  0.710862  0.004483  0.360036  1
  Se  Se33  1  0.550346  0.850302  0.499993  1
  Se  Se34  1  0.782987  0.501341  0.000007  1
  Se  Se35  1  0.710862  0.362932  0.507379  1
  Se  Se36  1  0.550346  0.998659  0.848967  1
  Se  Se37  1  0.948830  0.153040  0.153926  1
  Se  Se38  1  0.948830  0.500472  0.999586  1
  Se  Se39  1  0.782987  0.649698  0.651033  1
  Se  Se40  1  0.884504  0.846074  0.499528  1
  Se  Se41  1  0.884504  0.000414  0.846960  1
