# generated using pymatgen
data_Ca(NdTe2)2
_symmetry_space_group_name_H-M   'P 1'
_cell_length_a   8.29391458
_cell_length_b   8.29391507
_cell_length_c   8.29391482
_cell_angle_alpha   109.77016797
_cell_angle_beta   109.77016076
_cell_angle_gamma   108.87497101
_symmetry_Int_Tables_number   1
_chemical_formula_structural   Ca(NdTe2)2
_chemical_formula_sum   'Ca2 Nd4 Te8'
_cell_volume   439.15881418
_cell_formula_units_Z   2
loop_
 _symmetry_equiv_pos_site_id
 _symmetry_equiv_pos_as_xyz
  1  'x, y, z'
loop_
 _atom_site_type_symbol
 _atom_site_label
 _atom_site_symmetry_multiplicity
 _atom_site_fract_x
 _atom_site_fract_y
 _atom_site_fract_z
 _atom_site_occupancy
  Ca  Ca0  1  0.625000  0.375000  0.250000  1
  Ca  Ca1  1  0.875000  0.125000  0.750000  1
  Nd  Nd2  1  0.124367  0.750000  0.874367  1
  Nd  Nd3  1  0.250000  0.624367  0.374367  1
  Nd  Nd4  1  0.375633  0.250000  0.625633  1
  Nd  Nd5  1  0.750000  0.875633  0.125633  1
  Te  Te6  1  0.003143  0.855907  0.502546  1
  Te  Te7  1  0.000597  0.353361  0.497454  1
  Te  Te8  1  0.496857  0.999403  0.852764  1
  Te  Te9  1  0.144093  0.146639  0.147236  1
  Te  Te10  1  0.355907  0.503143  0.002546  1
  Te  Te11  1  0.646639  0.644093  0.647236  1
  Te  Te12  1  0.499403  0.996857  0.352764  1
  Te  Te13  1  0.853361  0.500597  0.997454  1
