# generated using pymatgen
data_KN3O4
_symmetry_space_group_name_H-M   'P 1'
_cell_length_a   6.72920893
_cell_length_b   7.38838116
_cell_length_c   9.60399615
_cell_angle_alpha   90.00000000
_cell_angle_beta   90.00000000
_cell_angle_gamma   96.33154397
_symmetry_Int_Tables_number   1
_chemical_formula_structural   KN3O4
_chemical_formula_sum   'K4 N12 O16'
_cell_volume   474.57859218
_cell_formula_units_Z   4
loop_
 _symmetry_equiv_pos_site_id
 _symmetry_equiv_pos_as_xyz
  1  'x, y, z'
loop_
 _atom_site_type_symbol
 _atom_site_label
 _atom_site_symmetry_multiplicity
 _atom_site_fract_x
 _atom_site_fract_y
 _atom_site_fract_z
 _atom_site_occupancy
  N  N0  1  0.943135  0.363741  0.341758  1
  N  N1  1  0.443135  0.863741  0.158242  1
  N  N2  1  0.056865  0.636259  0.658242  1
  N  N3  1  0.745015  0.101309  0.876557  1
  N  N4  1  0.754985  0.398691  0.376557  1
  N  N5  1  0.254985  0.898691  0.123443  1
  N  N6  1  0.245015  0.601309  0.623443  1
  N  N7  1  0.556865  0.136259  0.841758  1
  N  N8  1  0.850039  0.231258  0.960780  1
  N  N9  1  0.649961  0.268742  0.460780  1
  N  N10  1  0.350039  0.731258  0.539220  1
  N  N11  1  0.149961  0.768742  0.039220  1
  O  O12  1  0.731608  0.164905  0.538903  1
  O  O13  1  0.768392  0.335095  0.038903  1
  O  O14  1  0.231608  0.664905  0.961097  1
  O  O15  1  0.268392  0.835095  0.461097  1
  O  O16  1  0.534568  0.722613  0.542683  1
  O  O17  1  0.965432  0.777387  0.042683  1
  O  O18  1  0.465432  0.277387  0.457317  1
  O  O19  1  0.034568  0.222613  0.957317  1
  O  O20  1  0.003676  0.209142  0.343212  1
  O  O21  1  0.503676  0.709142  0.156788  1
  O  O22  1  0.996324  0.790858  0.656788  1
  O  O23  1  0.948995  0.497924  0.702033  1
  O  O24  1  0.551005  0.002076  0.202033  1
  O  O25  1  0.051005  0.502076  0.297967  1
  O  O26  1  0.448995  0.997924  0.797967  1
  O  O27  1  0.496324  0.290858  0.843212  1
  K  K28  1  0.647862  0.674301  0.841561  1
  K  K29  1  0.852138  0.825699  0.341561  1
  K  K30  1  0.352138  0.325699  0.158439  1
  K  K31  1  0.147862  0.174301  0.658439  1
