# generated using pymatgen
data_Li2FeP2O7
_symmetry_space_group_name_H-M   'P 1'
_cell_length_a   5.70031042
_cell_length_b   7.85320290
_cell_length_c   7.95372882
_cell_angle_alpha   63.48971722
_cell_angle_beta   89.99872392
_cell_angle_gamma   68.71476788
_symmetry_Int_Tables_number   1
_chemical_formula_structural   Li2FeP2O7
_chemical_formula_sum   'Li4 Fe2 P4 O14'
_cell_volume   291.22410865
_cell_formula_units_Z   2
loop_
 _symmetry_equiv_pos_site_id
 _symmetry_equiv_pos_as_xyz
  1  'x, y, z'
loop_
 _atom_site_type_symbol
 _atom_site_label
 _atom_site_symmetry_multiplicity
 _atom_site_fract_x
 _atom_site_fract_y
 _atom_site_fract_z
 _atom_site_occupancy
  Li  Li0  1  0.049894  0.549858  0.809459  1
  Li  Li1  1  0.950080  0.450144  0.190531  1
  Li  Li2  1  0.400142  0.549900  0.309478  1
  Li  Li3  1  0.599839  0.450096  0.690540  1
  O  O4  1  0.887715  0.775350  0.528893  1
  O  O5  1  0.510201  -0.000046  0.249994  1
  O  O6  1  0.304646  0.762383  0.714984  1
  O  O7  1  0.742676  0.613047  0.924925  1
  O  O8  1  0.663006  0.224601  0.971081  1
  O  O9  1  0.933133  0.762269  0.215031  1
  O  O10  1  0.695385  0.237613  0.284995  1
  O  O11  1  0.336978  0.775385  0.028915  1
  O  O12  1  0.489784  0.000049  0.750016  1
  O  O13  1  0.355620  0.387033  0.575080  1
  O  O14  1  0.066857  0.237718  0.784993  1
  O  O15  1  0.112299  0.224680  0.471105  1
  O  O16  1  0.257313  0.386947  0.075073  1
  O  O17  1  0.644362  0.612976  0.424956  1
  P  P18  1  0.755148  0.774491  0.360103  1
  P  P19  1  0.244847  0.225510  0.639903  1
  P  P20  1  0.470382  0.774577  0.860099  1
  P  P21  1  0.529617  0.225420  0.139906  1
  Fe  Fe22  1  -0.000003  -0.000007  0.000008  1
  Fe  Fe23  1  0.000080  1.000003  0.499930  1
