# generated using pymatgen
data_Tb2SmS4
_symmetry_space_group_name_H-M   'P 1'
_cell_length_a   7.25654251
_cell_length_b   7.25654233
_cell_length_c   7.25654262
_cell_angle_alpha   109.34362889
_cell_angle_beta   109.34363536
_cell_angle_gamma   109.72670174
_symmetry_Int_Tables_number   1
_chemical_formula_structural   Tb2SmS4
_chemical_formula_sum   'Tb4 Sm2 S8'
_cell_volume   294.14457868
_cell_formula_units_Z   2
loop_
 _symmetry_equiv_pos_site_id
 _symmetry_equiv_pos_as_xyz
  1  'x, y, z'
loop_
 _atom_site_type_symbol
 _atom_site_label
 _atom_site_symmetry_multiplicity
 _atom_site_fract_x
 _atom_site_fract_y
 _atom_site_fract_z
 _atom_site_occupancy
  S  S0  1  0.002593  0.854414  0.498526  1
  S  S1  1  0.004067  0.355888  0.501474  1
  S  S2  1  0.497407  0.995933  0.851821  1
  S  S3  1  0.145586  0.144112  0.148179  1
  S  S4  1  0.354414  0.502593  0.998526  1
  S  S5  1  0.644112  0.645586  0.648179  1
  S  S6  1  0.495933  0.997407  0.351821  1
  S  S7  1  0.855888  0.504067  0.001474  1
  Sm  Sm8  1  0.625000  0.375000  0.250000  1
  Sm  Sm9  1  0.875000  0.125000  0.750000  1
  Tb  Tb10  1  0.124162  0.750000  0.874162  1
  Tb  Tb11  1  0.250000  0.624162  0.374162  1
  Tb  Tb12  1  0.375838  0.250000  0.625838  1
  Tb  Tb13  1  0.750000  0.875838  0.125838  1
