# generated using pymatgen
data_Ba(BS2)2
_symmetry_space_group_name_H-M   'P 1'
_cell_length_a   6.06975875
_cell_length_b   6.82463492
_cell_length_c   8.69324134
_cell_angle_alpha   66.88827551
_cell_angle_beta   82.36278526
_cell_angle_gamma   70.20977943
_symmetry_Int_Tables_number   1
_chemical_formula_structural   Ba(BS2)2
_chemical_formula_sum   'Ba2 B4 S8'
_cell_volume   311.64452437
_cell_formula_units_Z   2
loop_
 _symmetry_equiv_pos_site_id
 _symmetry_equiv_pos_as_xyz
  1  'x, y, z'
loop_
 _atom_site_type_symbol
 _atom_site_label
 _atom_site_symmetry_multiplicity
 _atom_site_fract_x
 _atom_site_fract_y
 _atom_site_fract_z
 _atom_site_occupancy
  B  B0  1  0.560907  0.541612  0.962443  1
  B  B1  1  0.060907  0.504055  0.037557  1
  B  B2  1  0.872806  0.136212  0.264074  1
  B  B3  1  0.372806  0.400286  0.735926  1
  S  S4  1  0.748435  0.709493  0.977478  1
  S  S5  1  0.060212  0.294906  0.267318  1
  S  S6  1  0.418407  0.294732  0.571220  1
  S  S7  1  0.918407  0.865952  0.428780  1
  S  S8  1  0.665191  0.222263  0.099623  1
  S  S9  1  0.165191  0.321886  0.900377  1
  S  S10  1  0.560212  0.562224  0.732682  1
  S  S11  1  0.248435  0.686971  0.022522  1
  Ba  Ba12  1  0.956121  0.107617  0.693373  1
  Ba  Ba13  1  0.456121  0.800990  0.306627  1
