# generated using pymatgen
data_Li3V2(PO4)3
_symmetry_space_group_name_H-M   'P 1'
_cell_length_a   8.60256039
_cell_length_b   8.82951534
_cell_length_c   12.36853846
_cell_angle_alpha   90.00000000
_cell_angle_beta   88.04351582
_cell_angle_gamma   90.00000000
_symmetry_Int_Tables_number   1
_chemical_formula_structural   Li3V2(PO4)3
_chemical_formula_sum   'Li12 V8 P12 O48'
_cell_volume   938.92246708
_cell_formula_units_Z   4
loop_
 _symmetry_equiv_pos_site_id
 _symmetry_equiv_pos_as_xyz
  1  'x, y, z'
loop_
 _atom_site_type_symbol
 _atom_site_label
 _atom_site_symmetry_multiplicity
 _atom_site_fract_x
 _atom_site_fract_y
 _atom_site_fract_z
 _atom_site_occupancy
  Li  Li0  1  0.703245  0.195788  0.949861  1
  Li  Li1  1  0.500000  0.599878  0.750000  1
  Li  Li2  1  0.000000  0.899083  0.750000  1
  Li  Li3  1  0.500000  0.500000  0.000000  1
  Li  Li4  1  0.703245  0.804212  0.449861  1
  Li  Li5  1  0.296755  0.804212  0.050139  1
  Li  Li6  1  0.500000  0.400122  0.250000  1
  Li  Li7  1  0.000000  0.100917  0.250000  1
  Li  Li8  1  0.000000  0.000000  0.500000  1
  Li  Li9  1  0.296755  0.195788  0.550139  1
  Li  Li10  1  0.500000  0.500000  0.500000  1
  Li  Li11  1  0.000000  0.000000  0.000000  1
  V  V12  1  0.787452  0.499889  0.854923  1
  V  V13  1  0.715424  0.003719  0.641383  1
  V  V14  1  0.284576  0.996281  0.358617  1
  V  V15  1  0.212548  0.500111  0.145077  1
  V  V16  1  0.212548  0.499889  0.645077  1
  V  V17  1  0.284576  0.003719  0.858617  1
  V  V18  1  0.715424  0.996281  0.141383  1
  V  V19  1  0.787452  0.500111  0.354923  1
  P  P20  1  0.500000  0.707968  0.250000  1
  P  P21  1  0.647217  0.147334  0.395915  1
  P  P22  1  0.152007  0.354368  0.396174  1
  P  P23  1  0.500000  0.292032  0.750000  1
  P  P24  1  0.352783  0.147334  0.104085  1
  P  P25  1  0.847993  0.645632  0.603826  1
  P  P26  1  0.647217  0.852666  0.895915  1
  P  P27  1  0.352783  0.852666  0.604085  1
  P  P28  1  0.152007  0.645632  0.896174  1
  P  P29  1  0.847993  0.354368  0.103826  1
  P  P30  1  0.000000  0.202670  0.750000  1
  P  P31  1  0.000000  0.797330  0.250000  1
  O  O32  1  0.016066  0.405917  0.104242  1
  O  O33  1  0.756128  0.594123  0.706793  1
  O  O34  1  0.125140  0.296597  0.689189  1
  O  O35  1  0.068827  0.092912  0.835809  1
  O  O36  1  0.385953  0.195245  0.816343  1
  O  O37  1  0.472312  0.108843  0.408006  1
  O  O38  1  0.722655  0.905807  0.787253  1
  O  O39  1  0.425496  0.600448  0.165092  1
  O  O40  1  0.751050  0.589973  0.506853  1
  O  O41  1  0.854379  0.177324  0.090562  1
  O  O42  1  0.255610  0.063236  0.018308  1
  O  O43  1  0.931173  0.092912  0.664191  1
  O  O44  1  0.145621  0.822676  0.909438  1
  O  O45  1  0.125140  0.703403  0.189189  1
  O  O46  1  0.425496  0.399552  0.665092  1
  O  O47  1  0.983934  0.405917  0.395758  1
  O  O48  1  0.744390  0.063236  0.481692  1
  O  O49  1  0.277345  0.094193  0.212747  1
  O  O50  1  0.349295  0.322985  0.092770  1
  O  O51  1  0.243872  0.594123  0.793207  1
  O  O52  1  0.255610  0.936764  0.518308  1
  O  O53  1  0.756128  0.405877  0.206793  1
  O  O54  1  0.874860  0.296597  0.810811  1
  O  O55  1  0.472312  0.891157  0.908006  1
  O  O56  1  0.614047  0.804755  0.183657  1
  O  O57  1  0.248950  0.589973  0.993147  1
  O  O58  1  0.650705  0.677015  0.907230  1
  O  O59  1  0.016066  0.594082  0.604242  1
  O  O60  1  0.650705  0.322985  0.407230  1
  O  O61  1  0.243872  0.405877  0.293207  1
  O  O62  1  0.527688  0.891157  0.591994  1
  O  O63  1  0.574504  0.399552  0.834908  1
  O  O64  1  0.614047  0.195245  0.683657  1
  O  O65  1  0.248950  0.410027  0.493147  1
  O  O66  1  0.385953  0.804755  0.316343  1
  O  O67  1  0.145621  0.177324  0.409438  1
  O  O68  1  0.983934  0.594082  0.895758  1
  O  O69  1  0.068827  0.907088  0.335809  1
  O  O70  1  0.854379  0.822676  0.590562  1
  O  O71  1  0.574504  0.600448  0.334908  1
  O  O72  1  0.277345  0.905807  0.712747  1
  O  O73  1  0.744390  0.936764  0.981692  1
  O  O74  1  0.874860  0.703403  0.310811  1
  O  O75  1  0.931173  0.907088  0.164191  1
  O  O76  1  0.527688  0.108843  0.091994  1
  O  O77  1  0.722655  0.094193  0.287253  1
  O  O78  1  0.349295  0.677015  0.592770  1
  O  O79  1  0.751050  0.410027  0.006853  1
