# generated using pymatgen
data_MgAl2O4
_symmetry_space_group_name_H-M   'P 1'
_cell_length_a   5.77431244
_cell_length_b   5.77419747
_cell_length_c   17.33697540
_cell_angle_alpha   60.02056026
_cell_angle_beta   60.01942851
_cell_angle_gamma   59.98659590
_symmetry_Int_Tables_number   1
_chemical_formula_structural   MgAl2O4
_chemical_formula_sum   'Mg6 Al12 O24'
_cell_volume   408.82494797
_cell_formula_units_Z   6
loop_
 _symmetry_equiv_pos_site_id
 _symmetry_equiv_pos_as_xyz
  1  'x, y, z'
loop_
 _atom_site_type_symbol
 _atom_site_label
 _atom_site_symmetry_multiplicity
 _atom_site_fract_x
 _atom_site_fract_y
 _atom_site_fract_z
 _atom_site_occupancy
  Al  Al0  1  0.496348  0.004916  0.167395  1
  Al  Al1  1  0.496449  0.496454  0.167452  1
  Al  Al2  1  0.500517  0.001340  0.499197  1
  Al  Al3  1  0.500819  0.500839  0.332569  1
  Al  Al4  1  0.004919  0.496343  0.167399  1
  Al  Al5  1  0.500524  0.500526  0.499197  1
  Al  Al6  1  0.005704  0.498378  0.832507  1
  Al  Al7  1  0.498379  0.005696  0.832509  1
  Al  Al8  1  0.501870  0.501871  0.664778  1
  Al  Al9  1  0.001335  0.500517  0.499199  1
  Al  Al10  1  0.498418  0.498420  0.832483  1
  Al  Al11  1  0.877417  0.877396  0.955883  1
  Mg  Mg12  1  0.121242  0.121265  0.045518  1
  Mg  Mg13  1  0.496740  0.496714  0.003169  1
  Mg  Mg14  1  0.123906  0.123931  0.376101  1
  Mg  Mg15  1  0.125199  0.125228  0.708129  1
  Mg  Mg16  1  0.878582  0.878568  0.288095  1
  Mg  Mg17  1  0.874044  0.874018  0.625957  1
  O  O18  1  0.250714  0.250708  0.095403  1
  O  O19  1  0.250681  0.712295  0.095452  1
  O  O20  1  0.260469  0.260477  0.239549  1
  O  O21  1  0.712288  0.250689  0.095447  1
  O  O22  1  0.296720  0.734583  0.244739  1
  O  O23  1  0.263358  0.263358  0.421625  1
  O  O24  1  0.748550  0.748542  0.084785  1
  O  O25  1  0.734577  0.296722  0.244737  1
  O  O26  1  0.263312  0.708461  0.421637  1
  O  O27  1  0.263315  0.263328  0.570014  1
  O  O28  1  0.708445  0.263328  0.421631  1
  O  O29  1  0.734566  0.734581  0.244754  1
  O  O30  1  0.290242  0.736649  0.578818  1
  O  O31  1  0.265862  0.265853  0.753237  1
  O  O32  1  0.737337  0.737324  0.429332  1
  O  O33  1  0.736653  0.290230  0.578816  1
  O  O34  1  0.262893  0.262893  0.903777  1
  O  O35  1  0.265837  0.708583  0.753237  1
  O  O36  1  0.736624  0.736632  0.578827  1
  O  O37  1  0.708569  0.265844  0.753235  1
  O  O38  1  0.264955  0.754673  0.908549  1
  O  O39  1  0.732263  0.732254  0.767745  1
  O  O40  1  0.754701  0.264933  0.908543  1
  O  O41  1  0.754658  0.754643  0.908569  1
