# generated using pymatgen
data_Hg3TeO6
_symmetry_space_group_name_H-M   'P 1'
_cell_length_a   12.03475649
_cell_length_b   12.03475648
_cell_length_c   12.03475648
_cell_angle_alpha   109.47122062
_cell_angle_beta   109.47122061
_cell_angle_gamma   109.47122065
_symmetry_Int_Tables_number   1
_chemical_formula_structural   Hg3TeO6
_chemical_formula_sum   'Hg24 Te8 O48'
_cell_volume   1341.80692903
_cell_formula_units_Z   8
loop_
 _symmetry_equiv_pos_site_id
 _symmetry_equiv_pos_as_xyz
  1  'x, y, z'
loop_
 _atom_site_type_symbol
 _atom_site_label
 _atom_site_symmetry_multiplicity
 _atom_site_fract_x
 _atom_site_fract_y
 _atom_site_fract_z
 _atom_site_occupancy
  O  O0  1  0.856122  0.496389  0.855574  1
  O  O1  1  0.140814  0.000547  0.644426  1
  O  O2  1  0.359186  0.003611  0.859733  1
  O  O3  1  0.499453  0.640267  0.643878  1
  O  O4  1  0.640267  0.643878  0.499453  1
  O  O5  1  0.855574  0.856122  0.496389  1
  O  O6  1  0.000547  0.644426  0.140814  1
  O  O7  1  0.859733  0.359186  0.003611  1
  O  O8  1  0.496389  0.855574  0.856122  1
  O  O9  1  0.644426  0.140814  0.000547  1
  O  O10  1  0.003611  0.859733  0.359186  1
  O  O11  1  0.643878  0.499453  0.640267  1
  O  O12  1  0.143878  0.503611  0.144426  1
  O  O13  1  0.859186  0.999453  0.355574  1
  O  O14  1  0.640814  0.996389  0.140267  1
  O  O15  1  0.500547  0.359733  0.356122  1
  O  O16  1  0.359733  0.356122  0.500547  1
  O  O17  1  0.144426  0.143878  0.503611  1
  O  O18  1  0.999453  0.355574  0.859186  1
  O  O19  1  0.140347  0.501834  0.645526  1
  O  O20  1  0.140267  0.640814  0.996389  1
  O  O21  1  0.355574  0.859186  0.999453  1
  O  O22  1  0.996389  0.140267  0.640814  1
  O  O23  1  0.356122  0.500547  0.359733  1
  O  O24  1  0.645526  0.140347  0.501834  1
  O  O25  1  0.138513  0.143693  0.998166  1
  O  O26  1  0.361487  0.359653  0.005180  1
  O  O27  1  0.356307  0.494820  0.854474  1
  O  O28  1  0.494820  0.854474  0.356307  1
  O  O29  1  0.501834  0.645526  0.140347  1
  O  O30  1  0.143693  0.998166  0.138513  1
  O  O31  1  0.005180  0.361487  0.359653  1
  O  O32  1  0.145526  0.643693  0.505180  1
  O  O33  1  0.640347  0.994820  0.638513  1
  O  O34  1  0.001834  0.861487  0.856307  1
  O  O35  1  0.859653  0.498166  0.354474  1
  O  O36  1  0.994820  0.638513  0.640347  1
  O  O37  1  0.856307  0.001834  0.861487  1
  O  O38  1  0.498166  0.354474  0.859653  1
  O  O39  1  0.505180  0.145526  0.643693  1
  O  O40  1  0.643693  0.505180  0.145526  1
  O  O41  1  0.638513  0.640347  0.994820  1
  O  O42  1  0.861487  0.856307  0.001834  1
  O  O43  1  0.354474  0.859653  0.498166  1
  O  O44  1  0.854474  0.356307  0.494820  1
  O  O45  1  0.359653  0.005180  0.361487  1
  O  O46  1  0.998166  0.138513  0.143693  1
  O  O47  1  0.503611  0.144426  0.143878  1
  Te  Te48  1  0.000000  0.500000  0.000000  1
  Te  Te49  1  0.500000  0.000000  0.000000  1
  Te  Te50  1  0.000000  0.000000  0.500000  1
  Te  Te51  1  0.500000  0.500000  0.500000  1
  Te  Te52  1  0.500000  0.500000  0.000000  1
  Te  Te53  1  0.000000  0.000000  0.000000  1
  Te  Te54  1  0.500000  0.000000  0.500000  1
  Te  Te55  1  0.000000  0.500000  0.500000  1
  Hg  Hg56  1  0.747398  0.172520  0.825219  1
  Hg  Hg57  1  0.847301  0.922179  0.674781  1
  Hg  Hg58  1  0.652699  0.327480  0.074878  1
  Hg  Hg59  1  0.577821  0.425122  0.752602  1
  Hg  Hg60  1  0.425122  0.752602  0.577821  1
  Hg  Hg61  1  0.825219  0.747398  0.172520  1
  Hg  Hg62  1  0.922179  0.674781  0.847301  1
  Hg  Hg63  1  0.074878  0.652699  0.327480  1
  Hg  Hg64  1  0.172520  0.825219  0.747398  1
  Hg  Hg65  1  0.674781  0.847301  0.922179  1
  Hg  Hg66  1  0.327480  0.074878  0.652699  1
  Hg  Hg67  1  0.752602  0.577821  0.425122  1
  Hg  Hg68  1  0.252602  0.827480  0.174781  1
  Hg  Hg69  1  0.152699  0.077821  0.325219  1
  Hg  Hg70  1  0.347301  0.672520  0.925122  1
  Hg  Hg71  1  0.422179  0.574878  0.247398  1
  Hg  Hg72  1  0.574878  0.247398  0.422179  1
  Hg  Hg73  1  0.174781  0.252602  0.827480  1
  Hg  Hg74  1  0.077821  0.325219  0.152699  1
  Hg  Hg75  1  0.925122  0.347301  0.672520  1
  Hg  Hg76  1  0.827480  0.174781  0.252602  1
  Hg  Hg77  1  0.325219  0.152699  0.077821  1
  Hg  Hg78  1  0.672520  0.925122  0.347301  1
  Hg  Hg79  1  0.247398  0.422179  0.574878  1
