# generated using pymatgen
data_UPt2
_symmetry_space_group_name_H-M   'P 1'
_cell_length_a   4.14967581
_cell_length_b   5.34529260
_cell_length_c   5.66647247
_cell_angle_alpha   90.00000000
_cell_angle_beta   90.00000000
_cell_angle_gamma   112.84016382
_symmetry_Int_Tables_number   1
_chemical_formula_structural   UPt2
_chemical_formula_sum   'U2 Pt4'
_cell_volume   115.83419706
_cell_formula_units_Z   2
loop_
 _symmetry_equiv_pos_site_id
 _symmetry_equiv_pos_as_xyz
  1  'x, y, z'
loop_
 _atom_site_type_symbol
 _atom_site_label
 _atom_site_symmetry_multiplicity
 _atom_site_fract_x
 _atom_site_fract_y
 _atom_site_fract_z
 _atom_site_occupancy
  Pt  Pt0  1  0.000000  0.000000  0.000000  1
  Pt  Pt1  1  0.000000  0.000000  0.500000  1
  Pt  Pt2  1  0.637099  0.274198  0.750000  1
  Pt  Pt3  1  0.362901  0.725802  0.250000  1
  U  U4  1  0.329475  0.658949  0.750000  1
  U  U5  1  0.670525  0.341051  0.250000  1
