# generated using pymatgen
data_Mg(FeO2)2
_symmetry_space_group_name_H-M   'P 1'
_cell_length_a   6.00067042
_cell_length_b   6.01797321
_cell_length_c   17.91029832
_cell_angle_alpha   59.99214968
_cell_angle_beta   60.09020361
_cell_angle_gamma   59.76336249
_symmetry_Int_Tables_number   1
_chemical_formula_structural   Mg(FeO2)2
_chemical_formula_sum   'Mg6 Fe12 O24'
_cell_volume   456.79732577
_cell_formula_units_Z   6
loop_
 _symmetry_equiv_pos_site_id
 _symmetry_equiv_pos_as_xyz
  1  'x, y, z'
loop_
 _atom_site_type_symbol
 _atom_site_label
 _atom_site_symmetry_multiplicity
 _atom_site_fract_x
 _atom_site_fract_y
 _atom_site_fract_z
 _atom_site_occupancy
  Fe  Fe0  1  0.130966  0.118871  0.378766  1
  Fe  Fe1  1  0.499637  0.004290  0.165650  1
  Fe  Fe2  1  0.497414  0.497903  0.002593  1
  Fe  Fe3  1  0.499445  0.498466  0.166017  1
  Fe  Fe4  1  0.131798  0.117988  0.709756  1
  Fe  Fe5  1  0.501111  0.999452  0.499456  1
  Fe  Fe6  1  0.500286  0.500496  0.499817  1
  Fe  Fe7  1  0.497447  0.001691  0.833985  1
  Fe  Fe8  1  0.870307  0.883273  0.288896  1
  Fe  Fe9  1  0.495289  0.497485  0.834780  1
  Fe  Fe10  1  0.867406  0.879328  0.622993  1
  Fe  Fe11  1  0.865400  0.877967  0.959505  1
  Mg  Mg12  1  0.134009  0.121317  0.040817  1
  Mg  Mg13  1  0.501808  0.503353  0.332301  1
  Mg  Mg14  1  -0.000199  0.499421  0.833770  1
  Mg  Mg15  1  0.003904  0.499394  0.165756  1
  Mg  Mg16  1  0.498992  0.497487  0.666799  1
  Mg  Mg17  1  0.000489  0.499769  0.500043  1
  O  O18  1  0.275921  0.261540  0.082815  1
  O  O19  1  0.258024  0.251491  0.246468  1
  O  O20  1  0.274026  0.713429  0.083659  1
  O  O21  1  0.720036  0.262818  0.084371  1
  O  O22  1  0.266115  0.753347  0.243576  1
  O  O23  1  0.261820  0.255072  0.419084  1
  O  O24  1  0.741163  0.272867  0.244337  1
  O  O25  1  0.255481  0.245069  0.578327  1
  O  O26  1  0.739663  0.744356  0.089677  1
  O  O27  1  0.266307  0.726975  0.422189  1
  O  O28  1  0.740237  0.755545  0.244705  1
  O  O29  1  0.729758  0.258153  0.422024  1
  O  O30  1  0.269121  0.742126  0.578237  1
  O  O31  1  0.259075  0.244328  0.754360  1
  O  O32  1  0.733989  0.272061  0.577981  1
  O  O33  1  0.271131  0.257777  0.905136  1
  O  O34  1  0.743523  0.757918  0.420381  1
  O  O35  1  0.258036  0.727551  0.754367  1
  O  O36  1  0.734796  0.245890  0.755119  1
  O  O37  1  0.738375  0.745655  0.581073  1
  O  O38  1  0.269438  0.742033  0.917444  1
  O  O39  1  0.731986  0.275872  0.918012  1
  O  O40  1  0.735884  0.748080  0.756510  1
  O  O41  1  0.730588  0.742094  0.918451  1
