# generated using pymatgen
data_Co2CuO4
_symmetry_space_group_name_H-M   'P 1'
_cell_length_a   5.87064241
_cell_length_b   5.86417659
_cell_length_c   5.86417619
_cell_angle_alpha   59.99999632
_cell_angle_beta   60.03642297
_cell_angle_gamma   60.03641800
_symmetry_Int_Tables_number   1
_chemical_formula_structural   Co2CuO4
_chemical_formula_sum   'Co4 Cu2 O8'
_cell_volume   142.83134492
_cell_formula_units_Z   2
loop_
 _symmetry_equiv_pos_site_id
 _symmetry_equiv_pos_as_xyz
  1  'x, y, z'
loop_
 _atom_site_type_symbol
 _atom_site_label
 _atom_site_symmetry_multiplicity
 _atom_site_fract_x
 _atom_site_fract_y
 _atom_site_fract_z
 _atom_site_occupancy
  Co  Co0  1  0.248985  0.250338  0.250338  1
  Co  Co1  1  0.625772  0.625450  0.123328  1
  Co  Co2  1  0.625772  0.123328  0.625450  1
  Co  Co3  1  0.625772  0.625450  0.625450  1
  Cu  Cu4  1  0.999847  0.000051  0.000051  1
  Cu  Cu5  1  0.126083  0.624639  0.624639  1
  O  O6  1  0.392658  0.381696  0.381696  1
  O  O7  1  0.392658  0.381696  0.843951  1
  O  O8  1  0.392658  0.843951  0.381696  1
  O  O9  1  0.836845  0.387718  0.387718  1
  O  O10  1  0.413492  0.862169  0.862169  1
  O  O11  1  0.856486  0.868328  0.406857  1
  O  O12  1  0.856486  0.406857  0.868328  1
  O  O13  1  0.856486  0.868328  0.868328  1
