# generated using pymatgen
data_LiMo2(PO4)3
_symmetry_space_group_name_H-M   'P 1'
_cell_length_a   8.52757664
_cell_length_b   9.20438932
_cell_length_c   8.59723645
_cell_angle_alpha   61.89468888
_cell_angle_beta   120.22594557
_cell_angle_gamma   117.90270831
_symmetry_Int_Tables_number   1
_chemical_formula_structural   LiMo2(PO4)3
_chemical_formula_sum   'Li2 Mo4 P6 O24'
_cell_volume   490.15927145
_cell_formula_units_Z   2
loop_
 _symmetry_equiv_pos_site_id
 _symmetry_equiv_pos_as_xyz
  1  'x, y, z'
loop_
 _atom_site_type_symbol
 _atom_site_label
 _atom_site_symmetry_multiplicity
 _atom_site_fract_x
 _atom_site_fract_y
 _atom_site_fract_z
 _atom_site_occupancy
  Li  Li0  1  0.316902  0.131281  0.926595  1
  Li  Li1  1  0.683094  0.868719  0.073402  1
  Mo  Mo2  1  0.349276  0.053561  0.642838  1
  Mo  Mo3  1  0.650728  0.946437  0.357164  1
  Mo  Mo4  1  0.864850  0.570313  0.149934  1
  Mo  Mo5  1  0.135150  0.429687  0.850065  1
  P  P6  1  0.750536  0.246028  0.965989  1
  P  P7  1  0.467917  0.253873  0.247080  1
  P  P8  1  0.249465  0.753972  0.034013  1
  P  P9  1  0.532082  0.746126  0.752917  1
  P  P10  1  0.962348  0.752075  0.463167  1
  P  P11  1  0.037653  0.247925  0.536834  1
  O  O12  1  0.116931  0.732671  0.121907  1
  O  O13  1  0.461934  0.800466  0.172579  1
  O  O14  1  0.798838  0.408941  0.004729  1
  O  O15  1  0.827568  0.798783  0.490939  1
  O  O16  1  0.273586  0.278871  0.100676  1
  O  O17  1  0.875723  0.744168  0.259002  1
  O  O18  1  0.726416  0.721133  0.899321  1
  O  O19  1  0.161257  0.890588  0.490943  1
  O  O20  1  0.772487  0.085024  0.146798  1
  O  O21  1  0.883069  0.267333  0.878094  1
  O  O22  1  0.625244  0.425227  0.208431  1
  O  O23  1  0.515574  0.887448  0.793316  1
  O  O24  1  0.838742  0.109413  0.509051  1
  O  O25  1  0.538067  0.199531  0.827428  1
  O  O26  1  0.201164  0.591061  0.995277  1
  O  O27  1  0.172436  0.201214  0.509072  1
  O  O28  1  0.515754  0.800459  0.549207  1
  O  O29  1  0.484247  0.199544  0.450790  1
  O  O30  1  0.124268  0.255829  0.740996  1
  O  O31  1  0.484424  0.112549  0.206684  1
  O  O32  1  0.227519  0.914977  0.853206  1
  O  O33  1  0.987165  0.576652  0.605710  1
  O  O34  1  0.374755  0.574771  0.791560  1
  O  O35  1  0.012834  0.423349  0.394289  1
