# generated using pymatgen
data_Tb3GaO6
_symmetry_space_group_name_H-M   'P 1'
_cell_length_a   5.47360998
_cell_length_b   7.18305745
_cell_length_c   7.18305745
_cell_angle_alpha   102.84007132
_cell_angle_beta   90.00000000
_cell_angle_gamma   90.00000000
_symmetry_Int_Tables_number   1
_chemical_formula_structural   Tb3GaO6
_chemical_formula_sum   'Tb6 Ga2 O12'
_cell_volume   275.35600194
_cell_formula_units_Z   2
loop_
 _symmetry_equiv_pos_site_id
 _symmetry_equiv_pos_as_xyz
  1  'x, y, z'
loop_
 _atom_site_type_symbol
 _atom_site_label
 _atom_site_symmetry_multiplicity
 _atom_site_fract_x
 _atom_site_fract_y
 _atom_site_fract_z
 _atom_site_occupancy
  O  O0  1  0.836005  0.784372  0.215628  1
  O  O1  1  0.336005  0.215628  0.784372  1
  O  O2  1  0.360699  0.960826  0.039174  1
  O  O3  1  0.860699  0.039174  0.960826  1
  O  O4  1  0.302875  0.324076  0.355703  1
  O  O5  1  0.802875  0.675924  0.644297  1
  O  O6  1  0.302875  0.644297  0.675924  1
  O  O7  1  0.802875  0.355703  0.324076  1
  O  O8  1  0.822050  0.421346  0.893896  1
  O  O9  1  0.322050  0.578654  0.106104  1
  O  O10  1  0.822050  0.106104  0.578654  1
  O  O11  1  0.322050  0.893896  0.421346  1
  Ga  Ga12  1  0.499873  0.806639  0.193361  1
  Ga  Ga13  1  0.999873  0.193361  0.806639  1
  Tb  Tb14  1  0.077673  0.602046  0.397954  1
  Tb  Tb15  1  0.577673  0.397954  0.602046  1
  Tb  Tb16  1  0.030680  0.088041  0.298808  1
  Tb  Tb17  1  0.530680  0.911959  0.701192  1
  Tb  Tb18  1  0.030680  0.701192  0.911959  1
  Tb  Tb19  1  0.530680  0.298808  0.088041  1
