# generated using pymatgen
data_K3CoO2
_symmetry_space_group_name_H-M   'P 1'
_cell_length_a   6.04668858
_cell_length_b   7.39006840
_cell_length_c   11.97438673
_cell_angle_alpha   90.00000000
_cell_angle_beta   90.00000000
_cell_angle_gamma   90.00000000
_symmetry_Int_Tables_number   1
_chemical_formula_structural   K3CoO2
_chemical_formula_sum   'K12 Co4 O8'
_cell_volume   535.08076610
_cell_formula_units_Z   4
loop_
 _symmetry_equiv_pos_site_id
 _symmetry_equiv_pos_as_xyz
  1  'x, y, z'
loop_
 _atom_site_type_symbol
 _atom_site_label
 _atom_site_symmetry_multiplicity
 _atom_site_fract_x
 _atom_site_fract_y
 _atom_site_fract_z
 _atom_site_occupancy
  O  O0  1  0.593542  0.250000  0.974425  1
  O  O1  1  0.093542  0.750000  0.525575  1
  O  O2  1  0.406458  0.750000  0.025575  1
  O  O3  1  0.906458  0.250000  0.474425  1
  O  O4  1  0.961290  0.750000  0.217238  1
  O  O5  1  0.461290  0.250000  0.282762  1
  O  O6  1  0.038710  0.250000  0.782762  1
  O  O7  1  0.538710  0.750000  0.717238  1
  K  K8  1  0.665605  0.500115  0.139607  1
  K  K9  1  0.165605  0.000115  0.360393  1
  K  K10  1  0.834395  0.500115  0.639607  1
  K  K11  1  0.334395  0.499885  0.860393  1
  K  K12  1  0.718892  0.750000  0.405051  1
  K  K13  1  0.218892  0.250000  0.094949  1
  K  K14  1  0.281108  0.250000  0.594949  1
  K  K15  1  0.781108  0.750000  0.905051  1
  K  K16  1  0.334395  0.000115  0.860393  1
  K  K17  1  0.834395  0.999885  0.639607  1
  K  K18  1  0.665605  0.999885  0.139607  1
  K  K19  1  0.165605  0.499885  0.360393  1
  Co  Co20  1  0.678725  0.250000  0.381896  1
  Co  Co21  1  0.178725  0.750000  0.118104  1
  Co  Co22  1  0.321275  0.750000  0.618104  1
  Co  Co23  1  0.821275  0.250000  0.881896  1
