# generated using pymatgen
data_Zr7Sb4
_symmetry_space_group_name_H-M   'P 1'
_cell_length_a   8.55706232
_cell_length_b   11.19419210
_cell_length_c   11.25079314
_cell_angle_alpha   90.00000000
_cell_angle_beta   90.00000000
_cell_angle_gamma   111.74560299
_symmetry_Int_Tables_number   1
_chemical_formula_structural   Zr7Sb4
_chemical_formula_sum   'Zr28 Sb16'
_cell_volume   1001.01493901
_cell_formula_units_Z   4
loop_
 _symmetry_equiv_pos_site_id
 _symmetry_equiv_pos_as_xyz
  1  'x, y, z'
loop_
 _atom_site_type_symbol
 _atom_site_label
 _atom_site_symmetry_multiplicity
 _atom_site_fract_x
 _atom_site_fract_y
 _atom_site_fract_z
 _atom_site_occupancy
  Sb  Sb0  1  0.285559  0.751989  0.683246  1
  Sb  Sb1  1  0.285559  0.251989  0.816754  1
  Sb  Sb2  1  0.012083  0.661659  0.346043  1
  Sb  Sb3  1  0.773358  0.938416  0.492350  1
  Sb  Sb4  1  0.680387  0.578994  0.676486  1
  Sb  Sb5  1  0.012083  0.161659  0.153957  1
  Sb  Sb6  1  0.773358  0.438416  0.007650  1
  Sb  Sb7  1  0.319613  0.921006  0.176486  1
  Sb  Sb8  1  0.680387  0.078994  0.823514  1
  Sb  Sb9  1  0.226642  0.561584  0.992350  1
  Sb  Sb10  1  0.319613  0.421006  0.323514  1
  Sb  Sb11  1  0.226642  0.061584  0.507650  1
  Sb  Sb12  1  0.714441  0.748011  0.183246  1
  Sb  Sb13  1  0.714441  0.248011  0.316754  1
  Sb  Sb14  1  0.987917  0.838341  0.846043  1
  Sb  Sb15  1  0.987917  0.338341  0.653957  1
  Zr  Zr16  1  0.398493  0.840923  0.940195  1
  Zr  Zr17  1  0.398493  0.340923  0.559805  1
  Zr  Zr18  1  0.660401  0.982003  0.261478  1
  Zr  Zr19  1  0.013727  0.930351  0.294400  1
  Zr  Zr20  1  0.646026  0.827888  0.723201  1
  Zr  Zr21  1  0.011184  0.710540  0.078295  1
  Zr  Zr22  1  0.633964  0.634745  0.941331  1
  Zr  Zr23  1  0.202854  0.055263  1.000073  1
  Zr  Zr24  1  0.660401  0.482003  0.238522  1
  Zr  Zr25  1  0.013727  0.430351  0.205600  1
  Zr  Zr26  1  0.646026  0.327888  0.776799  1
  Zr  Zr27  1  0.011184  0.210540  0.421705  1
  Zr  Zr28  1  0.633964  0.134745  0.558669  1
  Zr  Zr29  1  0.202854  0.555263  0.499927  1
  Zr  Zr30  1  0.797146  0.444737  0.500073  1
  Zr  Zr31  1  0.366036  0.865255  0.441331  1
  Zr  Zr32  1  0.988816  0.789460  0.578295  1
  Zr  Zr33  1  0.353974  0.672112  0.223201  1
  Zr  Zr34  1  0.986273  0.569649  0.794400  1
  Zr  Zr35  1  0.339599  0.517997  0.761478  1
  Zr  Zr36  1  0.797146  0.944737  -0.000073  1
  Zr  Zr37  1  0.366036  0.365255  0.058669  1
  Zr  Zr38  1  0.988816  0.289460  0.921705  1
  Zr  Zr39  1  0.353974  0.172112  0.276799  1
  Zr  Zr40  1  0.986273  0.069649  0.705600  1
  Zr  Zr41  1  0.339599  0.017997  0.738522  1
  Zr  Zr42  1  0.601507  0.659077  0.440195  1
  Zr  Zr43  1  0.601507  0.159077  0.059805  1
