# generated using pymatgen
data_Ba(RhPb2)3
_symmetry_space_group_name_H-M   'P 1'
_cell_length_a   4.60179276
_cell_length_b   8.41207601
_cell_length_c   14.39701917
_cell_angle_alpha   106.98650447
_cell_angle_beta   90.00000000
_cell_angle_gamma   90.00000000
_symmetry_Int_Tables_number   1
_chemical_formula_structural   Ba(RhPb2)3
_chemical_formula_sum   'Ba2 Rh6 Pb12'
_cell_volume   533.00392175
_cell_formula_units_Z   2
loop_
 _symmetry_equiv_pos_site_id
 _symmetry_equiv_pos_as_xyz
  1  'x, y, z'
loop_
 _atom_site_type_symbol
 _atom_site_label
 _atom_site_symmetry_multiplicity
 _atom_site_fract_x
 _atom_site_fract_y
 _atom_site_fract_z
 _atom_site_occupancy
  Rh  Rh0  1  0.750000  0.406275  0.434826  1
  Rh  Rh1  1  0.750000  0.036975  0.073950  1
  Rh  Rh2  1  0.250000  0.593725  0.565174  1
  Rh  Rh3  1  0.250000  0.963025  0.926050  1
  Rh  Rh4  1  0.250000  0.971448  0.565174  1
  Rh  Rh5  1  0.750000  0.028552  0.434826  1
  Ba  Ba6  1  0.250000  0.410728  0.821456  1
  Ba  Ba7  1  0.750000  0.589272  0.178544  1
  Pb  Pb8  1  0.250000  0.845174  0.092195  1
  Pb  Pb9  1  0.750000  0.752979  0.907805  1
  Pb  Pb10  1  0.250000  0.247021  0.092195  1
  Pb  Pb11  1  0.250000  0.869763  0.343697  1
  Pb  Pb12  1  0.250000  0.473934  0.343697  1
  Pb  Pb13  1  0.750000  0.526066  0.656303  1
  Pb  Pb14  1  0.750000  0.154826  0.907805  1
  Pb  Pb15  1  0.250000  0.250129  0.500259  1
  Pb  Pb16  1  0.750000  0.749871  0.499741  1
  Pb  Pb17  1  0.250000  0.865238  0.730475  1
  Pb  Pb18  1  0.750000  0.134762  0.269525  1
  Pb  Pb19  1  0.750000  0.130237  0.656303  1
