# generated using pymatgen
data_B17F27
_symmetry_space_group_name_H-M   'P 1'
_cell_length_a   7.41775438
_cell_length_b   13.37908382
_cell_length_c   13.77001697
_cell_angle_alpha   69.56540299
_cell_angle_beta   79.57939849
_cell_angle_gamma   81.16207710
_symmetry_Int_Tables_number   1
_chemical_formula_structural   B17F27
_chemical_formula_sum   'B34 F54'
_cell_volume   1253.37087709
_cell_formula_units_Z   2
loop_
 _symmetry_equiv_pos_site_id
 _symmetry_equiv_pos_as_xyz
  1  'x, y, z'
loop_
 _atom_site_type_symbol
 _atom_site_label
 _atom_site_symmetry_multiplicity
 _atom_site_fract_x
 _atom_site_fract_y
 _atom_site_fract_z
 _atom_site_occupancy
  B  B0  1  0.819263  0.631469  0.974816  1
  B  B1  1  0.180737  0.368531  0.025184  1
  B  B2  1  0.771605  0.722011  0.844140  1
  B  B3  1  0.228395  0.277989  0.155860  1
  B  B4  1  0.887096  0.841472  0.805133  1
  B  B5  1  0.112904  0.158528  0.194867  1
  B  B6  1  0.725026  0.792228  0.924923  1
  B  B7  1  0.274974  0.207772  0.075077  1
  B  B8  1  0.954803  0.691146  0.758682  1
  B  B9  1  0.045197  0.308854  0.241318  1
  B  B10  1  0.575077  0.696640  0.810484  1
  B  B11  1  0.424923  0.303360  0.189516  1
  B  B12  1  0.837658  0.870148  0.967810  1
  B  B13  1  0.162342  0.129852  0.032190  1
  B  B14  1  0.498143  0.802269  0.977744  1
  B  B15  1  0.501857  0.197731  0.022256  1
  B  B16  1  0.742984  0.414258  0.761530  1
  B  B17  1  0.257016  0.585742  0.238470  1
  B  B18  1  0.893918  0.671836  0.488033  1
  B  B19  1  0.106082  0.328164  0.511967  1
  B  B20  1  0.782496  0.882063  0.472438  1
  B  B21  1  0.217504  0.117937  0.527562  1
  B  B22  1  0.718289  0.653570  0.307693  1
  B  B23  1  0.281711  0.346430  0.692307  1
  B  B24  1  0.490072  0.837729  0.252829  1
  B  B25  1  0.509928  0.162271  0.747171  1
  B  B26  1  0.751520  0.780760  0.427684  1
  B  B27  1  0.248480  0.219240  0.572316  1
  B  B28  1  0.717619  0.893972  0.306328  1
  B  B29  1  0.282381  0.106028  0.693672  1
  B  B30  1  0.635322  0.764993  0.343400  1
  B  B31  1  0.364678  0.235007  0.656600  1
  B  B32  1  0.483279  0.734525  0.469128  1
  B  B33  1  0.516721  0.265475  0.530872  1
  F  F34  1  0.799134  0.975878  0.938825  1
  F  F35  1  0.200866  0.024122  0.061175  1
  F  F36  1  0.424730  0.731241  0.065928  1
  F  F37  1  0.575270  0.268759  0.934072  1
  F  F38  1  0.387162  0.886006  0.929330  1
  F  F39  1  0.612838  0.113994  0.070670  1
  F  F40  1  0.048986  0.176981  0.961351  1
  F  F41  1  0.951014  0.823019  0.038649  1
  F  F42  1  0.441387  0.290217  0.288364  1
  F  F43  1  0.558613  0.709783  0.711636  1
  F  F44  1  0.573503  0.332176  0.119119  1
  F  F45  1  0.426497  0.667824  0.880881  1
  F  F46  1  0.036447  0.261475  0.345244  1
  F  F47  1  0.963553  0.738525  0.654756  1
  F  F48  1  0.920403  0.391052  0.208000  1
  F  F49  1  0.079597  0.608948  0.792000  1
  F  F50  1  0.185576  0.072295  0.266497  1
  F  F51  1  0.814424  0.927705  0.733503  1
  F  F52  1  0.929383  0.163424  0.190503  1
  F  F53  1  0.070617  0.836576  0.809497  1
  F  F54  1  0.300146  0.439197  0.973187  1
  F  F55  1  0.699854  0.560803  0.026813  1
  F  F56  1  0.633168  0.190692  0.504648  1
  F  F57  1  0.366832  0.809308  0.495352  1
  F  F58  1  0.539491  0.367533  0.479183  1
  F  F59  1  0.460509  0.632467  0.520817  1
  F  F60  1  0.396660  0.017552  0.688089  1
  F  F61  1  0.603340  0.982448  0.311911  1
  F  F62  1  0.128863  0.089130  0.763566  1
  F  F63  1  0.871137  0.910870  0.236434  1
  F  F64  1  0.691133  0.157304  0.718739  1
  F  F65  1  0.308867  0.842696  0.281261  1
  F  F66  1  0.450504  0.124298  0.849990  1
  F  F67  1  0.549496  0.875702  0.150010  1
  F  F68  1  0.229205  0.440197  0.622945  1
  F  F69  1  0.770795  0.559803  0.377055  1
  F  F70  1  0.260051  0.342712  0.791994  1
  F  F71  1  0.739949  0.657288  0.208006  1
  F  F72  1  0.345017  0.092711  0.456557  1
  F  F73  1  0.654983  0.907289  0.543443  1
  F  F74  1  0.060938  0.072252  0.554620  1
  F  F75  1  0.939062  0.927748  0.445380  1
  F  F76  1  0.162316  0.408796  0.427005  1
  F  F77  1  0.837684  0.591204  0.572995  1
  F  F78  1  0.927368  0.333802  0.549333  1
  F  F79  1  0.072632  0.666198  0.450667  1
  F  F80  1  0.015152  0.383209  0.996190  1
  F  F81  1  0.984848  0.616791  0.003810  1
  F  F82  1  0.270085  0.514715  0.189127  1
  F  F83  1  0.729915  0.485285  0.810873  1
  F  F84  1  0.110355  0.656408  0.235577  1
  F  F85  1  0.889645  0.343592  0.764423  1
  F  F86  1  0.390221  0.584733  0.291678  1
  F  F87  1  0.609779  0.415267  0.708322  1
