# generated using pymatgen
data_BaSc2O4
_symmetry_space_group_name_H-M   'P 1'
_cell_length_a   5.76805068
_cell_length_b   5.76805067
_cell_length_c   20.74012879
_cell_angle_alpha   89.96878716
_cell_angle_beta   89.96878717
_cell_angle_gamma   61.25756532
_symmetry_Int_Tables_number   1
_chemical_formula_structural   BaSc2O4
_chemical_formula_sum   'Ba6 Sc12 O24'
_cell_volume   605.01370463
_cell_formula_units_Z   6
loop_
 _symmetry_equiv_pos_site_id
 _symmetry_equiv_pos_as_xyz
  1  'x, y, z'
loop_
 _atom_site_type_symbol
 _atom_site_label
 _atom_site_symmetry_multiplicity
 _atom_site_fract_x
 _atom_site_fract_y
 _atom_site_fract_z
 _atom_site_occupancy
  O  O0  1  0.522222  0.817411  0.375371  1
  O  O1  1  0.182589  0.477778  0.124629  1
  O  O2  1  0.477778  0.182589  0.624629  1
  O  O3  1  0.817411  0.522222  0.875371  1
  O  O4  1  0.926849  0.073151  0.250000  1
  O  O5  1  0.073151  0.926849  0.750000  1
  O  O6  1  0.000000  0.000000  0.500000  1
  O  O7  1  0.000000  0.000000  0.000000  1
  O  O8  1  0.396888  0.130298  0.248537  1
  O  O9  1  0.869702  0.603112  0.251463  1
  O  O10  1  0.603112  0.869702  0.751463  1
  O  O11  1  0.130298  0.396888  0.748537  1
  O  O12  1  0.594261  0.270438  0.376396  1
  O  O13  1  0.729562  0.405739  0.123604  1
  O  O14  1  0.405739  0.729562  0.623604  1
  O  O15  1  0.270438  0.594261  0.876396  1
  O  O16  1  0.402544  0.292638  0.496653  1
  O  O17  1  0.707362  0.597456  0.003347  1
  O  O18  1  0.964117  0.250142  0.618939  1
  O  O19  1  0.749858  0.035883  0.881061  1
  O  O20  1  0.035883  0.749858  0.381061  1
  O  O21  1  0.250142  0.964117  0.118939  1
  O  O22  1  0.292638  0.402544  0.996653  1
  O  O23  1  0.597456  0.707362  0.503347  1
  Sc  Sc24  1  0.715845  0.958176  0.447304  1
  Sc  Sc25  1  0.041824  0.284155  0.052696  1
  Sc  Sc26  1  0.284155  0.041824  0.552696  1
  Sc  Sc27  1  0.958176  0.715845  0.947304  1
  Sc  Sc28  1  0.386965  0.616597  0.070596  1
  Sc  Sc29  1  0.383403  0.613035  0.429404  1
  Sc  Sc30  1  0.613035  0.383403  0.929404  1
  Sc  Sc31  1  0.616597  0.386965  0.570596  1
  Sc  Sc32  1  0.723311  0.939720  0.304696  1
  Sc  Sc33  1  0.060280  0.276689  0.195304  1
  Sc  Sc34  1  0.276689  0.060280  0.695304  1
  Sc  Sc35  1  0.939720  0.723311  0.804696  1
  Ba  Ba36  1  0.726576  0.942266  0.137617  1
  Ba  Ba37  1  0.057734  0.273424  0.362383  1
  Ba  Ba38  1  0.273424  0.057734  0.862383  1
  Ba  Ba39  1  0.942266  0.726576  0.637617  1
  Ba  Ba40  1  0.392618  0.607382  0.250000  1
  Ba  Ba41  1  0.607382  0.392618  0.750000  1
