# generated using pymatgen
data_CuCN2
_symmetry_space_group_name_H-M   'P 1'
_cell_length_a   2.98126219
_cell_length_b   3.63942385
_cell_length_c   9.44764203
_cell_angle_alpha   90.00000000
_cell_angle_beta   90.00000000
_cell_angle_gamma   114.17838266
_symmetry_Int_Tables_number   1
_chemical_formula_structural   CuCN2
_chemical_formula_sum   'Cu2 C2 N4'
_cell_volume   93.51512866
_cell_formula_units_Z   2
loop_
 _symmetry_equiv_pos_site_id
 _symmetry_equiv_pos_as_xyz
  1  'x, y, z'
loop_
 _atom_site_type_symbol
 _atom_site_label
 _atom_site_symmetry_multiplicity
 _atom_site_fract_x
 _atom_site_fract_y
 _atom_site_fract_z
 _atom_site_occupancy
  C  C0  1  0.598640  0.197281  0.250000  1
  C  C1  1  0.401360  0.802719  0.750000  1
  N  N2  1  0.392188  0.784377  0.619322  1
  N  N3  1  0.607812  0.215623  0.380678  1
  N  N4  1  0.607812  0.215623  0.119322  1
  N  N5  1  0.392188  0.784377  0.880678  1
  Cu  Cu6  1  0.000000  0.000000  0.500000  1
  Cu  Cu7  1  0.000000  0.000000  0.000000  1
