# generated using pymatgen
data_Na(Sm2Se3)4
_symmetry_space_group_name_H-M   'P 1'
_cell_length_a   23.03012456
_cell_length_b   8.85495927
_cell_length_c   8.85495948
_cell_angle_alpha   90.00000096
_cell_angle_beta   54.77828983
_cell_angle_gamma   54.77828886
_symmetry_Int_Tables_number   1
_chemical_formula_structural   Na(Sm2Se3)4
_chemical_formula_sum   'Na2 Sm16 Se24'
_cell_volume   1044.77226669
_cell_formula_units_Z   2
loop_
 _symmetry_equiv_pos_site_id
 _symmetry_equiv_pos_as_xyz
  1  'x, y, z'
loop_
 _atom_site_type_symbol
 _atom_site_label
 _atom_site_symmetry_multiplicity
 _atom_site_fract_x
 _atom_site_fract_y
 _atom_site_fract_z
 _atom_site_occupancy
  Na  Na0  1  0.083333  0.625000  0.375000  1
  Na  Na1  1  0.583333  0.875000  0.125000  1
  Se  Se2  1  0.116446  0.497839  1.000137  1
  Se  Se3  1  0.050220  0.349475  0.502161  1
  Se  Se4  1  0.050220  -0.000137  0.347177  1
  Se  Se5  1  0.289759  0.134612  0.137760  1
  Se  Se6  1  0.289759  0.496112  0.992964  1
  Se  Se7  1  0.216119  0.997911  0.851765  1
  Se  Se8  1  0.116446  0.652823  0.650525  1
  Se  Se9  1  0.216119  0.853732  0.499878  1
  Se  Se10  1  0.450548  0.502089  1.000122  1
  Se  Se11  1  0.376908  0.365388  0.507036  1
  Se  Se12  1  0.376908  0.003888  0.362240  1
  Se  Se13  1  0.616446  0.150525  0.152823  1
  Se  Se14  1  0.616446  0.500137  0.997839  1
  Se  Se15  1  0.550220  0.002161  0.849475  1
  Se  Se16  1  0.450548  0.646268  0.648235  1
  Se  Se17  1  0.550220  0.847177  0.499863  1
  Se  Se18  1  0.789759  0.492964  0.996112  1
  Se  Se19  1  0.716119  0.351765  0.497911  1
  Se  Se20  1  0.716119  -0.000122  0.353732  1
  Se  Se21  1  0.950548  0.148235  0.146268  1
  Se  Se22  1  0.950548  0.500122  0.002089  1
  Se  Se23  1  0.876908  0.007036  0.865388  1
  Se  Se24  1  0.789759  0.637760  0.634612  1
  Se  Se25  1  0.876908  0.862240  0.503888  1
  Sm  Sm26  1  0.002218  0.374432  0.250486  1
  Sm  Sm27  1  0.002218  0.118915  0.742861  1
  Sm  Sm28  1  0.164449  0.257139  0.625568  1
  Sm  Sm29  1  0.247755  0.878367  0.128367  1
  Sm  Sm30  1  0.333333  0.369737  0.250000  1
  Sm  Sm31  1  0.164449  0.749514  0.881085  1
  Sm  Sm32  1  0.333333  0.130263  0.750000  1
  Sm  Sm33  1  0.418912  0.621633  0.371633  1
  Sm  Sm34  1  0.502218  0.242861  0.618915  1
  Sm  Sm35  1  0.664449  0.381085  0.249514  1
  Sm  Sm36  1  0.502218  0.750486  0.874432  1
  Sm  Sm37  1  0.664449  0.125568  0.757139  1
  Sm  Sm38  1  0.747755  0.628367  0.378367  1
  Sm  Sm39  1  0.833333  0.250000  0.630263  1
  Sm  Sm40  1  0.918912  0.871633  0.121633  1
  Sm  Sm41  1  0.833333  0.750000  0.869737  1
