# generated using pymatgen
data_Al2CoO4
_symmetry_space_group_name_H-M   'P 1'
_cell_length_a   5.76912168
_cell_length_b   5.78320107
_cell_length_c   17.36051858
_cell_angle_alpha   59.75087651
_cell_angle_beta   60.12128514
_cell_angle_gamma   60.06844433
_symmetry_Int_Tables_number   1
_chemical_formula_structural   Al2CoO4
_chemical_formula_sum   'Al12 Co6 O24'
_cell_volume   409.37382689
_cell_formula_units_Z   6
loop_
 _symmetry_equiv_pos_site_id
 _symmetry_equiv_pos_as_xyz
  1  'x, y, z'
loop_
 _atom_site_type_symbol
 _atom_site_label
 _atom_site_symmetry_multiplicity
 _atom_site_fract_x
 _atom_site_fract_y
 _atom_site_fract_z
 _atom_site_occupancy
  Al  Al0  1  0.246449  0.251058  0.085279  1
  Al  Al1  1  0.121926  0.629678  0.207983  1
  Al  Al2  1  0.626192  0.123805  0.207823  1
  Al  Al3  1  0.624244  0.629798  0.207966  1
  Al  Al4  1  0.124212  0.624656  0.542177  1
  Al  Al5  1  0.624659  0.124215  0.542169  1
  Al  Al6  1  0.624195  0.624488  0.375719  1
  Al  Al7  1  0.624653  0.624671  0.542171  1
  Al  Al8  1  0.121617  0.624325  0.874886  1
  Al  Al9  1  0.627910  0.119612  0.874969  1
  Al  Al10  1  0.624601  0.624162  0.708877  1
  Al  Al11  1  0.629538  0.624188  0.874917  1
  Co  Co12  1  0.003749  -0.000238  0.997654  1
  Co  Co13  1  0.251576  0.251596  0.415085  1
  Co  Co14  1  0.627360  0.626839  0.039499  1
  Co  Co15  1  -0.000113  1.000010  0.333406  1
  Co  Co16  1  0.247183  0.247293  0.752778  1
  Co  Co17  1  0.000645  0.000797  0.665971  1
  O  O18  1  0.369936  0.374993  0.132021  1
  O  O19  1  0.394762  0.393386  0.272386  1
  O  O20  1  0.362042  0.867887  0.135907  1
  O  O21  1  0.858406  0.375513  0.131790  1
  O  O22  1  0.388234  0.389525  0.463227  1
  O  O23  1  0.418650  0.859417  0.287944  1
  O  O24  1  0.859964  0.863632  0.138741  1
  O  O25  1  0.389241  0.387503  0.611379  1
  O  O26  1  0.858802  0.419620  0.287572  1
  O  O27  1  0.389240  0.832476  0.462997  1
  O  O28  1  0.832572  0.389477  0.463241  1
  O  O29  1  0.858066  0.859454  0.287929  1
  O  O30  1  0.391457  0.389561  0.797489  1
  O  O31  1  0.418817  0.859831  0.620073  1
  O  O32  1  0.860207  0.418956  0.620230  1
  O  O33  1  0.860066  0.861876  0.472640  1
  O  O34  1  0.378209  0.375390  0.956094  1
  O  O35  1  0.390153  0.825531  0.798080  1
  O  O36  1  0.826558  0.389629  0.797461  1
  O  O37  1  0.861132  0.859775  0.620088  1
  O  O38  1  0.417787  0.866323  0.948190  1
  O  O39  1  0.881098  0.407756  0.943427  1
  O  O40  1  0.861818  0.864615  0.803853  1
  O  O41  1  0.872186  0.866919  0.947911  1
