# generated using pymatgen
data_Mg2TcO4
_symmetry_space_group_name_H-M   'P 1'
_cell_length_a   6.10768199
_cell_length_b   6.05622408
_cell_length_c   6.10768106
_cell_angle_alpha   60.27831048
_cell_angle_beta   60.67514988
_cell_angle_gamma   60.27831083
_symmetry_Int_Tables_number   1
_chemical_formula_structural   Mg2TcO4
_chemical_formula_sum   'Mg4 Tc2 O8'
_cell_volume   161.22769293
_cell_formula_units_Z   2
loop_
 _symmetry_equiv_pos_site_id
 _symmetry_equiv_pos_as_xyz
  1  'x, y, z'
loop_
 _atom_site_type_symbol
 _atom_site_label
 _atom_site_symmetry_multiplicity
 _atom_site_fract_x
 _atom_site_fract_y
 _atom_site_fract_z
 _atom_site_occupancy
  Mg  Mg0  1  0.012186  0.987814  0.012186  1
  Mg  Mg1  1  0.237814  0.262186  0.237814  1
  Mg  Mg2  1  0.625000  0.125000  0.625000  1
  Mg  Mg3  1  0.625000  0.625000  0.625000  1
  Tc  Tc4  1  0.125000  0.625000  0.625000  1
  Tc  Tc5  1  0.625000  0.625000  0.125000  1
  O  O6  1  0.378184  0.393757  0.378184  1
  O  O7  1  0.377399  0.390240  0.842120  1
  O  O8  1  0.378184  0.849875  0.378184  1
  O  O9  1  0.842120  0.390240  0.377399  1
  O  O10  1  0.407880  0.859760  0.872601  1
  O  O11  1  0.872601  0.859760  0.407880  1
  O  O12  1  0.871816  0.400125  0.871816  1
  O  O13  1  0.871816  0.856243  0.871816  1
