# generated using pymatgen
data_SiO2
_symmetry_space_group_name_H-M   'P 1'
_cell_length_a   9.26686902
_cell_length_b   10.07083050
_cell_length_c   11.46395796
_cell_angle_alpha   87.05445092
_cell_angle_beta   66.31134818
_cell_angle_gamma   82.95342417
_symmetry_Int_Tables_number   1
_chemical_formula_structural   SiO2
_chemical_formula_sum   'Si16 O32'
_cell_volume   972.32661870
_cell_formula_units_Z   16
loop_
 _symmetry_equiv_pos_site_id
 _symmetry_equiv_pos_as_xyz
  1  'x, y, z'
loop_
 _atom_site_type_symbol
 _atom_site_label
 _atom_site_symmetry_multiplicity
 _atom_site_fract_x
 _atom_site_fract_y
 _atom_site_fract_z
 _atom_site_occupancy
  O  O0  1  0.656712  0.251958  0.778469  1
  O  O1  1  0.845223  0.312115  0.539261  1
  O  O2  1  0.433809  0.254203  0.218512  1
  O  O3  1  0.386933  0.309876  0.457881  1
  O  O4  1  0.598384  0.999185  0.804623  1
  O  O5  1  0.596803  0.133333  0.999577  1
  O  O6  1  0.355502  0.130883  0.643617  1
  O  O7  1  0.675581  0.068995  0.194152  1
  O  O8  1  -0.001425  0.130521  0.356824  1
  O  O9  1  0.870708  0.066499  0.807527  1
  O  O10  1  0.623636  0.120142  0.436357  1
  O  O11  1  0.537974  0.322243  0.604590  1
  O  O12  1  0.057236  0.122035  0.565651  1
  O  O13  1  0.651020  0.499584  0.698912  1
  O  O14  1  0.869948  0.499950  0.260455  1
  O  O15  1  0.143037  0.321911  0.394351  1
  O  O16  1  0.856963  0.678089  0.605649  1
  O  O17  1  0.130052  0.500050  0.739545  1
  O  O18  1  0.348980  0.500416  0.301088  1
  O  O19  1  0.942764  0.877965  0.434349  1
  O  O20  1  0.462026  0.677757  0.395410  1
  O  O21  1  0.376364  0.879858  0.563643  1
  O  O22  1  0.129292  0.933501  0.192473  1
  O  O23  1  1.001425  0.869479  0.643176  1
  O  O24  1  0.324419  0.931005  0.805848  1
  O  O25  1  0.644498  0.869117  0.356383  1
  O  O26  1  0.403197  0.866667  0.000423  1
  O  O27  1  0.401616  0.000815  0.195377  1
  O  O28  1  0.613067  0.690124  0.542119  1
  O  O29  1  0.566191  0.745797  0.781488  1
  O  O30  1  0.154777  0.687885  0.460739  1
  O  O31  1  0.343288  0.748042  0.221531  1
  Si  Si32  1  0.010950  0.220473  0.465375  1
  Si  Si33  1  0.969201  0.985863  0.316637  1
  Si  Si34  1  0.318939  0.888488  0.152597  1
  Si  Si35  1  0.328671  0.345633  0.343094  1
  Si  Si36  1  0.326636  0.654484  0.344785  1
  Si  Si37  1  0.527179  0.113081  0.152086  1
  Si  Si38  1  0.286538  0.985747  0.682709  1
  Si  Si39  1  0.477213  0.219716  0.534260  1
  Si  Si40  1  0.522787  0.780284  0.465740  1
  Si  Si41  1  0.713462  0.014253  0.317291  1
  Si  Si42  1  0.472821  0.886919  0.847914  1
  Si  Si43  1  0.673364  0.345516  0.655215  1
  Si  Si44  1  0.671329  0.654367  0.656906  1
  Si  Si45  1  0.681061  0.111512  0.847403  1
  Si  Si46  1  0.030799  0.014137  0.683363  1
  Si  Si47  1  0.989050  0.779527  0.534625  1
