# generated using pymatgen
data_TaBi3O7
_symmetry_space_group_name_H-M   'P 1'
_cell_length_a   3.92543461
_cell_length_b   3.76927864
_cell_length_c   15.43853024
_cell_angle_alpha   61.00491651
_cell_angle_beta   60.58733339
_cell_angle_gamma   61.92589727
_symmetry_Int_Tables_number   1
_chemical_formula_structural   TaBi3O7
_chemical_formula_sum   'Ta1 Bi3 O7'
_cell_volume   165.73967973
_cell_formula_units_Z   1
loop_
 _symmetry_equiv_pos_site_id
 _symmetry_equiv_pos_as_xyz
  1  'x, y, z'
loop_
 _atom_site_type_symbol
 _atom_site_label
 _atom_site_symmetry_multiplicity
 _atom_site_fract_x
 _atom_site_fract_y
 _atom_site_fract_z
 _atom_site_occupancy
  Bi  Bi0  1  0.069215  0.010777  0.984507  1
  Bi  Bi1  1  0.022673  0.980434  0.262315  1
  Bi  Bi2  1  0.088374  0.021948  0.724931  1
  O  O3  1  0.303928  0.184849  0.340511  1
  O  O4  1  0.358452  0.270884  0.530513  1
  O  O5  1  0.854161  0.738009  0.175253  1
  O  O6  1  0.324450  0.248844  0.801713  1
  O  O7  1  0.819576  0.698117  0.454520  1
  O  O8  1  0.849881  0.794262  0.646532  1
  O  O9  1  0.742260  0.703556  0.968633  1
  Ta  Ta10  1  0.965030  0.055121  0.494073  1
