# generated using pymatgen
data_La5TlS8
_symmetry_space_group_name_H-M   'P 1'
_cell_length_a   7.64522760
_cell_length_b   7.64522718
_cell_length_c   7.64522738
_cell_angle_alpha   109.04459125
_cell_angle_beta   110.32789068
_cell_angle_gamma   109.04458871
_symmetry_Int_Tables_number   1
_chemical_formula_structural   La5TlS8
_chemical_formula_sum   'La5 Tl1 S8'
_cell_volume   343.93501793
_cell_formula_units_Z   1
loop_
 _symmetry_equiv_pos_site_id
 _symmetry_equiv_pos_as_xyz
  1  'x, y, z'
loop_
 _atom_site_type_symbol
 _atom_site_label
 _atom_site_symmetry_multiplicity
 _atom_site_fract_x
 _atom_site_fract_y
 _atom_site_fract_z
 _atom_site_occupancy
  La  La0  1  0.242895  0.631173  0.377453  1
  La  La1  1  0.375000  0.250000  0.625000  1
  La  La2  1  0.622547  0.365442  0.253720  1
  La  La3  1  0.746280  0.868827  0.111722  1
  La  La4  1  0.888278  0.134558  0.757104  1
  S  S5  1  0.995142  0.857454  0.486119  1
  S  S6  1  0.995540  0.332852  0.484921  1
  S  S7  1  0.515079  0.010620  0.847931  1
  S  S8  1  0.152069  0.167148  0.162689  1
  S  S9  1  0.362312  0.490977  0.004858  1
  S  S10  1  0.628665  0.642546  0.637688  1
  S  S11  1  0.513881  0.009023  0.371335  1
  S  S12  1  0.837311  0.489380  0.004460  1
  Tl  Tl13  1  0.125000  0.750000  0.875000  1
