# generated using pymatgen
data_Gd3GaO6
_symmetry_space_group_name_H-M   'P 1'
_cell_length_a   5.51864185
_cell_length_b   7.26250853
_cell_length_c   7.26250854
_cell_angle_alpha   102.86195178
_cell_angle_beta   90.00000000
_cell_angle_gamma   90.00000000
_symmetry_Int_Tables_number   1
_chemical_formula_structural   Gd3GaO6
_chemical_formula_sum   'Gd6 Ga2 O12'
_cell_volume   283.77210695
_cell_formula_units_Z   2
loop_
 _symmetry_equiv_pos_site_id
 _symmetry_equiv_pos_as_xyz
  1  'x, y, z'
loop_
 _atom_site_type_symbol
 _atom_site_label
 _atom_site_symmetry_multiplicity
 _atom_site_fract_x
 _atom_site_fract_y
 _atom_site_fract_z
 _atom_site_occupancy
  O  O0  1  0.833392  0.785010  0.214990  1
  O  O1  1  0.333392  0.214990  0.785010  1
  O  O2  1  0.362111  0.959784  0.040216  1
  O  O3  1  0.862111  0.040216  0.959784  1
  O  O4  1  0.303187  0.324955  0.355319  1
  O  O5  1  0.803187  0.675045  0.644681  1
  O  O6  1  0.303187  0.644681  0.675045  1
  O  O7  1  0.803187  0.355319  0.324955  1
  O  O8  1  0.825408  0.419600  0.893610  1
  O  O9  1  0.325408  0.580400  0.106390  1
  O  O10  1  0.825408  0.106390  0.580400  1
  O  O11  1  0.325408  0.893610  0.419600  1
  Ga  Ga12  1  0.499738  0.807481  0.192519  1
  Ga  Ga13  1  0.999738  0.192519  0.807481  1
  Gd  Gd14  1  0.077451  0.602922  0.397078  1
  Gd  Gd15  1  0.577451  0.397078  0.602922  1
  Gd  Gd16  1  0.032165  0.087720  0.299189  1
  Gd  Gd17  1  0.532165  0.912280  0.700811  1
  Gd  Gd18  1  0.032165  0.700811  0.912280  1
  Gd  Gd19  1  0.532165  0.299189  0.087720  1
