# generated using pymatgen
data_Ca9Cd4Bi9
_symmetry_space_group_name_H-M   'P 1'
_cell_length_a   4.80060304
_cell_length_b   12.87698289
_cell_length_c   22.76566106
_cell_angle_alpha   90.00000000
_cell_angle_beta   90.00000000
_cell_angle_gamma   90.00000000
_symmetry_Int_Tables_number   1
_chemical_formula_structural   Ca9Cd4Bi9
_chemical_formula_sum   'Ca18 Cd8 Bi18'
_cell_volume   1407.31131716
_cell_formula_units_Z   2
loop_
 _symmetry_equiv_pos_site_id
 _symmetry_equiv_pos_as_xyz
  1  'x, y, z'
loop_
 _atom_site_type_symbol
 _atom_site_label
 _atom_site_symmetry_multiplicity
 _atom_site_fract_x
 _atom_site_fract_y
 _atom_site_fract_z
 _atom_site_occupancy
  Ca  Ca0  1  0.000000  0.367043  0.635844  1
  Ca  Ca1  1  0.000000  0.567139  0.911398  1
  Ca  Ca2  1  0.000000  0.632957  0.364156  1
  Ca  Ca3  1  0.000000  0.432861  0.088602  1
  Ca  Ca4  1  0.000000  0.132957  0.135844  1
  Ca  Ca5  1  0.000000  0.867043  0.864156  1
  Ca  Ca6  1  0.500000  0.500000  0.500000  1
  Ca  Ca7  1  0.500000  0.000000  0.000000  1
  Ca  Ca8  1  0.500000  0.707812  0.100193  1
  Ca  Ca9  1  0.500000  0.292188  0.899807  1
  Ca  Ca10  1  0.500000  0.207812  0.399807  1
  Ca  Ca11  1  0.500000  0.792188  0.600193  1
  Ca  Ca12  1  0.000000  0.875543  0.233166  1
  Ca  Ca13  1  0.000000  0.124457  0.766834  1
  Ca  Ca14  1  0.000000  0.375543  0.266834  1
  Ca  Ca15  1  0.000000  0.624457  0.733166  1
  Ca  Ca16  1  0.000000  0.932861  0.411398  1
  Ca  Ca17  1  0.000000  0.067139  0.588602  1
  Cd  Cd18  1  0.500000  0.732876  0.952795  1
  Cd  Cd19  1  0.500000  0.267124  0.047205  1
  Cd  Cd20  1  0.500000  0.232876  0.547205  1
  Cd  Cd21  1  0.500000  0.767124  0.452795  1
  Cd  Cd22  1  0.500000  0.613215  0.259828  1
  Cd  Cd23  1  0.500000  0.113215  0.240172  1
  Cd  Cd24  1  0.500000  0.386785  0.740172  1
  Cd  Cd25  1  0.500000  0.886785  0.759828  1
  Bi  Bi26  1  0.500000  0.818060  0.327519  1
  Bi  Bi27  1  0.500000  0.181940  0.672481  1
  Bi  Bi28  1  0.500000  0.318060  0.172481  1
  Bi  Bi29  1  0.500000  0.681940  0.827519  1
  Bi  Bi30  1  0.500000  0.954769  0.143373  1
  Bi  Bi31  1  0.500000  0.045231  0.856627  1
  Bi  Bi32  1  0.500000  0.454769  0.356627  1
  Bi  Bi33  1  0.500000  0.545231  0.643373  1
  Bi  Bi34  1  0.000000  0.619037  0.185939  1
  Bi  Bi35  1  0.000000  0.380963  0.814061  1
  Bi  Bi36  1  0.000000  0.119037  0.314061  1
  Bi  Bi37  1  0.000000  0.880963  0.685939  1
  Bi  Bi38  1  0.000000  0.818773  0.013194  1
  Bi  Bi39  1  0.000000  0.181227  0.986806  1
  Bi  Bi40  1  0.000000  0.318773  0.486806  1
  Bi  Bi41  1  0.000000  0.681227  0.513194  1
  Bi  Bi42  1  0.500000  0.000000  0.500000  1
  Bi  Bi43  1  0.500000  0.500000  0.000000  1
