# generated using pymatgen
data_Na3UF7
_symmetry_space_group_name_H-M   'P 1'
_cell_length_a   5.62744122
_cell_length_b   5.62744122
_cell_length_c   6.61814232
_cell_angle_alpha   114.35770374
_cell_angle_beta   114.35770374
_cell_angle_gamma   88.75700406
_symmetry_Int_Tables_number   1
_chemical_formula_structural   Na3UF7
_chemical_formula_sum   'Na3 U1 F7'
_cell_volume   171.13000531
_cell_formula_units_Z   1
loop_
 _symmetry_equiv_pos_site_id
 _symmetry_equiv_pos_as_xyz
  1  'x, y, z'
loop_
 _atom_site_type_symbol
 _atom_site_label
 _atom_site_symmetry_multiplicity
 _atom_site_fract_x
 _atom_site_fract_y
 _atom_site_fract_z
 _atom_site_occupancy
  F  F0  1  0.163566  0.163566  0.846607  1
  F  F1  1  0.104449  0.631635  0.749857  1
  F  F2  1  0.347903  0.935813  0.244285  1
  F  F3  1  0.631635  0.104449  0.749857  1
  F  F4  1  0.610513  0.610513  0.708198  1
  F  F5  1  0.935813  0.347903  0.244285  1
  F  F6  1  0.853370  0.853370  0.230007  1
  Na  Na7  1  0.240238  0.776109  0.516499  1
  Na  Na8  1  0.498232  0.498232  0.963213  1
  Na  Na9  1  0.776109  0.240238  0.516499  1
  U  U10  1  0.963173  0.963173  0.980694  1
