# generated using pymatgen
data_Co2SnO4
_symmetry_space_group_name_H-M   'P 1'
_cell_length_a   6.20532611
_cell_length_b   6.20532570
_cell_length_c   6.08441143
_cell_angle_alpha   60.64250535
_cell_angle_beta   60.64250753
_cell_angle_gamma   60.88412151
_symmetry_Int_Tables_number   1
_chemical_formula_structural   Co2SnO4
_chemical_formula_sum   'Co4 Sn2 O8'
_cell_volume   168.36693496
_cell_formula_units_Z   2
loop_
 _symmetry_equiv_pos_site_id
 _symmetry_equiv_pos_as_xyz
  1  'x, y, z'
loop_
 _atom_site_type_symbol
 _atom_site_label
 _atom_site_symmetry_multiplicity
 _atom_site_fract_x
 _atom_site_fract_y
 _atom_site_fract_z
 _atom_site_occupancy
  Co  Co0  1  0.012282  0.012282  0.987718  1
  Co  Co1  1  0.237718  0.237718  0.262282  1
  Co  Co2  1  0.625000  0.625000  0.125000  1
  Co  Co3  1  0.625000  0.625000  0.625000  1
  Sn  Sn4  1  0.125000  0.625000  0.625000  1
  Sn  Sn5  1  0.625000  0.125000  0.625000  1
  O  O6  1  0.377709  0.377709  0.388825  1
  O  O7  1  0.377709  0.377709  0.855757  1
  O  O8  1  0.377078  0.842452  0.390235  1
  O  O9  1  0.842452  0.377078  0.390235  1
  O  O10  1  0.407548  0.872922  0.859765  1
  O  O11  1  0.872922  0.407548  0.859765  1
  O  O12  1  0.872291  0.872291  0.394243  1
  O  O13  1  0.872291  0.872291  0.861175  1
