# generated using pymatgen
data_Ba3(SbO3)2
_symmetry_space_group_name_H-M   'P 1'
_cell_length_a   6.27341534
_cell_length_b   9.93202401
_cell_length_c   12.37227349
_cell_angle_alpha   104.93016523
_cell_angle_beta   90.39888117
_cell_angle_gamma   108.22224900
_symmetry_Int_Tables_number   1
_chemical_formula_structural   Ba3(SbO3)2
_chemical_formula_sum   'Ba9 Sb6 O18'
_cell_volume   704.28416806
_cell_formula_units_Z   3
loop_
 _symmetry_equiv_pos_site_id
 _symmetry_equiv_pos_as_xyz
  1  'x, y, z'
loop_
 _atom_site_type_symbol
 _atom_site_label
 _atom_site_symmetry_multiplicity
 _atom_site_fract_x
 _atom_site_fract_y
 _atom_site_fract_z
 _atom_site_occupancy
  O  O0  1  0.438183  0.157446  0.520462  1
  O  O1  1  0.561817  0.842554  0.479538  1
  O  O2  1  0.603679  0.326153  0.353094  1
  O  O3  1  0.396321  0.673847  0.646906  1
  O  O4  1  0.936176  0.252680  0.486152  1
  O  O5  1  0.063824  0.747321  0.513848  1
  O  O6  1  0.628872  0.291728  0.851382  1
  O  O7  1  0.371128  0.708272  0.148618  1
  O  O8  1  0.563049  0.578966  0.841379  1
  O  O9  1  0.436951  0.421034  0.158621  1
  O  O10  1  0.011329  0.565996  0.822271  1
  O  O11  1  0.795263  0.050394  0.157031  1
  O  O12  1  0.204737  0.949606  0.842969  1
  O  O13  1  0.266482  0.041149  0.141650  1
  O  O14  1  0.733518  0.958851  0.858350  1
  O  O15  1  0.970358  0.886248  0.280754  1
  O  O16  1  0.029642  0.113752  0.719246  1
  O  O17  1  0.988671  0.434004  0.177729  1
  Sb  Sb18  1  0.763637  0.505992  0.917743  1
  Sb  Sb19  1  0.236363  0.494008  0.082257  1
  Sb  Sb20  1  0.044883  0.096700  0.875245  1
  Sb  Sb21  1  0.955117  0.903300  0.124755  1
  Sb  Sb22  1  0.682985  0.333514  0.507949  1
  Sb  Sb23  1  0.317015  0.666486  0.492051  1
  Ba  Ba24  1  0.610730  0.211952  0.061741  1
  Ba  Ba25  1  0.217697  0.399733  0.702520  1
  Ba  Ba26  1  0.389270  0.788048  0.938259  1
  Ba  Ba27  1  0.782303  0.600267  0.297480  1
  Ba  Ba28  1  0.515884  0.036978  0.702402  1
  Ba  Ba29  1  0.484116  0.963022  0.297598  1
  Ba  Ba30  1  0.848118  0.722466  0.711161  1
  Ba  Ba31  1  0.151882  0.277534  0.288839  1
  Ba  Ba32  1  0.000000  0.000000  0.500000  1
