# generated using pymatgen
data_C3S8
_symmetry_space_group_name_H-M   'P 1'
_cell_length_a   4.99789709
_cell_length_b   9.37570933
_cell_length_c   12.56233040
_cell_angle_alpha   99.94975319
_cell_angle_beta   98.36243830
_cell_angle_gamma   90.58947899
_symmetry_Int_Tables_number   1
_chemical_formula_structural   C3S8
_chemical_formula_sum   'C6 S16'
_cell_volume   573.25901121
_cell_formula_units_Z   2
loop_
 _symmetry_equiv_pos_site_id
 _symmetry_equiv_pos_as_xyz
  1  'x, y, z'
loop_
 _atom_site_type_symbol
 _atom_site_label
 _atom_site_symmetry_multiplicity
 _atom_site_fract_x
 _atom_site_fract_y
 _atom_site_fract_z
 _atom_site_occupancy
  C  C0  1  0.694033  0.856824  0.791076  1
  C  C1  1  0.305967  0.143176  0.208924  1
  C  C2  1  0.658399  0.791631  0.683021  1
  C  C3  1  0.341601  0.208369  0.316979  1
  C  C4  1  0.369496  0.026588  0.688143  1
  C  C5  1  0.630504  0.973412  0.311857  1
  S  S6  1  0.186125  0.364769  0.375074  1
  S  S7  1  0.813875  0.635231  0.624926  1
  S  S8  1  0.378874  0.534196  0.327093  1
  S  S9  1  0.621126  0.465804  0.672907  1
  S  S10  1  0.164159  0.550991  0.176142  1
  S  S11  1  0.835841  0.449009  0.823858  1
  S  S12  1  0.296450  0.379719  0.071896  1
  S  S13  1  0.703550  0.620281  0.928104  1
  S  S14  1  0.096980  0.198422  0.099155  1
  S  S15  1  0.903020  0.801578  0.900845  1
  S  S16  1  0.522509  0.016212  0.820520  1
  S  S17  1  0.477491  0.983788  0.179480  1
  S  S18  1  0.446075  0.878674  0.593890  1
  S  S19  1  0.553925  0.121326  0.406110  1
  S  S20  1  0.172483  0.157331  0.656571  1
  S  S21  1  0.827517  0.842669  0.343429  1
