# generated using pymatgen
data_Y2U3O11
_symmetry_space_group_name_H-M   'P 1'
_cell_length_a   3.78342574
_cell_length_b   19.05259035
_cell_length_c   6.62995989
_cell_angle_alpha   29.54657528
_cell_angle_beta   55.20402264
_cell_angle_gamma   60.23491715
_symmetry_Int_Tables_number   1
_chemical_formula_structural   Y2U3O11
_chemical_formula_sum   'Y2 U3 O11'
_cell_volume   193.53326933
_cell_formula_units_Z   1
loop_
 _symmetry_equiv_pos_site_id
 _symmetry_equiv_pos_as_xyz
  1  'x, y, z'
loop_
 _atom_site_type_symbol
 _atom_site_label
 _atom_site_symmetry_multiplicity
 _atom_site_fract_x
 _atom_site_fract_y
 _atom_site_fract_z
 _atom_site_occupancy
  Y  Y0  1  1.000000  0.005811  0.985473  1
  Y  Y1  1  0.000000  0.194189  0.014527  1
  U  U2  1  0.000000  0.403653  0.990866  1
  U  U3  1  0.000000  0.600000  -0.000000  1
  U  U4  1  1.000000  0.796346  0.009134  1
  O  O5  1  0.236776  0.984983  0.300766  1
  O  O6  1  0.236776  0.215017  0.225681  1
  O  O7  1  0.763224  0.984983  0.774319  1
  O  O8  1  0.238299  0.398709  0.264929  1
  O  O9  1  0.763224  0.215017  0.699234  1
  O  O10  1  0.280667  0.600000  0.219333  1
  O  O11  1  0.761701  0.398709  0.741528  1
  O  O12  1  0.500000  0.600000  0.500000  1
  O  O13  1  0.238299  0.801291  0.258472  1
  O  O14  1  0.719333  0.600000  0.780667  1
  O  O15  1  0.761701  0.801291  0.735071  1
